#------------------------------------------------------------------------------
#$Date: 2021-04-26 20:55:38 +0300 (Mon, 26 Apr 2021) $
#$Revision: 264550 $
#$URL: file:///home/coder/svn-repositories/cod/cif/7/21/92/7219229.cif $
#------------------------------------------------------------------------------
#
# This file is available in the Crystallography Open Database (COD),
# http://www.crystallography.net/
#
# All data on this site have been placed in the public domain by the
# contributors.
#
data_7219229
loop_
_publ_author_name
'Gon\,calves, R. F.'
'Cavalcante, L. S.'
'Nogueira, I. C.'
'Longo, E.'
'Godinho, M. J.'
'Sczancoski, J. C.'
'Mastelaro, V. R.'
'Pinatti, I. M.'
'Rosa, I. L. V.'
'Marques, A. P. A.'
_publ_section_title
;
 Rietveld refinement, cluster modelling, growth mechanism and
 photoluminescence properties of CaWO4:Eu3+microcrystals
;
_journal_issue                   7
_journal_name_full               CrystEngComm
_journal_page_first              1654
_journal_paper_doi               10.1039/C4CE02279C
_journal_volume                  17
_journal_year                    2015
_chemical_compound_source        Scheelite
_chemical_formula_analytical     'Ca O4 W'
_chemical_formula_moiety         'Ca O4 W'
_chemical_formula_structural     'Ca O4 W'
_chemical_formula_sum            'Ca O4 W'
_chemical_formula_weight         287.93
_chemical_melting_point          1893
_chemical_name_common            'Calcium tungstate'
_space_group_IT_number           88
_symmetry_cell_setting           tetragonal
_symmetry_space_group_name_Hall  '-I 4ad'
_symmetry_space_group_name_H-M   'I 41/a :2'
_audit_creation_date             2014-08-13T15:00
_audit_creation_method           'from EXP file using GSAS2CIF'
_audit_update_record
;
2014-12-23 deposited with the CCDC.
2015-01-05 downloaded from the CCDC.
;
_cell_angle_alpha                90.0
_cell_angle_beta                 90.0
_cell_angle_gamma                90.0
_cell_formula_units_Z            4
_cell_length_a                   5.244797(30)
_cell_length_b                   5.244797
_cell_length_c                   11.38130(13)
_cell_measurement_temperature    298
_cell_volume                     313.076(4)
_computing_data_collection       Jade
_computing_data_reduction        Jade
_computing_structure_refinement  GSAS
_computing_structure_solution    xx
_diffrn_ambient_temperature      298
_diffrn_detector                 scintillation
_diffrn_detector_type            scintillation
_diffrn_measurement_device_type  'Rigaku AFC-7R'
_diffrn_radiation_monochromator  xx
_diffrn_radiation_polarisn_ratio 0.5
_diffrn_radiation_probe          x-ray
_diffrn_source                   Cu
_diffrn_source_target            Cu
_diffrn_source_type              Copper
_exptl_absorpt_correction_T_max  0.97047
_exptl_absorpt_correction_T_min  0.42588
_exptl_absorpt_process_details
;   GSAS Absorption/surface roughness correction: function number 3
 Surface roughness abs. correction (Suortti)
Terms =     0.78784E-01    0.19374    
Correction is refined.
;
_exptl_crystal_density_diffrn    6.12
_exptl_crystal_density_meas      6.12
_exptl_crystal_density_method    'not measured'
_exptl_crystal_F_000             276
_pd_block_id                     2014-08-13T15:00|CW_130|Icamira|Rigaku
_pd_calc_method                  'Rietveld Refinement'
_pd_char_colour                  white
_pd_char_particle_morphology     irregular
_pd_instr_location               ' ?'
_pd_meas_2theta_range_inc        0.02
_pd_meas_2theta_range_max        110.0
_pd_meas_2theta_range_min        10.0
_pd_meas_number_of_points        5001
_pd_meas_scan_method             disp
_pd_phase_name
'from C:/Ref_CaWO4/CW_130minn/EntryWithCollCode18135.cif'
_pd_prep_cool_rate               1
_pd_prep_pressure                100
_pd_prep_temperature             298
_pd_proc_2theta_range_inc        0.02
_pd_proc_2theta_range_max        110.0
_pd_proc_2theta_range_min        10.0
_pd_proc_info_data_reduction     Jade
_pd_proc_info_datetime           2013-03-13T15:00:52
_pd_proc_info_excluded_regions   ' ?'
_pd_proc_ls_background_function
;   GSAS Background function number 1 with 10 terms.
 Shifted Chebyshev function of 1st kind
      1:    247.831     2:   -123.827     3:    66.6697     4:   -3.80814    
      5:   -3.97580     6:    19.1322     7:    10.8374     8:   -26.3550    
      9:    30.7727    10:   -20.1864    
;
_pd_proc_ls_peak_cutoff          0.00030
_pd_proc_ls_profile_function
;
 CW Profile function number 4 with  17 terms
 Pseudovoigt profile coefficients as parameterized in
 P. Thompson, D.E. Cox & J.B. Hastings (1987). J. Appl. Cryst.,20,79-83.
 Asymmetry correction of L.W. Finger, D.E. Cox & A. P. Jephcoat (1994).
 J. Appl. Cryst.,27,892-900.
 Microstrain broadening by P.W. Stephens,  (1999). J. Appl. Cryst.,32,281-289.
 Peak tails are ignored  where the intensity is below 0.0003 times the peak
   Aniso. broadening axis   0.0   0.0   1.0
;
_pd_proc_number_of_points        5001
_pd_spec_mounting                ' ?'
_refine_ls_goodness_of_fit_all   1.95
_refine_ls_goodness_of_fit_ref   1.95
_refine_ls_matrix_type           full
_refine_ls_number_parameters     19
_refine_ls_number_restraints     0
_refine_ls_R_factor_all          0.0500
_refine_ls_R_factor_gt           0.0342
_refine_ls_R_Fsqd_factor         0.02583
_refine_ls_shift/su_max          0.07
_refine_ls_shift/su_mean         0.02
_refine_ls_wR_factor_gt          0.0666
_reflns_d_resolution_high        0.943
_reflns_d_resolution_low         4.763
_reflns_limit_h_max              5
_reflns_limit_h_min              0
_reflns_limit_k_max              5
_reflns_limit_k_min              0
_reflns_limit_l_max              12
_reflns_limit_l_min              0
_reflns_number_total             204
_cod_data_source_file            c4ce02279c2.cif
_cod_data_source_block           CW_130_publ
_cod_depositor_comments
;
The following automatic conversions were performed:

'_geom_bond_publ_flag' value 'N' changed to 'n' according to
/usr/data/users/saulius/crontab/automatic-downloads/rss-feeds/RSC/lib/dictionaries/cif_core.dic
dictionary named 'cif_core.dic' version 2.4.2 from 2011-04-26 (22
times).

'_geom_angle_publ_flag' value 'N' changed to 'n' according
to
/usr/data/users/saulius/crontab/automatic-downloads/rss-feeds/RSC/lib/dictionaries/cif_core.dic
dictionary named 'cif_core.dic' version 2.4.2 from 2011-04-26 (48
times).

Automatic conversion script
Id: cif_fix_values 2935 2014-11-11 08:27:57Z andrius 

 Adding full bibliography for 7219229--7219232.cif.

 Removed the _chemical_name_systematic data item since
 it had an incorrect value 'xx'.

 Antanas Vaitkus,
 2021-04-26
;
_cod_original_cell_volume        313.076(5)
_cod_original_sg_symbol_Hall     -I4ad
_cod_original_sg_symbol_H-M      'I 41/a'
_cod_database_code               7219229
loop_
_symmetry_equiv_pos_site_id
_symmetry_equiv_pos_as_xyz
1 +x,+y,+z
2 -y+3/4,+x+1/4,+z+1/4
3 -x+1/2,-y,+z+1/2
4 +y+3/4,-x+3/4,+z+3/4
-1 -x,-y,-z
-2 +y+1/4,-x+3/4,-z+3/4
-3 +x+1/2,+y,-z+1/2
-4 -y+1/4,+x+1/4,-z+1/4
101 +x+1/2,+y+1/2,+z+1/2
102 -y+1/4,+x+3/4,+z+3/4
103 -x,-y+1/2,+z
104 +y+1/4,-x+1/4,+z+1/4
-101 -x+1/2,-y+1/2,-z+1/2
-102 +y+3/4,-x+1/4,-z+1/4
-103 +x,+y+1/2,-z
-104 -y+3/4,+x+3/4,-z+3/4
loop_
_atom_site_type_symbol
_atom_site_label
_atom_site_fract_x
_atom_site_fract_y
_atom_site_fract_z
_atom_site_occupancy
_atom_site_thermal_displace_type
_atom_site_U_iso_or_equiv
_atom_site_symmetry_multiplicity
Ca Ca1 0.0 0.25 0.625 1.0 Uiso 0.01225 4
W W1 0.0 0.25 0.125 1.0 Uiso 0.01098 4
O O1 0.15202 0.01135 0.20864 1.0 Uiso 0.02571 16
loop_
_atom_type_symbol
_atom_type_number_in_cell
_atom_type_scat_dispersion_real
_atom_type_scat_dispersion_imag
_atom_type_scat_Cromer_Mann_a1
_atom_type_scat_Cromer_Mann_a2
_atom_type_scat_Cromer_Mann_a3
_atom_type_scat_Cromer_Mann_a4
_atom_type_scat_Cromer_Mann_b1
_atom_type_scat_Cromer_Mann_b2
_atom_type_scat_Cromer_Mann_b3
_atom_type_scat_Cromer_Mann_b4
_atom_type_scat_Cromer_Mann_c
_atom_type_scat_source
Ca 4.0 0.000 0.000 15.6348 -0.0074 7.95180 0.60890 8.43720 10.3116 0.85370
25.9905 -14.875 International_Tables_Vol_C
W 4.0 0.000 0.000 29.4936 1.42755 19.3763 0.10462 13.0544 5.93667 5.06412
11.1972 1.01074 International_Tables_Vol_C
O 16.0 0.000 0.000 3.76936 15.0797 2.53342 6.30430 1.91579 40.3445 1.55094
0.31291 0.22789 International_Tables_Vol_C
loop_
_diffrn_radiation_wavelength
_diffrn_radiation_wavelength_wt
_diffrn_radiation_type
_diffrn_radiation_wavelength_id
1.540500 1.000 CuK\a 1
1.544300 0.500 CuK\a 2
loop_
_geom_angle_atom_site_label_1
_geom_angle_atom_site_label_2
_geom_angle_atom_site_label_3
_geom_angle
_geom_angle_site_symmetry_1
_geom_angle_site_symmetry_3
_geom_angle_publ_flag
Ca1 Ca1 Ca1 85.3305(7) 2_455 2_555 n
Ca1 Ca1 Ca1 122.7315(4) 2_455 4_444 n
Ca1 Ca1 Ca1 122.7315(4) 2_455 4_454 n
Ca1 Ca1 O1 100.8119(7) 2_455 2_455 n
Ca1 Ca1 O1 102.5389(5) 2_455 3_555 n
Ca1 Ca1 O1 38.50820(30) 2_455 -1_556 n
Ca1 Ca1 O1 131.19920(10) 2_455 -2_555 n
Ca1 Ca1 O1 38.4473 2_455 101_455 n
Ca1 Ca1 O1 84.6867(5) 2_455 -104_445 n
Ca1 Ca1 Ca1 122.7315(4) 2_555 4_444 n
Ca1 Ca1 Ca1 122.7315(4) 2_555 4_454 n
Ca1 Ca1 O1 160.02991(10) 2_555 2_455 n
Ca1 Ca1 O1 38.4473 2_555 3_555 n
Ca1 Ca1 O1 69.8220(6) 2_555 -1_556 n
Ca1 Ca1 O1 84.6867(5) 2_555 -2_555 n
Ca1 Ca1 O1 102.5389(5) 2_555 101_455 n
Ca1 Ca1 O1 131.19920(10) 2_555 -104_445 n
Ca1 Ca1 Ca1 85.3305(7) 4_444 4_454 n
Ca1 Ca1 O1 69.8220(6) 4_444 2_455 n
Ca1 Ca1 O1 84.6867(5) 4_444 3_555 n
Ca1 Ca1 O1 100.8119(7) 4_444 -1_556 n
Ca1 Ca1 O1 102.5389(5) 4_444 -2_555 n
Ca1 Ca1 O1 131.19920(10) 4_444 101_455 n
Ca1 Ca1 O1 38.4473 4_444 -104_445 n
Ca1 Ca1 O1 38.50820(30) 4_454 2_455 n
Ca1 Ca1 O1 131.19920(10) 4_454 3_555 n
Ca1 Ca1 O1 160.02991(10) 4_454 -1_556 n
Ca1 Ca1 O1 38.4473 4_454 -2_555 n
Ca1 Ca1 O1 84.6867(5) 4_454 101_455 n
Ca1 Ca1 O1 69.8220(6) 4_454 104_333 n
Ca1 Ca1 O1 102.5389(5) 4_454 -104_445 n
O1 Ca1 O1 76.95560(30) 2_455 -2_555 n
O1 Ca1 O1 72.9359(6) 2_455 101_455 n
O1 Ca1 O1 68.62470(30) 2_455 -104_445 n
O1 Ca1 O1 68.62470(30) 3_555 -1_556 n
O1 Ca1 O1 98.52040(20) 3_555 -2_555 n
O1 Ca1 O1 134.7229(5) 3_555 101_455 n
O1 Ca1 O1 98.52030(20) 3_555 -104_445 n
O1 Ca1 O1 152.08270(10) -1_556 -2_555 n
O1 Ca1 O1 76.95560(30) -1_556 101_455 n
O1 Ca1 O1 72.9359(6) -1_556 -104_445 n
O1 Ca1 O1 98.52040(20) -2_555 101_455 n
O1 Ca1 O1 134.7229(5) -2_555 -104_445 n
O1 Ca1 O1 98.52030(20) 101_455 -104_445 n
O1 W1 O1 106.94830(30) 1_555 -4_555 n
Ca1 O1 Ca1 103.04440(30) 3_554 4_444 n
Ca1 O1 W1 121.2923(6) 3_554 1_555 n
Ca1 O1 W1 131.44780(20) 4_444 1_555 n
loop_
_geom_bond_atom_site_label_1
_geom_bond_atom_site_label_2
_geom_bond_distance
_geom_bond_site_symmetry_2
_geom_bond_publ_flag
Ca1 Ca1 3.869480(30) 2_455 n
Ca1 Ca1 3.869480(30) 2_555 n
Ca1 Ca1 3.869480(30) 4_444 n
Ca1 Ca1 3.869480(30) 4_454 n
Ca1 W1 3.708630(20) 3_455 n
Ca1 W1 3.708630(20) 3_465 n
Ca1 W1 3.708630(20) 3_555 n
Ca1 W1 3.708630(20) 3_565 n
Ca1 O1 2.469750(20) 2_455 n
Ca1 O1 2.469750(20) -1_556 n
Ca1 O1 2.473060(10) 101_455 n
Ca1 O1 2.469750(20) 104_555 n
W1 Ca1 3.708630(20) 3_454 n
W1 Ca1 3.708630(20) 3_464 n
W1 Ca1 3.708630(20) 3_554 n
W1 Ca1 3.708630(20) 3_564 n
W1 O1 1.763090(10) 1_555 n
W1 O1 1.763090(10) -4_555 n
W1 O1 1.763090(10) 103_555 n
O1 Ca1 2.473060(10) 3_554 n
O1 Ca1 2.469750(20) 4_444 n
O1 W1 1.763090(10) 1_555 n
loop_
_pd_meas_counts_total
_pd_proc_ls_weight
_pd_proc_intensity_bkg_calc
_pd_calc_intensity_total
455.0 0.002198 507.17932 507.10483
432.0 0.002315 505.11984 505.04611
442.0 0.002262 503.07730 503.00436
480.0 0.002083 501.05154 500.97937
461.0 0.002169 499.04266 498.97125
477.0 0.002096 497.05038 496.97974
482.0 0.002075 495.07480 495.00488
481.0 0.002079 493.11557 493.04642
435.0 0.002299 491.17288 491.10446
480.0 0.002083 489.24652 489.17883
438.0 0.002283 487.33643 487.26950
467.0 0.002141 485.44238 485.37616
438.0 0.002283 483.56458 483.49905
467.0 0.002141 481.70267 481.63788
454.0 0.002203 479.85675 479.79266
462.0 0.002165 478.02658 477.96320
455.0 0.002198 476.21225 476.14960
417.0 0.002398 474.41351 474.35153
437.0 0.002288 472.63043 472.56915
447.0 0.002237 470.86279 470.80222
480.0 0.002083 469.11063 469.05072
470.0 0.002128 467.37372 467.31451
459.0 0.002179 465.65219 465.59366
429.0 0.002331 463.94577 463.88788
448.0 0.002232 462.25446 462.19724
438.0 0.002283 460.57809 460.52155
439.0 0.002278 458.91672 458.86081
465.0 0.002151 457.27026 457.21500
461.0 0.002169 455.63846 455.58383
455.0 0.002198 454.02145 453.96747
440.0 0.002273 452.41901 452.36566
413.0 0.002421 450.83115 450.77841
452.0 0.002212 449.25772 449.20563
448.0 0.002232 447.69870 447.64725
423.0 0.002364 446.15390 446.10306
436.0 0.002294 444.62341 444.57318
453.0 0.002208 443.10703 443.05740
428.0 0.002336 441.60480 441.55576
414.0 0.002415 440.11646 440.06802
448.0 0.002232 438.64209 438.59427
401.0 0.002494 437.18155 437.13431
426.0 0.002347 435.73483 435.68817
418.0 0.002392 434.30170 434.25562
452.0 0.002212 432.88226 432.83676
418.0 0.002392 431.47632 431.43140
462.0 0.002165 430.08392 430.03955
443.0 0.002257 428.70480 428.66101
454.0 0.002203 427.33905 427.29581
464.0 0.002155 425.98654 425.94385
442.0 0.002262 424.64722 424.60510
385.0 0.002597 423.32098 423.27939
425.0 0.002353 422.00772 421.96667
419.0 0.002387 420.70746 420.66696
419.0 0.002387 419.42004 419.38007
409.0 0.002445 418.14548 418.10605
401.0 0.002494 416.88358 416.84467
405.0 0.002469 415.63440 415.59601
407.0 0.002457 414.39777 414.35989
429.0 0.002331 413.17371 413.13635
422.0 0.002370 411.96201 411.92517
430.0 0.002326 410.76276 410.72644
419.0 0.002387 409.57574 409.53995
423.0 0.002364 408.40103 408.36572
452.0 0.002212 407.23846 407.20364
412.0 0.002427 406.08795 406.05362
408.0 0.002451 404.94949 404.91565
424.0 0.002358 403.82300 403.78964
383.0 0.002611 402.70837 402.67551
403.0 0.002481 401.60559 401.57321
396.0 0.002525 400.51453 400.48257
428.0 0.002336 399.43515 399.40369
428.0 0.002336 398.36737 398.33636
421.0 0.002375 397.31119 397.28067
422.0 0.002370 396.26642 396.23633
442.0 0.002262 395.23309 395.20349
446.0 0.002242 394.21112 394.18195
387.0 0.002584 393.20035 393.17163
426.0 0.002347 392.20090 392.17261
400.0 0.002500 391.21249 391.18466
415.0 0.002410 390.23523 390.20782
391.0 0.002558 389.26898 389.24200
385.0 0.002597 388.31369 388.28714
438.0 0.002283 387.36920 387.34308
393.0 0.002545 386.43558 386.40988
421.0 0.002375 385.51273 385.48743
431.0 0.002320 384.60056 384.57568
395.0 0.002532 383.69894 383.67447
415.0 0.002410 382.80798 382.78394
419.0 0.002387 381.92746 381.90381
406.0 0.002463 381.05740 381.03415
390.0 0.002564 380.19766 380.17480
409.0 0.002445 379.34827 379.32581
417.0 0.002398 378.50909 378.48703
392.0 0.002551 377.68011 377.65845
415.0 0.002410 376.86124 376.83994
391.0 0.002558 376.05243 376.03152
433.0 0.002309 375.25360 375.23309
428.0 0.002336 374.46472 374.44458
369.0 0.002710 373.68573 373.66595
391.0 0.002558 372.91656 372.89716
386.0 0.002591 372.15707 372.13800
351.0 0.002849 371.40729 371.38861
364.0 0.002747 370.66718 370.64883
394.0 0.002538 369.93655 369.91858
359.0 0.002786 369.21552 369.19791
418.0 0.002392 368.50391 368.48663
409.0 0.002445 367.80173 367.78479
370.0 0.002703 367.10876 367.09219
370.0 0.002703 366.42517 366.40894
430.0 0.002326 365.75073 365.73483
380.0 0.002632 365.08551 365.06995
358.0 0.002793 364.42932 364.41409
407.0 0.002457 363.78220 363.76730
392.0 0.002551 363.14404 363.12949
404.0 0.002475 362.51486 362.50058
382.0 0.002618 361.89447 361.88055
362.0 0.002762 361.28293 361.26932
377.0 0.002653 360.68011 360.66681
370.0 0.002703 360.08600 360.07300
390.0 0.002564 359.50052 359.48782
349.0 0.002865 358.92365 358.91125
394.0 0.002538 358.35526 358.34317
425.0 0.002353 357.79535 357.78357
374.0 0.002674 357.24387 357.23239
393.0 0.002545 356.70078 356.68958
369.0 0.002710 356.16592 356.15503
384.0 0.002604 355.63934 355.62872
398.0 0.002513 355.12097 355.11066
386.0 0.002591 354.61072 354.60068
375.0 0.002667 354.10858 354.09882
371.0 0.002695 353.61444 353.60495
369.0 0.002710 353.12830 353.11908
358.0 0.002793 352.65005 352.64111
368.0 0.002717 352.17972 352.17105
365.0 0.002740 351.71716 351.70877
372.0 0.002688 351.26239 351.25424
325.0 0.003077 350.81534 350.80746
377.0 0.002653 350.37592 350.36832
386.0 0.002591 349.94409 349.93674
387.0 0.002584 349.51987 349.51276
373.0 0.002681 349.10312 349.09628
341.0 0.002933 348.69385 348.68726
340.0 0.002941 348.29193 348.28558
379.0 0.002639 347.89740 347.89130
400.0 0.002500 347.51013 347.50427
384.0 0.002604 347.13013 347.12451
356.0 0.002809 346.75732 346.75195
376.0 0.002660 346.39169 346.38654
346.0 0.002890 346.03311 346.02820
347.0 0.002882 345.68158 345.67691
364.0 0.002747 345.33707 345.33258
337.0 0.002967 344.99945 344.99521
351.0 0.002849 344.66876 344.66476
337.0 0.002967 344.34494 344.34113
322.0 0.003106 344.02789 344.02432
350.0 0.002857 343.71759 343.71423
346.0 0.002890 343.41400 343.41086
365.0 0.002740 343.11707 343.11414
342.0 0.002924 342.82675 342.82404
386.0 0.002591 342.54297 342.54047
378.0 0.002646 342.26569 342.26340
344.0 0.002907 341.99487 341.99277
372.0 0.002688 341.73050 341.72861
362.0 0.002762 341.47247 341.47076
314.0 0.003185 341.22079 341.21927
378.0 0.002646 340.97534 340.97400
353.0 0.002833 340.73615 340.73502
361.0 0.002770 340.50311 340.50217
339.0 0.002950 340.27621 340.27545
357.0 0.002801 340.05542 340.05484
352.0 0.002841 339.84064 339.84024
360.0 0.002778 339.63187 339.63168
377.0 0.002653 339.42908 339.42905
344.0 0.002907 339.23215 339.23230
330.0 0.003030 339.04111 339.04144
347.0 0.002882 338.85587 338.85635
353.0 0.002833 338.67642 338.67709
333.0 0.003003 338.50269 338.50354
373.0 0.002681 338.33463 338.33563
312.0 0.003205 338.17221 338.17340
347.0 0.002882 338.01541 338.01672
354.0 0.002825 337.86417 337.86566
365.0 0.002740 337.71838 337.72003
342.0 0.002924 337.57809 337.57990
330.0 0.003030 337.44321 337.44519
348.0 0.002874 337.31375 337.31586
353.0 0.002833 337.18958 337.19183
335.0 0.002985 337.07071 337.07315
316.0 0.003165 336.95709 336.95966
340.0 0.002941 336.84869 336.85141
328.0 0.003049 336.74548 336.74832
349.0 0.002865 336.64737 336.65036
352.0 0.002841 336.55435 336.55750
315.0 0.003175 336.46637 336.46967
353.0 0.002833 336.38339 336.38681
381.0 0.002625 336.30539 336.30893
390.0 0.002564 336.23227 336.23596
320.0 0.003125 336.16403 336.16785
371.0 0.002695 336.10065 336.10458
342.0 0.002924 336.04208 336.04614
340.0 0.002941 335.98822 335.99243
347.0 0.002882 335.93912 335.94345
328.0 0.003049 335.89471 335.89914
401.0 0.002494 335.85489 335.85947
339.0 0.002950 335.81970 335.82437
361.0 0.002770 335.78906 335.79385
357.0 0.002801 335.76294 335.76788
306.0 0.003268 335.74130 335.74634
397.0 0.002519 335.72412 335.72925
392.0 0.002551 335.71130 335.71655
333.0 0.003003 335.70291 335.70828
359.0 0.002786 335.69879 335.70428
364.0 0.002747 335.69901 335.70459
361.0 0.002770 335.70343 335.70914
347.0 0.002882 335.71210 335.71790
316.0 0.003165 335.72495 339.22510
338.0 0.002959 335.74191 339.27502
359.0 0.002786 335.76297 341.06723
343.0 0.002915 335.78812 341.14261
385.0 0.002597 335.81729 341.22272
312.0 0.003205 335.85043 341.30756
338.0 0.002959 335.88754 341.39706
330.0 0.003030 335.92859 341.49130
332.0 0.003012 335.97351 341.59015
338.0 0.002959 336.02225 341.69363
338.0 0.002959 336.07483 341.80173
352.0 0.002841 336.13116 341.91440
336.0 0.002976 336.19125 342.03165
341.0 0.002933 336.25504 342.15347
342.0 0.002924 336.32251 342.27982
339.0 0.002950 336.39359 342.41068
364.0 0.002747 336.46826 342.54602
319.0 0.003135 336.54651 342.68591
347.0 0.002882 336.62830 342.83020
325.0 0.003077 336.71359 342.97897
349.0 0.002865 336.80231 343.13217
368.0 0.002717 336.89447 343.28979
358.0 0.002793 336.99005 343.45184
337.0 0.002967 337.08896 343.61829
313.0 0.003195 337.19119 343.78909
341.0 0.002933 337.29672 343.96432
325.0 0.003077 337.40552 344.14386
334.0 0.002994 337.51755 344.32782
362.0 0.002762 337.63275 344.51608
358.0 0.002793 337.75113 344.70868
333.0 0.003003 337.87262 344.90564
361.0 0.002770 337.99722 345.10690
326.0 0.003067 338.12488 345.31250
338.0 0.002959 338.25555 345.52243
371.0 0.002695 338.38925 345.73666
359.0 0.002786 338.52591 345.95523
346.0 0.002890 338.66550 346.17804
309.0 0.003236 338.80798 346.40521
330.0 0.003030 338.95337 346.63666
308.0 0.003247 339.10156 346.87244
355.0 0.002817 339.25256 347.11255
328.0 0.003049 339.40637 347.35693
317.0 0.003155 339.56293 347.60571
328.0 0.003049 339.72217 347.85876
336.0 0.002976 339.88412 348.11615
302.0 0.003311 340.04871 348.37793
336.0 0.002976 340.21594 348.64398
376.0 0.002660 340.38577 348.91446
306.0 0.003268 340.55817 349.18930
321.0 0.003115 340.73309 349.46857
344.0 0.002907 340.91052 349.75217
313.0 0.003195 341.09045 350.04025
362.0 0.002762 341.27280 350.33279
338.0 0.002959 341.45758 350.62976
353.0 0.002833 341.64478 350.93124
313.0 0.003195 341.83429 351.23721
350.0 0.002857 342.02615 351.54773
367.0 0.002725 342.22034 351.86279
313.0 0.003195 342.41678 352.18246
319.0 0.003135 342.61548 352.50677
353.0 0.002833 342.81638 352.83572
348.0 0.002874 343.01950 353.16940
371.0 0.002695 343.22476 353.50778
354.0 0.002825 343.43219 353.85092
332.0 0.003012 343.64169 354.19888
354.0 0.002825 343.85327 354.55173
344.0 0.002907 344.06693 354.90939
346.0 0.002890 344.28259 355.27213
345.0 0.002899 344.50027 355.63983
368.0 0.002717 344.71991 356.01260
342.0 0.002924 344.94150 356.39044
335.0 0.002985 345.16501 356.77356
307.0 0.003257 345.39038 357.16183
352.0 0.002841 345.61768 357.55551
334.0 0.002994 345.84680 357.95456
347.0 0.002882 346.07770 358.35907
331.0 0.003021 346.31042 358.76913
347.0 0.002882 346.54489 359.18478
311.0 0.003215 346.78110 359.60620
351.0 0.002849 347.01901 360.03342
357.0 0.002801 347.25864 360.46655
363.0 0.002755 347.49991 360.90570
342.0 0.002924 347.74280 361.35089
356.0 0.002809 347.98730 361.80240
325.0 0.003077 348.23340 362.26022
353.0 0.002833 348.48105 362.72455
333.0 0.003003 348.73026 363.19540
344.0 0.002907 348.98099 363.67300
375.0 0.002667 349.23315 364.15750
345.0 0.002899 349.48682 364.64902
335.0 0.002985 349.74191 365.14767
333.0 0.003003 349.99841 365.65366
330.0 0.003030 350.25632 366.16718
341.0 0.002933 350.51559 366.68839
355.0 0.002817 350.77621 367.21741
371.0 0.002695 351.03815 367.75452
351.0 0.002849 351.30136 368.29990
338.0 0.002959 351.56589 368.85373
347.0 0.002882 351.83163 369.41629
379.0 0.002639 352.09863 369.98776
345.0 0.002899 352.36679 370.56845
366.0 0.002732 352.63617 371.15854
344.0 0.002907 352.90674 371.75839
375.0 0.002667 353.17841 372.36823
385.0 0.002597 353.45117 372.98831
372.0 0.002688 353.72507 373.61905
409.0 0.002445 354.00003 374.26074
380.0 0.002632 354.27603 374.91367
350.0 0.002857 354.55304 375.57828
345.0 0.002899 354.83109 376.25488
382.0 0.002618 355.11011 376.94391
362.0 0.002762 355.39011 377.64581
399.0 0.002506 355.67102 378.36102
342.0 0.002924 355.95285 379.08994
355.0 0.002817 356.23560 379.83313
378.0 0.002646 356.51923 380.59103
345.0 0.002899 356.80371 381.36426
372.0 0.002688 357.08902 382.15335
357.0 0.002801 357.37515 382.95892
361.0 0.002770 357.66208 383.78162
363.0 0.002755 357.94980 384.62207
367.0 0.002725 358.23822 385.48096
367.0 0.002725 358.52744 386.35916
362.0 0.002762 358.81735 387.25732
424.0 0.002358 359.10794 388.17636
338.0 0.002959 359.39920 389.11710
357.0 0.002801 359.69113 390.08047
382.0 0.002618 359.98373 391.06754
350.0 0.002857 360.27692 392.07928
379.0 0.002639 360.57068 393.11676
384.0 0.002604 360.86502 394.18124
390.0 0.002564 361.15997 395.27393
371.0 0.002695 361.45544 396.39612
387.0 0.002584 361.75140 397.54926
385.0 0.002597 362.04788 398.73477
367.0 0.002725 362.34485 399.95428
369.0 0.002710 362.64230 401.20950
420.0 0.002381 362.94019 402.50217
389.0 0.002571 363.23846 403.83423
398.0 0.002513 363.53717 405.20770
384.0 0.002604 363.83630 406.62482
380.0 0.002632 364.13577 408.08783
381.0 0.002625 364.43558 409.59921
378.0 0.002646 364.73578 411.16174
385.0 0.002597 365.03625 412.77817
370.0 0.002703 365.33707 414.45160
384.0 0.002604 365.63812 416.18533
423.0 0.002364 365.93948 417.98279
422.0 0.002370 366.24109 419.84787
397.0 0.002519 366.54294 421.78464
383.0 0.002611 366.84497 423.79742
383.0 0.002611 367.14722 425.89099
413.0 0.002421 367.44968 428.07050
411.0 0.002433 367.75229 430.34146
376.0 0.002660 368.05502 432.70978
435.0 0.002299 368.35791 435.18207
404.0 0.002475 368.66089 437.76529
428.0 0.002336 368.96402 440.46713
446.0 0.002242 369.26715 443.29590
432.0 0.002315 369.57043 446.26065
416.0 0.002404 369.87372 449.37128
426.0 0.002347 370.17709 452.63864
413.0 0.002421 370.48047 456.07449
394.0 0.002538 370.78378 459.69180
408.0 0.002451 371.08716 463.50488
448.0 0.002232 371.39047 467.52936
427.0 0.002342 371.69379 471.78247
437.0 0.002288 371.99698 476.28326
450.0 0.002222 372.30014 481.05289
453.0 0.002208 372.60324 486.11465
456.0 0.002193 372.90619 491.49451
475.0 0.002105 373.20901 497.22131
489.0 0.002045 373.51175 503.32742
465.0 0.002151 373.81433 509.84879
462.0 0.002165 374.11673 516.82587
488.0 0.002049 374.41895 524.30402
467.0 0.002141 374.72101 532.33466
505.0 0.001980 375.02286 540.97552
520.0 0.001923 375.32446 550.29236
522.0 0.001916 375.62582 560.35974
491.0 0.002037 375.92697 571.26300
524.0 0.001908 376.22787 583.09961
548.0 0.001825 376.52847 595.98175
539.0 0.001855 376.82877 610.03876
566.0 0.001767 377.12878 625.42047
569.0 0.001757 377.42850 642.30115
617.0 0.001621 377.72784 660.88440
631.0 0.001585 378.02689 681.40918
643.0 0.001555 378.32553 704.15747
675.0 0.001481 378.62384 729.46381
640.0 0.001563 378.92178 757.72705
692.0 0.001445 379.21930 789.42639
789.0 0.001267 379.51639 825.14142
862.0 0.001160 379.81311 865.58093
921.0 0.001086 380.10938 911.62451
935.0 0.001070 380.40518 964.38922
1035.0 0.000966 380.70053 1025.34546
1244.0 0.000804 380.99542 1096.52588
1357.0 0.000737 381.28983 1180.90771
1521.0 0.000657 381.58374 1283.08667
1721.0 0.000581 381.87711 1410.39856
1971.0 0.000507 382.16998 1574.62378
2361.0 0.000424 382.46234 1794.28662
2882.0 0.0003470 382.75415 2097.26367
3347.0 0.0002988 383.04538 2522.94434
4059.0 0.0002464 383.33606 3122.65869
4926.0 0.0002030 383.62616 3956.76904
5855.0 0.0001708 383.91568 5087.04004
7010.0 0.0001427 384.20456 6563.71094
8688.0 0.0001151 384.49286 8407.61328
10339.0 0.0000967 384.78052 10587.39160
12149.0 0.0000823 385.06757 12990.22363
13871.0 0.0000721 385.35394 15387.56152
15838.0 0.0000631 385.63965 17422.53516
16993.0 0.0000588 385.92471 18685.94336
17557.0 0.0000570 386.20911 18897.72070
17343.0 0.0000577 386.49277 18041.60938
16522.0 0.0000605 386.77576 16331.96191
14890.0 0.0000672 387.05801 14106.09180
13050.0 0.0000766 387.33957 11716.55566
10426.0 0.0000959 387.62036 9440.56934
8407.0 0.0001189 387.90042 7444.82471
6479.0 0.0001543 388.17975 5799.83838
4965.0 0.0002014 388.45828 4509.31152
3713.0 0.0002693 388.73608 3536.67432
2673.0 0.000374 389.01303 2825.84253
2099.0 0.000476 389.28925 2316.43115
1622.0 0.000617 389.56464 1953.57214
1431.0 0.000699 389.83920 1692.79065
1227.0 0.000815 390.11292 1501.06006
1062.0 0.000942 390.38583 1355.49976
895.0 0.001117 390.65793 1241.07349
923.0 0.001083 390.92914 1148.22974
847.0 0.001181 391.19946 1070.96948
793.0 0.001261 391.46896 1005.47003
742.0 0.001348 391.73755 949.20026
696.0 0.001437 392.00528 900.39325
668.0 0.001497 392.27209 857.74805
628.0 0.001592 392.53796 820.26318
644.0 0.001553 392.80295 787.14417
653.0 0.001531 393.06702 757.74664
669.0 0.001495 393.33014 731.54181
613.0 0.001631 393.59229 708.09100
562.0 0.001779 393.85352 687.02808
606.0 0.001650 394.11377 668.04517
565.0 0.001770 394.37308 650.88196
563.0 0.001776 394.63138 635.31744
541.0 0.001848 394.88870 621.16290
551.0 0.001815 395.14505 608.25653
609.0 0.001642 395.40036 596.45874
502.0 0.001992 395.65466 585.64886
541.0 0.001848 395.90796 575.72229
516.0 0.001938 396.16022 566.58752
508.0 0.001969 396.41144 558.16486
490.0 0.002041 396.66162 550.38403
536.0 0.001866 396.91077 543.18335
509.0 0.001965 397.15881 536.50818
489.0 0.002045 397.40585 530.31036
546.0 0.001832 397.65173 524.54688
520.0 0.001923 397.89661 519.17950
488.0 0.002049 398.14038 514.17413
530.0 0.001887 398.38303 509.50015
508.0 0.001969 398.62460 505.13016
498.0 0.002008 398.86502 501.03949
464.0 0.002155 399.10437 497.20590
501.0 0.001996 399.34256 493.60928
467.0 0.002141 399.57965 490.23160
508.0 0.001969 399.81555 487.05618
483.0 0.002070 400.05032 484.06824
468.0 0.002137 400.28397 481.25403
465.0 0.002151 400.51645 478.60123
482.0 0.002075 400.74771 476.09842
480.0 0.002083 400.97784 473.73535
524.0 0.001908 401.20682 471.50235
471.0 0.002123 401.43457 469.39090
482.0 0.002075 401.66113 467.39282
459.0 0.002179 401.88651 465.50085
491.0 0.002037 402.11066 463.70819
499.0 0.002004 402.33362 462.00858
504.0 0.001984 402.55533 460.39621
472.0 0.002119 402.77582 458.86578
478.0 0.002092 402.99512 457.41232
482.0 0.002075 403.21317 456.03122
494.0 0.002024 403.42993 454.71823
465.0 0.002151 403.64548 453.46942
427.0 0.002342 403.85980 452.28116
484.0 0.002066 404.07281 451.14987
470.0 0.002128 404.28461 450.07254
449.0 0.002227 404.49509 449.04605
490.0 0.002041 404.70432 448.06775
455.0 0.002198 404.91223 447.13489
480.0 0.002083 405.11890 446.24515
443.0 0.002257 405.32425 445.39621
482.0 0.002075 405.52829 444.58600
458.0 0.002183 405.73108 443.81244
459.0 0.002179 405.93253 443.07373
454.0 0.002203 406.13263 442.36798
469.0 0.002132 406.33145 441.69366
472.0 0.002119 406.52896 441.04919
452.0 0.002212 406.72513 440.43304
492.0 0.002033 406.91992 439.84393
465.0 0.002151 407.11343 439.28046
432.0 0.002315 407.30557 438.74136
469.0 0.002132 407.49637 438.22565
467.0 0.002141 407.68582 437.73206
409.0 0.002445 407.87390 437.25961
465.0 0.002151 408.06064 436.80734
455.0 0.002198 408.24600 436.37433
445.0 0.002247 408.42999 435.95966
483.0 0.002070 408.61261 435.56247
454.0 0.002203 408.79385 435.18204
460.0 0.002174 408.97372 434.81760
451.0 0.002217 409.15216 434.46841
487.0 0.002053 409.32922 434.13382
456.0 0.002193 409.50491 433.81317
422.0 0.002370 409.67920 433.50589
448.0 0.002232 409.85208 433.21133
438.0 0.002283 410.02356 432.92899
421.0 0.002375 410.19360 432.65833
445.0 0.002247 410.36224 432.39883
451.0 0.002217 410.52948 432.15002
424.0 0.002358 410.69528 431.91144
416.0 0.002404 410.85965 431.68271
442.0 0.002262 411.02258 431.46335
446.0 0.002242 411.18411 431.25296
467.0 0.002141 411.34418 431.05118
464.0 0.002155 411.50281 430.85767
445.0 0.002247 411.66000 430.67206
449.0 0.002227 411.81573 430.49408
461.0 0.002169 411.97003 430.32327
412.0 0.002427 412.12286 430.15945
478.0 0.002092 412.27423 430.00226
448.0 0.002232 412.42416 429.85150
442.0 0.002262 412.57263 429.70685
411.0 0.002433 412.71964 429.56805
472.0 0.002119 412.86514 429.43488
409.0 0.002445 413.00919 429.30707
453.0 0.002208 413.15176 429.18442
420.0 0.002381 413.29288 429.06674
441.0 0.002268 413.43250 428.95377
433.0 0.002309 413.57065 428.84537
472.0 0.002119 413.70731 428.74124
502.0 0.001992 413.84244 428.64130
433.0 0.002309 413.97610 428.54532
439.0 0.002278 414.10831 428.45316
408.0 0.002451 414.23901 428.36469
451.0 0.002217 414.36816 428.27960
480.0 0.002083 414.49588 428.19794
459.0 0.002179 414.62207 428.11945
448.0 0.002232 414.74673 428.04398
437.0 0.002288 414.86990 427.97137
474.0 0.002110 414.99158 427.90161
451.0 0.002217 415.11172 427.83447
441.0 0.002268 415.23035 427.76990
409.0 0.002445 415.34747 427.70770
435.0 0.002299 415.46307 427.64780
402.0 0.002488 415.57715 427.59009
434.0 0.002304 415.68973 427.53452
446.0 0.002242 415.80078 427.48083
421.0 0.002375 415.91028 427.42908
436.0 0.002294 416.01828 427.37912
467.0 0.002141 416.12476 427.33087
453.0 0.002208 416.22968 427.28421
414.0 0.002415 416.33307 427.23907
449.0 0.002227 416.43494 427.19534
432.0 0.002315 416.53528 427.15302
452.0 0.002212 416.63406 427.11197
430.0 0.002326 416.73132 427.07208
439.0 0.002278 416.82703 427.03336
469.0 0.002132 416.92120 426.99567
448.0 0.002232 417.01385 426.95905
429.0 0.002331 417.10492 426.92325
464.0 0.002155 417.19449 426.88840
457.0 0.002188 417.28247 426.85434
432.0 0.002315 417.36893 426.82101
486.0 0.002058 417.45383 426.78830
448.0 0.002232 417.53720 426.75632
451.0 0.002217 417.61902 426.72491
438.0 0.002283 417.69925 426.69394
432.0 0.002315 417.77795 426.66351
490.0 0.002041 417.85513 426.63345
461.0 0.002169 417.93073 426.60379
412.0 0.002427 418.00476 426.57446
474.0 0.002110 418.07724 426.54541
458.0 0.002183 418.14819 426.51657
424.0 0.002358 418.21756 426.48798
461.0 0.002169 418.28537 426.45950
434.0 0.002304 418.35162 426.43112
460.0 0.002174 418.41635 426.40283
465.0 0.002151 418.47949 426.37460
434.0 0.002304 418.54108 426.34634
472.0 0.002119 418.60107 426.31802
438.0 0.002283 418.65955 426.28970
420.0 0.002381 418.71646 426.26123
422.0 0.002370 418.77179 426.23264
458.0 0.002183 418.82556 426.20383
462.0 0.002165 418.87778 426.17487
472.0 0.002119 418.92844 426.14566
425.0 0.002353 418.97754 426.11621
429.0 0.002331 419.02505 426.08643
471.0 0.002123 419.07104 426.05637
441.0 0.002268 419.11542 426.02594
442.0 0.002262 419.15829 425.99518
449.0 0.002227 419.19955 425.96399
437.0 0.002288 419.23926 425.93240
439.0 0.002278 419.27744 425.90036
435.0 0.002299 419.31403 425.86786
437.0 0.002288 419.34906 425.83493
440.0 0.002273 419.38251 425.80139
417.0 0.002398 419.41443 425.76733
488.0 0.002049 419.44476 425.73276
460.0 0.002174 419.47354 425.69763
443.0 0.002257 419.50076 425.66187
396.0 0.002525 419.52643 425.62552
437.0 0.002288 419.55051 425.58856
526.0 0.001901 419.57306 425.55090
490.0 0.002041 419.59402 425.51260
438.0 0.002283 419.61346 425.47360
418.0 0.002392 419.63132 425.43393
467.0 0.002141 419.64764 425.39352
451.0 0.002217 419.66238 425.35242
450.0 0.002222 419.67557 425.31052
442.0 0.002262 419.68719 425.26788
482.0 0.002075 419.69727 425.22446
451.0 0.002217 419.70578 425.18027
459.0 0.002179 419.71277 425.13522
472.0 0.002119 419.71817 425.08945
452.0 0.002212 419.72202 425.04276
426.0 0.002347 419.72433 421.50229
435.0 0.002299 419.72510 421.48633
500.0 0.002000 419.72430 421.46902
465.0 0.002151 419.72195 419.71924
453.0 0.002208 419.71808 419.71530
391.0 0.002558 419.71265 419.70984
481.0 0.002079 419.70566 419.70285
412.0 0.002427 419.69711 419.69431
450.0 0.002222 419.68707 419.68420
458.0 0.002183 419.67545 419.67258
480.0 0.002083 419.66229 419.65939
448.0 0.002232 419.64761 419.64468
488.0 0.002049 419.63135 419.62839
456.0 0.002193 419.61359 419.61060
446.0 0.002242 419.59427 419.59125
485.0 0.002062 419.57343 419.57040
440.0 0.002273 419.55103 419.54800
453.0 0.002208 419.52713 419.52405
434.0 0.002304 419.50168 420.48453
450.0 0.002222 419.47470 420.46439
450.0 0.002222 419.44620 420.44275
484.0 0.002066 419.41617 420.41971
417.0 0.002398 419.38461 420.88773
447.0 0.002237 419.35150 420.86517
459.0 0.002179 419.31689 420.84125
445.0 0.002247 419.28079 420.81589
434.0 0.002304 419.24313 420.78912
451.0 0.002217 419.20398 420.76096
431.0 0.002320 419.16330 426.95801
428.0 0.002336 419.12109 426.97458
449.0 0.002227 419.07736 426.99033
471.0 0.002123 419.03217 427.00525
470.0 0.002128 418.98544 430.13168
415.0 0.002410 418.93719 430.16873
486.0 0.002058 418.88745 430.20532
438.0 0.002283 418.83618 430.24136
435.0 0.002299 418.78345 430.27692
481.0 0.002079 418.72919 430.31201
375.0 0.002667 418.67343 430.34662
454.0 0.002203 418.61618 430.38089
488.0 0.002049 418.55746 430.41464
481.0 0.002079 418.49722 430.44806
448.0 0.002232 418.43549 430.48108
453.0 0.002208 418.37228 430.51373
442.0 0.002262 418.30759 430.54608
475.0 0.002105 418.24139 430.57809
450.0 0.002222 418.17371 430.60977
433.0 0.002309 418.10458 430.64124
465.0 0.002151 418.03397 430.67242
425.0 0.002353 417.96185 430.70340
427.0 0.002342 417.88828 430.73410
446.0 0.002242 417.81323 430.76474
451.0 0.002217 417.73672 430.79514
404.0 0.002475 417.65872 430.82538
414.0 0.002415 417.57928 430.85553
421.0 0.002375 417.49838 430.88562
460.0 0.002174 417.41599 430.91562
425.0 0.002353 417.33218 430.94562
418.0 0.002392 417.24689 430.97559
454.0 0.002203 417.16016 431.00555
455.0 0.002198 417.07196 431.03558
463.0 0.002160 416.98233 431.06564
413.0 0.002421 416.89124 431.09586
437.0 0.002288 416.79871 431.12619
448.0 0.002232 416.70477 431.15671
435.0 0.002299 416.60934 431.18735
433.0 0.002309 416.51251 431.21826
437.0 0.002288 416.41425 431.24942
493.0 0.002028 416.31454 431.28088
415.0 0.002410 416.21341 431.31265
434.0 0.002304 416.11084 431.34476
484.0 0.002066 416.00687 431.37726
479.0 0.002088 415.90149 431.41025
456.0 0.002193 415.79465 431.44357
442.0 0.002262 415.68643 431.47751
446.0 0.002242 415.57678 431.51187
452.0 0.002212 415.46573 431.54691
400.0 0.002500 415.35330 431.58252
399.0 0.002506 415.23941 431.61874
430.0 0.002326 415.12415 431.65570
480.0 0.002083 415.00751 431.69339
418.0 0.002392 414.88947 431.73187
449.0 0.002227 414.76999 431.77109
459.0 0.002179 414.64917 431.81125
430.0 0.002326 414.52695 431.85233
445.0 0.002247 414.40335 431.89435
471.0 0.002123 414.27835 431.93738
419.0 0.002387 414.15198 431.98148
440.0 0.002273 414.02426 432.02664
458.0 0.002183 413.89514 432.07297
444.0 0.002252 413.76465 432.12054
475.0 0.002105 413.63281 432.16934
467.0 0.002141 413.49960 432.21945
425.0 0.002353 413.36505 432.27100
433.0 0.002309 413.22913 432.32391
439.0 0.002278 413.09186 432.37839
477.0 0.002096 412.95322 432.43439
452.0 0.002212 412.81326 432.49194
484.0 0.002066 412.67194 432.55121
451.0 0.002217 412.52927 432.61227
479.0 0.002088 412.38528 432.67511
443.0 0.002257 412.23996 432.73990
443.0 0.002257 412.09329 432.80652
436.0 0.002294 411.94528 432.87515
433.0 0.002309 411.79599 432.94595
435.0 0.002299 411.64536 433.01892
429.0 0.002331 411.49341 433.09412
460.0 0.002174 411.34015 433.17166
459.0 0.002179 411.18555 433.25156
423.0 0.002364 411.02966 433.33398
443.0 0.002257 410.87247 433.86841
443.0 0.002257 410.71399 433.95895
461.0 0.002169 410.55417 434.05222
455.0 0.002198 410.39310 434.14838
457.0 0.002188 410.23071 434.47144
470.0 0.002128 410.06705 434.57513
464.0 0.002155 409.90210 434.68195
453.0 0.002208 409.73587 434.79202
461.0 0.002169 409.56836 434.90558
458.0 0.002183 409.39957 435.02261
457.0 0.002188 409.22949 435.14328
442.0 0.002262 409.05817 435.26767
459.0 0.002179 408.88562 435.39587
436.0 0.002294 408.71176 435.52811
498.0 0.002008 408.53665 435.66443
456.0 0.002193 408.36029 435.80502
466.0 0.002146 408.18268 435.94989
458.0 0.002183 408.00381 436.09933
413.0 0.002421 407.82373 436.25345
464.0 0.002155 407.64236 436.41232
473.0 0.002114 407.45984 436.57614
457.0 0.002188 407.27600 436.74506
420.0 0.002381 407.09097 436.91925
462.0 0.002165 406.90472 437.09882
448.0 0.002232 406.71722 437.28403
412.0 0.002427 406.52853 437.47498
451.0 0.002217 406.33865 437.67188
471.0 0.002123 406.14752 437.87491
460.0 0.002174 405.95517 438.08426
478.0 0.002092 405.76166 438.30014
474.0 0.002110 405.56693 438.52274
469.0 0.002132 405.37103 438.75229
460.0 0.002174 405.17389 438.98898
497.0 0.002012 404.97562 439.23300
459.0 0.002179 404.77612 439.48471
484.0 0.002066 404.57544 439.74420
455.0 0.002198 404.37360 440.01181
412.0 0.002427 404.17059 440.28778
474.0 0.002110 403.96640 440.57236
451.0 0.002217 403.76105 440.86575
457.0 0.002188 403.55453 441.16833
467.0 0.002141 403.34689 441.48044
473.0 0.002114 403.13806 441.80231
457.0 0.002188 402.92810 442.13422
473.0 0.002114 402.71698 442.47647
462.0 0.002165 402.50473 442.82956
453.0 0.002208 402.29132 443.19366
520.0 0.001923 402.07681 443.56921
438.0 0.002283 401.86115 443.95660
483.0 0.002070 401.64435 444.35614
445.0 0.002247 401.42645 444.76834
440.0 0.002273 401.20743 445.19351
432.0 0.002315 400.98730 445.63214
452.0 0.002212 400.76602 446.08466
496.0 0.002016 400.54370 446.55154
473.0 0.002114 400.32022 447.03329
487.0 0.002053 400.09567 447.53036
469.0 0.002132 399.87000 448.04330
451.0 0.002217 399.64328 448.57266
479.0 0.002088 399.41544 449.11896
427.0 0.002342 399.18652 449.68283
501.0 0.001996 398.95654 450.26486
452.0 0.002212 398.72546 450.86572
464.0 0.002155 398.49335 451.48596
471.0 0.002123 398.26013 452.12643
482.0 0.002075 398.02585 452.78769
469.0 0.002132 397.79053 453.47061
462.0 0.002165 397.55417 454.17590
447.0 0.002237 397.31671 454.90439
478.0 0.002092 397.07825 455.65692
467.0 0.002141 396.83875 456.43442
474.0 0.002110 396.59818 457.23770
460.0 0.002174 396.35660 458.06787
481.0 0.002079 396.11395 458.92587
477.0 0.002096 395.87033 459.81268
468.0 0.002137 395.62567 460.72949
478.0 0.002092 395.37997 461.67746
426.0 0.002347 395.13327 462.65775
465.0 0.002151 394.88556 463.67160
500.0 0.002000 394.63687 464.72040
503.0 0.001988 394.38715 465.80548
459.0 0.002179 394.13641 466.92841
494.0 0.002024 393.88470 468.09052
510.0 0.001961 393.63205 469.29361
486.0 0.002058 393.37836 470.53915
499.0 0.002004 393.12369 471.82910
483.0 0.002070 392.86804 473.16522
473.0 0.002114 392.61148 474.54944
502.0 0.001992 392.35388 475.98389
480.0 0.002083 392.09534 477.47067
520.0 0.001923 391.83585 479.01208
497.0 0.002012 391.57541 480.61047
508.0 0.001969 391.31403 482.26846
486.0 0.002058 391.05167 483.98865
507.0 0.001972 390.78836 485.77386
518.0 0.001931 390.52414 487.62711
495.0 0.002020 390.25897 489.55148
482.0 0.002075 389.99289 491.55032
504.0 0.001984 389.72586 493.62717
511.0 0.001957 389.45792 495.78574
501.0 0.001996 389.18909 498.03000
500.0 0.002000 388.91931 500.36407
562.0 0.001779 388.64862 502.79242
527.0 0.001898 388.37704 505.31979
527.0 0.001898 388.10455 507.95123
500.0 0.002000 387.83118 510.69205
505.0 0.001980 387.55692 513.54785
553.0 0.001808 387.28174 516.52466
528.0 0.001894 387.00574 519.62915
526.0 0.001901 386.72882 522.86798
538.0 0.001859 386.45102 526.24854
594.0 0.001684 386.17233 529.77863
573.0 0.001745 385.89282 533.46686
508.0 0.001969 385.61243 537.32202
545.0 0.001835 385.33118 541.35382
561.0 0.001783 385.04907 545.57245
597.0 0.001675 384.76614 549.98920
582.0 0.001718 384.48233 554.61597
546.0 0.001832 384.19772 559.46558
615.0 0.001626 383.91223 564.55182
562.0 0.001779 383.62595 569.88965
615.0 0.001626 383.33881 575.49524
561.0 0.001783 383.05087 581.38586
617.0 0.001621 382.76208 587.58051
623.0 0.001605 382.47250 594.09961
603.0 0.001658 382.18213 600.96527
649.0 0.001541 381.89093 608.20178
627.0 0.001595 381.59894 615.83508
622.0 0.001608 381.30612 623.89410
609.0 0.001642 381.01257 632.40991
660.0 0.001515 380.71817 641.41656
688.0 0.001453 380.42300 650.95148
642.0 0.001558 380.12704 661.05560
646.0 0.001548 379.83035 671.77417
654.0 0.001529 379.53287 683.15656
661.0 0.001513 379.23462 695.25745
692.0 0.001445 378.93561 708.13739
670.0 0.001493 378.63583 721.86310
686.0 0.001458 378.33530 736.50879
749.0 0.001335 378.03403 752.15692
693.0 0.001443 377.73199 768.89954
745.0 0.001342 377.42926 786.83936
782.0 0.001279 377.12576 806.09106
777.0 0.001287 376.82150 826.78418
706.0 0.001416 376.51657 849.06372
777.0 0.001287 376.21091 873.09387
771.0 0.001297 375.90451 899.06049
855.0 0.001170 375.59738 927.17426
820.0 0.001220 375.28955 957.67572
813.0 0.001230 374.98102 990.83966
849.0 0.001178 374.67181 1026.98132
906.0 0.001104 374.36188 1066.46375
945.0 0.001058 374.05127 1109.70654
973.0 0.001028 373.73996 1157.19714
1013.0 0.000987 373.42798 1209.50403
1044.0 0.000958 373.11530 1267.29407
1106.0 0.000904 372.80194 1331.35535
1220.0 0.000820 372.48795 1402.62683
1253.0 0.000798 372.17328 1482.24353
1305.0 0.000766 371.85794 1571.60596
1531.0 0.000653 371.54190 1672.49231
1622.0 0.000617 371.22525 1787.25037
1667.0 0.000600 370.90796 1919.12451
1832.0 0.000546 370.59003 2072.79639
2170.0 0.000461 370.27142 2255.25342
2376.0 0.000421 369.95218 2477.09888
2840.0 0.000352 369.63235 2754.38721
3254.0 0.0003073 369.31186 3110.96313
3830.0 0.0002611 368.99072 3581.06592
4682.0 0.0002136 368.66901 4211.67676
5592.0 0.0001788 368.34671 5063.71582
6783.0 0.0001474 368.02374 6210.96289
8327.0 0.0001201 367.70020 7735.53369
10548.0 0.0000948 367.37601 9719.12012
12608.0 0.0000793 367.05127 12229.85938
15587.0 0.0000642 366.72592 15305.33887
19207.0 0.0000521 366.39999 18932.30273
22965.0 0.0000435 366.07346 23022.50000
27059.0 0.0000370 365.74637 27383.72656
31211.0 0.0000320 365.41870 31691.50586
34804.0 0.0000287 365.09045 35489.37891
37975.0 0.0000263 364.76163 38270.35156
39800.0 0.0000251 364.43225 39649.95313
40305.0 0.0000248 364.10236 39511.79297
39355.0 0.0000254 363.77185 37988.20313
37119.0 0.0000269 363.44083 35341.22266
33591.0 0.0000298 363.10922 31900.13672
29327.0 0.0000341 362.77713 28049.52148
25507.0 0.0000392 362.44449 24180.03320
21501.0 0.0000465 362.11130 20613.43945
17904.0 0.0000559 361.77756 17561.31641
15109.0 0.0000662 361.44333 15126.93652
12958.0 0.0000772 361.10858 13326.02051
11681.0 0.0000856 360.77328 12108.13770
10877.0 0.0000919 360.43750 11372.80957
10629.0 0.0000941 360.10123 10981.41406
10365.0 0.0000965 359.76443 10771.33105
10560.0 0.0000947 359.42712 10582.00293
10229.0 0.0000978 359.08932 10291.67188
9989.0 0.0001001 358.75107 9840.79492
9596.0 0.0001042 358.41232 9222.77832
8727.0 0.0001146 358.07309 8460.70508
7868.0 0.0001271 357.73337 7596.28418
6905.0 0.0001448 357.39316 6685.80518
5899.0 0.0001695 357.05252 5788.79590
5043.0 0.0001983 356.71143 4953.82813
4037.0 0.0002477 356.36984 4211.59668
3431.0 0.0002915 356.02777 3575.80127
2811.0 0.000356 355.68533 3047.30200
2332.0 0.000429 355.34238 2618.48218
1961.0 0.000510 354.99902 2276.87622
1824.0 0.000548 354.65518 2007.98401
1535.0 0.000651 354.31097 1797.31958
1413.0 0.000708 353.96628 1631.75183
1296.0 0.000772 353.62119 1500.21545
1148.0 0.000871 353.27567 1393.92224
1096.0 0.000912 352.92975 1307.99841
1106.0 0.000904 352.58337 1234.07251
990.0 0.001010 352.23663 1170.48621
995.0 0.001005 351.88947 1114.86328
1025.0 0.000976 351.54193 1066.43567
958.0 0.001044 351.19394 1022.28650
859.0 0.001164 350.84561 982.45172
851.0 0.001175 350.49686 946.30237
867.0 0.001153 350.14774 913.34882
887.0 0.001127 349.79828 883.19672
769.0 0.001300 349.44836 855.51929
762.0 0.001312 349.09811 830.04150
785.0 0.001274 348.74750 806.52802
728.0 0.001374 348.39658 784.77557
727.0 0.001376 348.04523 764.60779
687.0 0.001456 347.69354 745.87091
708.0 0.001412 347.34149 728.42938
713.0 0.001403 346.98914 712.16467
712.0 0.001404 346.63638 696.97125
670.0 0.001493 346.28333 682.75604
664.0 0.001506 345.92993 669.43610
651.0 0.001536 345.57623 656.93750
614.0 0.001629 345.22220 645.19427
631.0 0.001585 344.86780 634.14697
644.0 0.001553 344.51312 623.74243
619.0 0.001616 344.15814 613.93256
617.0 0.001621 343.80286 604.67419
620.0 0.001613 343.44720 595.92834
594.0 0.001684 343.09131 587.65918
571.0 0.001751 342.73514 579.83490
583.0 0.001715 342.37863 572.42615
579.0 0.001727 342.02182 565.40643
604.0 0.001656 341.66476 558.75171
548.0 0.001825 341.30740 552.43970
581.0 0.001721 340.94980 546.45056
561.0 0.001783 340.59189 540.76593
588.0 0.001701 340.23373 535.36902
554.0 0.001805 339.87527 530.24469
579.0 0.001727 339.51663 525.37915
539.0 0.001855 339.15768 520.75958
537.0 0.001862 338.79846 516.37482
549.0 0.001821 338.43903 512.21423
519.0 0.001927 338.07938 508.26846
489.0 0.002045 337.71942 504.52917
517.0 0.001934 337.35925 500.98865
553.0 0.001808 336.99887 497.64032
520.0 0.001923 336.63828 494.47824
482.0 0.002075 336.27744 491.49731
526.0 0.001901 335.91635 488.69315
505.0 0.001980 335.55505 486.06219
508.0 0.001969 335.19360 483.60165
498.0 0.002008 334.83191 481.30927
559.0 0.001789 334.47000 479.18384
524.0 0.001908 334.10788 477.22473
517.0 0.001934 333.74561 475.43228
497.0 0.002012 333.38312 473.80746
509.0 0.001965 333.02045 472.35229
489.0 0.002045 332.65756 471.06976
495.0 0.002020 332.29453 469.96381
474.0 0.002110 331.93134 469.03955
497.0 0.002012 331.56796 468.30322
531.0 0.001883 331.20438 467.76251
542.0 0.001845 330.84067 467.42676
441.0 0.002268 330.47681 467.30679
531.0 0.001883 330.11276 467.41547
447.0 0.002237 329.74857 467.76782
501.0 0.001996 329.38422 468.38147
484.0 0.002066 329.01978 469.27689
476.0 0.002101 328.65515 470.47800
476.0 0.002101 328.29037 472.01273
515.0 0.001942 327.92548 473.91339
470.0 0.002128 327.56049 476.21808
512.0 0.001953 327.19531 478.97110
509.0 0.001965 326.83005 482.22464
437.0 0.002288 326.46466 486.04016
498.0 0.002008 326.09918 490.49081
509.0 0.001965 325.73355 495.66354
468.0 0.002137 325.36783 501.66418
510.0 0.001961 325.00201 508.62314
495.0 0.002020 324.63611 516.70654
509.0 0.001965 324.27008 526.13391
555.0 0.001802 323.90399 537.20947
531.0 0.001883 323.53778 550.37555
567.0 0.001764 323.17148 566.29736
570.0 0.001754 322.80515 585.99548
587.0 0.001704 322.43872 611.03394
626.0 0.001597 322.07220 643.76770
668.0 0.001497 321.70563 687.62872
771.0 0.001297 321.33902 747.40118
865.0 0.001156 320.97229 829.39752
962.0 0.001040 320.60553 941.41449
1053.0 0.000950 320.23868 1092.33582
1330.0 0.000752 319.87186 1291.28174
1582.0 0.000632 319.50494 1546.27344
1801.0 0.000555 319.13800 1862.46887
2331.0 0.000429 318.77100 2240.07739
2637.0 0.000379 318.40399 2671.98682
3085.0 0.0003241 318.03690 3141.03906
3589.0 0.0002786 317.66980 3617.14453
4141.0 0.0002415 317.30270 4056.04590
4577.0 0.0002185 316.93558 4404.38428
4860.0 0.0002058 316.56842 4614.88818
4932.0 0.0002028 316.20123 4664.50488
4975.0 0.0002010 315.83405 4558.79980
4802.0 0.0002082 315.46689 4320.00000
4284.0 0.0002334 315.09970 3975.90894
3668.0 0.0002726 314.73251 3559.12476
3321.0 0.0003011 314.36533 3107.42505
2783.0 0.000359 313.99814 2657.85767
2331.0 0.000429 313.63098 2239.38452
1902.0 0.000526 313.26382 1869.87683
1526.0 0.000655 312.89670 1557.22083
1241.0 0.000806 312.52957 1301.92847
1087.0 0.000920 312.16251 1099.70178
875.0 0.001143 311.79544 943.52869
787.0 0.001271 311.42841 825.29822
675.0 0.001481 311.06143 736.96307
649.0 0.001541 310.69449 671.29010
577.0 0.001733 310.32761 622.24872
551.0 0.001815 309.96072 585.11157
521.0 0.001919 309.59390 556.36279
507.0 0.001972 309.22717 533.50018
487.0 0.002053 308.86047 514.80444
466.0 0.002146 308.49380 499.12268
450.0 0.002222 308.12723 485.68979
477.0 0.002096 307.76074 473.99536
460.0 0.002174 307.39432 463.69104
436.0 0.002294 307.02792 454.53052
417.0 0.002398 306.66162 446.33157
426.0 0.002347 306.29544 438.95395
403.0 0.002481 305.92932 432.28561
407.0 0.002457 305.56329 426.23489
405.0 0.002469 305.19733 420.72522
424.0 0.002358 304.83145 415.69232
430.0 0.002326 304.46570 411.08127
419.0 0.002387 304.10004 406.84506
370.0 0.002703 303.73456 402.94357
417.0 0.002398 303.36911 399.34164
379.0 0.002639 303.00375 396.00922
383.0 0.002611 302.63852 392.92001
419.0 0.002387 302.27341 390.05099
394.0 0.002538 301.90845 387.38217
388.0 0.002577 301.54358 384.89584
413.0 0.002421 301.17883 382.57648
401.0 0.002494 300.81430 380.41055
386.0 0.002591 300.44983 378.38580
371.0 0.002695 300.08548 376.49152
413.0 0.002421 299.72128 374.71832
401.0 0.002494 299.35724 373.05768
364.0 0.002747 298.99335 371.50217
396.0 0.002525 298.62958 370.04517
375.0 0.002667 298.26596 368.68073
361.0 0.002770 297.90259 367.40372
351.0 0.002849 297.53931 366.20929
336.0 0.002976 297.17621 365.12622
365.0 0.002740 296.81323 364.08542
375.0 0.002667 296.45044 363.11636
354.0 0.002825 296.08783 362.21616
374.0 0.002674 295.72537 361.38242
364.0 0.002747 295.36313 360.62939
333.0 0.003003 295.00104 359.92264
354.0 0.002825 294.63919 359.27698
383.0 0.002611 294.27750 358.69107
360.0 0.002778 293.91595 358.16403
380.0 0.002632 293.55466 357.69504
380.0 0.002632 293.19354 357.28381
378.0 0.002646 292.83258 356.92993
390.0 0.002564 292.47186 356.63342
392.0 0.002551 292.11133 356.39465
368.0 0.002717 291.75110 356.21384
341.0 0.002933 291.39099 356.09174
393.0 0.002545 291.03113 356.02924
341.0 0.002933 290.67145 356.02744
357.0 0.002801 290.31201 356.08771
375.0 0.002667 289.95279 356.21176
384.0 0.002604 289.59381 356.40137
381.0 0.002625 289.23505 356.65866
354.0 0.002825 288.87659 356.98621
356.0 0.002809 288.51828 357.38669
359.0 0.002786 288.16022 357.86313
367.0 0.002725 287.80240 358.41913
365.0 0.002740 287.44485 359.05835
361.0 0.002770 287.08752 359.78519
367.0 0.002725 286.73044 360.60422
424.0 0.002358 286.37363 361.52075
359.0 0.002786 286.01709 362.54053
412.0 0.002427 285.66083 363.66974
369.0 0.002710 285.30481 364.91568
329.0 0.003040 284.94904 366.28586
305.0 0.003279 284.59354 367.78900
362.0 0.002762 284.23831 369.43460
359.0 0.002786 283.88333 371.23309
394.0 0.002538 283.52866 373.19617
378.0 0.002646 283.17426 375.33682
406.0 0.002463 282.82019 377.66940
332.0 0.003012 282.46634 380.20990
389.0 0.002571 282.11279 382.97617
415.0 0.002410 281.75955 385.98831
408.0 0.002451 281.40659 389.26840
375.0 0.002667 281.05389 392.84192
405.0 0.002469 280.70154 396.73685
412.0 0.002427 280.34946 400.98523
437.0 0.002288 279.99777 405.62299
387.0 0.002584 279.64630 410.69083
382.0 0.002618 279.29514 416.23544
421.0 0.002375 278.94431 422.30957
382.0 0.002618 278.59378 428.97391
419.0 0.002387 278.24359 436.29816
433.0 0.002309 277.89371 444.36246
437.0 0.002288 277.54413 453.35629
427.0 0.002342 277.19492 463.19507
413.0 0.002421 276.84607 474.10107
469.0 0.002132 276.49747 486.22305
451.0 0.002217 276.14923 499.73837
483.0 0.002070 275.80133 514.90997
480.0 0.002083 275.45377 531.90839
485.0 0.002062 275.10654 551.12262
584.0 0.001712 274.75964 573.00775
559.0 0.001789 274.41312 598.19830
598.0 0.001672 274.06699 627.61328
685.0 0.001460 273.72116 662.62006
700.0 0.001429 273.37567 705.27576
735.0 0.001361 273.03055 758.65637
847.0 0.001181 272.68576 827.26825
1007.0 0.000993 272.34137 917.50409
1132.0 0.000883 271.99734 1038.05627
1230.0 0.000813 271.65366 1200.15161
1498.0 0.000668 271.31042 1417.42896
1776.0 0.000563 270.96747 1705.27112
2138.0 0.000468 270.62491 2079.45728
2591.0 0.000386 270.28275 2554.09131
3153.0 0.0003172 269.94095 3138.88745
3886.0 0.0002573 269.59952 3835.97021
4506.0 0.0002219 269.25848 4636.23975
5429.0 0.0001842 268.91782 5515.19824
6412.0 0.0001560 268.57755 6428.26807
7252.0 0.0001379 268.23773 7307.28662
8166.0 0.0001225 267.89828 8063.77783
9088.0 0.0001100 267.55917 8606.83789
9358.0 0.0001069 267.22052 8873.50684
9325.0 0.0001072 266.88220 8849.78320
8975.0 0.0001114 266.54434 8562.41406
8609.0 0.0001162 266.20688 8054.46777
7710.0 0.0001297 265.86978 7372.97607
6827.0 0.0001465 265.53317 6572.51855
5753.0 0.0001738 265.19696 5716.43408
4788.0 0.0002089 264.86111 4866.93555
3894.0 0.0002568 264.52570 4073.20703
3083.0 0.0003244 264.19070 3366.37939
2584.0 0.000387 263.85614 2761.04077
2053.0 0.000487 263.52197 2259.30786
1617.0 0.000618 263.18826 1856.45068
1336.0 0.000749 262.85501 1538.26465
1132.0 0.000883 262.52216 1292.71423
948.0 0.001055 262.18973 1105.89111
797.0 0.001255 261.85773 964.84814
764.0 0.001309 261.52615 859.13580
679.0 0.001473 261.19504 778.13190
637.0 0.001570 260.86435 715.51630
627.0 0.001595 260.53412 666.05292
562.0 0.001779 260.20432 626.00232
545.0 0.001835 259.87503 592.76794
536.0 0.001866 259.54614 564.58020
503.0 0.001988 259.21771 540.23969
484.0 0.002066 258.88971 518.92664
501.0 0.001996 258.56219 500.06805
427.0 0.002342 258.23511 483.24933
420.0 0.002381 257.90848 468.15808
450.0 0.002222 257.58234 454.55069
412.0 0.002427 257.25671 442.23050
416.0 0.002404 256.93149 431.03485
368.0 0.002717 256.60675 419.84598
360.0 0.002778 256.28247 410.51767
391.0 0.002558 255.95866 401.96228
354.0 0.002825 255.63533 386.75833
348.0 0.002874 255.31247 379.55167
349.0 0.002865 254.99010 372.89389
353.0 0.002833 254.66827 366.72861
365.0 0.002740 254.34685 361.00665
352.0 0.002841 254.02592 355.68494
330.0 0.003030 253.70549 350.72522
339.0 0.002950 253.38553 346.09406
327.0 0.003058 253.06607 341.76135
311.0 0.003215 252.74710 337.70074
332.0 0.003012 252.42862 333.88846
326.0 0.003067 252.11064 330.30356
295.0 0.003390 251.79323 326.92700
332.0 0.003012 251.47624 323.74170
275.0 0.00364 251.15977 320.73245
304.0 0.003289 250.84380 317.88544
319.0 0.003135 250.52832 315.18839
273.0 0.00366 250.21336 312.62976
320.0 0.003125 249.89893 310.19955
315.0 0.003175 249.58498 307.88831
322.0 0.003106 249.27161 305.68768
293.0 0.003413 248.95869 303.58994
299.0 0.003344 248.64630 301.58786
292.0 0.003425 248.33443 299.67529
308.0 0.003247 248.02307 297.84628
306.0 0.003268 247.71225 296.09525
294.0 0.003401 247.40193 294.41733
321.0 0.003115 247.09215 292.80792
284.0 0.00352 246.78294 291.26303
284.0 0.00352 246.47421 289.77838
268.0 0.00373 246.16603 288.35065
315.0 0.003175 245.85837 286.97641
313.0 0.003195 245.55122 285.65265
297.0 0.003367 245.24464 284.37653
252.0 0.00397 244.93857 283.14542
277.0 0.00361 244.63307 281.95688
279.0 0.00358 244.32809 280.80853
281.0 0.00356 244.02373 279.69849
273.0 0.00366 243.71983 278.62445
266.0 0.00376 243.41649 277.58490
284.0 0.00352 243.11368 276.57788
280.0 0.00357 242.81145 275.60193
278.0 0.00360 242.50975 274.65555
268.0 0.00373 242.20860 273.73730
260.0 0.00385 241.90802 272.84601
263.0 0.00380 241.60805 271.98026
276.0 0.00362 241.30856 271.13895
293.0 0.003413 241.00966 270.32120
247.0 0.00405 240.71129 269.52570
255.0 0.00392 240.41348 268.75171
288.0 0.003472 240.11626 267.99832
243.0 0.00412 239.81960 267.26471
256.0 0.00391 239.52350 266.55008
250.0 0.00400 239.22801 265.85376
266.0 0.00376 238.93306 265.17493
286.0 0.003497 238.63866 264.51297
267.0 0.00375 238.34483 263.86743
262.0 0.00382 238.05159 263.23752
275.0 0.00364 237.75891 262.62286
256.0 0.00391 237.46683 262.02298
243.0 0.00412 237.17531 261.43719
253.0 0.00395 236.88437 260.86536
267.0 0.00375 236.59406 260.30685
252.0 0.00397 236.30429 259.76126
257.0 0.00389 236.01509 259.22833
240.0 0.00417 235.72649 258.70767
256.0 0.00391 235.43846 258.19894
255.0 0.00392 235.15103 257.70197
252.0 0.00397 234.86420 257.21631
284.0 0.00352 234.57794 256.74185
261.0 0.00383 234.29233 256.27829
255.0 0.00392 234.00726 255.82536
257.0 0.00389 233.72279 255.38292
236.0 0.00424 233.43890 254.95074
249.0 0.00402 233.15564 254.52873
251.0 0.00398 232.87296 254.26414
249.0 0.00402 232.59087 253.86278
253.0 0.00395 232.30939 253.47110
235.0 0.00426 232.02856 253.08913
255.0 0.00392 231.74828 252.71664
252.0 0.00397 231.46861 252.35361
221.0 0.00452 231.18954 252.07362
246.0 0.00407 230.91109 251.72975
240.0 0.00417 230.63324 251.39525
245.0 0.00408 230.35600 251.07013
266.0 0.00376 230.07936 250.75430
218.0 0.00459 229.80334 250.44785
252.0 0.00397 229.52798 250.15085
231.0 0.00433 229.25319 249.86327
239.0 0.00418 228.97902 249.58524
226.0 0.00442 228.70546 249.31693
240.0 0.00417 228.43253 249.05830
237.0 0.00422 228.16019 248.80960
245.0 0.00408 227.88849 248.57101
264.0 0.00379 227.61742 248.34268
262.0 0.00382 227.34700 248.12495
216.0 0.00463 227.07716 247.91789
266.0 0.00376 226.80795 247.72194
240.0 0.00417 226.53935 247.53728
252.0 0.00397 226.27139 247.36440
244.0 0.00410 226.00406 247.20370
225.0 0.00444 225.73735 247.05560
247.0 0.00405 225.47127 246.92061
248.0 0.00403 225.20587 246.79939
258.0 0.00388 224.94106 246.69246
226.0 0.00442 224.67686 246.60060
236.0 0.00424 224.41331 246.52466
246.0 0.00407 224.15041 246.46555
234.0 0.00427 223.88814 246.42427
223.0 0.00448 223.62648 246.40201
244.0 0.00410 223.36548 246.40007
234.0 0.00427 223.10512 246.41995
225.0 0.00444 222.84543 246.46347
245.0 0.00408 222.58635 246.53250
239.0 0.00418 222.32790 246.62926
257.0 0.00389 222.07008 246.75638
226.0 0.00442 221.81293 246.91693
227.0 0.00441 221.55641 247.11450
256.0 0.00391 221.30054 247.35341
251.0 0.00398 221.04530 247.63898
229.0 0.00437 220.79077 247.97798
252.0 0.00397 220.53683 248.37929
239.0 0.00418 220.28354 248.85524
251.0 0.00398 220.03091 249.42317
225.0 0.00444 219.77892 250.10838
233.0 0.00429 219.52757 250.94762
259.0 0.00386 219.27690 251.99434
228.0 0.00439 219.02686 253.32455
242.0 0.00413 218.77753 255.04364
231.0 0.00433 218.52879 257.29196
238.0 0.00420 218.28073 260.24869
232.0 0.00431 218.03331 264.13055
237.0 0.00422 217.78654 269.18329
258.0 0.00388 217.54044 275.66476
244.0 0.00410 217.29500 283.81775
286.0 0.003497 217.05020 293.83405
270.0 0.00370 216.80606 305.81082
312.0 0.003205 216.56264 319.70132
348.0 0.002874 216.31982 335.25851
339.0 0.002950 216.07768 351.96881
407.0 0.002457 215.83620 368.98212
363.0 0.002755 215.59537 385.07684
377.0 0.002653 215.35521 398.75674
409.0 0.002445 215.11571 408.57397
474.0 0.002110 214.87688 413.15009
391.0 0.002558 214.63875 413.24490
425.0 0.002353 214.40125 408.89474
407.0 0.002457 214.16441 400.80963
370.0 0.002703 213.92822 389.47601
408.0 0.002451 213.69273 376.10965
362.0 0.002762 213.45790 361.41364
363.0 0.002755 213.22372 346.40167
319.0 0.003135 212.99022 331.98380
320.0 0.003125 212.75745 318.82510
290.0 0.003448 212.52528 307.31693
268.0 0.00373 212.29381 297.61975
263.0 0.00380 212.06299 289.72617
290.0 0.003448 211.83284 283.51758
256.0 0.00391 211.60338 278.81061
252.0 0.00397 211.37457 275.39188
276.0 0.00362 211.14645 273.04456
252.0 0.00397 210.91901 271.56631
265.0 0.00377 210.69228 270.78098
273.0 0.00366 210.46617 270.54306
262.0 0.00382 210.24074 270.73871
269.0 0.00372 210.01599 271.28326
269.0 0.00372 209.79193 272.11661
275.0 0.00364 209.56853 273.19839
263.0 0.00380 209.34581 274.50357
291.0 0.003436 209.12376 276.01840
265.0 0.00377 208.90245 277.73734
277.0 0.00361 208.68176 279.66074
264.0 0.00379 208.46176 281.79373
273.0 0.00366 208.24243 284.14493
278.0 0.00360 208.02379 286.72617
258.0 0.00388 207.80582 289.55225
262.0 0.00382 207.58853 292.64078
308.0 0.003247 207.37195 296.01242
280.0 0.00357 207.15605 299.69144
317.0 0.003155 206.94081 303.70532
292.0 0.003425 206.72626 308.08600
260.0 0.00385 206.51237 312.87036
321.0 0.003115 206.29918 318.10034
299.0 0.003344 206.08665 323.82431
290.0 0.003448 205.87483 330.09821
348.0 0.002874 205.66370 336.98642
298.0 0.003356 205.45323 344.56384
303.0 0.003300 205.24348 352.91779
389.0 0.002571 205.03439 362.15100
367.0 0.002725 204.82599 372.38599
358.0 0.002793 204.61827 383.77121
397.0 0.002519 204.41122 396.49167
376.0 0.002660 204.20486 410.78522
451.0 0.002217 203.99921 426.96951
440.0 0.002273 203.79422 445.48566
509.0 0.001965 203.58997 466.96552
529.0 0.001890 203.38635 492.33276
531.0 0.001883 203.18343 522.94531
634.0 0.001577 202.98120 560.78540
645.0 0.001550 202.77965 608.68939
670.0 0.001493 202.57880 670.60028
788.0 0.001269 202.37862 751.79675
988.0 0.001012 202.17912 857.25189
1031.0 0.000970 201.98035 998.74347
1269.0 0.000788 201.78224 1183.81409
1464.0 0.000683 201.58482 1422.30566
1762.0 0.000568 201.38808 1723.54626
2082.0 0.000480 201.19203 2094.11011
2529.0 0.000395 200.99666 2539.72559
2943.0 0.0003398 200.80200 3058.11377
3499.0 0.0002858 200.60802 3640.49634
4188.0 0.0002388 200.41472 4268.34717
4800.0 0.0002083 200.22214 4910.87305
5662.0 0.0001766 200.03023 5523.54150
6265.0 0.0001596 199.83899 6050.91113
6625.0 0.0001509 199.64844 6437.55957
7116.0 0.0001405 199.45860 6645.33838
6995.0 0.0001430 199.26942 6665.42041
6874.0 0.0001455 199.08095 6514.24365
6680.0 0.0001497 198.89316 6218.35303
6038.0 0.0001656 198.70610 5803.66113
5254.0 0.0001903 198.51968 5296.21045
4912.0 0.0002036 198.33397 4727.41016
4130.0 0.0002421 198.14894 4133.92676
3477.0 0.0002876 197.96458 3551.33154
2923.0 0.0003421 197.78093 3007.62891
2401.0 0.000416 197.59798 2520.72046
1938.0 0.000516 197.41570 2099.26270
1640.0 0.000610 197.23415 1744.86365
1325.0 0.000755 197.05324 1454.30103
1100.0 0.000909 196.87302 1221.35974
964.0 0.001037 196.69350 1038.26526
907.0 0.001103 196.51468 896.77795
725.0 0.001379 196.33653 788.99323
677.0 0.001477 196.15907 707.87695
669.0 0.001495 195.98228 647.56763
617.0 0.001621 195.80621 603.48761
566.0 0.001767 195.63086 572.30872
526.0 0.001901 195.45615 552.44092
551.0 0.001815 195.28214 541.37354
534.0 0.001873 195.10880 539.15582
537.0 0.001862 194.93616 545.70459
524.0 0.001908 194.76421 561.18359
598.0 0.001672 194.59294 585.77045
593.0 0.001686 194.42236 619.73639
585.0 0.001709 194.25250 661.98987
711.0 0.001406 194.08330 711.68665
754.0 0.001326 193.91476 766.74841
825.0 0.001212 193.74692 823.90741
886.0 0.001129 193.57979 878.56439
901.0 0.001110 193.41333 925.09021
1009.0 0.000991 193.24754 957.91632
1026.0 0.000975 193.08244 973.21161
1032.0 0.000969 192.91806 970.03973
975.0 0.001026 192.75435 949.96875
994.0 0.001006 192.59132 915.59772
917.0 0.001091 192.42897 869.46191
857.0 0.001167 192.26730 814.05164
709.0 0.001410 192.10632 752.34570
703.0 0.001422 191.94603 687.89050
606.0 0.001650 191.78641 624.23688
577.0 0.001733 191.62747 564.27991
540.0 0.001852 191.46925 509.94604
470.0 0.002128 191.31168 462.23273
397.0 0.002519 191.15480 421.40857
372.0 0.002688 190.99860 387.23154
343.0 0.002915 190.84308 359.13385
305.0 0.003279 190.68823 336.36536
300.0 0.003333 190.53407 318.10373
307.0 0.003257 190.38060 303.53543
270.0 0.00370 190.22783 291.91165
296.0 0.003378 190.07571 282.58069
257.0 0.00389 189.92429 275.00195
261.0 0.00383 189.77351 268.74548
270.0 0.00370 189.62343 263.48148
290.0 0.003448 189.47403 258.96445
262.0 0.00382 189.32532 255.01608
241.0 0.00415 189.17728 251.50902
254.0 0.00394 189.02994 248.35278
249.0 0.00402 188.88324 245.48296
225.0 0.00444 188.73723 242.85283
224.0 0.00446 188.59189 240.42767
212.0 0.00472 188.44724 238.18098
248.0 0.00403 188.30325 236.09164
223.0 0.00448 188.15994 234.14241
243.0 0.00412 188.01730 232.31894
258.0 0.00388 187.87534 230.60881
219.0 0.00457 187.73407 229.00151
211.0 0.00474 187.59346 227.48773
241.0 0.00415 187.45351 226.05933
233.0 0.00429 187.31424 224.70909
230.0 0.00435 187.17564 223.43069
219.0 0.00457 187.03772 222.21841
238.0 0.00420 186.90047 221.06714
219.0 0.00457 186.76387 221.74286
244.0 0.00410 186.62799 220.71169
225.0 0.00444 186.49274 219.72932
209.0 0.00478 186.35815 218.79239
227.0 0.00441 186.22424 217.89787
211.0 0.00474 186.09100 217.04303
215.0 0.00465 185.95844 217.10632
208.0 0.00481 185.82651 216.32913
208.0 0.00481 185.69528 215.58484
203.0 0.00493 185.56473 214.87152
238.0 0.00420 185.43481 214.18747
206.0 0.00485 185.30557 213.53093
197.0 0.00508 185.17699 212.90053
241.0 0.00415 185.04906 212.29491
226.0 0.00442 184.92180 211.71281
216.0 0.00463 184.79520 211.15306
217.0 0.00461 184.66927 210.61458
205.0 0.00488 184.54399 210.09641
235.0 0.00426 184.41940 209.59764
210.0 0.00476 184.29544 209.11731
185.0 0.00541 184.17215 208.65475
194.0 0.00515 184.04951 208.20920
222.0 0.00450 183.92754 207.77995
192.0 0.00521 183.80621 207.36636
212.0 0.00472 183.68555 206.96785
206.0 0.00485 183.56554 206.58397
206.0 0.00485 183.44620 206.21410
221.0 0.00452 183.32751 205.85777
206.0 0.00485 183.20946 205.51454
224.0 0.00446 183.09207 205.18407
222.0 0.00450 182.97533 204.86597
199.0 0.00503 182.85925 204.55995
209.0 0.00478 182.74380 204.26553
211.0 0.00474 182.62903 203.98250
210.0 0.00476 182.51491 203.71068
206.0 0.00485 182.40141 203.44966
215.0 0.00465 182.28857 203.19933
216.0 0.00463 182.17639 202.95949
224.0 0.00446 182.06485 202.72989
199.0 0.00503 181.95395 202.51039
191.0 0.00524 181.84369 202.30090
191.0 0.00524 181.73409 202.10121
211.0 0.00474 181.62512 201.91127
189.0 0.00529 181.51682 201.73100
197.0 0.00508 181.40913 201.56029
205.0 0.00488 181.30211 201.39909
201.0 0.00498 181.19571 201.24739
206.0 0.00485 181.08995 201.10518
198.0 0.00505 180.98483 200.97243
218.0 0.00459 180.88036 200.84917
204.0 0.00490 180.77652 200.73552
204.0 0.00490 180.67334 200.63142
188.0 0.00532 180.57077 200.53696
201.0 0.00498 180.46883 200.45229
212.0 0.00472 180.36754 200.37750
212.0 0.00472 180.26688 200.31281
207.0 0.00483 180.16684 200.25830
230.0 0.00435 180.06744 200.21413
211.0 0.00474 179.96869 200.18059
191.0 0.00524 179.87056 200.15791
197.0 0.00508 179.77307 200.14638
203.0 0.00493 179.67619 200.14616
226.0 0.00442 179.57994 200.15779
198.0 0.00505 179.48431 200.18150
213.0 0.00469 179.38933 200.21776
218.0 0.00459 179.29495 200.26700
226.0 0.00442 179.20120 200.32976
187.0 0.00535 179.10808 200.40651
219.0 0.00457 179.01561 200.49791
207.0 0.00483 178.92372 200.60451
208.0 0.00481 178.83247 200.72716
199.0 0.00503 178.74184 200.86649
235.0 0.00426 178.65182 201.02350
219.0 0.00457 178.56241 201.19908
194.0 0.00515 178.47365 201.39424
220.0 0.00455 178.38548 201.61014
235.0 0.00426 178.29796 201.84799
216.0 0.00463 178.21101 202.10925
202.0 0.00495 178.12469 202.39531
217.0 0.00461 178.03899 202.70792
216.0 0.00463 177.95389 203.04889
211.0 0.00474 177.86940 203.42023
213.0 0.00469 177.78554 203.82422
202.0 0.00495 177.70227 204.26328
200.0 0.00500 177.61963 204.74033
218.0 0.00459 177.53758 205.25830
199.0 0.00503 177.45613 205.82069
193.0 0.00518 177.37529 206.43135
200.0 0.00500 177.29506 207.09456
166.0 0.00602 177.21542 207.81516
230.0 0.00435 177.13641 208.59862
230.0 0.00435 177.05798 209.45103
201.0 0.00498 176.98016 210.37939
203.0 0.00493 176.90294 211.39160
203.0 0.00493 176.82631 212.49657
199.0 0.00503 176.75027 213.70457
259.0 0.00386 176.67485 215.02751
223.0 0.00448 176.60001 216.47890
236.0 0.00424 176.52576 218.07458
238.0 0.00420 176.45210 219.83313
203.0 0.00493 176.37904 221.77682
244.0 0.00410 176.30659 223.93259
241.0 0.00415 176.23471 226.33424
218.0 0.00459 176.16342 229.02556
231.0 0.00433 176.09273 232.06512
237.0 0.00422 176.02261 235.53429
246.0 0.00407 175.95308 239.54845
213.0 0.00469 175.88416 244.27434
258.0 0.00388 175.81578 249.95233
239.0 0.00418 175.74803 256.92654
288.0 0.003472 175.68083 265.67920
246.0 0.00407 175.61421 276.86780
301.0 0.003322 175.54819 291.32486
307.0 0.003257 175.48273 310.20917
316.0 0.003165 175.41785 334.80154
355.0 0.002817 175.35355 366.59424
379.0 0.002639 175.28983 407.16678
444.0 0.002252 175.22667 458.02789
476.0 0.002101 175.16411 520.48956
539.0 0.001855 175.10210 595.33856
637.0 0.001570 175.04066 682.64423
759.0 0.001318 174.97980 781.45691
826.0 0.001211 174.91949 889.48645
968.0 0.001033 174.85977 1002.73718
1140.0 0.000877 174.80061 1115.17908
1278.0 0.000782 174.74202 1218.75671
1383.0 0.000723 174.68399 1304.28723
1380.0 0.000725 174.62653 1363.58752
1466.0 0.000682 174.56961 1392.04688
1444.0 0.000693 174.51328 1389.78943
1430.0 0.000699 174.45749 1360.37415
1348.0 0.000742 174.40225 1308.30212
1339.0 0.000747 174.34758 1237.47742
1161.0 0.000861 174.29347 1151.44275
1108.0 0.000903 174.23991 1054.41846
955.0 0.001047 174.18690 951.68506
866.0 0.001155 174.13446 848.86090
734.0 0.001362 174.08257 750.81592
633.0 0.001580 174.03120 661.01654
551.0 0.001815 173.98041 581.45428
501.0 0.001996 173.93016 512.90094
455.0 0.002198 173.88045 455.24051
385.0 0.002597 173.83128 407.76215
402.0 0.002488 173.78268 369.39355
307.0 0.003257 173.73460 338.88126
319.0 0.003135 173.68707 314.92810
282.0 0.00355 173.64009 296.29333
271.0 0.00369 173.59364 281.85947
299.0 0.003344 173.54773 270.66931
262.0 0.00382 173.50235 261.93787
273.0 0.00366 173.45752 255.04619
271.0 0.00369 173.41322 249.52225
237.0 0.00422 173.36945 245.01688
251.0 0.00398 173.32620 241.27766
239.0 0.00418 173.28351 238.12512
240.0 0.00417 173.24133 235.43253
248.0 0.00403 173.19968 233.11052
256.0 0.00391 173.15857 231.09499
215.0 0.00465 173.11797 229.33910
223.0 0.00448 173.07791 227.80753
242.0 0.00413 173.03838 226.47285
224.0 0.00446 172.99934 225.31316
255.0 0.00392 172.96085 224.31053
226.0 0.00442 172.92287 223.45015
248.0 0.00403 172.88541 222.71933
256.0 0.00391 172.84846 222.10762
231.0 0.00433 172.81203 221.60585
241.0 0.00415 172.77612 221.20644
226.0 0.00442 172.74072 220.90280
231.0 0.00433 172.70584 220.68948
231.0 0.00433 172.67148 220.56181
238.0 0.00420 172.63760 220.51613
230.0 0.00435 172.60425 220.54909
251.0 0.00398 172.57141 220.65843
228.0 0.00439 172.53906 220.84215
230.0 0.00435 172.50722 221.09906
238.0 0.00420 172.47589 221.42819
246.0 0.00407 172.44507 221.82938
235.0 0.00426 172.41473 222.30269
225.0 0.00444 172.38490 224.42732
236.0 0.00424 172.35558 225.06056
242.0 0.00413 172.32675 225.76942
257.0 0.00389 172.29840 226.55583
211.0 0.00474 172.27057 227.42227
240.0 0.00417 172.24321 228.37186
245.0 0.00408 172.21635 230.19121
241.0 0.00415 172.18999 231.32481
216.0 0.00463 172.16411 232.55409
262.0 0.00382 172.13870 233.88432
253.0 0.00395 172.11380 235.32184
281.0 0.00356 172.08940 236.87370
232.0 0.00431 172.06544 238.54758
258.0 0.00388 172.04201 240.35271
260.0 0.00385 172.01903 242.29900
265.0 0.00377 171.99654 244.39792
226.0 0.00442 171.97453 246.66229
255.0 0.00392 171.95300 249.10666
289.0 0.003460 171.93193 251.74745
231.0 0.00433 171.91135 254.60336
277.0 0.00361 171.89124 257.69556
261.0 0.00383 171.87160 261.04831
262.0 0.00382 171.85243 264.68896
311.0 0.003215 171.83372 268.64948
287.0 0.003484 171.81549 272.96619
272.0 0.00368 171.79773 277.68195
296.0 0.003378 171.78044 282.84662
307.0 0.003257 171.76360 288.52029
318.0 0.003145 171.74722 294.77606
304.0 0.003289 171.73131 301.70599
333.0 0.003003 171.71587 309.42929
299.0 0.003344 171.70087 318.10599
319.0 0.003135 171.68633 327.95691
348.0 0.002874 171.67226 339.29321
362.0 0.002762 171.65863 352.55823
383.0 0.002611 171.64545 368.38306
411.0 0.002433 171.63272 387.65659
403.0 0.002481 171.62045 411.60626
458.0 0.002183 171.60863 441.88211
527.0 0.001898 171.59724 480.62979
520.0 0.001923 171.58632 530.53180
602.0 0.001661 171.57584 594.79230
607.0 0.001647 171.56578 677.03912
739.0 0.001353 171.55618 781.12146
901.0 0.001110 171.54703 910.79498
1041.0 0.000961 171.53830 1069.29675
1194.0 0.000838 171.53001 1258.83386
1342.0 0.000745 171.52217 1480.00269
1563.0 0.000640 171.51476 1731.15552
1860.0 0.000538 171.50778 2007.67981
2164.0 0.000462 171.50122 2301.17529
2597.0 0.000385 171.49510 2598.60596
2890.0 0.0003460 171.48943 2881.91479
3262.0 0.0003066 171.48416 3129.17041
3437.0 0.0002910 171.47932 3318.40869
3536.0 0.0002828 171.47491 3433.67017
3706.0 0.0002698 171.47093 3469.82300
3554.0 0.0002814 171.46736 3432.29980
3445.0 0.0002903 171.46423 3331.97827
3235.0 0.0003091 171.46150 3179.63281
3075.0 0.0003252 171.45920 2983.93823
2721.0 0.000368 171.45731 2753.18213
2438.0 0.000410 171.45583 2497.77124
2186.0 0.000457 171.45477 2230.62817
1924.0 0.000520 171.45413 1965.18030
1648.0 0.000607 171.45389 1712.86450
1389.0 0.000720 171.45406 1481.75391
1166.0 0.000858 171.45465 1276.47717
1015.0 0.000985 171.45563 1098.83130
872.0 0.001147 171.45702 948.54480
735.0 0.001361 171.45882 823.94769
665.0 0.001504 171.46101 722.50458
603.0 0.001658 171.46361 641.22540
537.0 0.001862 171.46660 576.98273
476.0 0.002101 171.47000 526.74670
498.0 0.002008 171.47379 487.74765
419.0 0.002387 171.47798 457.57324
443.0 0.002257 171.48256 434.20959
384.0 0.002604 171.48753 416.03775
440.0 0.002273 171.49289 401.79898
410.0 0.002439 171.49864 390.54391
407.0 0.002457 171.50479 381.57422
375.0 0.002667 171.51131 374.38647
357.0 0.002801 171.51823 368.62274
309.0 0.003236 171.52551 364.03021
351.0 0.002849 171.53319 360.43030
379.0 0.002639 171.54124 357.69589
372.0 0.002688 171.54970 355.73538
334.0 0.002994 171.55850 354.48206
360.0 0.002778 171.56769 353.88693
383.0 0.002611 171.57726 353.91409
376.0 0.002660 171.58719 354.53912
341.0 0.002933 171.59750 355.74347
379.0 0.002639 171.60818 357.51859
358.0 0.002793 171.61923 359.86148
390.0 0.002564 171.63066 362.67941
369.0 0.002710 171.64243 366.17560
336.0 0.002976 171.65457 370.26868
353.0 0.002833 171.66708 374.98065
391.0 0.002558 171.67996 380.34021
370.0 0.002703 171.69319 385.32184
425.0 0.002353 171.70679 392.09659
373.0 0.002681 171.72073 399.64874
397.0 0.002519 171.73503 408.03885
415.0 0.002410 171.74969 417.33807
410.0 0.002439 171.76469 427.62927
451.0 0.002217 171.78006 439.00949
486.0 0.002058 171.79578 451.59238
470.0 0.002128 171.81183 465.51138
490.0 0.002041 171.82825 480.92593
502.0 0.001992 171.84500 498.02811
489.0 0.002045 171.86209 517.05719
524.0 0.001908 171.87953 538.31079
568.0 0.001761 171.89731 562.18433
553.0 0.001808 171.91542 589.20795
620.0 0.001613 171.93388 620.11438
627.0 0.001595 171.95268 655.93359
694.0 0.001441 171.97182 698.12384
759.0 0.001318 171.99127 748.74384
837.0 0.001195 172.01106 810.66388
886.0 0.001129 172.03120 887.80640
1028.0 0.000973 172.05165 985.38989
1106.0 0.000904 172.07243 1110.76538
1276.0 0.000784 172.09354 1270.99878
1477.0 0.000677 172.11497 1476.58765
1723.0 0.000580 172.13673 1738.63953
1998.0 0.000501 172.15881 2068.89355
2385.0 0.000419 172.18121 2478.78833
2741.0 0.000365 172.20393 2978.22681
3374.0 0.0002964 172.22696 3574.39453
3879.0 0.0002578 172.25031 4268.82617
4824.0 0.0002073 172.27399 5057.44189
5602.0 0.0001785 172.29796 5927.22266
6714.0 0.0001489 172.32225 6854.12842
7820.0 0.0001279 172.34686 7800.55225
8925.0 0.0001120 172.37177 8713.79883
9962.0 0.0001004 172.39699 9528.39258
11007.0 0.0000909 172.42250 10175.80078
11685.0 0.0000856 172.44833 10601.54590
11633.0 0.0000860 172.47446 10781.59082
11506.0 0.0000869 172.50089 10725.89551
11194.0 0.0000893 172.52762 10465.95801
10688.0 0.0000936 172.55464 10036.80176
9740.0 0.0001027 172.58197 9466.63477
8971.0 0.0001115 172.60959 8778.68945
8280.0 0.0001208 172.63751 7999.43799
7253.0 0.0001379 172.66571 7163.69922
6412.0 0.0001560 172.69420 6311.86328
5533.0 0.0001807 172.72299 5482.39355
4613.0 0.0002168 172.75208 4705.58301
3800.0 0.0002632 172.78143 4001.28345
3163.0 0.0003162 172.81107 3379.75488
2758.0 0.000363 172.84100 2843.77148
2168.0 0.000461 172.87122 2390.78687
1859.0 0.000538 172.90170 2014.72949
1673.0 0.000598 172.93248 1707.41028
1458.0 0.000686 172.96352 1459.60583
1068.0 0.000936 172.99484 1261.89441
1034.0 0.000967 173.02644 1105.27429
1013.0 0.000987 173.05832 981.58374
863.0 0.001159 173.09045 883.74768
800.0 0.001250 173.12288 805.86743
751.0 0.001332 173.15555 743.19604
701.0 0.001427 173.18851 692.03162
634.0 0.001577 173.22171 649.56476
605.0 0.001653 173.25519 613.71112
574.0 0.001742 173.28894 582.95044
539.0 0.001855 173.32294 556.44708
516.0 0.001938 173.35719 532.88684
517.0 0.001934 173.39172 511.95547
529.0 0.001890 173.42650 493.22842
473.0 0.002114 173.46153 476.38541
495.0 0.002020 173.49681 461.17764
457.0 0.002188 173.53235 447.40674
457.0 0.002188 173.56815 434.91034
423.0 0.002364 173.60419 423.68433
431.0 0.002320 173.64047 413.35141
416.0 0.002404 173.67700 403.94385
423.0 0.002364 173.71379 395.37619
402.0 0.002488 173.75081 387.57446
386.0 0.002591 173.78807 380.47440
386.0 0.002591 173.82558 374.01959
380.0 0.002632 173.86333 368.16104
388.0 0.002577 173.90131 362.85596
400.0 0.002500 173.93953 358.06711
393.0 0.002545 173.97797 353.76224
364.0 0.002747 174.01666 349.91330
379.0 0.002639 174.05559 346.49658
344.0 0.002907 174.09474 343.49176
403.0 0.002481 174.13409 340.88196
364.0 0.002747 174.17371 338.65344
360.0 0.002778 174.21355 336.79544
364.0 0.002747 174.25360 335.29987
356.0 0.002809 174.29388 334.16177
373.0 0.002681 174.33438 333.37842
364.0 0.002747 174.37511 332.95016
335.0 0.002985 174.41605 332.87997
376.0 0.002660 174.45720 333.17349
347.0 0.002882 174.49857 333.83960
387.0 0.002584 174.54015 334.89035
351.0 0.002849 174.58194 336.34103
377.0 0.002653 174.62396 338.21078
353.0 0.002833 174.66618 340.52295
402.0 0.002488 174.70862 343.30536
348.0 0.002874 174.75125 346.59122
393.0 0.002545 174.79408 350.41965
368.0 0.002717 174.83713 354.83698
358.0 0.002793 174.88037 359.89752
414.0 0.002415 174.92383 365.66602
401.0 0.002494 174.96748 372.21960
401.0 0.002494 175.01132 379.65228
420.0 0.002381 175.05537 388.08060
406.0 0.002463 175.09961 397.65326
475.0 0.002105 175.14404 408.56628
422.0 0.002370 175.18866 421.08630
501.0 0.001996 175.23349 435.58533
519.0 0.001927 175.27850 452.59290
508.0 0.001969 175.32368 472.86768
594.0 0.001684 175.36908 497.49310
585.0 0.001709 175.41464 527.99768
625.0 0.001600 175.46039 566.49188
628.0 0.001592 175.50633 615.81152
699.0 0.001431 175.55244 679.64008
784.0 0.001276 175.59874 762.57861
895.0 0.001117 175.64522 870.11823
1099.0 0.000910 175.69186 1008.47363
1125.0 0.000889 175.73868 1184.24084
1295.0 0.000772 175.78569 1403.86316
1495.0 0.000669 175.83287 1672.91821
1797.0 0.000556 175.88020 1995.25781
2066.0 0.000484 175.92772 2372.06055
2433.0 0.000411 175.97539 2800.81982
3001.0 0.0003332 176.02324 3274.26147
3499.0 0.0002858 176.07126 3779.14551
4061.0 0.0002462 176.11943 4295.01855
4646.0 0.0002152 176.16777 4793.47168
5280.0 0.0001894 176.21628 5239.31787
5934.0 0.0001685 176.26494 5595.62256
6099.0 0.0001640 176.31375 5832.75732
6148.0 0.0001627 176.36273 5937.38428
6168.0 0.0001621 176.41185 5914.81885
5782.0 0.0001730 176.46114 5782.60986
5604.0 0.0001784 176.51057 5560.55518
5281.0 0.0001894 176.56017 5264.29932
4840.0 0.0002066 176.60991 4905.42627
4501.0 0.0002222 176.65981 4495.88232
3991.0 0.0002506 176.70984 4051.87256
3431.0 0.0002915 176.76001 3593.71313
3048.0 0.0003281 176.81033 3142.22217
2583.0 0.000387 176.86081 2714.86279
2170.0 0.000461 176.91142 2323.81665
1767.0 0.000566 176.96216 1976.39465
1464.0 0.000683 177.01305 1674.42957
1311.0 0.000763 177.06409 1417.78674
1108.0 0.000903 177.11523 1203.77954
912.0 0.001096 177.16652 1028.34766
816.0 0.001225 177.21796 886.67499
720.0 0.001389 177.26952 773.67377
694.0 0.001441 177.32121 684.36169
600.0 0.001667 177.37303 614.32996
526.0 0.001901 177.42499 559.12823
569.0 0.001757 177.47707 515.52753
531.0 0.001883 177.52925 480.74472
434.0 0.002304 177.58159 452.59421
449.0 0.002227 177.63402 429.41068
442.0 0.002262 177.68658 409.95789
413.0 0.002421 177.73927 393.33606
371.0 0.002695 177.79207 378.89981
401.0 0.002494 177.84499 366.18781
348.0 0.002874 177.89803 354.87012
411.0 0.002433 177.95117 344.70599
337.0 0.002967 178.00444 335.51730
345.0 0.002899 178.05780 327.16724
313.0 0.003195 178.11128 319.54813
313.0 0.003195 178.16487 312.57248
334.0 0.002994 178.21858 306.16751
295.0 0.003390 178.27237 300.27185
297.0 0.003367 178.32629 294.83237
299.0 0.003344 178.38029 289.80334
327.0 0.003058 178.43442 285.14453
310.0 0.003226 178.48862 280.82068
264.0 0.00379 178.54294 276.80072
293.0 0.003413 178.59734 273.05701
270.0 0.00370 178.65186 269.56503
259.0 0.00386 178.70645 266.30310
288.0 0.003472 178.76115 263.25168
278.0 0.00360 178.81593 260.39322
285.0 0.00351 178.87082 257.71222
284.0 0.00352 178.92578 255.19449
263.0 0.00380 178.98083 252.82735
282.0 0.00355 179.03598 250.59938
267.0 0.00375 179.09120 248.50020
245.0 0.00408 179.14651 246.52034
282.0 0.00355 179.20192 244.65131
256.0 0.00391 179.25740 242.73779
268.0 0.00373 179.31296 241.06857
248.0 0.00403 179.36861 239.48874
238.0 0.00420 179.42430 237.99243
283.0 0.00353 179.48010 236.57423
248.0 0.00403 179.53598 235.15544
234.0 0.00427 179.59192 233.87933
230.0 0.00435 179.64793 232.66756
285.0 0.00351 179.70403 231.51628
247.0 0.00405 179.76018 230.42184
270.0 0.00370 179.81641 229.38100
234.0 0.00427 179.87268 228.39072
226.0 0.00442 179.92905 227.44817
243.0 0.00412 179.98547 226.55075
236.0 0.00424 180.04196 225.69601
222.0 0.00450 180.09851 224.88168
244.0 0.00410 180.15512 224.10574
255.0 0.00392 180.21179 223.36618
249.0 0.00402 180.26852 222.66129
220.0 0.00455 180.32530 221.98924
216.0 0.00463 180.38214 221.34854
258.0 0.00388 180.43904 220.73781
241.0 0.00415 180.49599 220.15556
235.0 0.00426 180.55299 219.60056
245.0 0.00408 180.61005 219.07167
252.0 0.00397 180.66714 218.56766
250.0 0.00400 180.72430 218.08765
224.0 0.00446 180.78149 217.63055
247.0 0.00405 180.83873 217.19545
240.0 0.00417 180.89603 216.78159
223.0 0.00448 180.95335 216.38814
222.0 0.00450 181.01073 216.01436
255.0 0.00392 181.06815 215.65953
217.0 0.00461 181.12560 215.32304
210.0 0.00476 181.18309 215.00421
244.0 0.00410 181.24063 214.70265
223.0 0.00448 181.29819 214.41769
234.0 0.00427 181.35579 214.14890
228.0 0.00439 181.41342 213.89581
249.0 0.00402 181.47108 213.65805
212.0 0.00472 181.52879 213.43517
241.0 0.00415 181.58652 213.22690
220.0 0.00455 181.64427 213.03291
220.0 0.00455 181.70206 212.85281
211.0 0.00474 181.75987 212.68649
217.0 0.00461 181.81769 212.53362
231.0 0.00433 181.87555 212.39407
218.0 0.00459 181.93343 212.26762
216.0 0.00463 181.99133 212.15411
224.0 0.00446 182.04926 212.05356
225.0 0.00444 182.10719 211.34715
231.0 0.00433 182.16516 211.27641
216.0 0.00463 182.22313 211.21832
222.0 0.00450 182.28111 211.17308
251.0 0.00398 182.33911 211.14081
201.0 0.00498 182.39714 211.12161
196.0 0.00510 182.45517 210.86385
219.0 0.00457 182.51320 210.87454
249.0 0.00402 182.57124 210.89986
212.0 0.00472 182.62930 210.94096
258.0 0.00388 182.68738 210.99921
237.0 0.00422 182.74544 211.07666
227.0 0.00441 182.80351 211.17604
240.0 0.00417 182.86159 211.30087
220.0 0.00455 182.91966 211.48331
203.0 0.00493 182.97775 211.67336
230.0 0.00435 183.03583 211.90486
222.0 0.00450 183.09392 212.18468
213.0 0.00469 183.15199 212.51994
225.0 0.00444 183.21007 212.91743
203.0 0.00493 183.26813 213.38292
242.0 0.00413 183.32619 213.92021
201.0 0.00498 183.38425 214.53040
234.0 0.00427 183.44229 215.21082
235.0 0.00426 183.50034 215.95383
218.0 0.00459 183.55836 216.88483
237.0 0.00422 183.61638 217.70575
254.0 0.00394 183.67439 218.52556
222.0 0.00450 183.73238 219.30838
212.0 0.00472 183.79036 220.01576
228.0 0.00439 183.84831 220.61560
239.0 0.00418 183.90627 221.09169
242.0 0.00413 183.96419 221.44756
233.0 0.00429 184.02209 221.77075
205.0 0.00488 184.07999 221.94624
194.0 0.00515 184.13785 222.06276
214.0 0.00467 184.19568 222.13435
240.0 0.00417 184.25351 222.17287
227.0 0.00441 184.31129 222.19281
250.0 0.00400 184.36906 222.21391
234.0 0.00427 184.42680 222.25960
224.0 0.00446 184.48451 222.35278
224.0 0.00446 184.54221 222.51257
198.0 0.00505 184.59987 225.11626
230.0 0.00435 184.65749 225.46255
227.0 0.00441 184.71506 225.90399
231.0 0.00433 184.77263 226.44351
246.0 0.00407 184.83015 227.08220
226.0 0.00442 184.88763 227.82042
215.0 0.00465 184.94508 228.65829
239.0 0.00418 185.00250 229.59639
229.0 0.00437 185.05988 231.81462
253.0 0.00395 185.11720 232.96649
240.0 0.00417 185.17448 234.22636
239.0 0.00418 185.23174 235.60013
240.0 0.00417 185.28896 237.09555
246.0 0.00407 185.34612 238.72285
223.0 0.00448 185.40323 240.49504
234.0 0.00427 185.46031 242.42848
276.0 0.00362 185.51733 244.54433
262.0 0.00382 185.57431 246.86972
242.0 0.00413 185.63123 249.44086
257.0 0.00389 185.68811 252.30652
266.0 0.00376 185.74493 255.53419
267.0 0.00375 185.80171 259.21790
265.0 0.00377 185.85843 263.48947
273.0 0.00366 185.91510 268.53226
283.0 0.00353 185.97171 274.59833
296.0 0.003378 186.02827 282.02710
321.0 0.003115 186.08476 291.26419
334.0 0.002994 186.14120 302.87711
334.0 0.002994 186.19757 317.56302
354.0 0.002825 186.25389 336.14435
372.0 0.002688 186.31015 359.54602
361.0 0.002770 186.36635 388.75085
397.0 0.002519 186.42249 424.73102
448.0 0.002232 186.47856 468.35565
463.0 0.002160 186.53456 520.28033
517.0 0.001934 186.59048 580.82312
591.0 0.001692 186.64636 649.83154
597.0 0.001675 186.70216 726.54053
795.0 0.001258 186.75790 809.41437
831.0 0.001203 186.81355 895.97101
895.0 0.001117 186.86914 982.61859
985.0 0.001015 186.92467 1064.62573
1204.0 0.000831 186.98012 1136.44958
1245.0 0.000803 187.03548 1192.64172
1342.0 0.000745 187.09077 1229.20715
1278.0 0.000782 187.14600 1244.73962
1283.0 0.000779 187.20114 1240.52893
1275.0 0.000784 187.25621 1219.51599
1183.0 0.000845 187.31120 1184.85425
1105.0 0.000905 187.36612 1138.96704
1120.0 0.000893 187.42093 1083.47693
1035.0 0.000966 187.47569 1019.80573
939.0 0.001065 187.53033 950.67743
838.0 0.001193 187.58492 877.14111
810.0 0.001235 187.63942 803.06989
711.0 0.001406 187.69383 731.35956
677.0 0.001477 187.74815 664.29010
540.0 0.001852 187.80240 603.37695
531.0 0.001883 187.85655 549.43347
440.0 0.002273 187.91061 502.71948
453.0 0.002208 187.96457 463.49557
422.0 0.002370 188.01846 430.54190
391.0 0.002558 188.07225 403.66254
373.0 0.002681 188.12595 382.16272
336.0 0.002976 188.17955 365.31015
330.0 0.003030 188.23306 352.38412
305.0 0.003279 188.28647 342.71219
344.0 0.002907 188.33980 335.69485
326.0 0.003067 188.39301 329.05399
327.0 0.003058 188.44614 325.90848
288.0 0.003472 188.49916 324.14679
313.0 0.003195 188.55209 323.51266
333.0 0.003003 188.60492 323.81729
323.0 0.003096 188.65764 324.92828
327.0 0.003058 188.71027 325.87784
359.0 0.002786 188.76279 328.37885
342.0 0.002924 188.81522 331.52066
301.0 0.003322 188.86751 335.29959
320.0 0.003125 188.91972 339.73001
303.0 0.003300 188.97182 344.84229
338.0 0.002959 189.02382 350.68256
339.0 0.002950 189.07571 357.31378
343.0 0.002915 189.12749 364.82034
342.0 0.002924 189.17915 373.31418
355.0 0.002817 189.23071 382.94644
353.0 0.002833 189.28215 393.92355
374.0 0.002674 189.33350 406.53204
379.0 0.002639 189.38472 421.17365
447.0 0.002237 189.43582 438.41220
459.0 0.002179 189.48682 457.46182
460.0 0.002174 189.53770 482.56723
543.0 0.001842 189.58847 513.60889
540.0 0.001852 189.63911 552.52289
625.0 0.001600 189.68964 601.79016
672.0 0.001488 189.74005 664.48236
733.0 0.001364 189.79034 743.47247
784.0 0.001276 189.84052 844.50769
939.0 0.001065 189.89056 971.29565
1041.0 0.000961 189.94051 1128.38733
1230.0 0.000813 189.99031 1319.99536
1344.0 0.000744 190.03999 1549.51343
1603.0 0.000624 190.08955 1818.96667
1932.0 0.000518 190.13899 2128.42358
2293.0 0.000436 190.18829 2475.36914
2725.0 0.000367 190.23749 2854.02173
3062.0 0.0003266 190.28654 3254.56348
3612.0 0.0002769 190.33548 3662.34790
4010.0 0.0002494 190.38428 4057.43823
4411.0 0.0002267 190.43297 4415.31836
4746.0 0.0002107 190.48151 4709.91895
5016.0 0.0001994 190.52991 4919.20313
5051.0 0.0001980 190.57820 5031.29346
5150.0 0.0001942 190.62634 5047.30322
5028.0 0.0001989 190.67436 4978.61768
4755.0 0.0002103 190.72226 4840.53174
4671.0 0.0002141 190.77000 4646.40137
4326.0 0.0002312 190.81763 4405.26709
4161.0 0.0002403 190.86511 4123.22363
3633.0 0.0002753 190.91245 3806.80811
3376.0 0.0002962 190.95966 3465.66602
3148.0 0.0003177 191.00673 3112.67480
2765.0 0.000362 191.05367 2761.77612
2471.0 0.000405 191.10046 2425.36255
2165.0 0.000462 191.14711 2112.69727
1862.0 0.000537 191.19363 1829.60706
1563.0 0.000640 191.24001 1578.94153
1364.0 0.000733 191.28624 1361.26648
1167.0 0.000857 191.33232 1175.51257
1014.0 0.000986 191.37827 1019.49506
879.0 0.001138 191.42407 890.32324
770.0 0.001299 191.46973 784.72406
690.0 0.001449 191.51524 699.30316
627.0 0.001595 191.56061 630.75049
626.0 0.001597 191.60583 575.99310
500.0 0.002000 191.65091 532.29553
480.0 0.002083 191.69583 497.31284
491.0 0.002037 191.74060 469.10205
492.0 0.002033 191.78523 446.10229
407.0 0.002457 191.82971 427.09348
388.0 0.002577 191.87405 411.14471
413.0 0.002421 191.91823 397.55951
390.0 0.002564 191.96227 385.82446
365.0 0.002740 192.00613 375.56375
395.0 0.002532 192.04985 366.50281
362.0 0.002762 192.09341 358.43973
339.0 0.002950 192.13684 351.22336
371.0 0.002695 192.18010 344.73856
356.0 0.002809 192.22321 338.89557
343.0 0.002915 192.26616 333.62195
343.0 0.002915 192.30896 328.85846
366.0 0.002732 192.35159 324.55545
317.0 0.003155 192.39407 320.67090
326.0 0.003067 192.43639 317.16855
312.0 0.003205 192.47856 314.01743
295.0 0.003390 192.52057 311.19009
289.0 0.003460 192.56241 308.66336
321.0 0.003115 192.60410 306.41663
290.0 0.003448 192.64561 304.43234
270.0 0.00370 192.68698 302.69525
326.0 0.003067 192.72818 301.19217
294.0 0.003401 192.76921 299.91226
300.0 0.003333 192.81009 298.84610
305.0 0.003279 192.85080 297.98621
315.0 0.003175 192.89134 297.32657
306.0 0.003268 192.93173 296.86279
302.0 0.003311 192.97194 296.59183
298.0 0.003356 193.01199 296.51196
325.0 0.003077 193.05188 296.62329
331.0 0.003021 193.09160 296.92676
325.0 0.003077 193.13115 297.42529
281.0 0.00356 193.17052 298.12299
345.0 0.002899 193.20973 299.02570
356.0 0.002809 193.24878 300.14096
313.0 0.003195 193.28766 301.47824
344.0 0.002907 193.32635 303.04907
334.0 0.002994 193.36490 304.86725
306.0 0.003268 193.40326 306.94943
305.0 0.003279 193.44145 309.31506
313.0 0.003195 193.47946 311.98785
306.0 0.003268 193.51730 314.99600
320.0 0.003125 193.55498 318.37387
327.0 0.003058 193.59248 322.16409
364.0 0.002747 193.62982 326.42099
318.0 0.003145 193.66696 331.21481
385.0 0.002597 193.70395 336.63931
348.0 0.002874 193.74074 342.82159
403.0 0.002481 193.77736 349.93643
383.0 0.002611 193.81381 358.22516
391.0 0.002558 193.85008 368.02020
414.0 0.002415 193.88618 379.77505
443.0 0.002257 193.92210 394.09839
432.0 0.002315 193.95784 411.79028
464.0 0.002155 193.99339 433.87503
491.0 0.002037 194.02876 461.62479
519.0 0.001927 194.06396 496.56607
523.0 0.001912 194.09900 540.45782
596.0 0.001678 194.13383 595.23657
697.0 0.001435 194.16850 662.91785
715.0 0.001399 194.20297 745.45490
814.0 0.001229 194.23727 844.55811
840.0 0.001190 194.27139 961.48132
1063.0 0.000941 194.30531 1096.78687
1139.0 0.000878 194.33907 1250.13452
1360.0 0.000735 194.37263 1419.85034
1509.0 0.000663 194.40601 1602.86487
1770.0 0.000565 194.43921 1794.21033
2017.0 0.000496 194.47223 1986.73169
2218.0 0.000451 194.50505 2170.97217
2327.0 0.000430 194.53770 2335.67041
2656.0 0.000377 194.57016 2469.29810
2561.0 0.000390 194.60243 2562.60156
2758.0 0.000363 194.63451 2611.12573
2726.0 0.000367 194.66641 2616.05444
2700.0 0.000370 194.69812 2582.92261
2489.0 0.000402 194.72964 2518.75171
2483.0 0.000403 194.76099 2429.57739
2215.0 0.000451 194.79213 2319.42554
2150.0 0.000465 194.82309 2190.84839
1999.0 0.000500 194.85385 2046.36755
1890.0 0.000529 194.88443 1889.76917
1761.0 0.000568 194.91483 1726.39172
1622.0 0.000617 194.94502 1562.35779
1403.0 0.000713 194.97504 1403.42358
1224.0 0.000817 195.00485 1254.14636
1109.0 0.000902 195.03448 1117.60095
997.0 0.001003 195.06392 995.49323
899.0 0.001112 195.09315 888.43555
759.0 0.001318 195.12221 796.23840
714.0 0.001401 195.15106 718.14752
682.0 0.001466 195.17973 653.03448
556.0 0.001799 195.20821 599.54449
565.0 0.001770 195.23650 556.21588
516.0 0.001938 195.26457 521.57611
543.0 0.001842 195.29247 494.21704
503.0 0.001988 195.32018 472.84869
487.0 0.002053 195.34767 456.33426
466.0 0.002146 195.37498 443.70612
461.0 0.002169 195.40210 434.16629
438.0 0.002283 195.42902 427.07666
438.0 0.002283 195.45573 421.94009
438.0 0.002283 195.48225 418.38025
429.0 0.002331 195.50859 416.11798
465.0 0.002151 195.53473 414.95163
387.0 0.002584 195.56065 414.73853
429.0 0.002331 195.58640 415.38052
431.0 0.002320 195.61194 416.81290
457.0 0.002188 195.63728 418.99530
465.0 0.002151 195.66243 421.90588
448.0 0.002232 195.68739 425.53760
441.0 0.002268 195.71213 429.89481
441.0 0.002268 195.73669 434.99237
469.0 0.002132 195.76103 440.85471
475.0 0.002105 195.78519 447.51501
471.0 0.002123 195.80914 455.01611
500.0 0.002000 195.83290 463.41092
510.0 0.001961 195.85645 472.76309
504.0 0.001984 195.87981 483.14917
497.0 0.002012 195.90295 494.66037
509.0 0.001965 195.92592 507.40613
566.0 0.001767 195.94867 521.51886
614.0 0.001629 195.97122 537.16162
593.0 0.001686 195.99356 554.53943
635.0 0.001575 196.01572 573.91565
670.0 0.001493 196.03766 595.63788
672.0 0.001488 196.05942 620.17371
729.0 0.001372 196.08096 648.16211
730.0 0.001370 196.10229 680.48370
830.0 0.001205 196.12344 718.35132
857.0 0.001167 196.14438 763.42487
1004.0 0.000996 196.16510 817.94464
1110.0 0.000901 196.18564 884.87775
1074.0 0.000931 196.20596 968.06073
1242.0 0.000805 196.22609 1072.31763
1374.0 0.000728 196.24602 1203.52100
1507.0 0.000664 196.26573 1368.55933
1694.0 0.000590 196.28525 1575.17957
1823.0 0.000549 196.30455 1831.66724
2045.0 0.000489 196.32365 2146.35767
2448.0 0.000408 196.34256 2526.97388
2751.0 0.000364 196.36127 2979.82104
3104.0 0.0003222 196.37976 3508.88062
3630.0 0.0002755 196.39804 4114.83398
4192.0 0.0002385 196.41614 4794.03418
4839.0 0.0002067 196.43401 5537.38672
5638.0 0.0001774 196.45169 6329.09375
6842.0 0.0001462 196.46915 7145.28223
7649.0 0.0001307 196.48642 7952.96289
8651.0 0.0001156 196.50346 8710.43555
9556.0 0.0001046 196.52032 9370.90234
10250.0 0.0000976 196.53697 9890.49121
10697.0 0.0000935 196.55341 10238.96484
10909.0 0.0000917 196.56964 10407.73926
10739.0 0.0000931 196.58568 10409.72461
10264.0 0.0000974 196.60150 10270.70703
9969.0 0.0001003 196.61711 10017.75098
9507.0 0.0001052 196.63252 9670.87695
8942.0 0.0001118 196.64774 9241.00391
8545.0 0.0001170 196.66272 8733.68457
8135.0 0.0001229 196.67752 8155.74951
7608.0 0.0001314 196.69211 7520.68115
6956.0 0.0001438 196.70648 6849.55908
6039.0 0.0001656 196.72066 6167.57031
5436.0 0.0001840 196.73460 5498.91406
4667.0 0.0002143 196.74837 4863.01563
3950.0 0.0002532 196.76192 4273.03320
3370.0 0.0002967 196.77527 3736.28662
3101.0 0.0003225 196.78839 3255.55713
2593.0 0.000386 196.80133 2830.58789
2348.0 0.000426 196.81404 2459.31055
1985.0 0.000504 196.82657 2138.60034
1771.0 0.000565 196.83887 1864.62439
1545.0 0.000647 196.85097 1633.00061
1475.0 0.000678 196.86285 1438.96899
1219.0 0.000820 196.87454 1277.61719
1136.0 0.000880 196.88602 1144.13965
988.0 0.001012 196.89729 1034.04688
955.0 0.001047 196.90834 943.30811
907.0 0.001103 196.91920 868.42407
839.0 0.001192 196.92984 806.43323
814.0 0.001229 196.94028 754.88232
734.0 0.001362 196.95052 711.77069
681.0 0.001468 196.96054 675.48621
674.0 0.001484 196.97035 644.74176
630.0 0.001587 196.97995 618.51575
669.0 0.001495 196.98936 596.00208
633.0 0.001580 196.99855 576.56641
608.0 0.001645 197.00754 559.71198
554.0 0.001805 197.01631 545.05072
598.0 0.001672 197.02487 532.28009
543.0 0.001842 197.03323 521.16559
544.0 0.001838 197.04138 511.52545
532.0 0.001880 197.04933 503.22021
508.0 0.001969 197.05707 496.14334
498.0 0.002008 197.06461 490.21484
504.0 0.001984 197.07193 485.80240
520.0 0.001923 197.07904 482.01794
473.0 0.002114 197.08595 479.26126
503.0 0.001988 197.09265 477.52542
525.0 0.001905 197.09914 476.81952
514.0 0.001946 197.10542 477.17093
498.0 0.002008 197.11150 478.62900
509.0 0.001965 197.11737 481.27118
524.0 0.001908 197.12303 485.21259
490.0 0.002041 197.12849 490.83267
555.0 0.001802 197.13374 497.94745
578.0 0.001730 197.13878 507.10614
554.0 0.001805 197.14362 518.78174
580.0 0.001724 197.14824 533.62701
642.0 0.001558 197.15266 552.52576
607.0 0.001647 197.15688 576.65039
683.0 0.001464 197.16089 607.51837
678.0 0.001475 197.16469 647.03906
778.0 0.001285 197.16827 697.54144
794.0 0.001259 197.17166 761.76556
870.0 0.001149 197.17484 842.80841
924.0 0.001082 197.17781 944.00769
1046.0 0.000956 197.18059 1068.75940
1142.0 0.000876 197.18315 1220.26758
1230.0 0.000813 197.18550 1401.23376
1457.0 0.000686 197.18765 1613.50232
1637.0 0.000611 197.18959 1857.67261
1839.0 0.000544 197.19133 2132.69507
2140.0 0.000467 197.19286 2435.43213
2402.0 0.000416 197.19418 2760.17261
2903.0 0.0003445 197.19531 3098.10034
3325.0 0.0003008 197.19623 3436.80835
3691.0 0.0002709 197.19693 3760.20386
3920.0 0.0002551 197.19745 4049.39624
4324.0 0.0002313 197.19774 4285.20020
4526.0 0.0002209 197.19783 4452.11865
4653.0 0.0002149 197.19772 4542.30078
4572.0 0.0002187 197.19742 4557.19092
4477.0 0.0002234 197.19690 4505.67529
4391.0 0.0002277 197.19617 4399.84375
4065.0 0.0002460 197.19525 4250.78223
3914.0 0.0002555 197.19412 4066.25024
3671.0 0.0002724 197.19278 3850.78198
3560.0 0.0002809 197.19124 3607.57593
3175.0 0.0003150 197.18950 3340.91016
2927.0 0.0003416 197.18756 3057.59766
2567.0 0.000390 197.18541 2766.71704
2318.0 0.000431 197.18306 2478.06177
2053.0 0.000487 197.18051 2200.42627
1871.0 0.000534 197.17775 1940.55518
1550.0 0.000645 197.17479 1702.88330
1372.0 0.000729 197.17163 1489.78894
1239.0 0.000807 197.16827 1302.02527
1039.0 0.000962 197.16470 1139.14612
959.0 0.001043 197.16093 999.85425
869.0 0.001151 197.15697 882.27527
682.0 0.001466 197.15280 784.17859
727.0 0.001376 197.14842 703.15601
633.0 0.001580 197.14386 636.77100
618.0 0.001618 197.13908 582.67767
587.0 0.001704 197.13411 538.70984
499.0 0.002004 197.12894 502.93869
524.0 0.001908 197.12355 473.83478
456.0 0.002193 197.11798 449.74921
452.0 0.002212 197.11220 429.68549
423.0 0.002364 197.10623 412.75012
438.0 0.002283 197.10005 398.24985
379.0 0.002639 197.09369 385.65665
371.0 0.002695 197.08711 374.57333
368.0 0.002717 197.08034 364.70358
393.0 0.002545 197.07338 355.82675
374.0 0.002674 197.06621 347.84320
359.0 0.002786 197.05884 340.49753
336.0 0.002976 197.05128 333.75827
338.0 0.002959 197.04352 327.54938
326.0 0.003067 197.03555 321.80942
369.0 0.002710 197.02740 316.48782
289.0 0.003460 197.01906 311.54190
294.0 0.003401 197.01050 306.93503
304.0 0.003289 197.00175 302.63531
321.0 0.003115 196.99283 298.61502
295.0 0.003390 196.98369 294.84958
296.0 0.003378 196.97435 291.31686
335.0 0.002985 196.96483 287.99753
280.0 0.00357 196.95511 284.87402
288.0 0.003472 196.94519 281.93076
302.0 0.003311 196.93507 279.15344
261.0 0.00383 196.92477 276.52948
274.0 0.00365 196.91426 274.04715
271.0 0.00369 196.90358 271.69620
254.0 0.00394 196.89268 269.46704
266.0 0.00376 196.88161 267.35104
260.0 0.00385 196.87033 265.34021
264.0 0.00379 196.85887 263.42761
265.0 0.00377 196.84721 261.60657
251.0 0.00398 196.83536 259.87097
254.0 0.00394 196.82332 258.21536
260.0 0.00385 196.81108 256.63464
265.0 0.00377 196.79866 255.12421
257.0 0.00389 196.78604 253.67970
232.0 0.00431 196.77324 252.29718
236.0 0.00424 196.76024 250.97301
269.0 0.00372 196.74706 249.70374
264.0 0.00379 196.73369 248.48628
247.0 0.00405 196.72012 247.31770
268.0 0.00373 196.70636 246.19521
227.0 0.00441 196.69243 245.11649
228.0 0.00439 196.67830 244.07909
252.0 0.00397 196.66397 243.08075
249.0 0.00402 196.64948 242.11961
252.0 0.00397 196.63478 241.19365
236.0 0.00424 196.61989 240.30110
244.0 0.00410 196.60483 239.44038
208.0 0.00481 196.58957 238.60986
212.0 0.00472 196.57414 237.80823
243.0 0.00412 196.55852 237.03397
222.0 0.00450 196.54269 236.28581
225.0 0.00444 196.52670 235.56267
248.0 0.00403 196.51053 234.86327
253.0 0.00395 196.49416 234.18671
236.0 0.00424 196.47762 233.53191
213.0 0.00469 196.46088 232.89787
253.0 0.00395 196.44397 232.28378
215.0 0.00465 196.42686 231.68880
185.0 0.00541 196.40959 231.11212
229.0 0.00437 196.39212 230.55299
219.0 0.00457 196.37448 230.01067
245.0 0.00408 196.35666 229.48457
245.0 0.00408 196.33865 228.97400
244.0 0.00410 196.32047 228.47845
234.0 0.00427 196.30209 227.99721
231.0 0.00433 196.28355 227.52988
208.0 0.00481 196.26482 227.07585
232.0 0.00431 196.24591 226.63467
206.0 0.00485 196.22684 226.20973
212.0 0.00472 196.20757 225.79301
216.0 0.00463 196.18813 225.38777
219.0 0.00457 196.16850 224.99374
206.0 0.00485 196.14871 224.61047
211.0 0.00474 196.12874 224.23770
225.0 0.00444 196.10858 223.87498
224.0 0.00446 196.08826 223.52205
215.0 0.00465 196.06776 223.17865
210.0 0.00476 196.04709 222.97185
218.0 0.00459 196.02623 222.64903
202.0 0.00495 196.00520 222.33301
206.0 0.00485 195.98401 222.02531
227.0 0.00441 195.96263 221.72585
234.0 0.00427 195.94109 221.43428
200.0 0.00500 195.91936 221.15051
198.0 0.00505 195.89748 220.87421
211.0 0.00474 195.87541 220.60539
213.0 0.00469 195.85318 219.71445
195.0 0.00513 195.83076 219.52657
204.0 0.00490 195.80820 219.28223
228.0 0.00439 195.78545 219.04445
203.0 0.00493 195.76253 218.81322
217.0 0.00461 195.73944 218.58827
214.0 0.00467 195.71619 218.36964
252.0 0.00397 195.69276 217.70659
212.0 0.00472 195.66916 217.50229
199.0 0.00503 195.64540 217.30376
184.0 0.00543 195.62148 217.11101
233.0 0.00429 195.59738 216.92386
204.0 0.00490 195.57312 216.74231
241.0 0.00415 195.54869 216.56624
215.0 0.00465 195.52409 216.39554
211.0 0.00474 195.49934 216.23004
223.0 0.00448 195.47443 216.06992
192.0 0.00521 195.44933 215.91492
216.0 0.00463 195.42409 215.76501
201.0 0.00498 195.39867 215.62021
224.0 0.00446 195.37309 215.48045
186.0 0.00538 195.34735 215.34563
194.0 0.00515 195.32146 215.21584
183.0 0.00546 195.29539 215.09087
226.0 0.00442 195.26918 214.97087
217.0 0.00461 195.24278 214.85568
206.0 0.00485 195.21625 214.74547
248.0 0.00403 195.18954 214.63995
203.0 0.00493 195.16267 214.53941
200.0 0.00500 195.13567 214.44365
197.0 0.00508 195.10847 214.35280
199.0 0.00503 195.08115 214.26683
212.0 0.00472 195.05365 214.18578
223.0 0.00448 195.02600 214.10954
184.0 0.00543 194.99820 214.03842
185.0 0.00541 194.97023 213.97215
207.0 0.00483 194.94212 213.91096
169.0 0.00592 194.91385 213.85489
199.0 0.00503 194.88542 213.80394
184.0 0.00543 194.85684 213.75818
210.0 0.00476 194.82811 213.71779
211.0 0.00474 194.79922 213.68263
196.0 0.00510 194.77019 213.65305
205.0 0.00488 194.74100 213.62903
208.0 0.00481 194.71165 213.61055
202.0 0.00495 194.68216 213.59785
193.0 0.00518 194.65253 213.59114
210.0 0.00476 194.62273 213.59036
207.0 0.00483 194.59279 213.59578
196.0 0.00510 194.56270 213.93805
191.0 0.00524 194.53247 213.95833
199.0 0.00503 194.50208 213.98531
218.0 0.00459 194.47154 214.01921
203.0 0.00493 194.44087 214.06018
214.0 0.00467 194.41003 214.10843
215.0 0.00465 194.37907 214.16423
199.0 0.00503 194.34795 214.22784
199.0 0.00503 194.31670 214.29950
210.0 0.00476 194.28529 214.54346
187.0 0.00535 194.25374 214.63324
185.0 0.00541 194.22205 214.73195
214.0 0.00467 194.19022 214.84010
206.0 0.00485 194.15823 214.95798
205.0 0.00488 194.12611 215.08598
199.0 0.00503 194.09386 215.22453
202.0 0.00495 194.06146 215.37418
221.0 0.00452 194.02893 215.53542
205.0 0.00488 193.99625 215.70868
181.0 0.00552 193.96342 215.89462
208.0 0.00481 193.93048 216.09384
221.0 0.00452 193.89738 215.91229
216.0 0.00463 193.86415 216.14238
203.0 0.00493 193.83078 216.38791
214.0 0.00467 193.79727 216.64961
182.0 0.00549 193.76364 216.92848
201.0 0.00498 193.72987 217.22542
189.0 0.00529 193.69597 217.54149
207.0 0.00483 193.66193 217.68054
198.0 0.00505 193.62775 218.03935
197.0 0.00508 193.59343 218.42097
198.0 0.00505 193.55899 218.82671
179.0 0.00559 193.52441 219.25809
199.0 0.00503 193.48973 219.71689
224.0 0.00446 193.45490 220.20483
191.0 0.00524 193.41992 220.72389
182.0 0.00549 193.38483 221.27623
229.0 0.00437 193.34961 221.86433
196.0 0.00510 193.31425 222.49052
217.0 0.00461 193.27878 223.15776
225.0 0.00444 193.24318 223.86914
234.0 0.00427 193.20744 224.62796
249.0 0.00402 193.17159 225.43803
243.0 0.00412 193.13560 226.30353
187.0 0.00535 193.09950 227.22879
194.0 0.00515 193.06326 228.21901
192.0 0.00521 193.02690 229.27965
233.0 0.00429 192.99042 230.41705
238.0 0.00420 192.95381 231.63794
203.0 0.00493 192.91710 232.95006
201.0 0.00498 192.88025 234.36205
238.0 0.00420 192.84329 235.88351
237.0 0.00422 192.80620 237.52560
223.0 0.00448 192.76900 239.30069
223.0 0.00448 192.73166 241.22318
227.0 0.00441 192.69421 243.30968
248.0 0.00403 192.65665 245.58011
275.0 0.00364 192.61897 248.05833
260.0 0.00385 192.58118 250.77388
251.0 0.00398 192.54327 253.76424
293.0 0.003413 192.50523 257.07816
256.0 0.00391 192.46709 260.78006
253.0 0.00395 192.42883 264.95728
269.0 0.00372 192.39046 269.72797
294.0 0.003401 192.35197 275.25308
277.0 0.00361 192.31339 281.75027
266.0 0.00376 192.27466 289.51102
325.0 0.003077 192.23584 298.91864
367.0 0.002725 192.19690 310.46738
345.0 0.002899 192.15787 324.77921
388.0 0.002577 192.11870 342.61414
416.0 0.002404 192.07944 364.87338
416.0 0.002404 192.04008 392.58493
446.0 0.002242 192.00060 426.87460
499.0 0.002004 191.96101 468.91434
521.0 0.001919 191.92131 519.84833
554.0 0.001805 191.88152 580.70093
664.0 0.001506 191.84160 652.26550
660.0 0.001515 191.80161 734.98615
761.0 0.001314 191.76149 828.83246
890.0 0.001124 191.72127 933.17102
977.0 0.001024 191.68095 1046.63354
1069.0 0.000935 191.64052 1166.96838
1197.0 0.000835 191.59999 1290.88696
1291.0 0.000775 191.55936 1413.93335
1491.0 0.000671 191.51865 1530.49207
1759.0 0.000569 191.47780 1634.12610
1762.0 0.000568 191.43689 1718.42053
1879.0 0.000532 191.39586 1778.28455
1964.0 0.000509 191.35474 1811.23157
1776.0 0.000563 191.31352 1817.92468
1797.0 0.000556 191.27219 1801.60327
1740.0 0.000575 191.23077 1766.71887
1690.0 0.000592 191.18925 1717.50818
1636.0 0.000611 191.14766 1657.07153
1517.0 0.000659 191.10594 1587.14819
1430.0 0.000699 191.06416 1508.50317
1449.0 0.000690 191.02228 1421.68982
1374.0 0.000728 190.98029 1327.82080
1144.0 0.000874 190.93822 1228.95593
1142.0 0.000876 190.89604 1127.93970
1025.0 0.000976 190.85381 1027.86902
875.0 0.001143 190.81145 931.54669
792.0 0.001263 190.76901 841.15192
723.0 0.001383 190.72650 758.15845
648.0 0.001543 190.68388 683.40558
595.0 0.001681 190.64119 617.22180
541.0 0.001848 190.59839 559.54614
451.0 0.002217 190.55553 510.02863
439.0 0.002278 190.51256 468.10840
409.0 0.002445 190.46951 433.07892
401.0 0.002494 190.42638 404.14603
372.0 0.002688 190.38316 380.48206
355.0 0.002817 190.33987 361.27820
351.0 0.002849 190.29649 345.79016
351.0 0.002849 190.25304 333.37137
347.0 0.002882 190.20949 323.49109
305.0 0.003279 190.16586 315.73645
279.0 0.00358 190.12216 309.80707
342.0 0.002924 190.07838 305.50620
329.0 0.003040 190.03452 302.73691
313.0 0.003195 189.99057 301.49905
311.0 0.003215 189.94656 301.88803
304.0 0.003289 189.90247 304.09421
285.0 0.00351 189.85829 308.39392
286.0 0.003497 189.81404 315.13205
326.0 0.003067 189.76973 324.69373
301.0 0.003322 189.72531 337.46701
372.0 0.002688 189.68085 353.79880
341.0 0.002933 189.63632 373.94794
387.0 0.002584 189.59169 398.03720
401.0 0.002494 189.54701 426.00623
407.0 0.002457 189.50224 457.56558
471.0 0.002123 189.45741 492.15414
501.0 0.001996 189.41251 528.89648
559.0 0.001789 189.36755 566.56036
550.0 0.001818 189.32249 603.53241
637.0 0.001570 189.27740 637.85022
597.0 0.001675 189.23224 667.36224
624.0 0.001603 189.18698 690.06525
732.0 0.001366 189.14168 704.56195
679.0 0.001473 189.09630 710.43243
615.0 0.001626 189.05087 708.58966
623.0 0.001605 189.00536 699.74084
632.0 0.001582 188.95981 685.71698
642.0 0.001558 188.91415 667.83014
587.0 0.001704 188.86848 646.95459
597.0 0.001675 188.82274 623.52008
542.0 0.001845 188.77692 597.67352
523.0 0.001912 188.73105 569.54242
507.0 0.001972 188.68510 539.47546
500.0 0.002000 188.63911 508.13739
475.0 0.002105 188.59305 476.42297
431.0 0.002320 188.54695 445.42310
377.0 0.002653 188.50079 415.65076
377.0 0.002653 188.45456 387.87262
359.0 0.002786 188.40829 362.49240
351.0 0.002849 188.36195 339.73080
277.0 0.00361 188.31557 319.66254
271.0 0.00369 188.26912 302.24942
250.0 0.00400 188.22263 287.36731
256.0 0.00391 188.17607 274.82870
272.0 0.00368 188.12947 264.40262
247.0 0.00405 188.08282 255.83345
270.0 0.00370 188.03612 248.85800
238.0 0.00420 187.98938 243.21983
238.0 0.00420 187.94257 238.68047
207.0 0.00483 187.89572 235.02715
202.0 0.00495 187.84882 232.07695
195.0 0.00513 187.80188 229.67772
238.0 0.00420 187.75487 227.70665
209.0 0.00478 187.70784 226.06740
217.0 0.00461 187.66077 224.68623
205.0 0.00488 187.61362 223.50755
229.0 0.00437 187.56645 222.49033
211.0 0.00474 187.51923 221.60464
233.0 0.00429 187.47197 220.82869
204.0 0.00490 187.42465 220.14655
185.0 0.00541 187.37732 219.54651
208.0 0.00481 187.32994 219.01985
213.0 0.00469 187.28250 218.56003
217.0 0.00461 187.23505 218.16191
176.0 0.00568 187.18753 217.82144
197.0 0.00508 187.14000 217.53561
189.0 0.00529 187.09239 217.30193
198.0 0.00505 187.04478 217.11848
192.0 0.00521 186.99712 216.98378
222.0 0.00450 186.94943 216.89682
182.0 0.00549 186.90172 216.85698
194.0 0.00515 186.85394 216.86409
237.0 0.00422 186.80615 216.91820
235.0 0.00426 186.75832 217.21472
194.0 0.00515 186.71046 217.36548
217.0 0.00461 186.66257 217.56564
199.0 0.00503 186.61464 217.81686
214.0 0.00467 186.56668 218.12111
202.0 0.00495 186.51869 218.48088
204.0 0.00490 186.47069 218.89890
184.0 0.00543 186.42264 219.37859
198.0 0.00505 186.37457 219.92412
215.0 0.00465 186.32646 220.53989
215.0 0.00465 186.27834 221.23183
231.0 0.00433 186.23018 222.10344
206.0 0.00485 186.18201 222.96875
229.0 0.00437 186.13380 223.93401
194.0 0.00515 186.08557 225.01120
205.0 0.00488 186.03732 226.21532
229.0 0.00437 185.98904 227.56548
216.0 0.00463 185.94075 229.08717
211.0 0.00474 185.89241 230.81383
212.0 0.00472 185.84409 232.79010
217.0 0.00461 185.79572 235.07596
240.0 0.00417 185.74733 237.75087
228.0 0.00439 185.69894 240.91992
253.0 0.00395 185.65051 244.71997
233.0 0.00429 185.60208 249.32579
270.0 0.00370 185.55362 254.95638
283.0 0.00353 185.50516 261.87964
281.0 0.00356 185.45665 270.41418
278.0 0.00360 185.40816 280.92789
314.0 0.003185 185.35963 293.83011
349.0 0.002865 185.31111 309.55908
329.0 0.003040 185.26257 328.56079
341.0 0.002933 185.21400 351.26212
388.0 0.002577 185.16544 378.03674
370.0 0.002703 185.11684 409.16730
420.0 0.002381 185.06825 444.80347
418.0 0.002392 185.01964 484.91803
513.0 0.001949 184.97102 529.26263
521.0 0.001919 184.92241 577.31708
629.0 0.001590 184.87378 628.23547
685.0 0.001460 184.82513 680.78552
734.0 0.001362 184.77647 733.29370
798.0 0.001253 184.72783 783.66461
851.0 0.001175 184.67917 829.36182
941.0 0.001063 184.63051 867.83136
947.0 0.001056 184.58182 896.86072
961.0 0.001041 184.53316 915.08990
976.0 0.001025 184.48448 922.33868
956.0 0.001046 184.43581 919.55096
893.0 0.001120 184.38712 908.38666
887.0 0.001127 184.33842 890.66711
866.0 0.001155 184.28975 867.86365
851.0 0.001175 184.24104 841.09015
871.0 0.001148 184.19237 810.77411
792.0 0.001263 184.14368 777.09564
748.0 0.001337 184.09500 740.17334
689.0 0.001451 184.04633 700.42914
621.0 0.001610 183.99763 658.64899
617.0 0.001621 183.94896 615.92670
597.0 0.001675 183.90028 572.12262
509.0 0.001965 183.85162 531.02460
493.0 0.002028 183.80295 492.17612
442.0 0.002262 183.75430 455.46774
389.0 0.002571 183.70566 422.68668
352.0 0.002841 183.65700 393.29935
374.0 0.002674 183.60837 367.32455
322.0 0.003106 183.55974 344.66714
297.0 0.003367 183.51112 325.14987
288.0 0.003472 183.46251 308.53680
266.0 0.00376 183.41391 294.55466
280.0 0.00357 183.36531 282.91019
252.0 0.00397 183.31674 273.30524
246.0 0.00407 183.26819 265.44965
258.0 0.00388 183.21962 259.64609
266.0 0.00376 183.17108 254.50079
257.0 0.00389 183.12254 250.36835
266.0 0.00376 183.07404 247.06267
245.0 0.00408 183.02553 244.42870
251.0 0.00398 182.97705 242.34018
250.0 0.00400 182.92857 240.69661
226.0 0.00442 182.88014 239.42003
222.0 0.00450 182.83171 238.45087
219.0 0.00457 182.78328 237.74467
200.0 0.00500 182.73489 237.26909
236.0 0.00424 182.68651 237.28737
219.0 0.00457 182.63815 237.21202
217.0 0.00461 182.58981 237.31786
251.0 0.00398 182.54150 237.59917
225.0 0.00444 182.49321 238.05353
242.0 0.00413 182.44493 238.68201
224.0 0.00446 182.39668 239.48807
221.0 0.00452 182.34843 240.47832
262.0 0.00382 182.30025 241.66237
262.0 0.00382 182.25206 243.05336
280.0 0.00357 182.20390 244.66917
243.0 0.00412 182.15576 246.53362
251.0 0.00398 182.10767 248.67834
256.0 0.00391 182.05960 251.14645
247.0 0.00405 182.01154 253.99570
258.0 0.00388 181.96353 257.30450
253.0 0.00395 181.91551 261.17874
267.0 0.00375 181.86755 265.75995
292.0 0.003425 181.81961 271.23621
300.0 0.003333 181.77171 277.85248
295.0 0.003390 181.72383 285.92337
302.0 0.003311 181.67599 295.84329
316.0 0.003165 181.62819 308.09549
322.0 0.003106 181.58040 323.25525
382.0 0.002618 181.53267 342.21500
387.0 0.002584 181.48494 365.26187
386.0 0.002591 181.43727 393.41519
416.0 0.002404 181.38962 427.48346
467.0 0.002141 181.34201 468.24042
529.0 0.001890 181.29445 516.36444
591.0 0.001692 181.24690 572.36865
629.0 0.001590 181.19940 636.52539
673.0 0.001486 181.15193 708.78979
768.0 0.001302 181.10452 788.71765
836.0 0.001196 181.05713 875.38300
956.0 0.001046 181.00978 967.39819
986.0 0.001014 180.96246 1062.35767
1152.0 0.000868 180.91521 1157.42810
1221.0 0.000819 180.86800 1248.86914
1372.0 0.000729 180.82080 1332.29382
1454.0 0.000688 180.77367 1403.10657
1507.0 0.000664 180.72655 1457.26245
1604.0 0.000623 180.67950 1492.15857
1618.0 0.000618 180.63248 1507.25952
1450.0 0.000690 180.58551 1504.08716
1502.0 0.000666 180.53857 1485.56152
1465.0 0.000683 180.49171 1455.03577
1452.0 0.000689 180.44489 1415.44141
1341.0 0.000746 180.39809 1368.80652
1247.0 0.000802 180.35135 1316.17163
1238.0 0.000808 180.30466 1257.85730
1166.0 0.000858 180.25801 1193.95483
1113.0 0.000898 180.21141 1124.85474
1012.0 0.000988 180.16486 1051.58984
998.0 0.001002 180.11838 975.84033
883.0 0.001133 180.07191 899.64777
804.0 0.001244 180.02553 825.03821
678.0 0.001475 179.97917 753.73138
661.0 0.001513 179.93288 687.00854
584.0 0.001712 179.88663 625.71100
552.0 0.001812 179.84044 570.30072
472.0 0.002119 179.79430 520.94214
437.0 0.002288 179.74821 477.57095
431.0 0.002320 179.70219 439.95361
431.0 0.002320 179.65622 407.73190
354.0 0.002825 179.61031 380.46088
355.0 0.002817 179.56442 357.64249
327.0 0.003058 179.51863 338.75354
312.0 0.003205 179.47287 323.27228
282.0 0.00355 179.42719 310.69861
286.0 0.003497 179.38153 300.57056
255.0 0.00392 179.33597 292.47552
253.0 0.00395 179.29045 286.05612
256.0 0.00391 179.24498 281.01202
236.0 0.00424 179.19960 277.09854
262.0 0.00382 179.15425 274.12286
282.0 0.00355 179.10898 271.93930
293.0 0.003413 179.06375 270.44373
290.0 0.003448 179.01860 269.56989
253.0 0.00395 178.97351 269.28577
251.0 0.00398 178.92848 269.59241
283.0 0.00353 178.88351 270.52435
305.0 0.003279 178.83861 272.15247
281.0 0.00356 178.79378 274.58752
289.0 0.003460 178.74899 277.98691
305.0 0.003279 178.70430 282.55994
325.0 0.003077 178.65964 288.57529
324.0 0.003086 178.61507 296.36444
311.0 0.003215 178.57057 306.32407
351.0 0.002849 178.52612 318.91254
379.0 0.002639 178.48175 334.63995
363.0 0.002755 178.43744 354.05170
370.0 0.002703 178.39320 377.70230
398.0 0.002513 178.34903 406.12073
443.0 0.002257 178.30493 439.76917
474.0 0.002110 178.26089 478.99628
488.0 0.002049 178.21695 523.98505
548.0 0.001825 178.17307 574.70087
616.0 0.001623 178.12924 630.83771
633.0 0.001580 178.08551 691.76038
712.0 0.001404 178.04182 756.44141
813.0 0.001230 177.99823 823.39331
883.0 0.001133 177.95470 890.60297
938.0 0.001066 177.91125 955.51068
1030.0 0.000971 177.86789 1015.18274
1058.0 0.000945 177.82457 1066.24573
1179.0 0.000848 177.78136 1105.90247
1158.0 0.000864 177.73819 1132.20154
1070.0 0.000935 177.69513 1144.58630
1049.0 0.000953 177.65211 1143.96045
1092.0 0.000916 177.60921 1132.28955
1036.0 0.000965 177.56635 1111.95459
1033.0 0.000968 177.52359 1085.13721
968.0 0.001033 177.48090 1053.43127
978.0 0.001022 177.43828 1017.72748
990.0 0.001010 177.39577 978.33667
873.0 0.001145 177.35330 935.33228
846.0 0.001182 177.31093 888.75006
828.0 0.001208 177.26863 839.14105
783.0 0.001277 177.22643 787.49261
696.0 0.001437 177.18430 735.13806
696.0 0.001437 177.14226 683.50409
652.0 0.001534 177.10030 633.87408
577.0 0.001733 177.05841 587.24738
532.0 0.001880 177.01662 544.30396
521.0 0.001919 176.97488 505.42789
500.0 0.002000 176.93326 470.75604
446.0 0.002242 176.89171 440.22763
443.0 0.002257 176.85025 413.62994
421.0 0.002375 176.80887 390.63910
367.0 0.002725 176.76758 370.86459
394.0 0.002538 176.72638 353.89551
368.0 0.002717 176.68524 339.34229
348.0 0.002874 176.64421 326.86261
347.0 0.002882 176.60326 316.16641
321.0 0.003115 176.56241 307.00589
319.0 0.003135 176.52162 299.16046
289.0 0.003460 176.48096 292.42465
303.0 0.003300 176.44037 286.60397
305.0 0.003279 176.39984 281.51688
295.0 0.003390 176.35944 277.00189
288.0 0.003472 176.31911 272.92816
246.0 0.00407 176.27887 269.20428
261.0 0.00383 176.23872 265.78018
250.0 0.00400 176.19867 262.64206
270.0 0.00370 176.15871 259.79868
283.0 0.00353 176.11884 257.26971
259.0 0.00386 176.07907 255.07547
262.0 0.00382 176.03937 253.23312
261.0 0.00383 175.99979 251.75513
251.0 0.00398 175.96027 250.65041
278.0 0.00360 175.92087 249.92603
249.0 0.00402 175.88155 249.58836
284.0 0.00352 175.84235 249.64563
263.0 0.00380 175.80322 250.11050
272.0 0.00368 175.76419 251.00253
289.0 0.003460 175.72527 252.35278
285.0 0.00351 175.68642 254.20821
271.0 0.00369 175.64767 256.63788
290.0 0.003448 175.60902 259.74002
286.0 0.003497 175.57048 263.65070
279.0 0.00358 175.53203 268.55276
305.0 0.003279 175.49368 274.68579
298.0 0.003356 175.45543 282.35419
314.0 0.003185 175.41727 291.93570
334.0 0.002994 175.37921 303.88422
318.0 0.003145 175.34125 318.72961
311.0 0.003215 175.30339 337.06924
377.0 0.002653 175.26563 359.55078
412.0 0.002427 175.22797 386.84653
411.0 0.002433 175.19040 419.61609
434.0 0.002304 175.15294 458.46011
465.0 0.002151 175.11559 503.86734
501.0 0.001996 175.07832 556.15491
574.0 0.001742 175.04118 615.40723
614.0 0.001629 175.00412 681.41339
744.0 0.001344 174.96718 753.60382
756.0 0.001323 174.93031 830.98059
932.0 0.001073 174.89357 912.04437
936.0 0.001068 174.85693 994.77216
1038.0 0.000963 174.82039 1076.33289
1122.0 0.000891 174.78397 1153.45313
1250.0 0.000800 174.74762 1222.37842
1386.0 0.000722 174.71140 1279.36841
1485.0 0.000673 174.67526 1321.36218
1490.0 0.000671 174.63925 1346.66052
1385.0 0.000722 174.60333 1355.31311
1397.0 0.000716 174.56754 1348.97327
1261.0 0.000793 174.53183 1330.28943
1302.0 0.000768 174.49623 1302.12817
1177.0 0.000850 174.46075 1266.93372
1141.0 0.000876 174.42537 1226.40039
1158.0 0.000864 174.39009 1181.30591
1051.0 0.000951 174.35492 1131.87317
984.0 0.001016 174.31987 1078.03186
983.0 0.001017 174.28491 1019.87592
955.0 0.001047 174.25006 957.98938
944.0 0.001059 174.21533 893.52722
799.0 0.001252 174.18071 828.04694
800.0 0.001250 174.14619 763.21149
685.0 0.001460 174.11177 700.52295
645.0 0.001550 174.07748 641.17090
585.0 0.001709 174.04329 585.99298
522.0 0.001916 174.00922 535.50616
462.0 0.002165 173.97525 489.96518
405.0 0.002469 173.94138 449.41843
386.0 0.002591 173.90764 413.75647
338.0 0.002959 173.87399 382.75037
345.0 0.002899 173.84047 356.08286
285.0 0.00351 173.80705 333.37476
331.0 0.003021 173.77376 314.39743
297.0 0.003367 173.74055 298.34607
293.0 0.003413 173.70749 284.97992
313.0 0.003195 173.67453 273.89188
287.0 0.003484 173.64166 264.70657
237.0 0.00422 173.60893 257.08832
252.0 0.00397 173.57629 250.74525
255.0 0.00392 173.54379 245.42996
254.0 0.00394 173.51138 240.93721
238.0 0.00420 173.47910 237.10060
223.0 0.00448 173.44693 233.78766
228.0 0.00439 173.41487 230.89435
201.0 0.00498 173.38293 228.43388
244.0 0.00410 173.35110 226.15735
221.0 0.00452 173.31940 224.11058
238.0 0.00420 173.28780 222.25726
207.0 0.00483 173.25632 220.56960
216.0 0.00463 173.22493 219.02560
226.0 0.00442 173.19370 217.60811
220.0 0.00455 173.16257 216.30319
206.0 0.00485 173.13153 215.09949
235.0 0.00426 173.10063 214.46765
233.0 0.00429 173.06984 213.44206
201.0 0.00498 173.03918 212.49301
234.0 0.00427 173.00862 211.61426
211.0 0.00474 172.97820 210.80043
208.0 0.00481 172.94788 210.04680
187.0 0.00535 172.91768 209.34894
206.0 0.00485 172.88760 208.70323
213.0 0.00469 172.85762 208.10597
181.0 0.00552 172.82779 207.55417
216.0 0.00463 172.79805 207.35612
197.0 0.00508 172.76845 206.88890
202.0 0.00495 172.73895 206.69984
240.0 0.00417 172.70958 206.30800
209.0 0.00478 172.68033 205.95024
205.0 0.00488 172.65118 205.62503
199.0 0.00503 172.62218 205.33070
233.0 0.00429 172.59328 205.06607
186.0 0.00538 172.56451 204.82993
202.0 0.00495 172.53584 204.62122
219.0 0.00457 172.50731 204.43904
183.0 0.00546 172.47890 204.28270
195.0 0.00513 172.45059 204.30661
216.0 0.00463 172.42242 204.20059
240.0 0.00417 172.39436 204.11858
191.0 0.00524 172.36644 204.06033
186.0 0.00538 172.33861 204.02550
187.0 0.00535 172.31093 204.01398
204.0 0.00490 172.28336 204.02571
193.0 0.00518 172.25591 204.06088
217.0 0.00461 172.22856 204.11967
199.0 0.00503 172.20135 204.20280
195.0 0.00513 172.17427 204.31068
199.0 0.00503 172.14731 204.44469
183.0 0.00546 172.12047 204.60606
191.0 0.00524 172.09373 204.79686
212.0 0.00472 172.06714 205.01981
229.0 0.00437 172.04066 205.27869
186.0 0.00538 172.01431 205.57791
209.0 0.00478 171.98807 205.92389
196.0 0.00510 171.96196 206.32425
208.0 0.00481 171.93597 206.78885
231.0 0.00433 171.91011 207.32956
197.0 0.00508 171.88437 207.96051
199.0 0.00503 171.85875 208.69841
192.0 0.00521 171.83325 209.56169
202.0 0.00495 171.80786 210.57085
211.0 0.00474 171.78262 211.74727
225.0 0.00444 171.75749 213.11223
232.0 0.00431 171.73248 214.68608
203.0 0.00493 171.70761 216.48637
217.0 0.00461 171.68285 218.52603
229.0 0.00437 171.65822 220.81238
206.0 0.00485 171.63370 223.34418
210.0 0.00476 171.60931 226.11073
246.0 0.00407 171.58504 229.08951
224.0 0.00446 171.56090 232.24400
249.0 0.00402 171.53690 235.52144
264.0 0.00379 171.51299 238.85042
265.0 0.00377 171.48923 242.14011
270.0 0.00370 171.46558 245.28212
272.0 0.00368 171.44206 248.15881
255.0 0.00392 171.41866 250.65883
281.0 0.00356 171.39539 252.69862
271.0 0.00369 171.37224 254.24132
269.0 0.00372 171.34921 255.30513
273.0 0.00366 171.32631 255.95490
257.0 0.00389 171.30353 256.28241
296.0 0.003378 171.28088 256.38275
257.0 0.00389 171.25835 256.33649
262.0 0.00382 171.23595 256.19931
284.0 0.00352 171.21367 256.00116
256.0 0.00391 171.19151 255.75291
276.0 0.00362 171.16949 255.45613
286.0 0.003497 171.14758 255.11775
283.0 0.00353 171.12581 254.76021
276.0 0.00362 171.10414 254.42622
260.0 0.00385 171.08261 254.17555
251.0 0.00398 171.06120 254.07755
270.0 0.00370 171.03993 254.20346
294.0 0.003401 171.01877 254.62277
260.0 0.00385 170.99773 255.40332
280.0 0.00357 170.97682 256.61435
294.0 0.003401 170.95604 258.33215
297.0 0.003367 170.93538 260.64624
262.0 0.00382 170.91484 263.66531
285.0 0.00351 170.89442 267.52533
331.0 0.003021 170.87415 272.39481
295.0 0.003390 170.85399 278.48157
323.0 0.003096 170.83394 286.03717
329.0 0.003040 170.81403 295.35825
325.0 0.003077 170.79425 306.78705
347.0 0.002882 170.77458 320.70383
358.0 0.002793 170.75505 337.51685
376.0 0.002660 170.73563 357.64514
392.0 0.002551 170.71634 381.49573
443.0 0.002257 170.69716 409.43439
462.0 0.002165 170.67813 441.75427
448.0 0.002232 170.65921 478.63895
506.0 0.001976 170.64043 520.12634
553.0 0.001808 170.62175 566.07196
600.0 0.001667 170.60320 616.10889
645.0 0.001550 170.58478 669.60907
684.0 0.001462 170.56648 725.63690
759.0 0.001318 170.54831 782.90393
877.0 0.001140 170.53026 839.73151
906.0 0.001104 170.51234 894.05695
1001.0 0.000999 170.49454 943.48895
1089.0 0.000918 170.47685 985.70697
1196.0 0.000836 170.45930 1018.59875
1178.0 0.000849 170.44188 1040.85217
1157.0 0.000864 170.42458 1052.21448
1184.0 0.000845 170.40738 1053.50122
1041.0 0.000961 170.39034 1046.30359
1082.0 0.000924 170.37338 1032.52478
1024.0 0.000977 170.35658 1013.94763
912.0 0.001096 170.33989 991.53497
980.0 0.001020 170.32332 966.91864
973.0 0.001028 170.30688 940.02057
901.0 0.001110 170.29056 910.81799
911.0 0.001098 170.27437 879.18579
860.0 0.001163 170.25829 845.15356
845.0 0.001183 170.24234 809.08752
853.0 0.001172 170.22652 771.72260
758.0 0.001319 170.21080 734.05042
743.0 0.001346 170.19522 697.14056
712.0 0.001404 170.17975 661.98071
626.0 0.001597 170.16441 629.38666
624.0 0.001603 170.14919 599.97864
613.0 0.001631 170.13409 574.20270
578.0 0.001730 170.11913 552.36890
583.0 0.001715 170.10428 534.69409
562.0 0.001779 170.08954 521.34064
541.0 0.001848 170.07494 512.45172
572.0 0.001748 170.06044 508.18613
581.0 0.001721 170.04607 508.75104
630.0 0.001587 170.03183 514.43512
567.0 0.001764 170.01770 525.64209
596.0 0.001678 170.00371 542.91925
703.0 0.001422 169.98981 566.98346
731.0 0.001368 169.97606 598.73755
734.0 0.001362 169.96242 639.27612
825.0 0.001212 169.94888 689.87927
933.0 0.001072 169.93549 751.98926
969.0 0.001032 169.92220 827.63928
950.0 0.001053 169.90904 917.52240
1137.0 0.000880 169.89600 1023.71899
1256.0 0.000796 169.88307 1147.73462
1296.0 0.000772 169.87027 1290.84924
1469.0 0.000681 169.85759 1453.98389
1727.0 0.000579 169.84503 1637.54163
1860.0 0.000538 169.83258 1841.22681
2126.0 0.000470 169.82025 2063.84546
2215.0 0.000451 169.80804 2303.10352
2549.0 0.000392 169.79594 2555.45972
2830.0 0.000353 169.78398 2816.11133
3025.0 0.0003306 169.77213 3079.20801
3402.0 0.0002939 169.76039 3338.57275
3532.0 0.0002831 169.74876 3587.41089
3805.0 0.0002628 169.73726 3820.21094
4039.0 0.0002476 169.72588 4031.89697
4226.0 0.0002366 169.71461 4217.66602
4340.0 0.0002304 169.70346 4372.49902
4519.0 0.0002213 169.69243 4491.06543
4579.0 0.0002184 169.68152 4568.41748
4515.0 0.0002215 169.67072 4600.95557
4501.0 0.0002222 169.66003 4587.93604
4439.0 0.0002253 169.64946 4531.68896
4372.0 0.0002287 169.63901 4437.20947
4200.0 0.0002381 169.62868 4311.08984
4100.0 0.0002439 169.61845 4160.31396
3743.0 0.0002672 169.60834 3991.26221
3790.0 0.0002639 169.59836 3809.03564
3561.0 0.0002808 169.58847 3617.12305
3417.0 0.0002927 169.57872 3417.49829
3196.0 0.0003129 169.56906 3211.15601
3043.0 0.0003286 169.55952 2998.94238
2773.0 0.000361 169.55011 2782.34424
2571.0 0.000389 169.54080 2563.87524
2334.0 0.000428 169.53162 2346.93896
2125.0 0.000471 169.52252 2135.30591
1966.0 0.000509 169.51357 1932.50928
1784.0 0.000561 169.50470 1741.42468
1607.0 0.000622 169.49596 1564.08960
1361.0 0.000735 169.48734 1401.72278
1267.0 0.000789 169.47882 1254.84387
1166.0 0.000858 169.47041 1123.55945
1018.0 0.000982 169.46211 1007.14789
969.0 0.001032 169.45393 904.99908
885.0 0.001130 169.44586 816.15192
757.0 0.001321 169.43790 739.53876
723.0 0.001383 169.43004 673.90192
725.0 0.001379 169.42230 618.05756
641.0 0.001560 169.41467 570.79791
609.0 0.001642 169.40714 530.96124
532.0 0.001880 169.39973 497.46097
580.0 0.001724 169.39243 469.30600
539.0 0.001855 169.38522 445.61328
493.0 0.002028 169.37814 425.61374
428.0 0.002336 169.37117 408.65045
480.0 0.002083 169.36430 394.17380
405.0 0.002469 169.35753 381.73203
424.0 0.002358 169.35088 370.95999
419.0 0.002387 169.34433 361.56708
412.0 0.002427 169.33789 353.34335
401.0 0.002494 169.33156 346.07690
356.0 0.002809 169.32533 339.65225
361.0 0.002770 169.31920 333.97083
366.0 0.002732 169.31319 328.96262
400.0 0.002500 169.30728 324.58249
369.0 0.002710 169.30147 320.80710
359.0 0.002786 169.29578 317.63354
389.0 0.002571 169.29018 315.07925
314.0 0.003185 169.28468 313.18265
350.0 0.002857 169.27930 312.00293
346.0 0.002890 169.27400 311.62213
385.0 0.002597 169.26883 312.14447
354.0 0.002825 169.26375 313.69577
334.0 0.002994 169.25877 316.42065
388.0 0.002577 169.25389 320.47897
363.0 0.002755 169.24911 326.03854
402.0 0.002488 169.24445 333.27283
383.0 0.002611 169.23988 342.32990
407.0 0.002457 169.23541 353.35126
421.0 0.002375 169.23105 366.44016
390.0 0.002564 169.22678 381.65387
414.0 0.002415 169.22261 398.99182
432.0 0.002315 169.21855 418.38400
504.0 0.001984 169.21458 439.67801
499.0 0.002004 169.21071 462.62457
534.0 0.001873 169.20694 486.86218
511.0 0.001957 169.20328 511.90524
525.0 0.001905 169.19971 537.14764
553.0 0.001808 169.19623 561.90051
567.0 0.001764 169.19284 585.48267
601.0 0.001664 169.18956 607.34418
635.0 0.001575 169.18639 627.22101
676.0 0.001479 169.18329 645.20111
688.0 0.001453 169.18030 661.69049
668.0 0.001497 169.17740 677.27100
637.0 0.001570 169.17459 692.51599
685.0 0.001460 169.17189 707.82104
642.0 0.001558 169.16928 723.29120
699.0 0.001431 169.16676 738.68414
763.0 0.001311 169.16434 753.40039
750.0 0.001333 169.16200 766.53027
744.0 0.001344 169.15976 776.96075
776.0 0.001289 169.15762 783.55280
794.0 0.001259 169.15556 785.35950
790.0 0.001266 169.15359 781.83679
787.0 0.001271 169.15173 772.97290
768.0 0.001302 169.14995 759.28748
724.0 0.001381 169.14825 741.69672
711.0 0.001406 169.14665 721.30194
695.0 0.001439 169.14516 699.17560
682.0 0.001466 169.14374 676.20178
615.0 0.001626 169.14240 652.99274
615.0 0.001626 169.14116 629.87299
582.0 0.001718 169.14000 606.91620
608.0 0.001645 169.13895 584.03027
515.0 0.001942 169.13795 561.06519
532.0 0.001880 169.13707 537.93054
553.0 0.001808 169.13626 514.67200
492.0 0.002033 169.13554 491.48993
464.0 0.002155 169.13492 468.69830
455.0 0.002198 169.13437 446.65152
448.0 0.002232 169.13391 425.67923
384.0 0.002604 169.13353 406.04523
412.0 0.002427 169.13324 387.93472
350.0 0.002857 169.13303 371.45880
378.0 0.002646 169.13290 356.66702
367.0 0.002725 169.13286 343.56143
351.0 0.002849 169.13289 332.10776
373.0 0.002681 169.13301 322.24460
354.0 0.002825 169.13322 313.88950
338.0 0.002959 169.13350 306.94571
328.0 0.003049 169.13387 301.30695
313.0 0.003195 169.13432 296.86215
303.0 0.003300 169.13484 293.49994
321.0 0.003115 169.13545 291.11356
321.0 0.003115 169.13614 289.60355
326.0 0.003067 169.13689 288.95822
352.0 0.002841 169.13774 288.95023
322.0 0.003106 169.13866 289.59662
339.0 0.002950 169.13965 290.85568
303.0 0.003300 169.14072 292.70450
323.0 0.003096 169.14188 295.14020
363.0 0.002755 169.14310 298.18402
347.0 0.002882 169.14439 301.88275
389.0 0.002571 169.14577 306.31439
360.0 0.002778 169.14722 311.59378
368.0 0.002717 169.14874 317.88013
404.0 0.002475 169.15034 325.38507
396.0 0.002525 169.15201 334.38342
440.0 0.002273 169.15376 345.22238
433.0 0.002309 169.15558 358.36960
454.0 0.002203 169.15746 374.26752
461.0 0.002169 169.15942 393.56708
480.0 0.002083 169.16145 416.97324
527.0 0.001898 169.16354 445.27518
544.0 0.001838 169.16573 479.32956
646.0 0.001548 169.16795 520.03418
619.0 0.001616 169.17027 568.29077
671.0 0.001490 169.17264 624.96088
707.0 0.001414 169.17509 690.81030
785.0 0.001274 169.17760 766.44812
854.0 0.001171 169.18018 852.26270
881.0 0.001135 169.18283 948.35107
992.0 0.001008 169.18553 1054.44690
1157.0 0.000864 169.18831 1169.83984
1235.0 0.000810 169.19116 1293.28857
1414.0 0.000707 169.19406 1422.92004
1625.0 0.000615 169.19704 1556.14404
1687.0 0.000593 169.20007 1689.60046
1803.0 0.000555 169.20317 1819.22937
2016.0 0.000496 169.20633 1940.53613
2170.0 0.000461 169.20955 2049.10742
2173.0 0.000460 169.21283 2141.30518
2338.0 0.000428 169.21617 2214.90503
2283.0 0.000438 169.21959 2269.37744
2305.0 0.000434 169.22305 2305.65161
2351.0 0.000425 169.22658 2325.47510
2378.0 0.000421 169.23016 2330.66260
2371.0 0.000422 169.23380 2322.56250
2238.0 0.000447 169.23750 2301.88403
2183.0 0.000458 169.24126 2268.83423
2281.0 0.000438 169.24507 2223.43555
2227.0 0.000449 169.24895 2165.84131
1965.0 0.000509 169.25287 2096.58545
2039.0 0.000490 169.25685 2016.73816
2017.0 0.000496 169.26089 1927.94519
1784.0 0.000561 169.26498 1832.32581
1757.0 0.000569 169.26913 1732.22412
1685.0 0.000593 169.27333 1629.88489
1589.0 0.000629 169.27759 1527.18689
1450.0 0.000690 169.28189 1425.53491
1304.0 0.000767 169.28624 1325.91589
1183.0 0.000845 169.29065 1229.07471
1186.0 0.000843 169.29510 1135.69067
1097.0 0.000912 169.29962 1046.47681
968.0 0.001033 169.30418 962.17358
859.0 0.001164 169.30878 883.54498
804.0 0.001244 169.31343 810.98010
730.0 0.001370 169.31815 744.89240
720.0 0.001389 169.32289 685.39917
645.0 0.001550 169.32770 632.42249
630.0 0.001587 169.33253 585.72681
557.0 0.001795 169.33742 544.96533
544.0 0.001838 169.34236 509.71866
508.0 0.001969 169.34734 479.52737
500.0 0.002000 169.35237 453.91867
470.0 0.002128 169.35744 432.42487
486.0 0.002058 169.36255 414.59909
508.0 0.001969 169.36769 400.02682
454.0 0.002203 169.37289 388.33463
424.0 0.002358 169.37813 379.23642
439.0 0.002278 169.38341 372.38617
425.0 0.002353 169.38872 367.61243
408.0 0.002451 169.39409 364.77084
410.0 0.002439 169.39948 363.78687
450.0 0.002222 169.40492 364.66068
434.0 0.002304 169.41039 367.47183
433.0 0.002309 169.41591 372.38376
470.0 0.002128 169.42145 379.64719
439.0 0.002278 169.42703 389.60275
487.0 0.002053 169.43265 402.67993
508.0 0.001969 169.43831 419.39258
503.0 0.001988 169.44400 440.32907
555.0 0.001802 169.44972 466.13614
576.0 0.001736 169.45549 497.49521
604.0 0.001656 169.46127 535.09033
601.0 0.001664 169.46710 579.57068
634.0 0.001577 169.47296 631.50385
699.0 0.001431 169.47884 691.22333
751.0 0.001332 169.48476 759.18860
858.0 0.001166 169.49071 835.30896
909.0 0.001100 169.49669 919.30206
1004.0 0.000996 169.50269 1010.53271
1024.0 0.000977 169.50873 1107.94922
1170.0 0.000855 169.51479 1210.01379
1256.0 0.000796 169.52087 1314.63074
1448.0 0.000691 169.52699 1419.08203
1576.0 0.000635 169.53313 1520.01855
1710.0 0.000585 169.53931 1613.10168
1850.0 0.000541 169.54549 1695.12866
1964.0 0.000509 169.55171 1761.77771
1964.0 0.000509 169.55795 1810.09949
2023.0 0.000494 169.56421 1838.64343
1963.0 0.000509 169.57050 1847.74377
1867.0 0.000536 169.57681 1839.35339
1838.0 0.000544 169.58313 1816.49304
1786.0 0.000560 169.58948 1782.54004
1675.0 0.000597 169.59586 1740.59180
1626.0 0.000615 169.60225 1693.03809
1562.0 0.000640 169.60866 1641.37134
1534.0 0.000652 169.61508 1586.20239
1484.0 0.000674 169.62152 1527.44739
1422.0 0.000703 169.62798 1464.64807
1390.0 0.000719 169.63446 1397.37366
1371.0 0.000729 169.64096 1325.58374
1349.0 0.000741 169.64746 1249.84485
1179.0 0.000848 169.65399 1171.31848
1134.0 0.000882 169.66052 1091.56714
999.0 0.001001 169.66708 1012.27325
961.0 0.001041 169.67365 935.00024
866.0 0.001155 169.68022 861.04236
801.0 0.001248 169.68681 791.37274
739.0 0.001353 169.69341 726.65717
685.0 0.001460 169.70001 667.29663
608.0 0.001645 169.70663 613.47729
549.0 0.001821 169.71327 565.25610
489.0 0.002045 169.71991 522.42706
503.0 0.001988 169.72655 484.80515
481.0 0.002079 169.73320 452.08127
397.0 0.002519 169.73987 423.88651
421.0 0.002375 169.74654 399.81311
415.0 0.002410 169.75320 379.43387
386.0 0.002591 169.75989 362.31876
402.0 0.002488 169.76657 348.05057
365.0 0.002740 169.77325 336.23648
355.0 0.002817 169.77994 326.51703
397.0 0.002519 169.78664 318.57220
326.0 0.003067 169.79332 312.12378
365.0 0.002740 169.80002 306.93570
347.0 0.002882 169.80672 302.81287
357.0 0.002801 169.81342 299.62033
334.0 0.002994 169.82011 297.19299
324.0 0.003086 169.82680 295.46207
320.0 0.003125 169.83350 294.36545
364.0 0.002747 169.84018 293.86740
363.0 0.002755 169.84688 293.95721
393.0 0.002545 169.85355 294.64948
348.0 0.002874 169.86023 295.98566
398.0 0.002513 169.86691 298.03683
398.0 0.002513 169.87357 300.90887
344.0 0.002907 169.88023 304.74762
359.0 0.002786 169.88689 309.74625
372.0 0.002688 169.89354 316.15210
410.0 0.002439 169.90018 324.27386
389.0 0.002571 169.90681 334.48758
445.0 0.002247 169.91344 347.23947
461.0 0.002169 169.92004 363.04544
433.0 0.002309 169.92665 382.48547
490.0 0.002041 169.93324 406.19058
528.0 0.001894 169.93982 434.82388
517.0 0.001934 169.94640 469.05106
548.0 0.001825 169.95294 509.50616
581.0 0.001721 169.95949 556.74780
639.0 0.001565 169.96602 611.21136
654.0 0.001529 169.97253 673.15863
737.0 0.001357 169.97902 742.62476
845.0 0.001183 169.98550 819.36731
880.0 0.001136 169.99197 902.81348
943.0 0.001060 169.99841 992.00604
1067.0 0.000937 170.00484 1085.54443
1163.0 0.000860 170.01125 1181.52539
1301.0 0.000769 170.01764 1277.48474
1440.0 0.000694 170.02402 1370.38708
1547.0 0.000646 170.03036 1456.70032
1652.0 0.000605 170.03670 1532.63831
1742.0 0.000574 170.04300 1594.60315
1799.0 0.000556 170.04929 1639.78308
1814.0 0.000551 170.05554 1666.72205
1747.0 0.000572 170.06178 1675.63062
1812.0 0.000552 170.06799 1668.26855
1684.0 0.000594 170.07419 1647.45142
1570.0 0.000637 170.08035 1616.38599
1540.0 0.000649 170.08649 1578.06946
1499.0 0.000667 170.09261 1534.87476
1427.0 0.000701 170.09868 1488.35742
1313.0 0.000762 170.10474 1439.23120
1348.0 0.000742 170.11076 1387.49524
1324.0 0.000755 170.11676 1332.68079
1257.0 0.000796 170.12273 1274.19958
1175.0 0.000851 170.12866 1211.70801
1161.0 0.000861 170.13457 1145.37891
1115.0 0.000897 170.14044 1076.41724
993.0 0.001007 170.14629 1005.20679
986.0 0.001014 170.15210 933.65906
844.0 0.001185 170.15787 863.23657
814.0 0.001229 170.16362 795.21112
686.0 0.001458 170.16933 730.58325
581.0 0.001721 170.17499 670.07629
559.0 0.001789 170.18062 614.16345
567.0 0.001764 170.18622 563.11029
468.0 0.002137 170.19179 517.01385
442.0 0.002262 170.19730 475.83319
417.0 0.002398 170.20279 439.41556
392.0 0.002551 170.20824 407.51941
366.0 0.002732 170.21364 379.83472
370.0 0.002703 170.21899 356.21948
336.0 0.002976 170.22432 335.85342
385.0 0.002597 170.22960 318.55197
328.0 0.003049 170.23483 303.91962
296.0 0.003378 170.24002 291.57748
291.0 0.003436 170.24518 281.17404
288.0 0.003472 170.25029 272.39203
289.0 0.003460 170.25534 264.95154
287.0 0.003484 170.26036 258.61148
228.0 0.00439 170.26532 253.16844
265.0 0.00377 170.27025 248.45393
256.0 0.00391 170.27512 244.33057
289.0 0.003460 170.27995 240.68810
274.0 0.00365 170.28473 237.43889
202.0 0.00495 170.28946 234.51411
250.0 0.00400 170.29413 231.85977
221.0 0.00452 170.29877 229.43378
237.0 0.00422 170.30334 227.20314
234.0 0.00427 170.30786 225.14191
209.0 0.00478 170.31233 223.22939
206.0 0.00485 170.31676 221.44902
214.0 0.00467 170.32112 219.78699
246.0 0.00407 170.32542 218.23195
215.0 0.00465 170.32968 216.77440
210.0 0.00476 170.33389 215.40581
214.0 0.00467 170.33803 214.11913
211.0 0.00474 170.34212 212.90778
215.0 0.00465 170.34615 211.76639
208.0 0.00481 170.35013 210.68968
211.0 0.00474 170.35403 209.67325
190.0 0.00526 170.35789 208.71269
206.0 0.00485 170.36168 207.80461
211.0 0.00474 170.36542 206.94545
217.0 0.00461 170.36909 206.13200
211.0 0.00474 170.37270 205.36168
204.0 0.00490 170.37625 204.63179
200.0 0.00500 170.37973 203.94005
193.0 0.00518 170.38316 203.28427
183.0 0.00546 170.38652 202.66275
187.0 0.00535 170.38982 202.07343
180.0 0.00556 170.39304 201.51486
221.0 0.00452 170.39619 200.98573
209.0 0.00478 170.39929 200.48471
172.0 0.00581 170.40233 200.01073
189.0 0.00529 170.40529 199.56299
178.0 0.00562 170.40817 199.14078
180.0 0.00556 170.41100 198.74361
192.0 0.00521 170.41376 198.37138
174.0 0.00575 170.41643 198.02422
200.0 0.00500 170.41905 197.70282
183.0 0.00546 170.42159 197.40797
180.0 0.00556 170.42406 197.14127
170.0 0.00588 170.42645 196.90474
176.0 0.00568 170.42877 196.70125
187.0 0.00535 170.43102 196.53452
168.0 0.00595 170.43320 196.40854
175.0 0.00571 170.43530 196.32858
184.0 0.00543 170.43732 196.30034
179.0 0.00559 170.43927 196.33038
190.0 0.00526 170.44115 196.42554
220.0 0.00455 170.44293 196.59271
183.0 0.00546 170.44464 196.83875
172.0 0.00581 170.44629 197.16977
179.0 0.00559 170.44785 197.59088
177.0 0.00565 170.44933 198.10551
170.0 0.00588 170.45071 198.71478
195.0 0.00513 170.45203 199.41728
184.0 0.00543 170.45328 200.20831
159.0 0.00629 170.45442 201.07918
212.0 0.00472 170.45549 202.01703
204.0 0.00490 170.45648 203.00365
189.0 0.00529 170.45738 204.01527
197.0 0.00508 170.45821 205.02161
188.0 0.00532 170.45894 205.98669
188.0 0.00532 170.45959 206.86954
201.0 0.00498 170.46014 207.62788
178.0 0.00562 170.46063 208.22363
210.0 0.00476 170.46101 208.62932
184.0 0.00543 170.46132 208.83376
219.0 0.00457 170.46153 208.84416
171.0 0.00585 170.46165 208.68358
183.0 0.00546 170.46169 208.38557
186.0 0.00538 170.46162 207.98643
204.0 0.00490 170.46149 207.51947
195.0 0.00513 170.46124 207.01064
173.0 0.00578 170.46091 206.47679
208.0 0.00481 170.46049 205.92563
192.0 0.00521 170.45998 205.35674
192.0 0.00521 170.45937 204.76447
187.0 0.00535 170.45866 204.14128
189.0 0.00529 170.45787 203.48209
179.0 0.00559 170.45697 202.78688
178.0 0.00562 170.45598 202.06253
178.0 0.00562 170.45490 201.32190
167.0 0.00599 170.45372 200.58090
196.0 0.00510 170.45244 199.85655
169.0 0.00592 170.45107 199.16399
166.0 0.00602 170.44958 198.51585
180.0 0.00556 170.44801 197.92183
178.0 0.00562 170.44633 197.38860
150.0 0.00667 170.44456 196.92049
186.0 0.00538 170.44269 196.51993
161.0 0.00621 170.44072 196.18767
174.0 0.00575 170.43864 195.92332
182.0 0.00549 170.43646 195.72516
167.0 0.00599 170.43417 195.59105
175.0 0.00571 170.43179 195.51802
189.0 0.00529 170.42931 195.50266
158.0 0.00633 170.42671 195.54156
173.0 0.00578 170.42401 195.63124
171.0 0.00585 170.42120 195.76823
183.0 0.00546 170.41829 195.94968
167.0 0.00599 170.41528 196.17284
171.0 0.00585 170.41216 196.43546
209.0 0.00478 170.40892 196.73621
168.0 0.00595 170.40558 197.07361
177.0 0.00565 170.40215 197.44734
166.0 0.00602 170.39859 197.85733
197.0 0.00508 170.39491 198.30418
182.0 0.00549 170.39114 198.78867
171.0 0.00585 170.38725 199.31241
189.0 0.00529 170.38326 199.87732
189.0 0.00529 170.37914 200.48579
183.0 0.00546 170.37492 201.14059
160.0 0.00625 170.37059 201.84506
152.0 0.00658 170.36615 202.60298
190.0 0.00526 170.36159 203.41866
199.0 0.00503 170.35690 204.29680
208.0 0.00481 170.35213 205.24310
188.0 0.00532 170.34721 206.26352
192.0 0.00521 170.34219 207.36520
189.0 0.00529 170.33705 208.55608
201.0 0.00498 170.33180 209.84572
208.0 0.00481 170.32643 211.24529
197.0 0.00508 170.32095 212.76834
197.0 0.00508 170.31534 214.43158
208.0 0.00481 170.30963 216.25607
232.0 0.00431 170.30377 218.26833
200.0 0.00500 170.29782 220.50223
223.0 0.00448 170.29173 223.00119
201.0 0.00498 170.28554 225.82062
215.0 0.00465 170.27922 228.84785
232.0 0.00431 170.27277 232.53973
220.0 0.00455 170.26620 236.82347
281.0 0.00356 170.25952 241.83720
252.0 0.00397 170.25270 247.74911
260.0 0.00385 170.24577 254.75981
277.0 0.00361 170.23872 263.10413
257.0 0.00389 170.23154 273.04956
323.0 0.003096 170.22423 284.89279
292.0 0.003425 170.21681 298.95285
318.0 0.003145 170.20924 315.56049
318.0 0.003145 170.20157 334.94852
387.0 0.002584 170.19376 357.62454
347.0 0.002882 170.18582 383.76743
376.0 0.002660 170.17776 413.59595
424.0 0.002358 170.16957 447.24948
462.0 0.002165 170.16125 484.76474
548.0 0.001825 170.15282 526.05847
580.0 0.001724 170.14424 570.88068
580.0 0.001724 170.13554 618.82507
681.0 0.001468 170.12671 669.27820
712.0 0.001404 170.11774 721.39587
737.0 0.001357 170.10864 774.07324
832.0 0.001202 170.09943 825.92474
875.0 0.001143 170.09006 875.29706
904.0 0.001106 170.08058 920.33484
1008.0 0.000992 170.07095 959.13861
1013.0 0.000987 170.06120 990.00751
997.0 0.001003 170.05132 1011.72638
992.0 0.001008 170.04131 1023.81006
999.0 0.001001 170.03116 1026.59387
989.0 0.001011 170.02086 1021.13519
973.0 0.001028 170.01044 1008.95374
907.0 0.001103 169.99988 991.72791
847.0 0.001181 169.98920 970.99078
802.0 0.001247 169.97838 947.98511
854.0 0.001171 169.96741 923.54291
843.0 0.001186 169.95631 898.07532
763.0 0.001311 169.94507 871.61670
838.0 0.001193 169.93370 843.92072
719.0 0.001391 169.92218 814.60687
759.0 0.001318 169.91054 783.33289
697.0 0.001435 169.89876 749.95459
664.0 0.001506 169.88683 714.62012
639.0 0.001565 169.87476 677.77185
598.0 0.001672 169.86255 640.06403
618.0 0.001618 169.85020 602.24091
573.0 0.001745 169.83772 565.02332
524.0 0.001908 169.82510 529.03442
473.0 0.002114 169.81233 494.76688
434.0 0.002304 169.79942 462.58154
394.0 0.002538 169.78638 432.72015
382.0 0.002618 169.77318 405.32596
363.0 0.002755 169.75986 380.46011
359.0 0.002786 169.74637 358.11765
354.0 0.002825 169.73276 338.25571
322.0 0.003106 169.71899 320.73785
316.0 0.003165 169.70509 305.44241
285.0 0.00351 169.69104 292.20538
261.0 0.00383 169.67685 280.84592
251.0 0.00398 169.66251 271.17380
250.0 0.00400 169.64803 262.99731
269.0 0.00372 169.63341 256.13025
247.0 0.00405 169.61862 250.39604
229.0 0.00437 169.60371 245.63240
212.0 0.00472 169.58864 241.69385
238.0 0.00420 169.57343 238.45323
245.0 0.00408 169.55807 235.80147
222.0 0.00450 169.54256 233.64792
204.0 0.00490 169.52692 231.91859
225.0 0.00444 169.51111 230.55557
222.0 0.00450 169.49516 229.51492
221.0 0.00452 169.47906 228.76593
219.0 0.00457 169.46283 228.28992
220.0 0.00455 169.44643 228.07912
201.0 0.00498 169.42989 228.13699
199.0 0.00503 169.41321 228.47757
215.0 0.00465 169.39636 229.12567
236.0 0.00424 169.37938 230.11826
216.0 0.00463 169.36223 231.50410
219.0 0.00457 169.34494 233.34517
222.0 0.00450 169.32750 235.71628
238.0 0.00420 169.30991 238.70598
210.0 0.00476 169.29216 242.41524
258.0 0.00388 169.27428 246.95647
249.0 0.00402 169.25623 252.45094
227.0 0.00441 169.23802 259.02603
295.0 0.003390 169.21968 266.81012
255.0 0.00392 169.20117 275.92764
253.0 0.00395 169.18253 286.49344
267.0 0.00375 169.16371 298.76797
305.0 0.003279 169.14476 312.50223
296.0 0.003378 169.12564 327.90228
331.0 0.003021 169.10638 344.97519
339.0 0.002950 169.08696 363.68228
364.0 0.002747 169.06738 383.93134
390.0 0.002564 169.04767 405.56531
397.0 0.002519 169.02777 428.35193
394.0 0.002538 169.00775 451.97137
453.0 0.002208 168.98755 476.01212
481.0 0.002079 168.96721 500.14017
467.0 0.002141 168.94672 523.48004
488.0 0.002049 168.92606 545.65070
521.0 0.001919 168.90524 566.20251
539.0 0.001855 168.88428 584.86682
542.0 0.001845 168.86316 601.60852
574.0 0.001742 168.84189 616.70215
556.0 0.001799 168.82045 630.33466
522.0 0.001916 168.79886 642.98444
580.0 0.001724 168.77711 654.98462
592.0 0.001689 168.75522 666.51117
635.0 0.001575 168.73315 677.52576
601.0 0.001664 168.71094 687.75159
660.0 0.001515 168.68857 696.64978
664.0 0.001506 168.66605 703.59314
656.0 0.001524 168.64336 707.77563
684.0 0.001462 168.62051 708.55585
669.0 0.001495 168.59750 705.25488
663.0 0.001508 168.57436 697.77295
664.0 0.001506 168.55104 686.31555
621.0 0.001610 168.52756 671.42963
590.0 0.001695 168.50392 653.88324
520.0 0.001923 168.48013 634.51874
555.0 0.001802 168.45619 614.12378
564.0 0.001773 168.43207 592.75879
503.0 0.001988 168.40781 572.06494
502.0 0.001992 168.38339 551.72864
493.0 0.002028 168.35881 531.85352
474.0 0.002110 168.33408 512.40747
502.0 0.001992 168.30916 493.27585
451.0 0.002217 168.28410 474.32202
458.0 0.002183 168.25888 455.44800
465.0 0.002151 168.23352 436.63721
405.0 0.002469 168.20798 417.96637
379.0 0.002639 168.18228 399.58838
367.0 0.002725 168.15643 381.69666
379.0 0.002639 168.13040 364.48648
311.0 0.003215 168.10425 348.12787
317.0 0.003155 168.07791 332.74985
340.0 0.002941 168.05142 318.43884
296.0 0.003378 168.02477 305.24255
277.0 0.00361 167.99796 293.17694
260.0 0.00385 167.97099 282.23279
242.0 0.00413 167.94385 272.38229
264.0 0.00379 167.91656 263.58173
235.0 0.00426 167.88911 255.77695
229.0 0.00437 167.86151 248.90448
224.0 0.00446 167.83372 242.89464
208.0 0.00481 167.80580 237.67363
217.0 0.00461 167.77771 233.16550
224.0 0.00446 167.74947 229.29460
209.0 0.00478 167.72107 225.98701
214.0 0.00467 167.69249 223.17256
206.0 0.00485 167.66376 220.78571
201.0 0.00498 167.63487 218.76669
191.0 0.00524 167.60583 217.06233
201.0 0.00498 167.57661 215.62541
198.0 0.00505 167.54726 214.41574
186.0 0.00538 167.51772 213.39871
186.0 0.00538 167.48804 212.54567
206.0 0.00485 167.45819 211.83270
194.0 0.00515 167.42818 211.24083
197.0 0.00508 167.39803 210.75420
200.0 0.00500 167.36769 210.36035
180.0 0.00556 167.33722 210.04964
202.0 0.00495 167.30656 209.81406
217.0 0.00461 167.27576 209.64766
181.0 0.00552 167.24481 209.54584
196.0 0.00510 167.21367 209.50488
202.0 0.00495 167.18240 209.52203
193.0 0.00518 167.15096 209.59528
205.0 0.00488 167.11935 209.72308
192.0 0.00521 167.08760 209.90456
214.0 0.00467 167.05568 210.13882
222.0 0.00450 167.02361 210.42592
210.0 0.00476 166.99138 210.76559
192.0 0.00521 166.95898 211.15843
174.0 0.00575 166.92642 211.60484
207.0 0.00483 166.89372 212.10597
217.0 0.00461 166.86084 212.66266
204.0 0.00490 166.82782 213.27660
192.0 0.00521 166.79463 213.94955
202.0 0.00495 166.76131 214.68327
208.0 0.00481 166.72778 215.48024
186.0 0.00538 166.69414 216.34309
203.0 0.00493 166.66032 217.27487
222.0 0.00450 166.62634 218.27892
210.0 0.00476 166.59222 219.35898
213.0 0.00469 166.55792 220.51938
201.0 0.00498 166.52348 221.76494
234.0 0.00427 166.48888 223.10121
223.0 0.00448 166.45413 224.53419
241.0 0.00415 166.41922 226.07106
274.0 0.00365 166.38416 227.72011
243.0 0.00412 166.34892 229.49074
228.0 0.00439 166.31354 231.33685
246.0 0.00407 166.27800 233.38762
241.0 0.00415 166.24231 235.60178
222.0 0.00450 166.20647 238.00015
229.0 0.00437 166.17044 240.60858
254.0 0.00394 166.13429 243.45963
234.0 0.00427 166.09799 246.59439
282.0 0.00355 166.06151 250.06505
298.0 0.003356 166.02490 253.93710
284.0 0.00352 165.98811 258.29266
280.0 0.00357 165.95119 263.23392
273.0 0.00366 165.91409 268.88580
312.0 0.003205 165.87686 274.13010
325.0 0.003077 165.83946 281.69122
293.0 0.003413 165.80193 290.50424
322.0 0.003106 165.76424 300.80872
355.0 0.002817 165.72638 312.87375
374.0 0.002674 165.68839 326.99188
352.0 0.002841 165.65024 343.47223
376.0 0.002660 165.61192 362.63214
441.0 0.002268 165.57347 384.78241
466.0 0.002146 165.53487 410.21387
498.0 0.002008 165.49612 439.18011
524.0 0.001908 165.45720 471.87982
557.0 0.001795 165.41815 508.43961
589.0 0.001698 165.37892 548.89746
659.0 0.001517 165.33958 593.18719
680.0 0.001471 165.30006 641.12524
776.0 0.001289 165.26041 692.39600
894.0 0.001119 165.22060 746.53711
832.0 0.001202 165.18065 802.92609
916.0 0.001092 165.14056 860.76923
964.0 0.001037 165.10030 919.10742
1010.0 0.000990 165.05991 976.85663
1054.0 0.000949 165.01936 1032.90442
1155.0 0.000866 164.97867 1086.28137
1158.0 0.000864 164.93782 1136.37976
1202.0 0.000832 164.89685 1183.17017
1222.0 0.000818 164.85571 1227.32373
1277.0 0.000783 164.81445 1270.17603
1268.0 0.000789 164.77303 1313.53735
1314.0 0.000761 164.73146 1359.40759
1335.0 0.000749 164.68976 1409.68359
1354.0 0.000739 164.64790 1465.92432
1460.0 0.000685 164.60591 1529.19006
1485.0 0.000673 164.56377 1599.94714
1518.0 0.000659 164.52148 1678.01672
1652.0 0.000605 164.47908 1762.60388
1781.0 0.000561 164.43649 1852.13757
1844.0 0.000542 164.39380 1944.58008
1942.0 0.000515 164.35094 2037.32922
2095.0 0.000477 164.30795 2127.36694
2233.0 0.000448 164.26482 2211.36475
2196.0 0.000455 164.22156 2285.81787
2379.0 0.000420 164.17815 2347.24194
2522.0 0.000397 164.13460 2392.47949
2512.0 0.000398 164.09093 2419.12549
2450.0 0.000408 164.04709 2425.96924
2533.0 0.000395 164.00313 2413.28101
2348.0 0.000426 163.95903 2382.81982
2304.0 0.000434 163.91479 2337.51025
2252.0 0.000444 163.87042 2280.91675
2059.0 0.000486 163.82591 2216.67554
2036.0 0.000491 163.78127 2148.02295
1859.0 0.000538 163.73650 2077.51709
1833.0 0.000546 163.69159 2006.79846
1796.0 0.000557 163.64653 1936.69690
1752.0 0.000571 163.60136 1867.21680
1682.0 0.000595 163.55603 1797.71814
1644.0 0.000608 163.51059 1727.16113
1655.0 0.000604 163.46501 1654.41870
1571.0 0.000637 163.41931 1578.60901
1521.0 0.000657 163.37347 1499.35889
1483.0 0.000674 163.32750 1416.92224
1325.0 0.000755 163.28140 1332.12927
1215.0 0.000823 163.23517 1246.20044
1130.0 0.000885 163.18881 1160.51721
1050.0 0.000952 163.14232 1076.41956
926.0 0.001080 163.09572 995.52417
903.0 0.001107 163.04897 917.86554
868.0 0.001152 163.00211 844.58820
749.0 0.001335 162.95512 776.17322
742.0 0.001348 162.90799 712.91711
638.0 0.001567 162.86076 654.96454
591.0 0.001692 162.81339 602.33185
535.0 0.001869 162.76590 554.92847
516.0 0.001938 162.71828 512.68451
498.0 0.002008 162.67055 475.12881
442.0 0.002262 162.62268 442.06049
434.0 0.002304 162.57471 413.12808
416.0 0.002404 162.52661 387.95334
414.0 0.002415 162.47838 366.14636
380.0 0.002632 162.43005 347.31857
351.0 0.002849 162.38158 331.09387
345.0 0.002899 162.33301 317.11743
337.0 0.002967 162.28430 305.29047
314.0 0.003185 162.23550 294.86725
314.0 0.003185 162.18658 285.81482
325.0 0.003077 162.13753 277.90967
307.0 0.003257 162.08838 270.96118
309.0 0.003236 162.03909 264.80936
321.0 0.003115 161.98972 259.32162
251.0 0.00398 161.94020 254.38930
240.0 0.00417 161.89059 249.97853
279.0 0.00358 161.84087 245.90784
255.0 0.00392 161.79103 242.17416
254.0 0.00394 161.74109 238.73103
244.0 0.00410 161.69102 235.54091
231.0 0.00433 161.64087 232.57339
236.0 0.00424 161.59059 229.80351
251.0 0.00398 161.54022 227.21097
225.0 0.00444 161.48972 224.77826
240.0 0.00417 161.43913 222.49089
223.0 0.00448 161.38843 220.33630
246.0 0.00407 161.33763 218.30356
231.0 0.00433 161.28673 216.38304
201.0 0.00498 161.23572 214.56618
244.0 0.00410 161.18460 212.84518
203.0 0.00493 161.13338 211.21318
189.0 0.00529 161.08208 209.66400
201.0 0.00498 161.03065 208.19168
235.0 0.00426 160.97914 206.79124
241.0 0.00415 160.92754 205.45778
216.0 0.00463 160.87581 204.18713
216.0 0.00463 160.82402 202.97510
230.0 0.00435 160.77209 201.81812
197.0 0.00508 160.72011 200.71281
209.0 0.00478 160.66800 199.65613
200.0 0.00500 160.61581 198.64511
219.0 0.00457 160.56352 197.67725
184.0 0.00543 160.51115 196.74998
200.0 0.00500 160.45869 195.86108
206.0 0.00485 160.40613 195.00856
181.0 0.00552 160.35349 194.19029
205.0 0.00488 160.30075 193.40454
173.0 0.00578 160.24792 192.64966
196.0 0.00510 160.19501 191.92384
181.0 0.00552 160.14201 191.22603
196.0 0.00510 160.08891 190.55449
178.0 0.00562 160.03575 189.90813
162.0 0.00617 159.98251 189.28563
212.0 0.00472 159.92917 188.68594
193.0 0.00518 159.87575 188.10803
171.0 0.00585 159.82224 187.55077
160.0 0.00625 159.76866 187.01338
176.0 0.00568 159.71500 186.49487
192.0 0.00521 159.66127 185.99458
189.0 0.00529 159.60745 185.51149
165.0 0.00606 159.55354 185.04514
181.0 0.00552 159.49959 184.59473
195.0 0.00513 159.44553 184.15950
168.0 0.00595 159.39142 183.73907
178.0 0.00562 159.33722 183.33266
196.0 0.00510 159.28296 182.93985
173.0 0.00578 159.22861 182.56000
148.0 0.00676 159.17421 182.19290
149.0 0.00671 159.11974 181.83788
168.0 0.00595 159.06519 181.49463
157.0 0.00637 159.01057 181.16266
162.0 0.00617 158.95589 180.84157
165.0 0.00606 158.90114 180.53102
183.0 0.00546 158.84631 180.23077
169.0 0.00592 158.79146 179.94043
162.0 0.00617 158.73650 179.65970
152.0 0.00658 158.68150 179.38828
192.0 0.00521 158.62646 179.12595
156.0 0.00641 158.57132 178.87247
171.0 0.00585 158.51614 178.62755
162.0 0.00617 158.46089 178.39093
161.0 0.00621 158.40561 178.16252
188.0 0.00532 158.35025 177.94199
174.0 0.00575 158.29485 177.72937
157.0 0.00637 158.23940 177.52431
165.0 0.00606 158.18387 177.32675
191.0 0.00524 158.12831 177.13634
152.0 0.00658 158.07268 176.95328
165.0 0.00606 158.01703 176.77721
167.0 0.00599 157.96130 176.60811
167.0 0.00599 157.90555 176.44580
153.0 0.00654 157.84972 176.29018
174.0 0.00575 157.79387 176.14128
169.0 0.00592 157.73799 175.99896
168.0 0.00595 157.68202 175.86317
180.0 0.00556 157.62605 175.73389
169.0 0.00592 157.57001 175.61093
163.0 0.00613 157.51395 175.49432
150.0 0.00667 157.45782 175.38411
167.0 0.00599 157.40169 175.28021
162.0 0.00617 157.34549 175.18257
165.0 0.00606 157.28929 175.09128
157.0 0.00637 157.23305 175.00629
153.0 0.00654 157.17674 174.92764
151.0 0.00662 157.12042 174.85545
160.0 0.00625 157.06407 174.78958
158.0 0.00633 157.00769 174.73010
172.0 0.00581 156.95126 174.67719
143.0 0.00699 156.89484 174.63083
179.0 0.00559 156.83838 174.59114
163.0 0.00613 156.78188 174.55811
164.0 0.00610 156.72537 174.53198
164.0 0.00610 156.66881 174.51277
163.0 0.00613 156.61226 174.50060
169.0 0.00592 156.55566 174.49568
161.0 0.00621 156.49907 174.49815
150.0 0.00667 156.44243 174.50816
162.0 0.00617 156.38579 174.52582
151.0 0.00662 156.32915 174.55151
178.0 0.00562 156.27246 174.58524
161.0 0.00621 156.21577 174.62738
161.0 0.00621 156.15907 174.67807
174.0 0.00575 156.10236 174.73778
144.0 0.00694 156.04562 174.80664
190.0 0.00526 155.98891 174.88503
177.0 0.00565 155.93214 174.97327
153.0 0.00654 155.87541 175.07176
163.0 0.00613 155.81866 175.18103
146.0 0.00685 155.76190 175.31317
159.0 0.00629 155.70514 175.44508
163.0 0.00613 155.64836 175.58913
157.0 0.00637 155.59161 175.74568
159.0 0.00629 155.53484 175.91557
170.0 0.00588 155.47807 176.09924
172.0 0.00581 155.42133 176.29747
174.0 0.00575 155.36456 176.51102
161.0 0.00621 155.30782 176.74069
165.0 0.00606 155.25107 176.98747
170.0 0.00588 155.19434 177.25209
206.0 0.00485 155.13760 177.53572
144.0 0.00694 155.08089 177.83955
202.0 0.00495 155.02417 178.16467
174.0 0.00575 154.96750 178.51247
172.0 0.00581 154.91083 178.88449
198.0 0.00505 154.85416 179.28203
157.0 0.00637 154.79752 179.70720
191.0 0.00524 154.74088 180.16171
183.0 0.00546 154.68428 180.64780
195.0 0.00513 154.62769 181.17383
166.0 0.00602 154.57114 181.73042
169.0 0.00592 154.51459 182.32669
194.0 0.00515 154.45808 182.96600
193.0 0.00518 154.40160 183.65263
208.0 0.00481 154.34512 184.39113
220.0 0.00455 154.28871 185.18729
207.0 0.00483 154.23228 186.04793
192.0 0.00521 154.17593 186.98155
207.0 0.00483 154.11958 187.99855
174.0 0.00575 154.06329 189.11208
209.0 0.00478 154.00703 190.33847
198.0 0.00505 153.95079 191.69830
192.0 0.00521 153.89461 193.21739
214.0 0.00467 153.83844 194.92833
204.0 0.00490 153.78235 196.87123
220.0 0.00455 153.72626 199.09569
205.0 0.00488 153.67024 201.66232
226.0 0.00442 153.61426 204.64407
219.0 0.00457 153.55833 208.12766
231.0 0.00433 153.50247 212.21466
230.0 0.00435 153.44661 217.02136
258.0 0.00388 153.39084 222.67946
235.0 0.00426 153.33510 229.33391
262.0 0.00382 153.27943 237.14125
257.0 0.00389 153.22380 246.26527
281.0 0.00356 153.16824 256.87253
268.0 0.00373 153.11273 269.12546
309.0 0.003236 153.05730 283.17526
325.0 0.003077 153.00191 299.15244
315.0 0.003175 152.94658 317.15775
329.0 0.003040 152.89133 337.25232
382.0 0.002618 152.83612 359.44666
358.0 0.002793 152.78101 383.73883
401.0 0.002494 152.72594 409.91537
406.0 0.002463 152.67096 437.82288
481.0 0.002079 152.61604 467.16940
468.0 0.002137 152.56119 497.55875
535.0 0.001869 152.50642 528.50000
540.0 0.001852 152.45171 559.31281
585.0 0.001709 152.39709 589.25098
609.0 0.001642 152.34254 617.43335
658.0 0.001520 152.28810 642.90710
708.0 0.001412 152.23370 664.72803
727.0 0.001376 152.17941 682.07269
718.0 0.001393 152.12521 694.36566
680.0 0.001471 152.07108 701.38300
685.0 0.001460 152.01704 703.29401
716.0 0.001397 151.96309 700.62567
657.0 0.001522 151.90924 694.15820
693.0 0.001443 151.85545 684.79010
632.0 0.001582 151.80180 673.41034
634.0 0.001577 151.74820 660.90698
585.0 0.001709 151.69473 647.68317
630.0 0.001587 151.64136 634.26678
613.0 0.001631 151.58806 620.92072
573.0 0.001745 151.53488 607.60266
560.0 0.001786 151.48180 594.22870
583.0 0.001715 151.42883 580.57153
587.0 0.001704 151.37595 566.31958
560.0 0.001786 151.32320 551.21643
571.0 0.001751 151.27055 535.08899
531.0 0.001883 151.21800 517.90900
533.0 0.001876 151.16557 499.80835
478.0 0.002092 151.11325 481.05353
486.0 0.002058 151.06107 461.99948
461.0 0.002169 151.00896 443.03558
463.0 0.002160 150.95700 424.54309
454.0 0.002203 150.90515 406.86826
436.0 0.002294 150.85342 390.31250
441.0 0.002268 150.80183 375.13284
418.0 0.002392 150.75035 361.54968
373.0 0.002681 150.69901 349.75284
367.0 0.002725 150.64777 339.91107
365.0 0.002740 150.59669 332.19708
354.0 0.002825 150.54572 326.71292
330.0 0.003030 150.49489 323.61209
357.0 0.002801 150.44418 323.02127
381.0 0.002625 150.39363 325.06119
381.0 0.002625 150.34322 329.84430
375.0 0.002667 150.29294 337.47278
351.0 0.002849 150.24280 348.03372
400.0 0.002500 150.19278 361.59323
382.0 0.002618 150.14294 378.19006
432.0 0.002315 150.09322 397.82654
404.0 0.002475 150.04366 420.45914
474.0 0.002110 149.99426 445.98932
457.0 0.002188 149.94498 474.25247
506.0 0.001976 149.89587 505.00650
541.0 0.001848 149.84691 537.91907
597.0 0.001675 149.79811 572.55402
653.0 0.001531 149.74947 608.35474
630.0 0.001587 149.70099 644.63013
703.0 0.001422 149.65265 680.54297
710.0 0.001408 149.60449 715.11340
748.0 0.001337 149.55650 747.24432
841.0 0.001189 149.50865 775.78546
818.0 0.001222 149.46100 799.63947
851.0 0.001175 149.41348 817.89978
851.0 0.001175 149.36617 829.99127
834.0 0.001199 149.31900 835.77258
848.0 0.001179 149.27202 835.55823
859.0 0.001164 149.22520 830.05505
866.0 0.001155 149.17859 820.22864
752.0 0.001330 149.13214 807.14771
781.0 0.001280 149.08586 791.84247
725.0 0.001379 149.03978 775.20123
697.0 0.001435 148.99385 757.90948
662.0 0.001511 148.94815 740.42310
723.0 0.001383 148.90260 722.96692
715.0 0.001399 148.85727 705.54913
666.0 0.001502 148.81212 687.99609
637.0 0.001570 148.76715 670.00592
642.0 0.001558 148.72238 651.22070
663.0 0.001508 148.67781 631.31122
675.0 0.001481 148.63344 610.06146
587.0 0.001704 148.58925 587.42151
551.0 0.001815 148.54529 563.52496
578.0 0.001730 148.50150 538.48712
499.0 0.002004 148.45795 513.04901
519.0 0.001927 148.41458 487.46399
506.0 0.001976 148.37141 462.14490
422.0 0.002370 148.32848 437.45566
459.0 0.002179 148.28574 413.69479
385.0 0.002597 148.24323 391.09375
405.0 0.002469 148.20090 369.82224
349.0 0.002865 148.15883 349.99594
327.0 0.003058 148.11694 331.68503
334.0 0.002994 148.07529 314.92093
324.0 0.003086 148.03386 299.70270
314.0 0.003185 147.99265 286.00165
302.0 0.003311 147.95166 273.76605
294.0 0.003401 147.91090 262.92560
264.0 0.00379 147.87038 253.39584
277.0 0.00361 147.83006 245.08209
283.0 0.00353 147.79001 237.88423
278.0 0.00360 147.75018 231.69995
264.0 0.00379 147.71057 226.42911
251.0 0.00398 147.67120 221.97618
277.0 0.00361 147.63208 218.25336
222.0 0.00450 147.59320 215.18198
245.0 0.00408 147.55455 212.78392
247.0 0.00405 147.51616 210.82405
216.0 0.00463 147.47800 209.34663
254.0 0.00394 147.44009 208.31842
228.0 0.00439 147.40244 207.71643
213.0 0.00469 147.36504 207.52751
251.0 0.00398 147.32788 207.74652
226.0 0.00442 147.29097 208.37508
226.0 0.00442 147.25433 209.41936
205.0 0.00488 147.21794 211.02240
233.0 0.00429 147.18182 212.92598
224.0 0.00446 147.14595 215.27193
206.0 0.00485 147.11035 218.06488
229.0 0.00437 147.07503 221.30362
227.0 0.00441 147.03995 224.97903
228.0 0.00439 147.00516 229.07289
244.0 0.00410 146.97061 233.55464
260.0 0.00385 146.93637 238.38014
263.0 0.00380 146.90237 243.53508
270.0 0.00370 146.86867 248.85135
236.0 0.00424 146.83524 254.27582
232.0 0.00431 146.80208 259.68854
266.0 0.00376 146.76920 264.94730
254.0 0.00394 146.73660 269.89160
234.0 0.00427 146.70430 274.35046
275.0 0.00364 146.67227 278.15698
244.0 0.00410 146.64055 281.16824
283.0 0.00353 146.60909 283.28641
266.0 0.00376 146.57794 284.47586
288.0 0.003472 146.54709 284.83765
298.0 0.003356 146.51651 284.33115
275.0 0.00364 146.48625 283.16373
272.0 0.00368 146.45627 281.49597
270.0 0.00370 146.42661 279.48880
249.0 0.00402 146.39722 277.28568
257.0 0.00389 146.36816 275.00220
276.0 0.00362 146.33939 272.72107
255.0 0.00392 146.31094 270.49036
285.0 0.00351 146.28279 268.32458
252.0 0.00397 146.25496 266.20932
271.0 0.00369 146.22743 264.10626
267.0 0.00375 146.20021 261.96255
276.0 0.00362 146.17332 259.72284
278.0 0.00360 146.14674 257.34152
274.0 0.00365 146.12048 254.79451
260.0 0.00385 146.09456 252.08463
270.0 0.00370 146.06892 249.24178
248.0 0.00403 146.04364 246.31749
210.0 0.00476 146.01868 243.37546
231.0 0.00433 145.99405 240.48274
268.0 0.00373 145.96973 237.70271
254.0 0.00394 145.94576 235.09140
228.0 0.00439 145.92210 232.69566
228.0 0.00439 145.89880 230.55293
252.0 0.00397 145.87584 228.69356
253.0 0.00395 145.85320 227.14088
271.0 0.00369 145.83090 225.91341
250.0 0.00400 145.80894 225.02580
285.0 0.00351 145.78734 224.49010
262.0 0.00382 145.76608 224.31682
272.0 0.00368 145.74516 224.51617
259.0 0.00386 145.72459 225.09908
259.0 0.00386 145.70438 226.07814
278.0 0.00360 145.68451 227.46938
270.0 0.00370 145.66499 229.29259
252.0 0.00397 145.64584 231.57277
293.0 0.003413 145.62704 234.34059
265.0 0.00377 145.60861 237.63313
264.0 0.00379 145.59053 241.49397
297.0 0.003367 145.57281 245.97334
325.0 0.003077 145.55547 251.12813
373.0 0.002681 145.53847 257.02042
355.0 0.002817 145.52185 263.71854
332.0 0.003012 145.50560 271.29529
346.0 0.002890 145.48973 279.82813
393.0 0.002545 145.47421 289.51361
403.0 0.002481 145.45908 300.17404
395.0 0.002532 145.44432 312.08765
424.0 0.002358 145.42995 325.31778
445.0 0.002247 145.41595 339.97025
456.0 0.002193 145.40233 356.16107
487.0 0.002053 145.38910 374.01437
499.0 0.002004 145.37625 393.66397
524.0 0.001908 145.36378 415.25195
523.0 0.001912 145.35170 438.92999
571.0 0.001751 145.34001 464.86160
609.0 0.001642 145.32872 493.23001
632.0 0.001582 145.31781 524.25311
654.0 0.001529 145.30731 558.19910
613.0 0.001631 145.29720 595.38531
713.0 0.001403 145.28748 636.25934
687.0 0.001456 145.27817 681.26617
799.0 0.001252 145.26924 730.89209
865.0 0.001156 145.26073 785.59424
826.0 0.001211 145.25262 845.74426
895.0 0.001117 145.24493 911.63287
966.0 0.001035 145.23763 983.19415
1091.0 0.000917 145.23074 1060.31360
1124.0 0.000890 145.22427 1142.56274
1254.0 0.000797 145.21822 1229.22388
1236.0 0.000809 145.21257 1319.25891
1458.0 0.000686 145.20734 1411.27942
1561.0 0.000641 145.20251 1503.52979
1649.0 0.000606 145.19812 1593.89966
1752.0 0.000571 145.19415 1679.98706
1872.0 0.000534 145.19060 1759.23364
2016.0 0.000496 145.18747 1829.13794
2112.0 0.000473 145.18477 1887.52734
2126.0 0.000470 145.18250 1932.83972
2195.0 0.000456 145.18065 1964.32751
2048.0 0.000488 145.17923 1982.12219
2087.0 0.000479 145.17825 1987.13611
2109.0 0.000474 145.17769 1980.83069
1963.0 0.000509 145.17758 1964.94360
1877.0 0.000533 145.17790 1941.24292
1844.0 0.000542 145.17865 1911.36816
1843.0 0.000543 145.17986 1876.75037
1686.0 0.000593 145.18149 1838.58093
1720.0 0.000581 145.18356 1797.80164
1719.0 0.000582 145.18610 1755.07935
1618.0 0.000618 145.18907 1710.78467
1621.0 0.000617 145.19249 1664.98608
1503.0 0.000665 145.19635 1617.48950
1600.0 0.000625 145.20067 1567.93323
1522.0 0.000657 145.20544 1515.92639
1576.0 0.000635 145.21066 1461.19495
1465.0 0.000683 145.21634 1403.69922
1351.0 0.000740 145.22247 1343.66760
1322.0 0.000756 145.22906 1281.56677
1267.0 0.000789 145.23611 1218.01196
1227.0 0.000815 145.24364 1153.67371
1094.0 0.000914 145.25160 1089.20007
1096.0 0.000912 145.26004 1025.18604
965.0 0.001036 145.26895 962.16943
895.0 0.001117 145.27832 900.64600
872.0 0.001147 145.28816 841.08063
768.0 0.001302 145.29846 783.90344
727.0 0.001376 145.30925 729.49902
709.0 0.001410 145.32050 678.18945
680.0 0.001471 145.33221 630.21960
624.0 0.001603 145.34442 585.75098
579.0 0.001727 145.35710 544.86304
567.0 0.001764 145.37025 507.55984
540.0 0.001852 145.38390 473.78143
471.0 0.002123 145.39801 443.41486
473.0 0.002114 145.41260 416.30740
459.0 0.002179 145.42769 392.27740
434.0 0.002304 145.44325 371.12564
441.0 0.002268 145.45930 352.64310
383.0 0.002611 145.47585 336.62057
356.0 0.002809 145.49289 322.85422
351.0 0.002849 145.51041 311.15118
341.0 0.002933 145.52841 301.33411
319.0 0.003135 145.54692 293.24344
349.0 0.002865 145.56592 286.80905
303.0 0.003300 145.58542 281.77225
331.0 0.003021 145.60541 278.10272
298.0 0.003356 145.62590 275.71835
314.0 0.003185 145.64690 274.55362
294.0 0.003401 145.66840 274.55560
342.0 0.002924 145.69038 275.68082
315.0 0.003175 145.71289 277.89169
336.0 0.002976 145.73589 281.15186
306.0 0.003268 145.75940 285.42242
331.0 0.003021 145.78342 290.65814
341.0 0.002933 145.80794 296.80270
308.0 0.003247 145.83298 303.78513
348.0 0.002874 145.85852 311.51575
321.0 0.003115 145.88458 319.88101
357.0 0.002801 145.91115 328.74075
332.0 0.003012 145.93823 337.92249
376.0 0.002660 145.96584 347.21738
387.0 0.002584 145.99396 356.37906
375.0 0.002667 146.02260 365.12512
399.0 0.002506 146.05176 373.18210
378.0 0.002646 146.08144 380.16312
406.0 0.002463 146.11163 385.80722
411.0 0.002433 146.14236 389.87466
395.0 0.002532 146.17360 392.21710
391.0 0.002558 146.20537 392.80185
422.0 0.002370 146.23767 391.71558
368.0 0.002717 146.27049 389.14984
396.0 0.002525 146.30385 385.36740
364.0 0.002747 146.33772 380.66409
355.0 0.002817 146.37213 375.33096
367.0 0.002725 146.40707 369.62854
357.0 0.002801 146.44257 363.76740
379.0 0.002639 146.47856 357.90033
336.0 0.002976 146.51511 352.11984
302.0 0.003311 146.55219 346.45889
355.0 0.002817 146.58980 340.89661
343.0 0.002915 146.62796 335.36728
332.0 0.003012 146.66664 329.77219
341.0 0.002933 146.70589 323.99945
310.0 0.003226 146.74565 317.94363
332.0 0.003012 146.78596 311.52762
319.0 0.003135 146.82683 304.71747
288.0 0.003472 146.86821 297.52945
247.0 0.00405 146.91017 290.02505
309.0 0.003236 146.95265 282.29965
294.0 0.003401 146.99570 274.46588
281.0 0.00356 147.03926 266.63934
279.0 0.00358 147.08340 258.92609
253.0 0.00395 147.12807 251.41856
253.0 0.00395 147.17329 244.19113
201.0 0.00498 147.21909 237.30185
248.0 0.00403 147.26541 230.79298
227.0 0.00441 147.31229 224.69366
202.0 0.00495 147.35973 219.02121
255.0 0.00392 147.40771 213.78387
197.0 0.00508 147.45625 208.98090
217.0 0.00461 147.50536 204.60483
228.0 0.00439 147.55501 200.64191
217.0 0.00461 147.60521 197.07346
212.0 0.00472 147.65598 193.87669
206.0 0.00485 147.70729 191.02608
186.0 0.00538 147.75919 188.49397
208.0 0.00481 147.81163 186.25169
189.0 0.00529 147.86464 184.27054
199.0 0.00503 147.91820 182.52208
167.0 0.00599 147.97231 180.97945
172.0 0.00581 148.02701 179.61719
194.0 0.00515 148.08224 178.41185
185.0 0.00541 148.13808 177.34244
179.0 0.00559 148.19444 176.38982
174.0 0.00575 148.25139 175.53763
159.0 0.00629 148.30890 174.77124
178.0 0.00562 148.36697 174.07852
188.0 0.00532 148.42561 173.44884
169.0 0.00592 148.48480 172.87337
184.0 0.00543 148.54459 172.34489
165.0 0.00606 148.60492 171.85707
173.0 0.00578 148.66583 171.40508
181.0 0.00552 148.72731 170.98459
159.0 0.00629 148.78937 170.59213
193.0 0.00518 148.85197 170.22498
152.0 0.00658 148.91518 169.88081
159.0 0.00629 148.97891 169.55736
175.0 0.00571 149.04323 169.25313
152.0 0.00658 149.10814 168.96680
163.0 0.00613 149.17360 168.69679
152.0 0.00658 149.23965 168.36574
157.0 0.00637 149.30626 168.12607
185.0 0.00541 149.37346 167.89989
162.0 0.00617 149.44121 167.68661
163.0 0.00613 149.50952 167.48560
180.0 0.00556 149.57845 167.29607
160.0 0.00625 149.64792 167.11751
183.0 0.00546 149.71799 166.94955
168.0 0.00595 149.78860 166.79149
159.0 0.00629 149.85982 166.64293
178.0 0.00562 149.93158 166.50354
159.0 0.00629 150.00395 166.37279
149.0 0.00671 150.07686 166.25040
182.0 0.00549 150.15034 166.13606
173.0 0.00578 150.22444 166.02940
156.0 0.00641 150.29909 165.48024
153.0 0.00654 150.37433 165.38985
161.0 0.00621 150.45012 165.30600
147.0 0.00680 150.52652 165.22893
172.0 0.00581 150.60345 165.15825
161.0 0.00621 150.68100 165.09370
149.0 0.00671 150.75909 165.03514
146.0 0.00685 150.83775 164.98236
160.0 0.00625 150.91704 164.93526
168.0 0.00595 150.99686 164.89359
170.0 0.00588 151.07727 164.85710
144.0 0.00694 151.15825 164.82588
131.0 0.00763 151.23982 164.79961
157.0 0.00637 151.32195 164.77826
169.0 0.00592 151.40463 164.76164
161.0 0.00621 151.48793 164.74963
162.0 0.00617 151.57178 164.74213
169.0 0.00592 151.65622 164.73917
146.0 0.00685 151.74123 164.74045
165.0 0.00606 151.82681 164.74606
135.0 0.00741 151.91296 164.75574
160.0 0.00625 151.99971 164.76950
171.0 0.00585 152.08699 164.78728
144.0 0.00694 152.17485 164.80901
177.0 0.00565 152.26332 164.83455
148.0 0.00676 152.35233 164.86391
165.0 0.00606 152.44193 164.89705
156.0 0.00641 152.53207 164.93384
173.0 0.00578 152.62283 164.97430
133.0 0.00752 152.71411 165.01833
147.0 0.00680 152.80602 165.06592
142.0 0.00704 152.89844 165.11707
147.0 0.00680 152.99144 165.17172
161.0 0.00621 153.08504 165.22980
160.0 0.00625 153.17917 165.29123
133.0 0.00752 153.27391 165.35620
172.0 0.00581 153.36919 165.42445
154.0 0.00649 153.46506 165.49611
154.0 0.00649 153.56145 165.57106
143.0 0.00699 153.65842 165.64929
162.0 0.00617 153.75598 165.73094
154.0 0.00649 153.85408 165.81593
146.0 0.00685 153.95277 165.90410
166.0 0.00602 154.05200 165.99559
174.0 0.00575 154.15181 166.09047
152.0 0.00658 154.25215 166.18855
156.0 0.00641 154.35310 166.29004
157.0 0.00637 154.45456 166.39478
154.0 0.00649 154.55658 166.50294
153.0 0.00654 154.65919 166.61446
166.0 0.00602 154.76233 166.72923
176.0 0.00568 154.86606 166.84756
152.0 0.00658 154.97031 166.96921
166.0 0.00602 155.07515 167.09435
163.0 0.00613 155.18050 167.22293
183.0 0.00546 155.28644 167.35512
152.0 0.00658 155.39290 167.49071
150.0 0.00667 155.49989 167.62997
154.0 0.00649 155.60750 167.77304
152.0 0.00658 155.71559 167.91949
136.0 0.00735 155.82428 168.06990
156.0 0.00641 155.93347 168.22411
144.0 0.00694 156.04326 168.38225
145.0 0.00690 156.15353 168.54427
155.0 0.00645 156.26436 168.71030
139.0 0.00719 156.37576 168.88046
157.0 0.00637 156.48766 169.05470
154.0 0.00649 156.60014 169.23343
167.0 0.00599 156.71312 169.41643
162.0 0.00617 156.82668 169.60394
179.0 0.00559 156.94072 169.79590
156.0 0.00641 157.05534 169.99272
158.0 0.00633 157.17046 170.19426
164.0 0.00610 157.28610 170.40080
147.0 0.00680 157.40230 170.61247
177.0 0.00565 157.51900 170.90916
168.0 0.00595 157.63626 171.13191
162.0 0.00617 157.75401 171.36017
170.0 0.00588 157.87231 171.59428
169.0 0.00592 157.99110 171.83430
150.0 0.00667 158.11046 172.08057
171.0 0.00585 158.23029 172.33321
161.0 0.00621 158.35062 172.59244
177.0 0.00565 158.47151 172.85864
158.0 0.00633 158.59288 173.13197
162.0 0.00617 158.71480 173.41272
145.0 0.00690 158.83719 173.70128
165.0 0.00606 158.96011 173.99794
160.0 0.00625 159.08351 174.30304
167.0 0.00599 159.20741 174.61693
147.0 0.00680 159.33185 174.94011
177.0 0.00565 159.45676 175.27287
162.0 0.00617 159.58220 175.61594
155.0 0.00645 159.70808 175.96957
149.0 0.00671 159.83452 176.33444
148.0 0.00676 159.96140 176.71103
167.0 0.00599 160.08879 177.10011
168.0 0.00595 160.21664 177.54283
158.0 0.00633 160.34499 177.95892
167.0 0.00599 160.47385 178.38988
169.0 0.00592 160.60315 178.83640
146.0 0.00685 160.73297 179.29947
160.0 0.00625 160.86322 179.78017
166.0 0.00602 160.99399 180.27983
160.0 0.00625 161.12518 180.79965
169.0 0.00592 161.25691 181.34137
174.0 0.00575 161.38904 181.90671
162.0 0.00617 161.52164 182.49782
178.0 0.00562 161.65474 183.11710
172.0 0.00581 161.78825 183.76756
180.0 0.00556 161.92227 184.45264
158.0 0.00633 162.05670 185.36412
210.0 0.00476 162.19164 186.13281
173.0 0.00578 162.32695 186.95166
161.0 0.00621 162.46272 187.82880
190.0 0.00526 162.59900 188.77350
176.0 0.00568 162.73566 189.79735
166.0 0.00602 162.87280 190.91435
191.0 0.00524 163.01033 192.14157
181.0 0.00552 163.14835 193.49921
182.0 0.00549 163.28674 195.01164
180.0 0.00556 163.42561 196.70744
218.0 0.00459 163.56485 198.61937
217.0 0.00461 163.70451 200.78575
185.0 0.00541 163.84467 203.24940
214.0 0.00467 163.98515 206.05827
218.0 0.00459 164.12611 209.26468
224.0 0.00446 164.26744 212.92484
222.0 0.00450 164.40921 217.09821
231.0 0.00433 164.55135 221.84540
259.0 0.00386 164.69392 227.22701
223.0 0.00448 164.83685 233.30107
250.0 0.00400 164.98016 240.12129
246.0 0.00407 165.12392 247.82880
253.0 0.00395 165.26801 256.26999
249.0 0.00402 165.41255 265.56238
269.0 0.00372 165.55740 275.71191
258.0 0.00388 165.70268 286.70593
271.0 0.00369 165.84830 298.50916
279.0 0.00358 165.99426 311.06052
311.0 0.003215 166.14066 324.27072
312.0 0.003205 166.28735 338.01688
334.0 0.002994 166.43446 352.14114
342.0 0.002924 166.58188 366.44443
374.0 0.002674 166.72971 380.68533
420.0 0.002381 166.87782 394.57758
414.0 0.002415 167.02634 407.79617
444.0 0.002252 167.17513 419.98792
426.0 0.002347 167.32426 430.79428
450.0 0.002222 167.47379 439.88358
496.0 0.002016 167.62358 446.99045
497.0 0.002012 167.77376 451.95395
489.0 0.002045 167.92419 454.74393
505.0 0.001980 168.07500 455.46796
449.0 0.002227 168.22607 454.35437
452.0 0.002212 168.37750 451.71918
454.0 0.002203 168.52917 447.92328
450.0 0.002222 168.68115 443.33224
441.0 0.002268 168.83350 438.28403
424.0 0.002358 168.98605 433.06851
389.0 0.002571 169.13898 427.91553
422.0 0.002370 169.29211 422.99084
403.0 0.002481 169.44559 418.39578
411.0 0.002433 169.59927 414.17102
396.0 0.002525 169.75322 410.30157
359.0 0.002786 169.90750 406.72565
403.0 0.002481 170.06198 403.34750
382.0 0.002618 170.21678 400.05658
418.0 0.002392 170.37178 396.74911
401.0 0.002494 170.52707 393.35297
409.0 0.002445 170.68256 389.84869
377.0 0.002653 170.83833 386.28125
427.0 0.002342 170.99428 382.76242
427.0 0.002342 171.15045 379.46112
421.0 0.002375 171.30692 376.58643
387.0 0.002584 171.46353 374.37033
378.0 0.002646 171.62041 373.04868
340.0 0.002941 171.77745 372.85028
382.0 0.002618 171.93475 373.98755
391.0 0.002558 172.09218 376.64999
451.0 0.002217 172.24986 381.12152
395.0 0.002532 172.40768 387.30066
409.0 0.002445 172.56567 395.41098
399.0 0.002506 172.72392 405.52234
426.0 0.002347 172.88226 417.66687
395.0 0.002532 173.04083 431.83517
414.0 0.002415 173.19951 447.97180
448.0 0.002232 173.35840 465.97137
490.0 0.002041 173.51738 485.67340
486.0 0.002058 173.67648 506.85779
511.0 0.001957 173.83582 529.23871
529.0 0.001890 173.99521 552.45740
564.0 0.001773 174.15479 576.07831
648.0 0.001543 174.31442 599.58533
578.0 0.001730 174.47424 622.65247
619.0 0.001616 174.63411 644.09296
690.0 0.001449 174.79414 663.48645
646.0 0.001548 174.95421 680.16467
696.0 0.001437 175.11436 693.54260
708.0 0.001412 175.27467 703.18732
712.0 0.001404 175.43500 708.87750
689.0 0.001451 175.59546 710.63788
709.0 0.001410 175.75594 708.73309
675.0 0.001481 175.91652 703.62451
645.0 0.001550 176.07710 695.90424
632.0 0.001582 176.23779 686.21942
616.0 0.001623 176.39848 675.20459
626.0 0.001597 176.55919 663.43152
588.0 0.001701 176.71999 651.37524
545.0 0.001835 176.88075 639.39771
576.0 0.001736 177.04160 627.74243
557.0 0.001795 177.20239 616.53363
567.0 0.001764 177.36325 605.78363
592.0 0.001689 177.52405 595.40106
565.0 0.001770 177.68483 585.20880
533.0 0.001876 177.84566 574.96564
548.0 0.001825 178.00641 564.39966
553.0 0.001808 178.16718 553.24756
591.0 0.001692 178.32785 541.29535
505.0 0.001980 178.48854 528.41180
484.0 0.002066 178.64912 514.56873
502.0 0.001992 178.80969 499.84009
508.0 0.001969 178.97015 484.38669
448.0 0.002232 179.13054 468.42657
398.0 0.002513 179.29089 452.20444
466.0 0.002146 179.45111 435.96429
403.0 0.002481 179.61130 419.93112
431.0 0.002320 179.77132 404.29932
406.0 0.002463 179.93127 389.23090
379.0 0.002639 180.09106 374.85291
411.0 0.002433 180.25079 361.26401
354.0 0.002825 180.41032 348.53510
327.0 0.003058 180.56972 336.71414
332.0 0.003012 180.72902 325.82990
294.0 0.003401 180.88811 315.89377
309.0 0.003236 181.04709 306.90179
300.0 0.003333 181.20584 298.83783
284.0 0.00352 181.36447 291.67535
300.0 0.003333 181.52286 285.37897
280.0 0.00357 181.68103 279.90747
239.0 0.00418 181.83908 275.21542
259.0 0.00386 181.99686 271.25531
280.0 0.00357 182.15446 267.97998
267.0 0.00375 182.31178 265.34387
272.0 0.00368 182.46893 263.30563
290.0 0.003448 182.62576 261.82843
254.0 0.00394 182.78242 260.88254
274.0 0.00365 182.93874 260.44580
286.0 0.003497 183.09480 260.50391
278.0 0.00360 183.25063 261.05197
284.0 0.00352 183.40611 262.09390
254.0 0.00394 183.56136 263.64319
301.0 0.003322 183.71623 265.72217
277.0 0.00361 183.87085 268.36182
311.0 0.003215 184.02510 271.60120
293.0 0.003413 184.17906 275.48654
321.0 0.003115 184.33263 280.06998
302.0 0.003311 184.48584 285.40839
336.0 0.002976 184.63876 291.56226
306.0 0.003268 184.79124 298.59338
335.0 0.002985 184.94341 306.56335
365.0 0.002740 185.09512 315.53195
358.0 0.002793 185.24649 325.55435
341.0 0.002933 185.39740 336.67938
388.0 0.002577 185.54790 348.94791
428.0 0.002336 185.69803 362.38870
418.0 0.002392 185.84766 377.01648
448.0 0.002232 185.99690 392.82828
416.0 0.002404 186.14563 409.79941
445.0 0.002247 186.29396 427.87857
475.0 0.002105 186.44174 446.98251
485.0 0.002062 186.58910 466.99066
491.0 0.002037 186.73590 487.74252
539.0 0.001855 186.88220 509.03564
520.0 0.001923 187.02805 530.63123
583.0 0.001715 187.17331 552.26617
614.0 0.001629 187.31808 573.67291
608.0 0.001645 187.46225 594.60852
602.0 0.001661 187.60593 614.87848
583.0 0.001715 187.74898 634.36102
642.0 0.001558 187.89149 653.01422
666.0 0.001502 188.03339 670.86353
669.0 0.001495 188.17467 687.97784
717.0 0.001395 188.31538 704.42957
688.0 0.001453 188.45543 720.25677
715.0 0.001399 188.59491 735.42981
707.0 0.001414 188.73367 749.82678
757.0 0.001321 188.87184 763.22644
776.0 0.001289 189.00929 775.31305
762.0 0.001312 189.14607 785.70319
821.0 0.001218 189.28221 793.98407
815.0 0.001227 189.41760 799.76648
846.0 0.001182 189.55232 802.74072
784.0 0.001276 189.68628 802.72247
807.0 0.001239 189.81955 799.68188
803.0 0.001245 189.95201 793.74786
774.0 0.001292 190.08379 785.18909
741.0 0.001350 190.21472 774.38141
787.0 0.001271 190.34489 761.77063
701.0 0.001427 190.47432 747.83679
744.0 0.001344 190.60289 733.06018
701.0 0.001427 190.73070 717.89624
719.0 0.001391 190.85760 702.75128
686.0 0.001458 190.98375 687.96582
691.0 0.001447 191.10896 673.80060
695.0 0.001439 191.23338 660.43048
650.0 0.001538 191.35686 647.94226
667.0 0.001499 191.47946 636.34290
629.0 0.001590 191.60120 625.57031
625.0 0.001600 191.72197 615.51611
607.0 0.001647 191.84186 606.05145
609.0 0.001642 191.96077 597.05658
582.0 0.001718 192.07877 588.44904
606.0 0.001650 192.19574 580.20044
619.0 0.001616 192.31175 572.34283
619.0 0.001616 192.42680 564.96008
616.0 0.001623 192.54080 558.16779
585.0 0.001709 192.65384 552.09027
506.0 0.001976 192.76578 546.83649
593.0 0.001686 192.87674 542.48126
540.0 0.001852 192.98659 539.05408
523.0 0.001912 193.09540 536.53113
509.0 0.001965 193.20308 534.83557
558.0 0.001792 193.30968 533.84216
551.0 0.001815 193.41519 533.38867
495.0 0.002020 193.51953 533.29260
523.0 0.001912 193.62277 533.37836
498.0 0.002008 193.72482 533.50024
507.0 0.001972 193.82573 533.57153
525.0 0.001905 193.92543 533.57318
547.0 0.001828 194.02396 533.55615
543.0 0.001842 194.12125 533.62115
506.0 0.001976 194.21730 533.89386
571.0 0.001751 194.31216 534.49414
485.0 0.002062 194.40572 535.51093
516.0 0.001938 194.49803 536.98315
575.0 0.001739 194.58904 538.89014
545.0 0.001835 194.67877 541.14618
506.0 0.001976 194.76717 543.60669
496.0 0.002016 194.85422 546.07819
535.0 0.001869 194.93997 548.33484
550.0 0.001818 195.02432 550.14392
514.0 0.001946 195.10733 551.29407
541.0 0.001848 195.18892 551.62109
491.0 0.002037 195.26913 551.03046
506.0 0.001976 195.34789 549.50891
566.0 0.001767 195.42525 547.12451
517.0 0.001934 195.50111 544.02075
457.0 0.002188 195.57552 540.40143
470.0 0.002128 195.64845 536.51300
486.0 0.002058 195.71988 532.62488
491.0 0.002037 195.78981 529.00665
507.0 0.001972 195.85818 525.90948
524.0 0.001908 195.92503 523.54926
505.0 0.001980 195.99028 522.09253
502.0 0.001992 196.05399 521.65161
512.0 0.001953 196.11607 522.27747
530.0 0.001887 196.17653 523.96106
476.0 0.002101 196.23540 526.63525
496.0 0.002016 196.29259 530.17944
477.0 0.002096 196.34813 534.42950
521.0 0.001919 196.40198 539.18854
554.0 0.001805 196.45415 544.23877
584.0 0.001712 196.50458 549.35187
553.0 0.001808 196.55328 554.29791
588.0 0.001701 196.60027 558.84662
593.0 0.001686 196.64545 562.76837
568.0 0.001761 196.68887 565.83856
584.0 0.001712 196.73048 567.84412
578.0 0.001730 196.77028 568.60114
557.0 0.001795 196.80824 567.97784
568.0 0.001761 196.84435 565.91644
591.0 0.001692 196.87857 562.45251
587.0 0.001704 196.91090 557.71777
574.0 0.001742 196.94136 551.93115
588.0 0.001701 196.96986 545.37500
555.0 0.001802 196.99643 538.36871
555.0 0.001802 197.02103 531.23969
519.0 0.001927 197.04366 524.30103
552.0 0.001812 197.06429 517.83594
523.0 0.001912 197.08289 512.09009
505.0 0.001980 197.09946 507.26746
515.0 0.001942 197.11397 503.53180
518.0 0.001931 197.12642 501.00809
533.0 0.001876 197.13676 499.78650
560.0 0.001786 197.14500 499.92618
534.0 0.001873 197.15111 501.46094
558.0 0.001792 197.15506 504.40753
545.0 0.001835 197.15685 508.77573
570.0 0.001754 197.15643 514.58118
559.0 0.001789 197.15382 521.85999
560.0 0.001786 197.14899 530.68011
611.0 0.001637 197.14189 541.14740
597.0 0.001675 197.13254 553.40613
598.0 0.001672 197.12090 567.62823
649.0 0.001541 197.10693 583.99835
593.0 0.001686 197.09065 602.69202
631.0 . . .
