#------------------------------------------------------------------------------
#$Date: 2015-06-07 00:55:37 +0300 (Sun, 07 Jun 2015) $
#$Revision: 138514 $
#$URL: svn://www.crystallography.net/cod/cif/7/22/04/7220451.cif $
#------------------------------------------------------------------------------
#
# This file is available in the Crystallography Open Database (COD),
# http://www.crystallography.net/
#
# All data on this site have been placed in the public domain by the
# contributors.
#
data_7220451
loop_
_publ_author_name
'Morrison, Gregory'
'Smith, Mark D.'
'Tran, T. Thao'
'Halasyamani, P. Shiv'
'zur Loye, Hans-Conrad'
_publ_section_title
;
 Synthesis and structure of the new pentanary uranium(vi) silicate,
 K4CaUSi4O14, a member of a structural family related to fresnoite
;
_journal_issue                   22
_journal_name_full               CrystEngComm
_journal_page_first              4218
_journal_paper_doi               10.1039/C5CE00504C
_journal_volume                  17
_journal_year                    2015
_chemical_formula_moiety         'Ca K4 O14 Si4 U'
_chemical_formula_sum            'Ca K4 O14 Si4 U'
_chemical_formula_weight         770.87
_space_group_crystal_system      tetragonal
_space_group_IT_number           118
_space_group_name_Hall           'P -4 -2n'
_space_group_name_H-M_alt        'P -4 n 2'
_symmetry_space_group_name_Hall  'P -4 -2n'
_symmetry_space_group_name_H-M   'P -4 n 2'
_audit_creation_method           SHELXL-2014/6
_cell_angle_alpha                90
_cell_angle_beta                 90
_cell_angle_gamma                90
_cell_formula_units_Z            2
_cell_length_a                   9.2862(2)
_cell_length_b                   9.2862(2)
_cell_length_c                   8.3796(4)
_cell_measurement_reflns_used    7120
_cell_measurement_temperature    296(2)
_cell_measurement_theta_max      34.656
_cell_measurement_theta_min      3.102
_cell_volume                     722.60(4)
_computing_cell_refinement       'SAINT-Plus Version 6.45 (Bruker, 2001)'
_computing_data_collection       'SMART Version 5.625 (Bruker, 2001)'
_computing_data_reduction        'SAINT-Plus Version 6.45 (Bruker, 2001)'
_computing_molecular_graphics    various
_computing_publication_material  various
_computing_structure_refinement  'SHELXL-2014/6 (Sheldrick, 2014)'
_computing_structure_solution    'SHELXS97 (Sheldrick, 1997)'
_diffrn_ambient_temperature      296(2)
_diffrn_measured_fraction_theta_full 1.000
_diffrn_measured_fraction_theta_max 1.000
_diffrn_measurement_device_type  'Bruker SMART APEX CCD diffractometer'
_diffrn_measurement_method       'omega and phi scans'
_diffrn_radiation_type           MoK\a
_diffrn_radiation_wavelength     0.71073
_diffrn_reflns_av_R_equivalents  0.0492
_diffrn_reflns_av_unetI/netI     0.0316
_diffrn_reflns_laue_measured_fraction_full 1.000
_diffrn_reflns_laue_measured_fraction_max 1.000
_diffrn_reflns_limit_h_max       15
_diffrn_reflns_limit_h_min       -13
_diffrn_reflns_limit_k_max       13
_diffrn_reflns_limit_k_min       -14
_diffrn_reflns_limit_l_max       12
_diffrn_reflns_limit_l_min       -13
_diffrn_reflns_number            16843
_diffrn_reflns_point_group_measured_fraction_full 0.996
_diffrn_reflns_point_group_measured_fraction_max 0.996
_diffrn_reflns_theta_full        35.050
_diffrn_reflns_theta_max         35.050
_diffrn_reflns_theta_min         3.102
_diffrn_source                   'sealed tube'
_exptl_absorpt_coefficient_mu    13.143
_exptl_absorpt_correction_T_max  1.0000
_exptl_absorpt_correction_T_min  0.4917
_exptl_absorpt_correction_type   multi-scan
_exptl_absorpt_process_details   'SADABS Version 2.05 (Bruker, 2001)'
_exptl_crystal_colour            yellow
_exptl_crystal_density_diffrn    3.543
_exptl_crystal_description       block
_exptl_crystal_F_000             712
_exptl_crystal_size_max          0.120
_exptl_crystal_size_mid          0.080
_exptl_crystal_size_min          0.060
_refine_diff_density_max         1.707
_refine_diff_density_min         -1.494
_refine_diff_density_rms         0.208
_refine_ls_abs_structure_details
; 
 Flack x determined using 564 quotients [(I+)-(I-)]/[(I+)+(I-)] 
 (Parsons, Flack and Wagner, Acta Cryst. B69 (2013) 249-259). 
;
_refine_ls_abs_structure_Flack   0.006(5)
_refine_ls_extinction_coef       0.0248(14)
_refine_ls_extinction_expression Fc^*^=kFc[1+0.001xFc^2^\l^3^/sin(2\q)]^-1/4^
_refine_ls_extinction_method     SHELXL
_refine_ls_goodness_of_fit_ref   1.066
_refine_ls_hydrogen_treatment    undef
_refine_ls_matrix_type           full
_refine_ls_number_parameters     58
_refine_ls_number_reflns         1601
_refine_ls_number_restraints     0
_refine_ls_restrained_S_all      1.066
_refine_ls_R_factor_all          0.0321
_refine_ls_R_factor_gt           0.0270
_refine_ls_shift/su_max          0.000
_refine_ls_shift/su_mean         0.000
_refine_ls_structure_factor_coef Fsqd
_refine_ls_weighting_details
'w=1/[\s^2^(Fo^2^)+(0.0300P)^2^+1.6364P] where P=(Fo^2^+2Fc^2^)/3'
_refine_ls_weighting_scheme      calc
_refine_ls_wR_factor_gt          0.0637
_refine_ls_wR_factor_ref         0.0664
_reflns_Friedel_coverage         0.771
_reflns_friedel_fraction_full    0.990
_reflns_friedel_fraction_max     0.990
_reflns_number_gt                1407
_reflns_number_total             1601
_reflns_threshold_expression     'I > 2\s(I)'
_cod_data_source_file            c5ce00504c2.cif
_cod_data_source_block           p-4n2
_cod_depositor_comments          'Adding full bibliography for 7220451.cif.'
_cod_original_cell_volume        722.60(5)
_cod_database_code               7220451
_shelx_space_group_comment
; 
The symmetry employed for this shelxl refinement is uniquely defined 
by the following loop, which should always be used as a source of 
symmetry information in preference to the above space-group names. 
They are only intended as comments. 
;
_shelx_estimated_absorpt_t_min   0.302
_shelx_estimated_absorpt_t_max   0.506
_shelxl_version_number           2014/6
_shelx_res_file
; 
TITL P-4n2 in P-4n2 
CELL 0.71073   9.2862   9.2862   8.3796  90.000  90.000  90.000 
ZERR    2.00   0.0002   0.0002   0.0004   0.000   0.000   0.000 
LATT -1 
SYMM -X, -Y, Z 
SYMM Y, -X, -Z 
SYMM -Y, X, -Z 
SYMM 0.5+X, 0.5-Y, 0.5+Z 
SYMM 0.5-X, 0.5+Y, 0.5+Z 
SYMM 0.5+Y, 0.5+X, 0.5-Z 
SYMM 0.5-Y, 0.5-X, 0.5-Z 
SFAC O SI K CA U 
UNIT 28 8 8 2 2 
LIST 4 
TEMP 23(2) 
  
L.S. 7 
BOND 
FREE SI1 K2 
ACTA 70.1 
SIZE 0.12         0.08         0.06 
REM yellow fragment 
REM 7120 refl / 2th = 6.205 - 69.312 
REM sadabs  0.491670 
FMAP 2 
PLAN 9 
  
WGHT    0.030000    1.636400 
EXTI    0.024808 
FVAR       0.40257 
U1    5    0.000000    0.000000    0.000000    10.25000    0.01627    0.01627 = 
         0.00898    0.00000    0.00000    0.00000 
CA1   4    0.000000    0.000000    0.500000    10.25000    0.01313    0.01313 = 
         0.00570    0.00000    0.00000    0.00000 
K1    3    0.656757    0.156757    0.250000    10.50000    0.05331    0.05331 = 
         0.02532   -0.01173    0.01173   -0.03497 
K2    3    0.210778    0.289222    0.250000    10.50000    0.03826    0.03826 = 
         0.02287   -0.00582   -0.00582    0.01575 
SI1   2    0.117995    0.618866    0.056808    11.00000    0.01716    0.01868 = 
         0.01071    0.00175    0.00092    0.00210 
O1    1    0.000000    0.000000    0.216739    10.50000    0.04038    0.09286 = 
         0.01071    0.00000    0.00000    0.01678 
O2    1    0.267705    0.586328   -0.018144    11.00000    0.03056    0.11221 = 
         0.05138    0.03828    0.01919    0.03013 
O3    1    0.057031    0.769772   -0.003466    11.00000    0.08149    0.02221 = 
         0.06915    0.01727    0.02818    0.01965 
O4    1    0.000000    0.500000    0.006533    10.50000    0.08881    0.06146 = 
         0.01733    0.00000    0.00000   -0.05493 
O5    1    0.117838    0.617837    0.250000    10.50000    0.08057    0.08057 = 
         0.01026   -0.00337    0.00337   -0.05438 
HKLF 4 
  
REM  P-4n2 in P-4n2 
REM R1 =  0.0270 for    1407 Fo > 4sig(Fo)  and  0.0321 for all    1601 data 
REM     58 parameters refined using      0 restraints 
  
END 
  
WGHT      0.0300      1.6365 
  
REM Highest difference peak  1.707,  deepest hole -1.494,  1-sigma level  0.208 
Q1    1   0.0368  0.0456  0.0531  11.00000  0.05    1.29 
Q2    1   0.2513  0.5081  0.0000  11.00000  0.05    1.10 
Q3    1  -0.0408  0.0504  0.0582  11.00000  0.05    1.07 
Q4    1   0.1192  0.7872  0.0087  11.00000  0.05    0.70 
Q5    1   0.0234  0.7686 -0.0124  11.00000  0.05    0.70 
Q6    1   0.2633  0.6127  0.0484  11.00000  0.05    0.57 
Q7    1   0.0725  0.7801  0.0577  11.00000  0.05    0.56 
Q8    1   0.0617  0.8323  0.0413  11.00000  0.05    0.56 
Q9    1   0.0477  0.4975 -0.0025  11.00000  0.05    0.55 
;
_shelx_res_checksum              97282
_shelx_hkl_file
; 
   0   0 -13   -9.19    5.35 
   0   1 -13  216.45   30.56 
   1   0 -13  256.62   31.86 
   0  -1 -13  244.79   31.91 
  -1   0 -13  239.31   31.72 
   1  -1 -13   16.92    9.17 
  -1   1 -13    7.25    7.32 
  -1  -1 -13    1.61    7.22 
   1   1 -13    9.60    7.18 
   0   2 -13   -0.25    5.95 
  -2   0 -13   -5.03    6.67 
   0  -2 -13   -9.54    5.51 
   2   0 -13   -4.50    5.40 
  -2   1 -13  167.16   27.33 
  -1  -2 -13  213.96   29.82 
   1   2 -13  230.49   29.41 
   1  -2 -13  221.06   29.82 
   2   1 -13  257.69   30.51 
  -2  -1 -13  191.37   29.03 
  -1   2 -13  199.42   28.46 
   2  -1 -13  218.18   29.08 
  -2   2 -13   34.06   11.85 
  -2  -2 -13   10.25    8.37 
   2  -2 -13   20.71   10.26 
   2   2 -13   12.23    7.79 
  -3   0 -13  170.55   28.12 
   0  -3 -13  264.89   31.99 
   0   3 -13  282.97   31.08 
   3   0 -13  173.78   27.52 
  -3   1 -13    5.68    7.81 
   1  -3 -13    2.49    7.59 
   1   3 -13   -7.73    5.01 
  -1   3 -13   -3.99    6.16 
  -1  -3 -13   12.23    7.96 
   3  -1 -13    3.36    6.21 
   3   1 -13    3.53    6.84 
  -3  -1 -13   -9.67    6.70 
   3  -2 -13  150.24   25.20 
  -2  -3 -13  189.61   27.76 
  -3  -2 -13  181.77   27.26 
   2   3 -13  172.36   25.42 
   2  -3 -13  233.92   29.68 
  -3   2 -13  150.08   26.03 
   3   2 -13  181.35   26.09 
   0  -4 -13   -0.60    7.18 
   4   0 -13   -4.61    4.65 
   0   4 -13    8.54    8.24 
  -4   0 -13   12.48    8.37 
   1   4 -13  170.11   27.02 
  -1  -4 -13  166.18   28.54 
   4   1 -13  252.40   30.13 
  -4  -1 -13  247.87   31.48 
   4  -1 -13  279.47   31.84 
   1  -4 -13  189.49   29.79 
  -4   1 -13  253.13   31.97 
   0   0 -12  781.92   72.82 
   0   0 -12  796.64   67.56 
   0   0 -12  838.34   72.79 
   1   0 -12   -1.27    3.50 
  -1   0 -12   -2.81    4.62 
   0   1 -12   -0.27    3.06 
  -1   0 -12   -5.25    2.92 
   0  -1 -12    7.64    6.68 
   0  -1 -12    4.01    4.15 
  -1   0 -12    2.73    6.09 
   0  -1 -12    9.94    6.87 
   0   1 -12   -3.96    5.34 
   1   0 -12   13.19    7.17 
   1   0 -12   -0.04    4.18 
   0   1 -12    4.17    6.20 
   1   1 -12  393.74   43.11 
   1  -1 -12  503.73   44.68 
  -1   1 -12  473.66   45.07 
  -1  -1 -12  484.18   45.79 
   1  -1 -12  360.36   42.93 
  -1  -1 -12  455.38   40.49 
   1  -1 -12  428.01   39.93 
  -1   1 -12  443.72   45.14 
   1   1 -12  477.33   44.07 
   1   1 -12  418.23   38.74 
  -1  -1 -12  395.19   43.78 
  -1   1 -12  442.53   39.48 
   0   2 -12  356.67   35.25 
   0  -2 -12  318.14   31.24 
  -2   0 -12  318.50   30.86 
   2   0 -12  274.55   29.19 
   0  -2 -12  314.98   34.97 
  -2   0 -12  329.87   34.99 
   0   2 -12  263.76   34.42 
   2   0 -12  341.18   35.06 
   0   2 -12  306.99   29.04 
  -2   0 -12  321.35   38.18 
   0  -2 -12  329.05   34.63 
   1   2 -12   37.22    7.83 
  -1  -2 -12   45.17   12.23 
   2   1 -12   31.68    9.98 
   1   2 -12   25.81    9.12 
  -2   1 -12   44.14   12.27 
  -1  -2 -12   36.70    9.27 
   2  -1 -12   28.07    7.69 
  -2   1 -12   36.19    8.77 
  -1   2 -12   21.73   10.66 
   1  -2 -12   45.21   11.60 
  -2  -1 -12   35.57    8.30 
   2   1 -12   39.40    7.95 
   1  -2 -12   22.11   10.17 
  -1   2 -12   40.93    8.30 
   1  -2 -12   35.62    8.88 
  -1  -2 -12   43.53   12.72 
   1   2 -12   47.23   12.24 
   2  -1 -12   40.89   11.34 
  -2  -1 -12   38.01   11.69 
  -1   2 -12   65.63   13.94 
  -2   1 -12   37.50   12.62 
  -2  -1 -12   52.77   13.42 
   2   2 -12  678.75   60.98 
  -2  -2 -12  574.10   60.06 
  -2   2 -12  578.42   61.25 
  -2  -2 -12  701.83   57.59 
   2  -2 -12  601.52   60.41 
  -2  -2 -12  775.47   64.42 
   0  -3 -12    5.16    5.48 
   0  -3 -12   -2.12    5.75 
   0  -3 -12   11.47    4.93 
  -3   0 -12    4.40    7.36 
  -3   0 -12   -6.09    3.64 
   0   3 -12   -1.21    5.66 
   3   0 -12    3.79    5.74 
   0   3 -12    0.99    5.32 
  -1   3 -12  483.21   48.90 
   1   3 -12  438.09   46.51 
   3  -1 -12  465.05   47.55 
  -1  -3 -12  547.45   45.78 
   3   1 -12  487.86   47.73 
  -1  -3 -12  456.17   47.81 
  -1  -3 -12  498.18   48.79 
   1  -3 -12  452.19   47.99 
   1  -3 -12  474.31   47.05 
  -3  -1 -12  499.23   44.88 
  -3  -1 -12  496.94   48.66 
   3  -2 -12    1.46    5.43 
   3   2 -12   -2.79    5.57 
   2  -3 -12    8.16    8.27 
  -2  -3 -12   17.51    7.75 
  -2  -3 -12    5.38    4.54 
   2  -3 -12    2.66    4.13 
  -3  -2 -12   -6.32    3.38 
   2   3 -12   -0.52    5.96 
  -3  -2 -12   -7.32    6.12 
   3  -3 -12  274.91   35.08 
  -3  -3 -12  293.08   36.14 
   3   3 -12  355.53   34.06 
  -3  -3 -12  278.10   30.23 
   4   0 -12  523.32   51.44 
   0  -4 -12  535.39   48.86 
   0  -4 -12  571.96   53.45 
   0   4 -12  521.08   51.76 
  -4   0 -12  500.31   52.07 
   1  -4 -12   21.30    9.51 
  -1  -4 -12    3.64    8.08 
  -4  -1 -12    3.29    7.68 
   4   1 -12   16.22    7.43 
   1  -4 -12   20.60    7.02 
   1   4 -12    6.79    7.44 
   1  -4 -12   27.30    8.23 
   4  -1 -12   19.80    8.55 
  -1  -4 -12   28.32    7.60 
  -2  -4 -12  478.13   46.36 
   2   4 -12  428.65   43.94 
  -4  -2 -12  465.58   46.72 
   4   2 -12  384.24   43.14 
  -4  -2 -12  461.81   42.95 
   2  -4 -12  494.29   44.81 
   4  -2 -12  431.49   44.98 
   2  -4 -12  442.93   46.08 
   4  -3 -12    9.09    7.42 
   3   4 -12    9.95    7.11 
   4   3 -12   -1.95    4.95 
  -3  -4 -12    6.86    7.79 
   3  -4 -12    3.66    7.78 
  -4  -3 -12    2.80    7.40 
   4  -4 -12  422.10   44.77 
  -4  -4 -12  480.62   46.35 
   4   4 -12  402.09   42.59 
   5   0 -12   -0.46    5.77 
   0  -5 -12   16.16    8.46 
   5  -1 -12  300.45   33.47 
   5   1 -12  318.03   33.35 
   1   5 -12  264.17   33.32 
  -5  -1 -12  262.48   35.40 
  -1  -5 -12  342.73   35.98 
   1  -5 -12  304.00   36.63 
   2  -5 -12   16.18    9.10 
  -2  -5 -12   -5.85    6.77 
   5  -2 -12    6.58    7.16 
   2   5 -12   10.34    6.77 
   5   2 -12    7.85    7.46 
  -5  -2 -12   19.59    9.48 
  -3  -5 -12  478.53   49.11 
   5   3 -12  430.29   45.26 
   3  -5 -12  484.96   48.87 
  -5  -3 -12  518.74   49.64 
   5  -3 -12  467.55   47.91 
   5  -4 -12   -7.04    5.19 
   4  -5 -12    3.01    8.05 
   4   5 -12   15.19    7.36 
   5   4 -12   -4.46    4.92 
   0  -6 -12  546.91   52.26 
   6   0 -12  474.99   49.21 
  -6  -1 -12   11.81   10.22 
   6   1 -12   -5.01    5.32 
   6  -1 -12   -0.79    5.68 
   1  -6 -12   -3.89    7.08 
  -1  -6 -12    6.17    8.06 
  -2  -6 -12  400.84   42.74 
   6  -2 -12  369.75   40.49 
   6   2 -12  401.77   40.18 
  -6  -2 -12  388.28   42.02 
   2  -6 -12  366.93   41.42 
   3  -6 -12   20.25   10.18 
   3   6 -12   14.10    7.96 
   6  -3 -12   14.30    9.21 
   0   0 -11    1.52    5.35 
   0   0 -11   -0.41    2.84 
   0   0 -11   -5.84    4.35 
  -1   0 -11  381.41   35.96 
   0   1 -11  276.32   28.00 
   1   0 -11  365.41   29.81 
   0  -1 -11  293.98   29.22 
   0  -1 -11  233.59   32.98 
   1   0 -11  355.13   33.15 
   0   1 -11  235.81   32.37 
   0  -1 -11  262.86   31.55 
  -1   0 -11  359.73   30.26 
   1   0 -11  326.73   33.52 
  -1   0 -11  358.25   34.10 
   0   1 -11  240.99   32.66 
   1  -1 -11   19.21    8.16 
   1   1 -11    8.52    6.46 
  -1  -1 -11    6.42    4.43 
   1  -1 -11   12.68    4.99 
   1   1 -11   11.39    6.95 
  -1   1 -11    5.93    5.92 
   1  -1 -11   11.33    6.38 
  -1  -1 -11    3.82    5.47 
   1   1 -11   19.76    5.72 
  -1  -1 -11   13.88    7.67 
  -1   1 -11   25.26    6.82 
  -1   1 -11   20.13    9.10 
   0  -2 -11    1.18    3.54 
  -2   0 -11   -4.09    5.84 
   2   0 -11   -1.11    4.76 
   2   0 -11    2.93    3.58 
  -2   0 -11   -1.78    3.59 
   0   2 -11   -1.75    5.43 
   0   2 -11   -0.29    3.11 
   0  -2 -11    8.79    5.47 
   0  -2 -11   -1.63    4.86 
   2   0 -11   -1.91    4.01 
  -2   0 -11   -0.84    5.57 
   0   2 -11    7.43    6.28 
  -1  -2 -11  206.02   29.00 
  -1   2 -11  276.08   31.92 
   2  -1 -11  226.86   29.41 
   1   2 -11  234.53   22.92 
   2  -1 -11  265.84   27.20 
  -1  -2 -11  276.39   31.53 
   1  -2 -11  238.08   25.00 
  -2   1 -11  283.12   32.89 
   2   1 -11  282.02   27.59 
  -2  -1 -11  270.05   30.49 
   2   1 -11  210.66   28.61 
  -2  -1 -11  245.63   25.27 
   1   2 -11  264.23   27.83 
   2   1 -11  254.58   23.94 
  -2   1 -11  247.74   24.45 
  -2  -1 -11  207.65   30.12 
   1  -2 -11  225.67   28.39 
   2  -1 -11  248.14   24.51 
   1   2 -11  227.83   28.69 
  -1   2 -11  219.65   23.19 
   1  -2 -11  226.68   29.49 
  -1  -2 -11  227.14   24.67 
  -2  -2 -11  135.03   18.23 
  -2   2 -11  136.40   23.13 
   2  -2 -11  126.46   19.42 
  -2  -2 -11  129.29   22.32 
  -2  -2 -11  159.49   22.67 
   2  -2 -11  138.49   21.23 
   2   2 -11  132.05   15.40 
   2  -2 -11  132.65   17.57 
   2   2 -11  117.99   19.71 
  -2   2 -11  128.25   16.20 
   0   3 -11  315.55   32.05 
   3   0 -11  223.74   25.60 
  -3   0 -11  218.66   33.53 
  -3   0 -11  230.65   26.48 
   0  -3 -11  283.98   31.11 
   0   3 -11  325.91   26.41 
   3   0 -11  219.14   30.46 
   0  -3 -11  331.62   29.23 
   0  -3 -11  339.18   32.35 
  -1   3 -11   83.05   12.15 
  -3  -1 -11  103.83   19.72 
  -1  -3 -11   70.30   15.95 
   3   1 -11   85.16   12.72 
  -1   3 -11   88.08   17.12 
   1  -3 -11  114.29   18.17 
   1   3 -11   97.34   17.19 
   1   3 -11  101.94   12.02 
   1  -3 -11   95.16   17.92 
   1   3 -11   85.98   16.21 
   3  -1 -11  104.17   14.45 
   1  -3 -11   92.80   14.65 
   3  -1 -11   83.19   16.24 
  -3   1 -11  102.24   19.68 
  -3  -1 -11   72.60   15.85 
   3   1 -11   80.85   16.28 
  -1  -3 -11  103.26   18.46 
  -3  -1 -11   98.06   15.13 
  -1  -3 -11  104.69   15.72 
  -3   1 -11   68.58   12.50 
  -2  -3 -11  240.34   31.93 
   2  -3 -11  242.91   25.97 
  -2   3 -11  281.98   33.50 
   3  -2 -11  186.66   29.11 
  -2  -3 -11  265.52   31.46 
  -3   2 -11  229.82   33.31 
   2   3 -11  280.36   28.76 
   2   3 -11  270.28   23.57 
   3  -2 -11  249.15   25.54 
   2  -3 -11  278.58   28.53 
  -3  -2 -11  238.64   32.80 
  -3   2 -11  245.27   24.89 
   2  -3 -11  276.14   31.88 
  -3  -2 -11  242.78   26.28 
  -2   3 -11  238.05   24.37 
   3   2 -11  236.49   23.66 
   3   2 -11  242.28   29.61 
  -3  -2 -11  252.47   30.98 
  -2  -3 -11  255.20   26.50 
  -3  -3 -11    8.37    6.33 
  -3   3 -11    3.39    3.74 
   3   3 -11    3.56    5.76 
   3  -3 -11    1.45    5.18 
  -3   3 -11    0.55    6.06 
  -3  -3 -11    1.82    3.80 
  -3  -3 -11    7.17    7.09 
   3  -3 -11   -1.71    3.92 
   3   3 -11    9.03    4.17 
   0   4 -11   -1.43    2.97 
   4   0 -11    9.46    4.97 
   0  -4 -11   -2.75    4.08 
   0   4 -11    4.36    6.08 
  -4   0 -11   -1.23    5.86 
  -4   0 -11   -1.21    3.46 
   4   0 -11    1.03    5.08 
   0  -4 -11    2.79    6.40 
   0  -4 -11   -6.57    3.16 
  -1   4 -11  202.34   30.89 
  -4   1 -11  278.86   27.03 
  -4  -1 -11  349.48   32.87 
   4   1 -11  270.13   29.09 
  -4  -1 -11  301.69   37.07 
  -1  -4 -11  233.99   31.01 
   1   4 -11  203.78   29.00 
  -4   1 -11  324.75   38.00 
  -1  -4 -11  226.66   31.58 
   1   4 -11  240.25   23.35 
   4  -1 -11  316.65   27.53 
   1  -4 -11  269.67   31.33 
  -1  -4 -11  222.43   27.87 
   4  -1 -11  327.91   31.49 
   1  -4 -11  229.38   26.45 
  -4  -1 -11  321.48   28.69 
   4   1 -11  273.24   25.91 
  -1   4 -11  235.58   24.03 
   1  -4 -11  215.11   30.95 
  -2   4 -11   -2.03    3.95 
   4   2 -11    5.01    5.20 
   2  -4 -11   10.48    5.15 
   2   4 -11    1.92    2.92 
  -4  -2 -11    8.19    5.42 
  -4   2 -11    0.75    6.71 
   4   2 -11    2.37    3.89 
   4  -2 -11    0.64    4.22 
   2   4 -11   -6.45    5.24 
  -4  -2 -11   -5.10    4.41 
   4  -2 -11    0.80    5.52 
  -2  -4 -11    5.70    4.57 
   2  -4 -11    2.73    5.21 
   2  -4 -11    4.42    6.28 
  -2  -4 -11   -0.38    5.24 
  -4  -2 -11    3.98    6.08 
  -2  -4 -11    2.67    6.81 
  -2   4 -11    1.94    7.29 
  -4   2 -11   -9.80    3.13 
   4  -3 -11  212.50   28.21 
  -3  -4 -11  224.43   30.64 
  -4   3 -11  170.94   22.37 
   3   4 -11  204.61   25.98 
  -3   4 -11  203.62   21.59 
  -4  -3 -11  189.04   24.99 
   3   4 -11  223.72   19.98 
   3  -4 -11  235.62   26.02 
   4   3 -11  194.22   20.37 
  -4  -3 -11  191.12   30.47 
  -3   4 -11  201.89   30.17 
   4  -3 -11  216.28   25.11 
  -3  -4 -11  268.14   30.08 
  -4  -3 -11  247.07   29.60 
   4   3 -11  211.52   26.24 
  -4   3 -11  187.04   30.62 
   3  -4 -11  192.04   27.87 
   4   4 -11    0.25    5.32 
   4  -4 -11   -0.97    4.72 
  -4   4 -11   -1.25    3.51 
   4   4 -11    0.16    3.27 
  -4   4 -11   -6.69    5.94 
   4  -4 -11    0.02    5.69 
  -4  -4 -11    7.09    6.70 
  -4  -4 -11    3.28    6.58 
   0   5 -11  245.52   28.88 
   0  -5 -11  207.42   27.96 
  -5   0 -11  163.86   23.49 
   5   0 -11  156.27   24.79 
   5   0 -11  178.85   22.12 
  -5   0 -11  194.39   30.77 
   0   5 -11  236.40   19.60 
   0  -5 -11  231.45   28.59 
  -1  -5 -11   32.48   10.65 
  -5   1 -11   33.17   12.35 
   1  -5 -11   45.58   11.53 
   1  -5 -11   40.90   12.41 
   5  -1 -11   29.33    8.58 
  -5  -1 -11   21.22   11.72 
  -1  -5 -11   42.41   12.06 
   5   1 -11   30.91    9.97 
  -1   5 -11   36.66    7.47 
   1  -5 -11   43.07   10.29 
  -5  -1 -11   32.99    8.95 
  -5   1 -11   39.36    9.15 
   1   5 -11   44.30    6.97 
   1   5 -11   39.20   10.87 
   5   1 -11   30.95    8.27 
  -1   5 -11   29.94   10.61 
  -5  -1 -11   70.70   17.58 
   5  -1 -11   44.75   11.34 
   2   5 -11  245.82   28.38 
   2  -5 -11  281.10   26.66 
  -5  -2 -11  235.73   30.14 
  -5   2 -11  232.93   34.20 
   2  -5 -11  286.99   28.42 
   5  -2 -11  196.13   28.43 
   5  -2 -11  172.45   24.28 
   2  -5 -11  235.26   30.47 
  -2   5 -11  255.62   22.87 
   5   2 -11  165.49   25.94 
  -2   5 -11  259.76   32.16 
  -5  -2 -11  184.94   25.97 
  -2  -5 -11  251.39   30.78 
   5   2 -11  216.41   22.92 
  -5   2 -11  192.89   25.20 
  -2  -5 -11  288.82   33.17 
  -5  -2 -11  186.43   31.33 
   2   5 -11  248.52   20.80 
  -5   3 -11   13.60    5.60 
   3   5 -11   13.38    4.04 
   5   3 -11    7.72    4.35 
   3   5 -11    9.46    7.22 
  -5  -3 -11   12.16    8.37 
   5   3 -11    7.64    6.62 
  -3   5 -11    0.10    6.98 
  -5  -3 -11   21.26   10.44 
  -3   5 -11    9.60    5.04 
  -3  -5 -11   13.52    9.13 
   3  -5 -11   13.45    9.56 
   3  -5 -11   12.51    6.79 
   5  -3 -11    6.02    5.18 
  -3  -5 -11    8.06    7.32 
   5  -3 -11    8.45    7.54 
  -5   3 -11    7.62    7.04 
   4  -5 -11  199.73   30.04 
   4   5 -11  208.76   21.47 
   4   5 -11  244.22   29.05 
   4  -5 -11  240.31   28.46 
   5  -4 -11  319.18   31.17 
   5  -4 -11  364.15   30.14 
  -4  -5 -11  247.03   31.42 
   5  -5 -11   38.10   11.13 
   6   0 -11   -6.07    5.12 
  -6   0 -11    0.94    4.14 
   0   6 -11   -1.44    2.70 
   0  -6 -11    2.78    7.03 
   6   0 -11    0.01    3.91 
   0   6 -11   -3.01    5.66 
  -6   0 -11   11.76    8.25 
   0  -6 -11    2.33    5.86 
   1  -6 -11  128.02   24.46 
   1   6 -11  172.85   17.29 
  -6   1 -11  262.54   25.09 
  -6  -1 -11  203.61   25.13 
  -1  -6 -11  211.97   28.81 
  -1  -6 -11  189.63   27.73 
  -1   6 -11  152.56   26.26 
   1  -6 -11  170.20   26.14 
   6  -1 -11  246.28   22.77 
   6   1 -11  213.63   26.07 
  -1   6 -11  185.09   18.34 
   6  -1 -11  225.84   27.57 
  -6   2 -11  106.08   16.07 
  -6  -2 -11   86.86   18.06 
   6  -2 -11   91.42   16.78 
   6  -2 -11   72.58   12.94 
   6   2 -11   68.94   14.62 
   2  -6 -11   64.65   16.15 
  -2   6 -11   72.66   17.54 
   6  -2 -11   55.75   13.53 
   2   6 -11   80.76    8.59 
   2  -6 -11   72.58   14.99 
  -2  -6 -11   85.59   17.79 
   3   6 -11  235.61   26.99 
   6   3 -11  167.19   25.11 
  -3  -6 -11  263.85   31.03 
   6  -3 -11  157.85   26.53 
   3   6 -11  224.08   18.82 
   3  -6 -11  231.11   29.91 
   4  -6 -11   12.17    7.66 
   6  -4 -11    9.63    6.78 
   5  -6 -11  135.59   24.17 
   6  -5 -11  153.86   23.84 
   6  -6 -11   -0.03    6.54 
   0   7 -11  222.01   28.67 
   7   0 -11  199.14   25.99 
  -7   0 -11  165.12   24.16 
   0  -7 -11  166.40   26.68 
   7   1 -11   15.00    7.53 
   1  -7 -11    4.76    8.43 
   7  -1 -11    9.70    7.72 
  -1  -7 -11    4.21    8.70 
  -2  -7 -11  167.05   26.89 
   2  -7 -11  165.26   26.03 
   7  -2 -11  216.29   26.80 
   3  -7 -11   16.38    9.47 
   7  -3 -11    3.50    6.86 
   7  -4 -11  121.57   21.00 
   4  -7 -11  112.14   21.58 
   7  -5 -11   -1.18    6.65 
   5  -7 -11   15.86    9.62 
   0  -8 -11    2.56    7.42 
   8   0 -11    0.43    5.29 
  -1  -8 -11  231.00   32.11 
   1  -8 -11  256.29   33.11 
   2  -8 -11    5.13    7.15 
   8  -2 -11    3.24    7.53 
   8  -3 -11  188.07   25.45 
   3  -8 -11  130.00   24.12 
   0   0 -10  114.93   18.20 
   0   0 -10  103.75   17.32 
   0   0 -10   88.70   13.06 
   0  -1 -10   -6.40    3.68 
   0   1 -10   -6.55    4.37 
   0   1 -10    7.00    3.73 
   1   0 -10   -2.08    4.81 
   0  -1 -10   -2.21    3.43 
   1   0 -10   13.52    6.05 
   1   0 -10   -2.39    2.43 
   0   1 -10   12.29    5.91 
   0  -1 -10    2.20    3.28 
  -1   0 -10    1.68    3.07 
  -1   0 -10    1.36    4.76 
  -1   0 -10   -3.30    4.56 
  -1  -1 -10 1385.75  111.35 
   1  -1 -10 1332.16  116.31 
  -1  -1 -10 1275.00  116.14 
  -1   1 -10 1377.35  110.25 
   1  -1 -10 1430.56  115.62 
   1   1 -10 1414.67  109.69 
   1  -1 -10 1384.99  110.81 
  -1  -1 -10 1400.04  116.58 
   1   1 -10 1398.29  116.23 
  -1   1 -10 1501.04  118.41 
   1   1 -10 1403.33  115.38 
   2   0 -10 1330.60  111.76 
   2   0 -10 1244.82  109.37 
   0  -2 -10 1338.06  112.02 
  -2   0 -10 1387.71  106.71 
   0  -2 -10 1294.83  106.84 
   0   2 -10 1367.82  112.27 
  -2   0 -10 1293.88  112.72 
   0  -2 -10 1370.99  111.72 
   2   0 -10 1304.22  105.72 
   0   2 -10 1353.17  104.96 
   2  -1 -10   -3.24    3.63 
  -2   1 -10   23.14    9.60 
   1   2 -10    1.94    5.48 
   1  -2 -10   16.82    7.03 
   2   1 -10    4.40    5.23 
  -1   2 -10   -1.19    4.78 
   1   2 -10    2.63    2.89 
  -2  -1 -10   -1.79    3.70 
   2  -1 -10    8.30    4.52 
   2   1 -10   12.28    6.50 
   2   1 -10   -0.12    2.65 
  -2  -1 -10   -5.92    2.30 
   1  -2 -10    6.45    3.96 
   2  -1 -10    4.04    5.66 
  -1  -2 -10    0.59    5.56 
  -1   2 -10    4.23    3.42 
  -2  -1 -10   -1.81    5.85 
  -1  -2 -10    5.22    3.47 
  -2   1 -10    2.83    3.00 
  -1  -2 -10   14.27    6.98 
   1  -2 -10    4.02    5.74 
   1   2 -10    2.47    4.89 
   2  -2 -10  631.12   57.14 
   2  -2 -10  678.74   61.55 
  -2   2 -10  585.31   61.80 
  -2  -2 -10  715.60   62.11 
   2   2 -10  681.43   60.72 
   2   2 -10  689.74   55.51 
  -2  -2 -10  696.34   62.96 
   2  -2 -10  677.66   60.37 
  -2  -2 -10  685.14   58.50 
  -2   2 -10  715.56   56.80 
   2   2 -10  684.43   60.36 
   0  -3 -10    0.96    4.50 
   0  -3 -10   -1.95    5.09 
   3   0 -10   -2.25    2.99 
   0   3 -10   -0.60    4.94 
   3   0 -10   -1.18    4.42 
   0  -3 -10    5.78    5.00 
  -3   0 -10   -3.09    2.51 
   0   3 -10   -2.11    2.23 
  -3   0 -10   -4.57    4.34 
   3   1 -10  386.18   32.54 
  -1  -3 -10  365.17   37.36 
  -1  -3 -10  362.57   34.38 
   1   3 -10  349.24   31.15 
   3  -1 -10  387.49   33.61 
  -1   3 -10  380.76   38.23 
   3   1 -10  367.37   36.30 
  -3   1 -10  358.62   33.40 
   1  -3 -10  364.15   36.16 
  -3  -1 -10  353.31   37.15 
   3  -1 -10  341.97   36.21 
  -3   1 -10  367.78   39.84 
   1  -3 -10  320.45   36.09 
  -3  -1 -10  311.75   39.69 
  -1  -3 -10  398.33   37.96 
  -3  -1 -10  360.13   34.02 
   1   3 -10  374.73   36.65 
   1  -3 -10  353.71   33.91 
  -1   3 -10  347.92   31.66 
  -2  -3 -10  110.03   16.91 
   3   2 -10  123.87   13.78 
   3  -2 -10  127.46   18.20 
   3  -2 -10  113.70   19.37 
  -3   2 -10  137.33   23.07 
  -3  -2 -10  148.93   21.03 
   2  -3 -10  159.36   19.91 
  -3   2 -10  107.20   15.65 
   2   3 -10  126.38   18.77 
  -2  -3 -10  140.99   21.93 
   3   2 -10  151.13   20.28 
   2  -3 -10  122.40   20.22 
   2  -3 -10  119.37   16.92 
   2   3 -10  127.98   19.10 
  -2  -3 -10  133.63   20.48 
  -2   3 -10  139.41   22.49 
  -3  -2 -10  131.59   18.28 
  -3  -2 -10  123.42   21.13 
   2   3 -10  131.12   13.40 
   3  -2 -10  123.80   16.71 
  -2   3 -10  134.55   15.71 
  -3   3 -10 1363.76  106.23 
   3  -3 -10 1322.50  109.74 
   3  -3 -10 1334.33  107.61 
  -3  -3 -10 1356.89  112.77 
   3  -3 -10 1345.68  112.70 
   3   3 -10 1266.97  103.88 
  -3  -3 -10 1379.28  108.74 
   3   3 -10 1284.57  110.78 
  -3   3 -10 1282.38  114.18 
  -3  -3 -10 1347.40  114.09 
   4   0 -10 1591.89  125.32 
   0  -4 -10 1531.19  126.90 
   0  -4 -10 1600.46  131.09 
   0   4 -10 1542.97  131.12 
   0   4 -10 1653.19  123.02 
   4   0 -10 1506.82  130.58 
  -4   0 -10 1546.86  134.17 
   0  -4 -10 1622.63  132.22 
  -4   0 -10 1570.94  126.59 
  -4   1 -10  100.08   19.89 
  -1  -4 -10   62.59   14.05 
  -4  -1 -10   65.81   12.36 
  -4   1 -10   80.24   12.74 
   4  -1 -10   63.08   11.44 
   4   1 -10   81.47   11.50 
   1   4 -10   70.89    9.15 
  -4  -1 -10   85.20   18.19 
  -1  -4 -10   65.80   12.39 
   1  -4 -10   64.11   12.00 
   4   1 -10   66.69   13.47 
   1  -4 -10   79.18   15.77 
   1   4 -10   66.36   13.71 
  -1   4 -10   53.42    9.17 
  -1  -4 -10   72.89   14.59 
   4  -1 -10   52.99   12.72 
   1  -4 -10   56.39   12.60 
  -1   4 -10   64.65   15.13 
  -2  -4 -10 1016.07   83.77 
  -2  -4 -10  923.10   83.45 
   4   2 -10  937.19   81.73 
   2  -4 -10 1035.25   79.79 
  -2   4 -10  964.46   76.39 
  -2  -4 -10  986.20   79.96 
   2   4 -10  978.30   74.80 
  -4   2 -10  860.37   77.73 
  -4  -2 -10  962.66   79.62 
  -4  -2 -10  839.08   83.78 
   2  -4 -10  870.41   82.39 
   4   2 -10  928.36   76.24 
   4  -2 -10  974.24   78.67 
   4  -2 -10  901.79   82.38 
   2  -4 -10  916.07   81.09 
  -2   4 -10  997.61   85.22 
  -4  -2 -10 1002.32   83.60 
  -4   2 -10  889.71   85.35 
   3   4 -10    0.70    2.60 
  -4  -3 -10   -1.27    5.28 
  -4   3 -10    0.70    5.64 
  -3   4 -10   -8.25    5.16 
  -3  -4 -10    3.27    4.04 
   3   4 -10    0.80    5.62 
   3  -4 -10    1.72    5.56 
  -3  -4 -10   -6.30    3.74 
   4  -3 -10   12.23    6.64 
  -4   3 -10   -0.93    3.81 
   3  -4 -10    7.73    4.95 
  -3  -4 -10   -5.48    4.52 
   3  -4 -10   11.03    5.36 
  -4  -3 -10   -5.72    5.08 
   4  -3 -10    8.80    5.14 
   4   3 -10    4.31    3.55 
   4   3 -10   -5.31    4.49 
  -4  -3 -10    0.70    3.96 
  -3   4 -10    6.78    4.56 
   4  -4 -10  221.78   26.31 
  -4   4 -10  207.64   23.14 
   4   4 -10  233.74   21.29 
  -4   4 -10  245.18   33.11 
  -4  -4 -10  232.82   32.32 
   4  -4 -10  216.44   28.69 
  -4  -4 -10  265.32   30.17 
   4   4 -10  239.70   25.91 
   5   0 -10    1.50    3.71 
  -5   0 -10   -2.51    5.21 
   0  -5 -10    8.96    5.89 
   0  -5 -10    3.55    6.12 
   0  -5 -10    3.78    4.61 
   0   5 -10   -0.21    2.70 
  -5   0 -10    5.71    4.45 
   0   5 -10   -1.76    5.11 
   5   0 -10    0.20    5.31 
  -1  -5 -10  463.18   45.00 
   5   1 -10  415.14   42.56 
   1   5 -10  469.79   36.81 
   1  -5 -10  402.43   43.92 
  -1  -5 -10  450.45   44.53 
   5   1 -10  442.45   39.43 
  -5   1 -10  482.54   48.74 
  -1   5 -10  464.21   37.91 
  -1   5 -10  480.58   46.07 
   5  -1 -10  393.95   39.71 
   5  -1 -10  428.93   43.50 
   1  -5 -10  498.87   44.50 
  -5  -1 -10  448.08   41.95 
   1   5 -10  446.86   43.84 
  -5  -1 -10  451.26   47.50 
  -5   1 -10  421.08   41.16 
   5  -2 -10    4.94    6.34 
  -5  -2 -10   -0.09    6.68 
  -2  -5 -10    7.15    7.36 
   2  -5 -10   17.04    8.84 
  -2  -5 -10   17.30    8.11 
  -2   5 -10   15.88    8.99 
   2  -5 -10    5.51    5.02 
   2   5 -10   12.85    3.58 
  -5  -2 -10    3.89    6.41 
  -5   2 -10   11.30    8.13 
  -5  -2 -10   19.01    6.80 
  -5   2 -10    9.52    5.43 
  -2   5 -10    5.66    4.44 
   5  -2 -10   11.16    5.76 
   5   2 -10    9.20    6.23 
   2  -5 -10    6.40    5.41 
   5   2 -10    8.44    4.55 
   5  -3 -10  680.02   63.52 
   3  -5 -10  616.83   63.36 
  -5  -3 -10  756.24   64.97 
  -3   5 -10  666.61   58.07 
   5   3 -10  729.14   62.58 
   3  -5 -10  752.35   61.73 
  -5   3 -10  668.19   66.83 
   3   5 -10  718.56   55.32 
   5  -3 -10  687.42   60.19 
  -5   3 -10  653.88   59.77 
  -3  -5 -10  691.70   65.34 
   3  -5 -10  696.90   62.29 
  -5  -3 -10  661.45   66.02 
   5   3 -10  686.38   57.29 
  -3   5 -10  706.61   66.40 
  -3  -5 -10  716.54   64.21 
   5  -4 -10    2.29    5.30 
   4   5 -10    8.43    6.25 
  -4  -5 -10   16.62    7.87 
   4  -5 -10    0.44    6.18 
   5   4 -10    4.68    5.64 
   4   5 -10    6.55    3.18 
   5  -4 -10    6.12    5.14 
   5   4 -10    7.87    4.02 
  -5  -4 -10   16.79    9.18 
  -4   5 -10   -6.86    5.27 
   4  -5 -10    6.05    5.48 
  -4   5 -10    2.78    4.99 
  -5   4 -10    3.39    6.48 
  -4  -5 -10   -4.98    6.45 
  -5  -4 -10    3.74    6.71 
  -5   4 -10    8.89    5.05 
  -5   5 -10  913.57   74.52 
   5  -5 -10  897.78   78.96 
   5  -5 -10  887.67   75.81 
   5   5 -10  872.65   70.17 
  -5  -5 -10  826.65   80.26 
   0   6 -10  693.16   62.98 
   6   0 -10  682.98   61.26 
   0  -6 -10  700.12   62.72 
   0  -6 -10  630.61   62.17 
  -6   0 -10  678.38   65.48 
   0   6 -10  658.74   53.61 
  -6   0 -10  694.95   59.94 
   6   0 -10  649.39   57.33 
  -1   6 -10   78.93   16.51 
   1   6 -10   77.01   15.86 
  -6   1 -10  102.83   21.15 
   1  -6 -10   79.39   15.53 
   6   1 -10   86.77   15.29 
  -6  -1 -10   86.63   14.92 
   1  -6 -10  102.10   17.89 
   6  -1 -10   58.61   11.85 
  -1  -6 -10   63.00   14.49 
   6   1 -10   59.96   14.01 
  -6   1 -10   76.56   13.84 
  -1   6 -10   74.09    9.90 
   1   6 -10   67.20    8.29 
  -6  -1 -10   63.92   17.19 
  -1  -6 -10   75.07   16.39 
   6   1 -10   96.56   13.32 
   6  -1 -10   77.65   15.48 
   6  -2 -10  670.42   62.80 
  -2  -6 -10  694.24   64.23 
  -2  -6 -10  830.36   65.47 
  -6  -2 -10  662.85   63.56 
  -6   2 -10  683.24   66.66 
  -6   2 -10  706.19   60.53 
   2  -6 -10  737.07   64.47 
   6   2 -10  649.37   57.48 
   2  -6 -10  663.48   62.14 
  -6  -2 -10  615.51   64.75 
   6   2 -10  627.07   59.88 
  -2   6 -10  699.62   56.58 
  -2   6 -10  731.31   65.91 
   2   6 -10  690.99   53.89 
   6   2 -10  607.32   60.74 
  -6  -2 -10  699.12   61.30 
   6  -2 -10  701.46   59.63 
  -6  -3 -10   13.09    8.29 
   6  -3 -10   17.10    7.21 
   3   6 -10   21.63    4.11 
   6   3 -10   12.13    5.24 
   3  -6 -10   24.07    8.38 
   6  -3 -10   19.07    8.32 
  -3  -6 -10   20.49    8.60 
   6  -3 -10   15.77    7.51 
   3  -6 -10   18.84    8.45 
  -3   6 -10   21.75   10.36 
  -6   3 -10   19.16    7.88 
  -3   6 -10   11.01    5.59 
   6   3 -10   22.11    7.41 
  -6   3 -10   23.54   10.08 
  -3  -6 -10   25.27   10.09 
   6   3 -10   15.69    7.87 
   6  -4 -10  594.70   51.09 
  -4   6 -10  580.24   57.66 
   4  -6 -10  537.60   54.10 
   6   4 -10  554.89   51.97 
  -4  -6 -10  562.84   56.30 
   4   6 -10  553.44   45.07 
   6   4 -10  571.12   47.75 
  -4   6 -10  554.29   49.32 
   6  -4 -10  596.70   54.50 
  -6  -4 -10  556.99   56.96 
   6  -4 -10  580.35   51.53 
  -6   4 -10  565.46   57.29 
  -6   4 -10  553.75   51.17 
  -6  -5 -10    3.65    7.27 
  -6   5 -10   16.80    6.14 
   6  -5 -10   12.60    7.28 
  -5  -6 -10    6.82    7.61 
   6   5 -10   11.76    6.59 
   6   5 -10    4.18    3.54 
   5   6 -10    7.33    3.11 
   5  -6 -10   -4.81    5.97 
  -6   5 -10   19.66    8.98 
   6  -5 -10   12.33    5.92 
   5   6 -10   -5.91    5.58 
   6  -6 -10  366.77   39.50 
  -7   0 -10   -9.72    4.75 
   7   0 -10    3.25    5.47 
   0   7 -10   -1.57    2.59 
   0  -7 -10   -0.36    6.99 
  -7   0 -10    6.00    7.78 
   0   7 -10    8.48    6.73 
   7   0 -10   -1.54    3.59 
   0  -7 -10   16.63    7.79 
   7   0 -10   -7.98    4.84 
   7  -1 -10  647.40   57.03 
   1  -7 -10  649.15   61.05 
   7   1 -10  640.25   58.53 
   7   1 -10  673.32   59.65 
  -1   7 -10  644.60   52.69 
  -1   7 -10  612.78   61.47 
  -7  -1 -10  686.76   59.61 
  -1  -7 -10  604.40   60.92 
   1   7 -10  684.08   61.12 
   1  -7 -10  689.93   61.26 
   7   1 -10  641.87   55.99 
   7  -1 -10  648.32   58.08 
  -7  -1 -10  699.01   64.89 
  -1  -7 -10  670.47   61.77 
  -7   1 -10  717.88   66.06 
   7  -1 -10  611.58   59.47 
  -7   1 -10  619.75   58.47 
   1   7 -10  625.65   50.94 
  -2   7 -10  107.33   20.68 
   2  -7 -10   93.34   18.07 
   7   2 -10   98.43   18.09 
   7  -2 -10   84.22   14.47 
   7  -2 -10   97.67   17.54 
   2  -7 -10   99.87   18.00 
  -7  -2 -10  121.16   21.03 
  -2   7 -10   92.29   12.05 
   7   2 -10   95.34   14.63 
   7   2 -10   82.62   15.32 
   7  -2 -10   92.20   16.54 
  -2  -7 -10   96.35   18.52 
  -7   2 -10   80.49   15.13 
  -7   2 -10   76.82   19.28 
   7  -3 -10  343.44   38.59 
   3  -7 -10  399.04   39.53 
   7   3 -10  378.33   34.64 
   7   3 -10  338.60   37.56 
  -7   3 -10  436.62   44.41 
   7  -3 -10  364.68   37.28 
  -7   3 -10  407.84   38.32 
  -7  -3 -10  438.79   43.56 
  -3   7 -10  418.84   43.36 
  -3   7 -10  392.22   34.51 
   7  -3 -10  422.10   38.02 
   3  -7 -10  283.30   39.53 
  -3  -7 -10  365.21   41.34 
   4  -7 -10   -9.20    5.34 
   7  -4 -10   -1.76    4.29 
   7  -4 -10   -5.19    4.39 
  -7   4 -10    2.09    4.93 
  -7  -4 -10   -9.10    5.00 
   7  -4 -10    5.01    6.35 
   5   7 -10  235.24   27.91 
   5  -7 -10  211.75   30.42 
   7  -5 -10  250.58   31.22 
   6  -7 -10   58.68   14.52 
   7  -6 -10   32.79   11.78 
   7  -7 -10  416.01   43.95 
   0  -8 -10  359.52   36.13 
   0   8 -10  295.98   26.04 
   8   0 -10  277.49   32.11 
   0  -8 -10  355.47   36.20 
   0   8 -10  341.57   36.38 
  -8   1 -10    3.15    5.30 
  -1   8 -10   -0.93    7.27 
   8  -1 -10    6.86    5.85 
  -8   1 -10  -19.24    4.50 
   1  -8 -10   -2.92    7.71 
  -1   8 -10    3.58    3.43 
  -8  -1 -10    2.67    6.85 
   1  -8 -10   -0.19    6.68 
  -1  -8 -10   -5.96    6.69 
   2  -8 -10  367.99   41.15 
  -8   2 -10  408.70   40.32 
   2  -8 -10  394.13   40.88 
   8  -2 -10  406.32   40.61 
   8  -3 -10   18.40    8.13 
   3  -8 -10   17.94    9.26 
   3  -8 -10   22.21    9.90 
   8  -4 -10  720.77   63.63 
   4  -8 -10  617.64   62.62 
   8  -5 -10   10.51    7.62 
   5  -8 -10   12.75    8.71 
   6  -8 -10  354.22   38.06 
   8  -6 -10  295.70   37.50 
   0  -9 -10    2.07    7.15 
   1  -9 -10  573.89   55.73 
   9  -1 -10  542.77   52.51 
   9  -2 -10    2.23    6.38 
   2  -9 -10   21.14    8.95 
   3  -9 -10  233.01   29.58 
   9  -3 -10  174.54   26.03 
   9  -4 -10   -0.73    4.91 
   4  -9 -10   -5.86    6.51 
   1 -10 -10   29.87   11.45 
   0   0  -9   -6.23    4.29 
   0   0  -9   -4.74    3.57 
   0   0  -9    8.50    3.84 
   0  -1  -9  618.70   48.91 
  -1   0  -9  574.25   48.35 
   1   0  -9  651.39   52.91 
   0  -1  -9  544.36   51.88 
   0   1  -9  544.22   47.40 
   0   1  -9  492.78   51.58 
  -1   0  -9  596.00   53.36 
   0  -1  -9  511.34   51.38 
   1   0  -9  594.60   51.88 
   1   0  -9  593.26   47.84 
  -1  -1  -9    3.45    5.46 
   1   1  -9    6.04    5.76 
  -1   1  -9    4.60    3.60 
  -1  -1  -9    2.05    4.15 
  -1   1  -9    2.29    4.56 
   1   1  -9    6.96    3.70 
  -1  -1  -9    5.31    4.01 
   1   1  -9    4.33    4.83 
   1  -1  -9    4.23    5.32 
   1  -1  -9    5.06    3.48 
   1  -1  -9    4.79    4.89 
   0   2  -9   -1.08    2.56 
  -2   0  -9    0.35    2.65 
   0  -2  -9   -0.36    3.94 
   2   0  -9    4.03    3.85 
   2   0  -9    3.77    4.90 
   0  -2  -9   -1.97    4.71 
   0   2  -9   -8.67    3.02 
  -2   0  -9   -2.05    4.11 
   2   0  -9    0.31    2.76 
   0  -2  -9    4.41    3.53 
   2  -1  -9  550.16   53.04 
   1   2  -9  567.08   48.07 
   1  -2  -9  559.59   49.91 
   1  -2  -9  580.52   52.82 
  -1  -2  -9  520.96   49.87 
   1   2  -9  569.69   52.72 
  -1  -2  -9  589.08   54.01 
   2  -1  -9  594.42   52.26 
  -2   1  -9  629.24   49.98 
   2   1  -9  596.18   52.22 
  -1   2  -9  558.71   54.29 
  -1  -2  -9  539.67   52.90 
  -2   1  -9  636.56   55.91 
   2   1  -9  621.29   53.44 
  -2  -1  -9  627.10   55.55 
   2   1  -9  615.61   48.70 
   1  -2  -9  559.81   53.39 
  -2  -1  -9  628.57   50.69 
   2  -1  -9  657.20   50.30 
  -1   2  -9  558.83   48.57 
  -2  -2  -9   39.99   10.60 
   2   2  -9   32.58    9.09 
   2   2  -9   14.47    6.72 
  -2   2  -9   37.38   10.67 
  -2  -2  -9   16.23    7.94 
   2   2  -9   26.81    5.55 
   2  -2  -9   30.78    8.14 
   2  -2  -9   28.55    7.07 
  -2  -2  -9   21.76    7.04 
  -2   2  -9   29.74    6.49 
   2  -2  -9   29.85    8.40 
   3   0  -9  533.46   51.03 
   0   3  -9  548.59   51.81 
   3   0  -9  593.68   49.77 
  -3   0  -9  521.24   48.05 
  -3   0  -9  548.99   54.06 
   0   3  -9  587.11   46.08 
   3   0  -9  557.34   47.19 
   0  -3  -9  529.69   48.38 
   0  -3  -9  585.78   52.25 
   0  -3  -9  599.81   52.00 
   1  -3  -9   52.80   11.07 
   3  -1  -9   25.05    6.81 
   3  -1  -9   42.92    9.03 
   1  -3  -9   36.88   10.11 
   1   3  -9   28.71    5.74 
  -3  -1  -9   31.53    7.96 
  -3   1  -9   45.59    8.78 
   3   1  -9   41.12    7.45 
  -1  -3  -9   38.54    8.36 
  -3  -1  -9   25.71    9.55 
  -1  -3  -9   34.18    9.65 
   3   1  -9   31.08    9.27 
   1   3  -9   44.44   10.07 
   3   1  -9   42.03    9.29 
  -1   3  -9   45.70    7.74 
  -3   1  -9   46.75   12.27 
  -1  -3  -9   38.02   10.21 
  -1   3  -9   47.20   11.98 
   3  -1  -9   48.46   11.00 
   1  -3  -9   36.28    8.37 
   2   3  -9  519.39   43.66 
   2  -3  -9  455.69   42.61 
  -3  -2  -9  414.62   44.61 
   3   2  -9  451.04   38.48 
   2   3  -9  470.44   37.83 
   3  -2  -9  464.08   40.56 
  -2   3  -9  453.03   39.27 
  -3   2  -9  405.48   45.26 
   3  -2  -9  412.51   43.01 
  -2   3  -9  457.63   45.92 
  -3   2  -9  461.59   40.19 
  -2  -3  -9  505.40   42.18 
   3  -2  -9  390.17   41.05 
   2  -3  -9  506.83   41.53 
  -2  -3  -9  480.95   45.19 
   2  -3  -9  469.14   44.24 
  -3  -2  -9  469.67   43.99 
   3   2  -9  422.81   42.41 
  -3  -2  -9  444.53   41.13 
  -2  -3  -9  516.03   44.86 
  -3  -3  -9    3.74    5.02 
  -3  -3  -9    3.87    4.14 
   3   3  -9    1.76    4.40 
  -3   3  -9    7.87    3.97 
   3  -3  -9    3.69    5.28 
  -3  -3  -9   -4.99    4.41 
  -3   3  -9    4.85    6.03 
   3  -3  -9   -0.03    3.29 
   3   3  -9    4.92    3.18 
   3  -3  -9    5.75    4.54 
  -4   0  -9    3.44    4.12 
   0   4  -9    0.70    4.81 
   0  -4  -9   -2.49    4.43 
   4   0  -9   -1.35    3.94 
   0  -4  -9    4.44    4.75 
   0  -4  -9   -0.60    3.53 
  -4   0  -9    8.11    6.94 
   4   0  -9    1.43    2.96 
   0   4  -9    2.15    2.73 
   4  -1  -9  495.82   45.33 
   1  -4  -9  439.64   44.94 
   1  -4  -9  441.11   44.07 
   1   4  -9  480.63   45.30 
  -1   4  -9  504.35   47.17 
   1  -4  -9  474.03   42.80 
  -4  -1  -9  470.72   47.52 
  -4   1  -9  529.98   49.24 
   4   1  -9  473.58   40.66 
  -1   4  -9  474.48   39.75 
   4  -1  -9  442.84   41.52 
  -1  -4  -9  434.38   44.92 
  -4   1  -9  502.93   42.80 
  -1  -4  -9  502.03   43.42 
  -4  -1  -9  500.96   43.24 
   4   1  -9  502.71   44.99 
   1   4  -9  473.10   38.69 
  -1  -4  -9  431.51   44.59 
   4  -2  -9    7.21    4.70 
  -4  -2  -9    5.79    6.83 
   4   2  -9   -1.52    2.27 
   2   4  -9    4.69    2.40 
   2   4  -9    2.03    4.38 
   4  -2  -9   -9.43    3.52 
   2  -4  -9    2.85    3.80 
   2  -4  -9    3.60    5.82 
   4   2  -9   -1.81    4.11 
  -4   2  -9    5.56    6.52 
  -2   4  -9   -8.16    3.87 
   2  -4  -9    5.12    3.90 
  -2   4  -9    2.70    3.41 
  -2  -4  -9    3.43    3.91 
  -4   2  -9    5.13    4.08 
  -4  -2  -9    2.45    5.32 
  -2  -4  -9    5.26    5.47 
  -4  -2  -9   -1.61    2.87 
  -2  -4  -9   12.03    6.18 
   4  -3  -9  455.04   49.02 
   3  -4  -9  554.09   50.88 
  -3  -4  -9  614.69   49.06 
  -4  -3  -9  500.08   49.74 
   3  -4  -9  613.62   48.60 
   3   4  -9  569.12   43.40 
  -3  -4  -9  693.38   52.50 
  -4   3  -9  448.50   45.88 
   4   3  -9  464.52   47.85 
   4  -3  -9  470.29   46.62 
   4   3  -9  486.81   43.89 
   3  -4  -9  593.40   49.18 
  -3   4  -9  586.36   46.41 
  -4   3  -9  480.75   52.48 
  -4  -3  -9  461.53   51.09 
  -3   4  -9  630.89   54.63 
   3   4  -9  598.88   49.55 
  -4  -3  -9  478.57   47.53 
  -3  -4  -9  575.71   52.61 
  -4   4  -9   17.14    5.68 
  -4   4  -9    9.08    7.42 
  -4  -4  -9   -2.07    5.55 
   4  -4  -9    1.83    4.15 
  -4  -4  -9    3.57    4.41 
   4  -4  -9    4.87    5.57 
   4   4  -9    9.92    5.83 
   4   4  -9    3.29    2.95 
  -4  -4  -9    4.23    5.79 
   5   0  -9  485.50   47.19 
   0  -5  -9  520.19   48.26 
   0  -5  -9  544.16   46.40 
   0  -5  -9  506.84   48.46 
   5   0  -9  476.78   43.74 
   0   5  -9  530.56   41.37 
  -5   0  -9  506.39   46.06 
  -5   0  -9  474.22   50.92 
   0   5  -9  502.08   48.77 
   1  -5  -9   34.90   10.84 
   1   5  -9   51.81   12.36 
  -1  -5  -9   53.18   12.45 
  -1   5  -9   22.42    9.37 
  -5  -1  -9   62.25   11.81 
   1  -5  -9   56.52   11.88 
  -1  -5  -9   55.58   10.68 
  -5   1  -9   68.21   15.42 
   5  -1  -9   54.52   10.07 
   1  -5  -9   65.35   11.80 
   5   1  -9   51.48    9.33 
  -1   5  -9   52.41    7.92 
  -5  -1  -9   68.76   15.10 
   5  -1  -9   44.90   11.08 
  -5   1  -9   48.94   10.23 
  -1  -5  -9   50.92   12.30 
   5   1  -9   29.10    9.28 
   1   5  -9   55.19    6.62 
   2   5  -9  421.03   33.39 
   5   2  -9  437.89   36.07 
  -2  -5  -9  436.21   41.24 
   2  -5  -9  381.48   39.36 
  -5  -2  -9  453.70   39.76 
  -2   5  -9  368.18   35.24 
  -5   2  -9  481.08   45.62 
  -5   2  -9  452.84   38.85 
  -2  -5  -9  358.70   40.52 
   5  -2  -9  440.63   37.98 
   2  -5  -9  402.16   38.47 
   5   2  -9  453.32   39.99 
   5  -2  -9  411.85   40.53 
   2   5  -9  378.12   39.19 
   2  -5  -9  367.59   40.39 
  -5  -2  -9  399.54   42.78 
  -2   5  -9  359.16   41.56 
  -5  -3  -9   -3.71    4.48 
   5   3  -9    3.06    4.53 
   3  -5  -9    1.58    5.61 
   3  -5  -9    0.49    4.13 
  -5   3  -9   -9.72    4.79 
  -3   5  -9   -6.06    4.43 
   5   3  -9    0.10    2.68 
  -5   3  -9    2.84    3.72 
  -5  -3  -9   -0.59    5.99 
   3   5  -9    1.81    2.17 
   3  -5  -9   -6.16    3.78 
  -3   5  -9    0.33    3.44 
  -3  -5  -9   12.26    6.67 
  -3  -5  -9    1.21    5.35 
  -5  -3  -9   -5.16    3.22 
   5  -3  -9    5.36    4.43 
   5  -3  -9   11.95    5.99 
   4  -5  -9  427.84   35.89 
   4   5  -9  419.75   30.01 
  -4  -5  -9  362.01   38.54 
   5  -4  -9  347.08   34.30 
   5   4  -9  272.18   33.19 
   4  -5  -9  411.66   35.81 
   4  -5  -9  343.65   36.68 
  -5   4  -9  337.96   41.53 
  -4  -5  -9  439.24   38.06 
  -4   5  -9  407.26   33.94 
  -5  -4  -9  334.34   37.91 
  -4   5  -9  370.90   39.99 
  -5  -4  -9  315.48   35.65 
   5  -4  -9  285.09   35.01 
  -5   4  -9  284.28   32.83 
   4   5  -9  382.90   35.13 
   5   4  -9  317.39   30.31 
  -5  -5  -9   -1.54    5.92 
  -5   5  -9    1.32    5.26 
   5  -5  -9   -0.01    5.20 
   5   5  -9    7.01    3.23 
  -5   5  -9   -0.18    3.78 
   5  -5  -9   10.25    6.05 
   5   5  -9    5.06    5.11 
   6   0  -9   -0.99    3.32 
   6   0  -9   -6.47    3.14 
   0   6  -9   -0.38    2.63 
   6   0  -9   -3.52    3.54 
   0  -6  -9   -8.41    3.77 
   0   6  -9    2.45    5.74 
  -6   0  -9   -3.42    3.90 
   0  -6  -9    3.73    4.59 
  -6   0  -9    8.86    6.26 
  -6   1  -9  317.34   41.55 
  -1  -6  -9  367.50   37.41 
   6   1  -9  347.33   35.57 
   1  -6  -9  387.46   37.87 
  -1   6  -9  365.19   30.73 
   6  -1  -9  348.87   33.46 
   1   6  -9  358.79   29.13 
   6   1  -9  342.40   32.58 
   6  -1  -9  346.19   35.95 
   1  -6  -9  367.21   36.47 
  -1   6  -9  380.10   38.92 
  -6  -1  -9  357.48   35.57 
  -6  -1  -9  361.93   39.34 
  -1  -6  -9  360.03   37.18 
  -6   1  -9  351.92   35.10 
   1   6  -9  362.42   36.96 
   6   2  -9   17.96    5.35 
  -6  -2  -9    9.08    8.53 
  -2  -6  -9   21.00    8.18 
  -6   2  -9   13.81    9.50 
   2  -6  -9   25.25    8.34 
  -2   6  -9   24.58    5.82 
   6   2  -9   11.24    6.16 
   2   6  -9   14.30    3.22 
   6   2  -9    9.14    6.65 
  -6   2  -9   19.22    6.94 
   6  -2  -9   12.90    5.12 
   2   6  -9   15.57    6.64 
  -6  -2  -9   21.11    6.70 
  -2  -6  -9   18.27    8.28 
   2  -6  -9   10.98    7.63 
  -2   6  -9   14.23    8.29 
   6  -2  -9   14.74    6.96 
   6   3  -9  427.75   32.85 
  -6  -3  -9  458.01   38.98 
   6   3  -9  426.85   35.98 
   6  -3  -9  399.48   35.07 
  -3   6  -9  297.09   31.57 
   6  -3  -9  384.53   37.13 
  -6   3  -9  336.78   34.75 
   3  -6  -9  337.18   35.40 
  -6   3  -9  368.11   40.11 
   3   6  -9  329.76   28.53 
   6   3  -9  397.69   36.55 
  -3  -6  -9  363.00   38.39 
  -6  -3  -9  371.14   39.16 
  -3  -6  -9  322.28   36.30 
   3  -6  -9  283.56   35.31 
  -3   6  -9  279.52   39.39 
   6  -3  -9  377.80   35.04 
   4   6  -9   10.08    6.23 
   6  -4  -9   29.59    7.96 
   6  -4  -9   21.44    8.27 
   6  -4  -9   38.01    9.04 
   6   4  -9   32.78    6.76 
  -6   4  -9   26.89   10.20 
  -4   6  -9   20.12    7.17 
   4   6  -9   20.28    4.31 
  -4  -6  -9   26.00    9.85 
   4  -6  -9   24.00    8.28 
   4  -6  -9   16.82    8.69 
  -4   6  -9   14.34   10.57 
  -6   4  -9   30.00    8.11 
  -6  -4  -9    9.99    8.20 
   6   4  -9   31.36    9.17 
   6  -5  -9  278.03   30.44 
   6   5  -9  278.35   32.92 
  -5   6  -9  344.03   39.95 
   6  -5  -9  287.71   29.69 
  -5   6  -9  311.06   30.06 
   6  -5  -9  283.97   32.48 
  -6  -5  -9  279.99   36.12 
   5   6  -9  307.27   25.64 
   6   5  -9  306.17   26.81 
  -6   5  -9  305.15   30.79 
  -5  -6  -9  313.93   37.26 
  -6   5  -9  365.49   40.76 
   5  -6  -9  280.33   34.13 
   6   6  -9   14.60    4.92 
  -6  -6  -9   17.39    9.58 
  -6   6  -9   37.89   11.20 
  -6   6  -9   20.70    7.03 
   6   6  -9   29.60    8.64 
   6  -6  -9   24.35    8.99 
   0  -7  -9  279.40   34.22 
   0   7  -9  268.61   25.87 
  -7   0  -9  396.76   38.45 
   0   7  -9  273.00   34.90 
   7   0  -9  411.87   34.68 
   0  -7  -9  297.25   33.36 
   7   0  -9  404.93   34.24 
   1   7  -9    0.59    2.14 
   1  -7  -9   -6.26    4.31 
  -7   1  -9    3.85    6.48 
  -1   7  -9    3.18    6.22 
   7   1  -9    0.20    3.54 
   7  -1  -9   -1.99    4.26 
  -1  -7  -9   10.52    6.61 
  -1  -7  -9   -0.97    6.55 
   1  -7  -9   -2.11    5.51 
   7   1  -9    4.70    5.56 
  -7   1  -9   -0.51    4.21 
  -1   7  -9   -3.77    2.67 
  -7  -1  -9    8.42    5.63 
   7  -1  -9   -4.44    2.73 
   7  -1  -9    0.26    5.44 
   7   1  -9    4.14    5.00 
  -7  -1  -9    2.54    6.53 
   1   7  -9    7.28    6.94 
   7  -2  -9  294.38   33.57 
  -7   2  -9  359.20   41.71 
   2  -7  -9  376.83   35.63 
  -2   7  -9  364.52   30.14 
   7   2  -9  288.77   35.04 
  -7   2  -9  272.89   32.82 
   7   2  -9  288.26   30.76 
  -7  -2  -9  344.88   37.22 
   7   2  -9  310.50   33.03 
   7  -2  -9  313.82   32.37 
  -2   7  -9  398.45   38.89 
  -2  -7  -9  440.59   37.89 
   7  -2  -9  285.05   32.55 
   2  -7  -9  350.06   36.05 
  -2  -7  -9  430.45   38.81 
   7   3  -9   12.30    6.47 
   3  -7  -9   21.34    9.14 
  -7  -3  -9    6.73    6.88 
   7   3  -9   17.60    5.55 
   3  -7  -9    2.24    5.05 
   7  -3  -9   18.91    5.77 
  -3   7  -9   12.28    5.18 
   7  -3  -9    8.87    6.35 
  -3   7  -9   11.95    7.58 
   7  -3  -9   17.04    7.00 
  -7   3  -9    7.30    6.88 
  -3  -7  -9   16.64    8.37 
   4  -7  -9  228.38   31.05 
  -7  -4  -9  245.99   33.18 
   7   4  -9  289.11   31.50 
  -7   4  -9  286.16   29.17 
  -7   4  -9  280.00   35.98 
  -4   7  -9  266.91   35.44 
   7  -4  -9  246.95   28.72 
  -4  -7  -9  220.71   32.93 
   7  -4  -9  264.52   27.69 
   4  -7  -9  262.59   28.69 
   7   4  -9  275.27   25.26 
  -4   7  -9  251.78   25.96 
   7  -4  -9  259.52   30.99 
  -5  -7  -9   15.75    9.67 
   7  -5  -9    1.81    6.05 
   5   7  -9   12.04    3.74 
  -5   7  -9   14.51    9.34 
   5  -7  -9    1.90    7.58 
  -5   7  -9    4.53    4.90 
  -7   5  -9    7.17    5.60 
   5   7  -9    5.27    5.58 
   7   5  -9    6.08    6.88 
  -7   5  -9   23.39    9.22 
  -7  -5  -9   13.17    8.07 
   7   5  -9   15.87    5.21 
  -7   6  -9  236.48   26.90 
   6  -7  -9  175.07   27.32 
   6   7  -9  221.82   27.03 
   7   6  -9  228.06   20.70 
   6   7  -9  180.07   18.91 
  -7  -6  -9  246.65   31.34 
  -6  -7  -9  232.80   31.22 
   7  -6  -9  245.37   29.13 
  -7   6  -9  244.10   32.72 
   7   6  -9  205.00   27.45 
   7  -7  -9   -1.00    4.93 
   7   7  -9   11.85    6.14 
   8   0  -9    2.02    3.66 
   0   8  -9   -0.55    2.62 
  -8   0  -9    4.28    5.68 
   0   8  -9    1.02    6.30 
  -8   0  -9    8.89    7.16 
   0  -8  -9    6.31    6.58 
   8   0  -9    8.55    7.08 
   0  -8  -9    6.03    7.11 
   8   0  -9    1.77    4.99 
  -1  -8  -9  307.25   35.90 
   8  -1  -9  284.82   31.23 
   1   8  -9  283.48   33.95 
  -8   1  -9  297.70   37.68 
   8   1  -9  278.81   29.07 
   1  -8  -9  334.24   34.06 
   1  -8  -9  305.40   33.55 
   8  -1  -9  279.02   29.91 
  -8  -1  -9  360.38   36.32 
  -1   8  -9  270.77   35.29 
   8  -1  -9  260.82   32.43 
  -1   8  -9  296.38   26.18 
  -8   1  -9  313.57   32.93 
  -1  -8  -9  331.74   33.78 
   8   1  -9  296.76   33.95 
   8   2  -9   11.89    5.71 
  -2  -8  -9   21.31    9.88 
  -2   8  -9   24.42    9.98 
  -8   2  -9    1.22    5.62 
   8  -2  -9   11.39    7.17 
  -8   2  -9   20.03    7.37 
   8  -2  -9   12.24    6.34 
   2  -8  -9   19.86    9.16 
   2  -8  -9    7.18    7.54 
   8   2  -9   20.94    8.17 
   8  -2  -9   14.40    6.10 
  -2   8  -9   12.77    4.93 
  -8  -2  -9   26.80    9.42 
   8   3  -9  234.37   24.29 
  -8  -3  -9  275.72   32.57 
  -8   3  -9  270.67   34.21 
   8   3  -9  245.96   30.23 
   8  -3  -9  237.82   28.26 
   3  -8  -9  261.26   30.34 
   3  -8  -9  207.81   30.17 
   8  -3  -9  275.20   27.78 
  -3   8  -9  242.50   24.19 
  -8   3  -9  235.04   29.72 
  -3  -8  -9  211.53   31.89 
   8  -3  -9  240.27   29.41 
  -3   8  -9  238.44   33.22 
   4  -8  -9   26.50   10.00 
  -4  -8  -9   29.17   11.23 
   4  -8  -9   15.05    8.80 
   8  -4  -9   36.13    9.59 
  -4   8  -9   32.94    8.01 
  -8   4  -9    5.06    6.82 
   8  -4  -9   24.64    8.24 
   8   4  -9   19.60    9.50 
   8  -4  -9   17.92    7.77 
  -8   4  -9   12.98    7.28 
   8   4  -9   22.18    6.77 
  -8  -4  -9   19.80    9.30 
  -4   8  -9   18.86    9.68 
  -8  -5  -9  226.38   28.79 
   5  -8  -9  174.47   26.44 
  -8   5  -9  186.60   24.65 
   8   5  -9  158.93   24.40 
   8  -5  -9  176.65   25.24 
   8  -6  -9    6.65    6.73 
   6  -8  -9    4.90    8.09 
   8  -7  -9  198.59   27.22 
   7  -8  -9  144.13   24.65 
   0  -9  -9  297.54   32.35 
  -9   0  -9  224.35   30.70 
   0   9  -9  262.32   31.52 
   9   0  -9  182.99   27.12 
   9   0  -9  162.60   24.90 
   0   9  -9  241.70   20.24 
   0  -9  -9  282.64   32.42 
  -1  -9  -9    9.50    7.82 
  -1   9  -9    0.84    3.73 
   9   1  -9    0.88    5.40 
   1   9  -9   -0.95    5.92 
   9  -1  -9    1.28    5.62 
   9  -1  -9    3.46    5.90 
   1  -9  -9    7.02    6.55 
   9  -1  -9    4.44    4.55 
  -9   1  -9   11.53    7.61 
   1  -9  -9    6.95    8.53 
  -1   9  -9    2.44    7.88 
   9   1  -9    5.16    4.76 
  -9  -1  -9    3.92    6.91 
  -9  -2  -9  227.64   29.76 
   9  -2  -9  271.40   29.06 
  -2   9  -9  204.72   21.64 
   2  -9  -9  219.06   29.47 
   9  -2  -9  247.88   28.81 
  -9   2  -9  262.02   33.13 
   2  -9  -9  174.12   27.65 
  -2   9  -9  200.19   30.86 
  -9   2  -9  274.31   31.14 
   9  -2  -9  235.86   27.39 
   9  -3  -9   28.11    9.07 
   9  -3  -9   17.56    7.18 
   9  -3  -9   -2.98    5.26 
   3  -9  -9   12.87    7.76 
  -9   3  -9   17.49    8.18 
   3  -9  -9   10.32    7.80 
  -9  -3  -9   16.75    7.15 
  -9   3  -9    5.27    6.99 
   9  -4  -9  234.38   26.15 
  -9  -4  -9  181.66   26.78 
   9  -4  -9  185.48   26.38 
   4  -9  -9  224.28   28.34 
   4  -9  -9  171.89   27.48 
   9  -5  -9   -2.37    5.48 
   5  -9  -9    0.31    6.96 
   6  -9  -9  108.44   21.53 
   9  -6  -9  141.59   22.55 
   1 -10  -9  185.06   27.53 
  10  -2  -9   -1.15    5.40 
   2 -10  -9   12.76    9.25 
   3 -10  -9  212.70   28.86 
  10  -3  -9  150.83   23.79 
   4 -10  -9    1.37    8.99 
  10  -4  -9   16.23    7.95 
  10  -5  -9  154.25   24.14 
   5 -10  -9  152.53   25.72 
   2 -11  -9  158.23   25.71 
   0   0  -8 2198.22  169.11 
   0   0  -8 2166.18  175.37 
   1   0  -8   -0.65    1.89 
   0  -1  -8   -0.35    3.20 
   0   1  -8    0.37    2.26 
  -1   0  -8   -0.57    3.96 
  -1   0  -8   -1.37    2.21 
   1   0  -8   -2.06    2.40 
   0  -1  -8   -0.54    2.49 
   0  -1  -8    2.99    4.33 
   1   0  -8   -3.52    3.54 
   0   1  -8    8.07    4.90 
   1   1  -8 1551.26  116.91 
   1  -1  -8 1452.81  117.46 
   1  -1  -8 1506.72  122.00 
  -1   1  -8 1570.46  124.33 
  -1   1  -8 1493.82  117.28 
   1   1  -8 1522.87  122.42 
  -1  -1  -8 1478.21  118.08 
  -1  -1  -8 1544.94  123.23 
  -1  -1  -8 1491.03  123.19 
   1  -1  -8 1389.35  122.38 
  -2   0  -8  810.67   67.72 
   0  -2  -8  714.76   61.60 
   2   0  -8  747.11   64.87 
   0  -2  -8  772.82   65.22 
   0   2  -8  774.10   65.75 
   0  -2  -8  727.32   65.01 
   2   0  -8  730.01   60.55 
   0   2  -8  747.76   59.89 
   2   0  -8  764.12   64.09 
  -2   0  -8  742.64   61.51 
  -1  -2  -8  314.37   30.77 
  -1  -2  -8  336.03   29.12 
  -1   2  -8  321.44   27.19 
   2  -1  -8  308.79   27.82 
   2   1  -8  319.54   30.18 
   2  -1  -8  321.79   30.95 
   2   1  -8  295.91   30.23 
  -2  -1  -8  325.57   28.66 
   1  -2  -8  287.88   30.32 
   2  -1  -8  307.19   29.61 
  -2   1  -8  286.85   32.14 
   2   1  -8  299.93   26.69 
  -1  -2  -8  284.01   30.75 
   1   2  -8  289.82   26.12 
   1  -2  -8  309.05   28.15 
   1  -2  -8  323.97   30.50 
  -2  -1  -8  283.77   31.37 
   1   2  -8  320.82   30.87 
  -1   2  -8  298.35   31.89 
  -2   1  -8  294.46   27.72 
   2  -2  -8 1705.38  135.01 
  -2  -2  -8 1835.95  136.16 
  -2   2  -8 1762.24  134.47 
   2   2  -8 1713.06  132.80 
  -2   2  -8 1720.23  142.19 
  -2  -2  -8 1688.83  140.93 
   2  -2  -8 1686.61  140.25 
   2   2  -8 1737.32  138.79 
   2  -2  -8 1670.62  138.22 
  -2  -2  -8 1672.19  140.05 
  -3   0  -8    3.10    3.38 
   0  -3  -8   -4.67    3.01 
   0  -3  -8    2.62    3.06 
   0   3  -8    0.50    2.47 
  -3   0  -8    2.71    4.56 
   0  -3  -8    4.81    4.84 
   3   0  -8    2.73    3.53 
   3   0  -8    3.58    4.39 
   0   3  -8    4.54    4.61 
   3   0  -8   -2.53    2.23 
  -1  -3  -8 1073.73   82.97 
   3  -1  -8  990.06   81.30 
   1  -3  -8 1026.09   82.51 
  -3   1  -8 1010.54   81.93 
   1   3  -8 1026.88   85.75 
  -3   1  -8  987.20   88.28 
   3   1  -8  968.03   80.20 
   3  -1  -8  991.86   85.60 
   1  -3  -8  988.99   85.68 
   3  -1  -8  985.17   83.51 
  -1   3  -8 1012.77   80.11 
   3   1  -8 1037.48   85.48 
   3   1  -8 1023.62   83.54 
  -1  -3  -8  970.49   85.88 
  -3  -1  -8  956.14   86.98 
  -1   3  -8 1026.42   87.45 
  -1  -3  -8 1072.78   86.24 
   1   3  -8 1039.28   79.27 
  -3  -1  -8 1045.07   82.71 
   1  -3  -8 1044.12   85.45 
  -3   2  -8   95.39   12.91 
   2  -3  -8   93.85   14.33 
   2   3  -8   86.81   14.17 
   3   2  -8   92.25   13.77 
   2   3  -8   97.56    9.78 
   3   2  -8   94.13   14.51 
   3  -2  -8  105.05   14.18 
  -2   3  -8   94.91   11.94 
  -2  -3  -8   82.33   14.34 
   2  -3  -8  106.56   13.82 
   3  -2  -8  120.85   16.66 
  -2  -3  -8   88.46   16.03 
  -3  -2  -8   97.53   13.73 
  -2   3  -8   69.81   15.52 
   3   2  -8   95.98   10.26 
   2  -3  -8   69.57   13.86 
  -3  -2  -8   95.15   16.92 
   3  -2  -8   85.70   12.55 
  -2  -3  -8   76.36   12.97 
  -3   2  -8   94.92   18.39 
  -3   3  -8  698.54   68.80 
   3   3  -8  778.55   64.64 
   3   3  -8  722.26   65.15 
   3   3  -8  761.50   60.21 
  -3   3  -8  729.91   62.43 
   3  -3  -8  743.53   63.39 
  -3  -3  -8  800.78   66.78 
   3  -3  -8  789.97   67.11 
   3  -3  -8  802.17   64.96 
  -3  -3  -8  756.95   64.23 
  -3  -3  -8  776.35   68.24 
   0   4  -8 2098.13  159.44 
   0  -4  -8 2147.63  163.52 
   4   0  -8 2034.51  167.64 
   4   0  -8 2020.18  161.42 
  -4   0  -8 2019.04  163.13 
  -4   0  -8 2106.47  171.12 
   0   4  -8 2093.84  168.72 
   0  -4  -8 2019.03  167.45 
   0  -4  -8 2181.95  168.56 
   1  -4  -8   93.65   15.09 
  -4  -1  -8   99.06   14.33 
  -4   1  -8   77.42   16.71 
   4   1  -8   84.44   11.45 
  -4   1  -8   98.23   14.02 
  -1  -4  -8   92.84   15.19 
  -1   4  -8  100.70   11.04 
   1   4  -8   92.72    9.50 
   1  -4  -8   99.03   14.13 
   1   4  -8   96.19   15.99 
  -1  -4  -8   95.80   14.30 
   4   1  -8  116.46   16.01 
  -1  -4  -8   84.67   15.52 
   1  -4  -8   94.20   15.72 
   4  -1  -8   92.40   15.37 
  -1   4  -8   68.04   15.29 
  -4  -1  -8   82.00   16.27 
   4  -1  -8  102.67   13.34 
   4   2  -8 1244.78   96.68 
   4  -2  -8 1305.41  100.27 
   2  -4  -8 1133.60  102.63 
  -2   4  -8 1177.84   96.98 
  -4   2  -8 1206.57   99.13 
  -4  -2  -8 1193.66  104.78 
  -2  -4  -8 1286.69  103.37 
  -2   4  -8 1283.09  105.80 
  -4  -2  -8 1235.77  100.01 
   4   2  -8 1291.00  102.40 
  -2  -4  -8 1257.76  104.28 
  -2  -4  -8 1169.26   99.44 
   2   4  -8 1239.93   94.93 
   2  -4  -8 1289.65  101.94 
  -4   2  -8 1233.49  106.47 
   2  -4  -8 1189.12   99.17 
   4  -2  -8 1247.21   98.96 
   2   4  -8 1234.09  101.89 
   4  -2  -8 1173.19  102.72 
  -3  -4  -8   20.53    6.75 
   3  -4  -8   24.56    6.81 
  -3  -4  -8   30.69    9.93 
  -4  -3  -8   28.63    9.71 
  -4   3  -8   22.50   10.24 
  -4   3  -8   35.25    8.11 
  -3   4  -8   26.28    6.77 
   4  -3  -8   46.68    8.73 
   4   3  -8   26.53    8.14 
  -4  -3  -8   21.92    7.79 
  -4  -3  -8   24.42    7.05 
   4   3  -8   23.35    5.19 
   4  -3  -8   21.01    6.69 
   3   4  -8   29.76    4.78 
   4  -3  -8   25.03    8.51 
  -3  -4  -8   28.58    8.21 
   3  -4  -8   16.01    7.50 
   3  -4  -8   29.69    8.05 
  -3   4  -8   38.46   11.05 
   3   4  -8   40.45    8.80 
  -4  -4  -8  720.54   61.92 
   4   4  -8  654.33   52.93 
  -4   4  -8  582.10   55.73 
   4  -4  -8  713.34   57.72 
  -4  -4  -8  674.01   59.48 
   4  -4  -8  660.61   59.92 
   4   4  -8  641.33   57.75 
   4  -4  -8  659.64   57.71 
  -4   4  -8  661.65   62.86 
  -4  -4  -8  727.62   58.76 
  -5   0  -8    3.07    6.00 
   0   5  -8    7.40    5.57 
   0  -5  -8    2.62    3.79 
   0  -5  -8   -4.17    3.30 
  -5   0  -8   -5.60    2.97 
   5   0  -8   -0.39    2.82 
   0   5  -8    0.24    2.24 
   5   0  -8    5.22    4.84 
   0  -5  -8    5.67    5.12 
  -1  -5  -8  490.78   43.21 
   1  -5  -8  519.62   43.29 
   1   5  -8  496.72   45.46 
   1   5  -8  474.97   37.92 
  -5   1  -8  509.41   49.02 
  -5  -1  -8  490.56   43.65 
  -1  -5  -8  471.85   44.90 
   5   1  -8  456.71   40.57 
  -5   1  -8  485.48   43.24 
   5  -1  -8  494.88   44.78 
   5   1  -8  469.27   43.65 
  -1  -5  -8  455.25   44.79 
   5  -1  -8  436.93   41.19 
   1  -5  -8  470.34   44.33 
  -1   5  -8  452.96   46.22 
   1  -5  -8  445.83   44.59 
  -1   5  -8  480.71   39.46 
  -5  -1  -8  515.41   47.70 
  -2  -5  -8   98.78   16.40 
   2  -5  -8   87.73   15.38 
   5   2  -8  107.75   12.86 
   5   2  -8  128.83   16.55 
  -2   5  -8   92.28   12.24 
  -2  -5  -8  121.42   16.37 
   5  -2  -8   81.95   13.69 
   2   5  -8  104.39    9.52 
  -2   5  -8  100.20   18.52 
  -5  -2  -8   78.25   16.72 
  -5   2  -8   92.23   14.95 
  -2  -5  -8  108.09   17.78 
   2  -5  -8  110.85   15.59 
  -5   2  -8  114.18   20.33 
   5  -2  -8  117.31   17.28 
  -5  -2  -8  130.97   16.96 
   2   5  -8   90.59   15.63 
   2  -5  -8  120.77   18.10 
  -5  -3  -8 1387.31  120.94 
   5   3  -8 1437.37  112.60 
  -3  -5  -8 1453.39  119.32 
   3  -5  -8 1409.96  120.06 
   3  -5  -8 1421.08  117.91 
  -5   3  -8 1409.26  115.82 
   5  -3  -8 1344.85  119.37 
  -3   5  -8 1321.39  121.36 
   3  -5  -8 1580.19  116.77 
   5  -3  -8 1476.97  115.76 
  -3  -5  -8 1427.14  120.47 
  -5  -3  -8 1409.69  119.13 
  -5   3  -8 1364.73  122.63 
  -3   5  -8 1421.44  113.82 
   5   3  -8 1408.71  117.91 
   3   5  -8 1540.55  110.36 
  -5  -3  -8 1525.08  117.10 
  -5  -4  -8   13.57    5.55 
   5  -4  -8    7.04    5.62 
   4  -5  -8    5.01    4.64 
  -4   5  -8   -1.89    3.30 
   5   4  -8    4.26    4.88 
   4   5  -8    0.70    4.87 
  -4  -5  -8   13.02    6.96 
  -4   5  -8    2.51    5.68 
  -5   4  -8    6.04    5.59 
   5   4  -8    2.07    2.75 
  -4  -5  -8   -3.90    4.34 
  -5  -4  -8    4.80    5.68 
   4  -5  -8   -4.03    4.62 
   5  -4  -8    0.19    4.06 
   4   5  -8    2.75    2.43 
   4  -5  -8   -2.63    3.33 
  -5   4  -8    6.67    4.45 
   5   4  -8   16.03    6.07 
  -5   5  -8  747.80   70.26 
   5  -5  -8  863.29   71.92 
   5  -5  -8  868.96   74.77 
  -5   5  -8  824.53   77.26 
   5   5  -8  837.45   70.92 
  -5  -5  -8  836.26   75.91 
   5   5  -8  900.51   67.12 
   0  -6  -8 1311.15  108.32 
   6   0  -8 1358.05  103.70 
   6   0  -8 1179.95  106.78 
   0  -6  -8 1307.88  108.72 
   0   6  -8 1329.74  109.30 
   0   6  -8 1316.01   99.75 
  -6   0  -8 1293.69  105.91 
  -6   0  -8 1189.68  110.34 
  -1  -6  -8    9.31    6.12 
   1   6  -8    9.79    2.68 
  -1   6  -8   10.28    3.71 
   1  -6  -8    1.47    5.72 
   1  -6  -8    1.51    4.62 
  -1  -6  -8   23.79    7.56 
  -6   1  -8    6.56    5.41 
  -6  -1  -8    1.04    5.05 
   1   6  -8    6.54    5.64 
   6  -1  -8    9.80    5.13 
   6  -1  -8    6.16    5.85 
   6   1  -8    0.49    5.02 
  -6   1  -8    4.50    6.13 
   6   1  -8   11.48    4.52 
  -1   6  -8   17.78    7.88 
   6  -1  -8   10.67    5.66 
   6   1  -8    3.00    5.03 
  -6  -1  -8    4.06    5.04 
  -6  -2  -8  877.22   78.29 
   6  -2  -8  876.01   76.19 
  -2  -6  -8  828.12   75.54 
   2  -6  -8  836.78   75.31 
  -2   6  -8  842.59   78.39 
   2   6  -8  896.77   75.93 
   2  -6  -8  939.23   77.21 
  -6  -2  -8  878.46   74.67 
   6   2  -8  907.08   73.70 
   6   2  -8  939.49   75.20 
  -2   6  -8  846.94   70.48 
  -6   2  -8  816.35   78.89 
  -6   2  -8  903.52   74.96 
  -2  -6  -8  836.10   76.50 
   6   2  -8  899.31   71.36 
   6  -2  -8  867.36   72.92 
   6  -2  -8  872.10   72.64 
   6   3  -8  101.07   16.59 
  -3  -6  -8   94.54   16.16 
   6   3  -8   95.51   14.40 
   6   3  -8   98.63   12.40 
   3  -6  -8   74.69   15.24 
   3  -6  -8  104.87   16.15 
  -6   3  -8   93.08   15.39 
   6  -3  -8   98.16   14.72 
   6  -3  -8   90.48   15.71 
  -6  -3  -8   88.89   17.35 
  -3   6  -8   99.67   18.71 
   6  -3  -8   84.91   14.42 
  -6   3  -8  100.64   19.55 
  -3  -6  -8   68.83   15.52 
  -6  -3  -8  102.23   16.66 
  -3   6  -8   94.94   13.11 
   6   4  -8  536.02   48.74 
   6  -4  -8  538.43   50.23 
   6   4  -8  580.78   44.98 
   6  -4  -8  521.04   46.62 
  -4  -6  -8  588.74   52.81 
   4   6  -8  528.53   42.09 
  -4   6  -8  494.48   51.96 
   4  -6  -8  455.42   49.43 
  -6   4  -8  547.59   48.76 
  -6  -4  -8  540.52   51.59 
  -4   6  -8  488.05   46.31 
   6  -4  -8  533.06   48.04 
  -6   4  -8  576.29   54.36 
   4  -6  -8  546.85   48.80 
   6  -5  -8   62.40   12.39 
   6  -5  -8   62.72   12.07 
  -6   5  -8   70.28   16.23 
  -5   6  -8   77.73   13.18 
  -5   6  -8   71.98   16.98 
   5  -6  -8   51.82   13.31 
   5   6  -8   73.78    8.33 
   5   6  -8   62.05   12.59 
  -6   5  -8   64.04   12.58 
  -5  -6  -8   72.01   15.66 
   6  -5  -8   65.24   13.74 
   6   5  -8   66.72   13.81 
  -6  -5  -8   81.13   16.11 
   6   5  -8   76.43    9.77 
   6  -6  -8  591.17   57.86 
   6   6  -8  596.46   55.40 
  -6   6  -8  715.16   57.01 
  -6  -6  -8  616.72   59.43 
   6   6  -8  620.51   51.06 
  -6   6  -8  633.92   61.29 
   0  -7  -8    8.18    6.03 
   7   0  -8    4.66    4.55 
   0  -7  -8    1.75    5.84 
   7   0  -8   -2.71    3.98 
   7   0  -8   -4.70    3.09 
   0   7  -8    6.31    6.57 
   0   7  -8    1.39    2.37 
  -7   0  -8   -0.88    4.18 
  -7   0  -8    9.89    7.31 
   1  -7  -8  723.58   71.00 
   7  -1  -8  772.05   70.56 
   1  -7  -8  838.25   71.91 
   7   1  -8  836.06   68.21 
  -1   7  -8  858.76   65.50 
   7   1  -8  886.57   71.04 
   7  -1  -8  789.99   68.67 
  -7  -1  -8  805.06   71.03 
  -1   7  -8  801.13   73.53 
  -7   1  -8  878.67   71.87 
  -7  -1  -8  787.03   73.20 
  -1  -7  -8  897.23   72.93 
  -1  -7  -8  787.94   72.25 
   7  -1  -8  738.76   67.99 
  -7   1  -8  865.59   75.07 
   7   1  -8  746.71   68.71 
  -2  -7  -8   39.52   10.70 
  -7   2  -8   25.10    9.30 
  -2   7  -8   23.43    9.47 
  -2  -7  -8   45.82   11.90 
   2   7  -8   39.34   10.44 
   7   2  -8   28.24    8.84 
   7  -2  -8   28.00    8.66 
   7   2  -8   35.32    7.91 
   7  -2  -8   23.93    7.26 
   7   2  -8   40.50    9.40 
  -7  -2  -8   35.30   10.76 
  -2   7  -8   26.18    6.80 
   2  -7  -8   33.89    9.68 
   7  -2  -8   31.32    9.09 
  -7   2  -8   30.43    9.87 
   2  -7  -8   15.50    8.16 
  -7   3  -8  511.67   50.77 
   3  -7  -8  452.93   47.33 
   7   3  -8  500.79   43.10 
  -7   3  -8  504.24   46.99 
  -7  -3  -8  451.77   48.00 
   3  -7  -8  521.13   47.16 
  -3  -7  -8  488.05   48.75 
  -3   7  -8  518.26   43.90 
   7  -3  -8  529.95   45.53 
   7   3  -8  523.89   46.36 
   7  -3  -8  464.51   46.88 
  -7  -4  -8   16.71    7.85 
   7  -4  -8   -1.05    4.91 
   7   4  -8    3.17    3.01 
  -7   4  -8    1.78    5.04 
   7  -4  -8   -2.47    3.18 
  -4   7  -8   -3.64    4.03 
  -4   7  -8   -2.87    5.30 
  -4  -7  -8    2.13    5.76 
   7  -4  -8    7.98    5.50 
   4   7  -8   -4.30    3.97 
   7   4  -8    5.54    5.90 
   4  -7  -8   -2.75    5.62 
   4  -7  -8    2.49    4.98 
  -7   4  -8    3.48    5.19 
   7  -5  -8  506.51   51.11 
  -7   5  -8  531.59   54.25 
   7   5  -8  581.26   46.33 
   5   7  -8  579.88   43.95 
   7   5  -8  543.48   49.80 
   7  -5  -8  528.55   49.61 
  -5   7  -8  497.80   54.00 
  -7  -5  -8  518.79   51.99 
  -7   5  -8  566.58   50.69 
   7  -5  -8  545.65   47.97 
   5   7  -8  547.41   48.76 
  -5   7  -8  529.19   48.73 
   5  -7  -8  497.69   51.31 
  -5  -7  -8  557.94   53.74 
  -7   6  -8   36.88   11.71 
   7   6  -8   36.50    7.19 
  -7   6  -8   41.91    9.94 
  -7  -6  -8   27.35   10.20 
  -6   7  -8   37.81    9.22 
   6   7  -8   32.40    5.97 
  -6  -7  -8   39.54   12.04 
  -6   7  -8   22.96    9.59 
   6  -7  -8   20.29    9.71 
   6   7  -8   35.83    9.98 
   7   6  -8   21.42    8.30 
   7  -6  -8   20.40    8.23 
  -7  -7  -8  379.27   39.88 
   7  -7  -8  374.87   39.33 
   7   7  -8  368.19   36.70 
  -7   7  -8  314.37   42.17 
   7   7  -8  388.89   32.75 
  -7   7  -8  356.61   36.75 
   8   0  -8  324.77   30.58 
   0  -8  -8  252.11   33.19 
   0  -8  -8  305.27   33.12 
  -8   0  -8  370.48   35.89 
   8   0  -8  322.18   32.32 
   8   0  -8  277.74   30.71 
  -8   0  -8  322.40   33.51 
  -8   1  -8    6.75    6.38 
   8   1  -8   12.75    6.35 
  -1  -8  -8   12.11    7.36 
   8  -1  -8    5.32    4.06 
  -8  -1  -8   17.60    8.20 
   8   1  -8    5.37    4.30 
  -1  -8  -8    8.24    6.01 
   1  -8  -8   12.48    6.77 
   8  -1  -8    4.62    6.00 
  -8   1  -8   13.67    7.53 
   1  -8  -8    3.70    6.25 
   8  -1  -8   17.56    7.12 
   8   1  -8   13.54    6.19 
  -8   2  -8  685.68   61.92 
  -2  -8  -8  595.07   61.79 
  -8   2  -8  743.03   65.34 
   8  -2  -8  617.39   58.12 
   8   2  -8  625.11   57.41 
  -8  -2  -8  642.59   61.73 
   8  -2  -8  683.37   61.07 
   2  -8  -8  767.15   63.79 
   8  -2  -8  664.62   59.33 
   8   2  -8  751.73   60.86 
   2  -8  -8  719.33   62.22 
   8   3  -8   -2.98    4.05 
   3  -8  -8   -0.31    5.01 
   8  -3  -8    9.59    5.30 
   8  -3  -8    3.82    4.90 
  -8  -3  -8    0.67    5.58 
  -8   3  -8   -1.06    5.93 
  -3  -8  -8   -1.15    6.12 
  -8   3  -8   12.12    5.53 
   3  -8  -8   -2.38    5.44 
   8   3  -8   -1.17    3.07 
   8  -3  -8    8.29    4.44 
   4  -8  -8 1009.23   83.56 
   8  -4  -8  879.47   82.88 
   8   4  -8  914.42   78.29 
   4  -8  -8  899.21   83.87 
  -8  -4  -8  960.27   84.63 
  -8   4  -8  990.79   83.05 
   8   4  -8  997.77   81.30 
  -4  -8  -8  932.49   85.75 
   8  -4  -8  987.21   79.41 
  -8   4  -8  987.76   86.93 
   8  -4  -8 1017.89   82.26 
  -5  -8  -8    7.51    7.28 
  -8   5  -8   20.20    7.89 
   8  -5  -8    0.32    5.12 
  -5   8  -8   14.97    8.95 
   8   5  -8   15.62    6.91 
   5  -8  -8    8.51    7.86 
  -8   5  -8    0.34    6.87 
  -5   8  -8    2.33    6.02 
   8   5  -8   10.77    5.33 
  -8  -5  -8   16.16    8.45 
   6  -8  -8  592.38   56.40 
   8   6  -8  529.87   52.28 
  -8   6  -8  572.63   57.25 
   8  -6  -8  585.72   55.67 
   8   6  -8  570.27   49.12 
   6   8  -8  597.34   46.69 
  -8  -6  -8  604.97   55.72 
  -6   8  -8  565.60   52.40 
  -8   6  -8  578.83   53.47 
  -6  -8  -8  554.35   56.48 
   7  -8  -8    7.29    7.18 
  -8  -7  -8   32.19   10.15 
   7   8  -8    4.11    3.56 
  -7  -8  -8  -17.65    5.23 
   8  -7  -8   -1.29    6.02 
   8   7  -8   16.50    8.55 
   8  -8  -8  131.14   22.56 
   0  -9  -8    1.25    6.33 
  -9   0  -8   -0.39    5.31 
   9   0  -8    3.11    5.83 
   9   0  -8    0.83    3.76 
   0  -9  -8    2.41    6.19 
   9   1  -8  760.53   68.92 
   1  -9  -8  852.78   73.47 
  -9  -1  -8  795.73   73.27 
  -9   1  -8  735.65   73.21 
   9   1  -8  802.05   70.23 
   9  -1  -8  832.49   72.19 
   9  -1  -8  802.30   69.69 
   9  -1  -8  894.39   71.34 
   1  -9  -8  817.92   73.48 
  -1  -9  -8  882.11   75.04 
  -2  -9  -8   10.80    7.06 
  -9   2  -8   19.31    8.85 
   2  -9  -8    9.50    7.40 
  -9  -2  -8   16.54    7.60 
   9  -2  -8   20.73    8.04 
  -9   2  -8   -0.78    6.68 
   9   2  -8   21.67    6.49 
   9   2  -8   14.09    6.96 
   2  -9  -8   22.20    9.34 
   9  -2  -8   19.56    6.79 
   9  -2  -8   14.12    7.14 
   3  -9  -8  286.80   35.66 
   9  -3  -8  304.54   32.76 
  -9   3  -8  287.25   35.68 
   9   3  -8  343.60   31.30 
   9  -3  -8  312.11   32.50 
  -9  -3  -8  311.25   34.01 
   9  -3  -8  321.75   32.28 
  -3  -9  -8  317.79   37.46 
   3  -9  -8  308.33   34.24 
   9   3  -8  363.53   34.75 
  -9   3  -8  315.67   37.46 
   4  -9  -8   -5.09    5.93 
  -9  -4  -8    0.28    5.97 
   9   4  -8    4.87    6.08 
  -9   4  -8    8.49    6.48 
   9  -4  -8    7.48    6.35 
  -4  -9  -8    5.64    7.39 
   9  -4  -8    1.41    5.41 
  -9   4  -8    3.12    6.73 
   9   4  -8    1.27    4.84 
   4  -9  -8    9.35    7.45 
   9  -4  -8   -1.37    4.15 
  -9   5  -8  130.19   23.03 
   9   5  -8  156.32   24.06 
   5  -9  -8  145.10   23.95 
  -9  -5  -8  175.12   23.86 
   9  -5  -8  129.94   21.84 
  -9   5  -8  160.37   23.25 
  -5  -9  -8  142.64   24.66 
   6   9  -8   13.57    3.21 
   9  -6  -8    5.80    6.43 
   6  -9  -8   13.99    8.86 
   9  -7  -8  479.97   47.27 
   7  -9  -8  437.19   47.19 
   9  -8  -8   14.31    7.64 
   8  -9  -8   10.17    7.62 
  10   0  -8  431.57   40.58 
  10   0  -8  371.23   38.20 
 -10   0  -8  398.07   40.16 
   0 -10  -8  394.66   42.53 
   1 -10  -8   20.53    9.61 
   1 -10  -8   34.72   11.97 
  10   1  -8   35.09   10.21 
  10  -1  -8   47.34   11.02 
 -10   1  -8   30.49   10.66 
  -1 -10  -8   29.21   10.59 
  10   1  -8   45.89   12.17 
  10  -1  -8   35.21   10.51 
 -10   2  -8  352.84   37.75 
  10  -2  -8  369.61   36.19 
  10   2  -8  365.81   37.56 
   2 -10  -8  345.24   38.27 
  -2 -10  -8  342.88   40.72 
  10  -2  -8  338.35   36.13 
  10  -2  -8  354.26   36.33 
   2 -10  -8  390.67   39.49 
  10   2  -8  344.19   34.27 
  10  -3  -8   30.45    8.61 
  10  -3  -8   18.13    8.53 
   3 -10  -8   22.14   10.06 
 -10   3  -8   16.67    7.79 
  10  -3  -8   18.15    8.39 
   3 -10  -8   18.61    9.00 
  10  -4  -8  565.00   53.53 
 -10   4  -8  594.26   54.29 
   4 -10  -8  477.89   53.86 
   4 -10  -8  537.71   53.28 
 -10   4  -8  525.28   53.41 
  10  -4  -8  669.53   52.34 
   5 -10  -8   -1.02    6.81 
  10  -5  -8    5.89    6.82 
   6 -10  -8  272.10   34.64 
  10  -6  -8  244.68   32.09 
   2 -11  -8   40.44   12.62 
   3 -11  -8  286.22   36.33 
  11  -3  -8  306.48   32.85 
   4 -11  -8   -0.23    7.69 
  11  -4  -8   -4.71    5.61 
  11  -5  -8  362.12   38.94 
   5 -11  -8  360.66   40.30 
   0   0  -7    0.47    2.06 
   0   0  -7    0.64    3.38 
   1   0  -7  582.48   58.69 
  -1   0  -7  627.28   55.97 
   0  -1  -7  841.40   60.79 
   0  -1  -7  775.16   60.49 
   1   0  -7  592.00   55.40 
  -1   0  -7  588.31   59.72 
   0  -1  -7  815.61   57.45 
   0   1  -7  758.36   60.71 
   0   1  -7  753.57   55.83 
   1   0  -7  680.03   59.38 
  -1   1  -7   32.46    6.22 
   1  -1  -7   42.88    9.22 
   1  -1  -7   31.33    6.27 
   1  -1  -7   32.06    8.12 
  -1  -1  -7   31.45    6.43 
   1   1  -7   34.19    8.15 
   1   1  -7   30.08    5.58 
  -1   1  -7   40.78    9.52 
  -1  -1  -7   38.93    9.12 
  -2   0  -7    5.44    4.27 
   0   2  -7   -0.13    2.06 
   0  -2  -7    2.39    2.29 
  -2   0  -7    0.42    2.46 
   0   2  -7    1.83    3.89 
   0  -2  -7   -0.82    2.80 
   2   0  -7    0.79    2.22 
   0  -2  -7    2.02    3.31 
   2   0  -7    1.04    3.83 
   2   0  -7   -0.67    2.91 
  -1  -2  -7  510.73   48.01 
  -1   2  -7  487.17   43.53 
  -1  -2  -7  511.95   47.32 
  -1  -2  -7  510.28   45.38 
   1  -2  -7  475.49   46.57 
  -2   1  -7  550.26   49.76 
   2   1  -7  577.73   47.71 
   2  -1  -7  594.95   44.98 
   1  -2  -7  487.49   47.15 
   2   1  -7  543.32   43.40 
   1  -2  -7  510.59   44.89 
  -2  -1  -7  566.65   49.46 
   2  -1  -7  595.47   47.06 
   2  -1  -7  526.89   47.58 
  -1   2  -7  541.62   49.37 
  -2   1  -7  586.11   45.12 
   1   2  -7  543.39   47.84 
   2   1  -7  604.77   47.55 
  -2  -1  -7  564.98   45.56 
   1   2  -7  491.18   42.83 
  -2   2  -7    7.46    5.69 
  -2  -2  -7    5.85    4.93 
   2  -2  -7   -2.01    3.42 
  -2  -2  -7    3.68    3.41 
   2  -2  -7    6.47    4.17 
  -2   2  -7    6.47    3.53 
  -2  -2  -7    4.47    4.19 
   2  -2  -7    4.79    3.18 
   2   2  -7    5.92    2.76 
   2   2  -7    1.15    3.78 
  -3   0  -7  772.97   59.07 
   0   3  -7  543.42   49.95 
   3   0  -7  704.89   51.88 
   0  -3  -7  542.49   52.23 
  -3   0  -7  685.85   53.25 
   3   0  -7  751.19   54.42 
   0  -3  -7  531.45   54.24 
   3   0  -7  750.73   56.14 
   0  -3  -7  568.81   54.84 
   0   3  -7  604.30   56.07 
   3  -1  -7   28.81    6.87 
  -1   3  -7   31.10    9.38 
   3   1  -7   31.80    7.15 
  -3  -1  -7   25.67    8.42 
  -1  -3  -7   26.61    7.99 
   3  -1  -7   26.70    7.30 
  -1   3  -7   22.60    5.17 
  -3  -1  -7   20.99    5.95 
  -1  -3  -7   27.79    7.55 
  -3   1  -7   25.23    6.17 
  -3   1  -7   30.62    9.11 
   1   3  -7   29.73    4.57 
   1   3  -7   21.90    7.35 
   1  -3  -7   42.18    7.71 
   3   1  -7   26.69    5.37 
   1  -3  -7   24.45    6.96 
  -1  -3  -7   22.56    6.16 
   3  -1  -7   27.76    5.95 
   3   1  -7   23.37    7.11 
   1  -3  -7   30.61    7.92 
   2  -3  -7  487.45   43.30 
   2  -3  -7  473.13   45.61 
   3  -2  -7  483.09   45.56 
  -2  -3  -7  515.15   45.66 
   2  -3  -7  460.98   44.34 
   3  -2  -7  535.34   43.43 
  -2  -3  -7  512.76   44.33 
   3   2  -7  530.70   41.23 
  -3  -2  -7  526.36   44.29 
  -3   2  -7  514.84   43.50 
   3  -2  -7  543.22   44.55 
  -3   2  -7  519.62   49.03 
  -2   3  -7  538.46   48.96 
   3   2  -7  510.39   45.05 
   3   2  -7  507.75   44.26 
  -3  -2  -7  558.51   48.26 
   2   3  -7  513.96   40.34 
  -2   3  -7  472.85   42.09 
  -2  -3  -7  475.93   46.39 
   2   3  -7  489.92   45.02 
  -3  -3  -7  147.17   21.31 
  -3   3  -7  149.33   23.20 
   3  -3  -7  150.35   19.71 
  -3   3  -7  165.84   16.85 
  -3  -3  -7  183.57   18.97 
   3   3  -7  153.78   14.17 
   3  -3  -7  132.85   17.27 
   3  -3  -7  163.86   17.52 
   3   3  -7  175.25   17.95 
  -3  -3  -7  158.18   18.50 
   4   0  -7    0.15    2.68 
   0  -4  -7   -3.41    2.73 
   0  -4  -7    1.74    3.12 
  -4   0  -7   -2.20    3.56 
  -4   0  -7    4.33    3.42 
   0   4  -7    6.62    4.71 
   0   4  -7   -0.64    2.07 
   0  -4  -7    1.90    3.46 
   4   0  -7    1.24    3.50 
   4   0  -7    3.90    3.15 
   1  -4  -7  756.58   58.30 
  -1  -4  -7  766.91   59.45 
  -1   4  -7  751.11   60.72 
   1  -4  -7  778.00   59.36 
  -1  -4  -7  829.03   57.25 
   4  -1  -7  551.11   54.19 
   1   4  -7  772.89   52.01 
   4   1  -7  541.16   53.15 
   4  -1  -7  566.14   54.85 
  -4   1  -7  543.77   55.09 
   1  -4  -7  765.46   56.66 
  -4  -1  -7  566.63   59.04 
  -4   1  -7  517.06   58.84 
   4  -1  -7  568.38   57.07 
   4   1  -7  589.37   56.87 
   1   4  -7  797.50   59.72 
  -1  -4  -7  798.44   59.11 
  -4  -1  -7  502.53   54.74 
  -1   4  -7  788.91   53.67 
  -4  -2  -7   18.38    5.91 
   2   4  -7   18.52    6.58 
   4  -2  -7   20.60    6.03 
  -2   4  -7   10.24    7.13 
   4   2  -7   13.03    5.86 
   4  -2  -7   11.69    5.97 
   2  -4  -7   14.10    5.06 
   4   2  -7   14.11    4.07 
  -4  -2  -7    9.65    6.30 
   2   4  -7    9.88    2.57 
  -4   2  -7    9.44    4.59 
  -2  -4  -7   16.83    5.51 
   2  -4  -7    8.30    4.77 
   4  -2  -7   22.80    5.93 
   2  -4  -7    9.81    4.80 
  -2   4  -7   13.52    4.51 
  -2  -4  -7    9.17    5.72 
  -2  -4  -7   11.90    6.04 
  -4   2  -7   17.44    8.00 
  -3  -4  -7  476.95   41.02 
  -4   3  -7  586.07   48.00 
   3   4  -7  449.76   35.82 
  -3  -4  -7  429.04   42.88 
   3   4  -7  494.21   41.29 
   3  -4  -7  452.27   42.43 
   3  -4  -7  444.05   40.27 
  -3   4  -7  467.30   45.13 
   3  -4  -7  398.68   40.15 
  -3   4  -7  432.14   39.21 
  -3  -4  -7  428.66   41.33 
  -4  -4  -7    7.82    4.53 
  -4  -4  -7   16.48    6.35 
  -4   4  -7    3.61    5.19 
   4   4  -7   18.44    6.24 
   4  -4  -7    7.79    4.54 
   4  -4  -7    7.63    4.57 
   4   4  -7    9.82    3.10 
  -4   4  -7   11.08    5.23 
   4  -4  -7    4.08    5.34 
  -4  -4  -7   17.14    7.15 
  -5   0  -7  619.73   47.79 
   0   5  -7  434.88   43.34 
   0  -5  -7  419.90   41.97 
   0   5  -7  436.68   36.84 
   0  -5  -7  453.69   40.85 
   0  -5  -7  477.83   42.81 
  -5   1  -7    9.54    6.29 
   1  -5  -7   22.47    6.92 
  -1   5  -7   18.74    4.69 
   5   1  -7   19.27    6.55 
   1   5  -7   13.31    2.76 
   5  -1  -7   10.97    5.98 
   1  -5  -7   12.11    5.87 
   5  -1  -7    9.97    4.96 
  -1  -5  -7   10.46    4.65 
  -1  -5  -7   10.49    5.51 
  -5   1  -7    3.98    4.10 
   1   5  -7   26.15    8.28 
   1  -5  -7   16.93    5.64 
  -1  -5  -7   17.74    6.45 
   5   1  -7   16.09    4.98 
  -5  -1  -7   13.87    5.69 
  -1   5  -7   16.91    7.45 
  -5  -1  -7   19.42    8.25 
  -2   5  -7  467.10   46.39 
  -2  -5  -7  568.03   45.06 
   5   2  -7  445.78   42.69 
   2  -5  -7  589.31   43.87 
  -5  -2  -7  433.18   45.43 
   2  -5  -7  522.50   45.01 
  -5   2  -7  423.99   42.31 
   5  -2  -7  423.94   41.38 
  -5  -2  -7  432.51   42.50 
  -2  -5  -7  539.58   43.43 
   2  -5  -7  512.30   43.91 
  -2  -5  -7  506.68   45.39 
   2   5  -7  517.11   44.19 
  -5   2  -7  399.52   46.00 
   5  -2  -7  461.92   44.04 
  -2   5  -7  537.30   41.23 
   5   2  -7  405.70   39.63 
   3   5  -7   11.25    5.55 
   3   5  -7   17.74    2.70 
   5   3  -7   12.79    5.85 
  -3  -5  -7   15.02    7.23 
   3  -5  -7   14.75    6.40 
  -3  -5  -7   17.27    6.26 
  -3  -5  -7   22.93    6.22 
  -5  -3  -7   12.91    6.76 
  -3   5  -7   26.74    6.80 
  -5   3  -7   12.53    7.28 
   5  -3  -7   15.63    5.63 
  -3   5  -7   -3.58    3.90 
   5   3  -7   15.49    4.33 
   3  -5  -7   21.51    6.86 
  -5  -3  -7   16.57    6.35 
   5  -3  -7   19.86    7.31 
   3  -5  -7   24.21    6.90 
  -5   3  -7   14.51    5.95 
   5   4  -7  447.14   37.99 
   5  -4  -7  443.76   43.17 
   5  -4  -7  435.18   41.34 
  -4   5  -7  460.66   46.52 
  -5  -4  -7  466.62   44.60 
  -4  -5  -7  491.67   42.87 
   5   4  -7  419.36   41.10 
  -5   4  -7  424.19   45.76 
  -4   5  -7  501.05   41.78 
  -5   4  -7  420.52   41.48 
  -4  -5  -7  524.19   45.55 
   5   4  -7  484.59   41.71 
   4  -5  -7  380.29   42.39 
   4   5  -7  472.85   36.86 
  -5  -4  -7  486.89   42.77 
   4  -5  -7  494.57   41.95 
   4  -5  -7  484.19   42.09 
   5  -5  -7   28.90    8.72 
   5  -5  -7   27.48    6.97 
  -5   5  -7   23.23    9.68 
   5   5  -7   28.57    8.05 
  -5   5  -7   13.28    5.92 
   5   5  -7   21.65    4.62 
  -5  -5  -7   23.47    8.66 
   5  -5  -7   30.66    7.89 
   6   0  -7   -2.34    2.82 
   0  -6  -7    4.98    4.12 
  -6   0  -7    9.31    5.55 
   6   0  -7    4.54    4.75 
  -6   0  -7   -4.78    2.63 
   0  -6  -7    2.42    3.92 
   6   0  -7   -0.43    3.70 
   1  -6  -7  396.85   38.37 
   6   1  -7  446.43   39.51 
   6   1  -7  463.85   39.76 
  -6  -1  -7  491.02   43.32 
   6  -1  -7  435.89   40.10 
  -6   1  -7  428.15   43.28 
   1  -6  -7  328.95   39.01 
   1  -6  -7  361.31   39.46 
   6  -1  -7  409.79   37.92 
  -1  -6  -7  400.32   40.43 
  -1  -6  -7  392.20   39.75 
   6   1  -7  456.42   37.49 
  -6  -1  -7  482.05   40.87 
  -6   1  -7  442.38   40.43 
   6  -1  -7  498.08   39.96 
   6   2  -7    2.42    4.56 
   6  -2  -7   -0.11    4.16 
   2  -6  -7    1.05    4.09 
  -6   2  -7   -8.76    4.77 
   6  -2  -7    4.97    5.00 
   6   2  -7    6.13    4.70 
  -6  -2  -7   15.06    7.66 
   6   2  -7    5.56    3.50 
  -2  -6  -7   16.54    6.93 
   6  -2  -7   13.19    5.15 
  -2  -6  -7    5.07    4.55 
   2  -6  -7    7.32    5.35 
  -6   2  -7   -1.43    3.87 
   2  -6  -7   12.04    4.86 
  -6  -2  -7    4.51    4.91 
  -6  -3  -7  305.91   36.04 
   3  -6  -7  430.16   37.68 
  -6   3  -7  328.64   38.26 
   3  -6  -7  390.79   35.43 
   6   3  -7  336.79   33.69 
   6  -3  -7  377.30   34.42 
  -3  -6  -7  419.03   38.26 
  -3  -6  -7  464.53   37.07 
   6   3  -7  338.42   32.08 
   3  -6  -7  395.41   35.94 
   3   6  -7  416.13   36.15 
   6  -3  -7  325.65   33.91 
   6   3  -7  370.86   35.54 
  -6   3  -7  361.09   35.66 
   6  -3  -7  329.87   35.31 
   6   4  -7   68.31   13.43 
   6   4  -7   65.25    9.46 
  -6   4  -7   66.78   16.06 
   6  -4  -7   62.68   13.05 
  -6  -4  -7   71.96   14.33 
   6  -4  -7   79.51   12.70 
  -6   4  -7   68.69   12.71 
  -4  -6  -7   71.89   14.44 
   4  -6  -7   61.40   13.50 
   4   6  -7   66.63    6.85 
   4  -6  -7   78.07   13.31 
   4   6  -7   67.34   12.28 
   6  -4  -7   51.69   10.79 
   6   5  -7  294.39   30.15 
   6   5  -7  326.67   26.62 
  -5   6  -7  265.80   34.96 
   6  -5  -7  337.55   32.71 
   5  -6  -7  268.76   31.33 
   6  -5  -7  289.24   29.69 
  -5  -6  -7  252.73   32.61 
   5   6  -7  238.70   28.36 
   5   6  -7  298.42   25.46 
   5  -6  -7  302.97   29.85 
   6  -5  -7  366.06   29.84 
  -6  -5  -7  290.76   31.86 
  -5   6  -7  270.59   29.21 
  -6   5  -7  300.68   35.76 
  -6   5  -7  305.24   30.40 
  -6  -6  -7  142.67   21.46 
   6  -6  -7  109.47   18.48 
  -6   6  -7  122.12   18.58 
  -6   6  -7  139.31   22.72 
   6   6  -7  119.21   18.63 
   6   6  -7  133.85   13.67 
  -7   0  -7  389.46   39.78 
   7   0  -7  415.48   38.61 
   7   0  -7  422.72   37.82 
  -7   0  -7  377.85   40.83 
   7   0  -7  441.56   39.25 
   7  -1  -7   33.32    8.79 
   7  -1  -7   29.02    8.56 
   1  -7  -7   24.34    8.44 
   7   1  -7   35.00    8.65 
   7   1  -7   32.50    8.77 
  -1  -7  -7   30.30    9.55 
  -7  -1  -7   41.39   10.69 
  -7   1  -7   28.83    9.34 
   7   1  -7   38.57    8.09 
  -7   1  -7   45.33   11.87 
   7  -1  -7   23.35    7.09 
   1  -7  -7   37.23    9.51 
  -1  -7  -7   31.24    9.19 
  -7  -1  -7   31.12    9.15 
  -2  -7  -7  332.06   40.04 
   7   2  -7  492.37   40.74 
  -7   2  -7  506.58   45.06 
   7  -2  -7  485.94   39.91 
   7   2  -7  461.31   37.85 
   7   2  -7  483.07   39.63 
  -2  -7  -7  296.38   38.02 
   2  -7  -7  363.23   39.33 
  -7   2  -7  466.26   41.72 
   7  -2  -7  451.30   40.50 
   2   7  -7  324.30   37.26 
   7  -2  -7  478.51   39.64 
  -7  -2  -7  498.50   43.08 
  -7   3  -7   45.16   11.01 
   7   3  -7   47.25   10.98 
   7  -3  -7   29.07    8.31 
   7   3  -7   30.41    7.35 
   3  -7  -7   31.68    9.26 
  -7  -3  -7   43.08   10.65 
   7  -3  -7   32.89    9.75 
  -3  -7  -7   33.11    9.99 
   3   7  -7   31.27    8.29 
  -7   3  -7   49.62   12.93 
   3  -7  -7   30.38    9.71 
   7  -3  -7   30.62    8.31 
   4   7  -7  257.75   27.17 
  -4  -7  -7  232.89   31.05 
   7   4  -7  282.50   25.54 
   7  -4  -7  259.82   29.18 
   7  -4  -7  284.39   27.55 
  -7   4  -7  290.33   34.46 
   7  -4  -7  258.14   27.73 
  -7  -4  -7  294.51   30.66 
   4  -7  -7  258.41   28.84 
  -7   4  -7  280.67   29.14 
   4  -7  -7  242.21   30.47 
   7   4  -7  314.53   29.66 
  -7   5  -7   43.53   10.25 
  -7   5  -7   42.06   12.18 
   7  -5  -7   29.17    9.26 
   5  -7  -7   41.92   10.03 
   7  -5  -7   32.78    8.97 
   5   7  -7   32.70    5.55 
   7   5  -7   35.29   10.01 
   5   7  -7   53.69   10.75 
   7  -5  -7   35.29    8.79 
   7   5  -7   34.21    7.19 
  -7  -5  -7   28.31   10.00 
  -5  -7  -7   40.61   11.51 
   5  -7  -7   32.07   10.64 
   7  -6  -7  274.12   30.63 
  -7   6  -7  238.35   33.09 
   7   6  -7  231.07   24.92 
   6  -7  -7  288.95   31.18 
  -7  -6  -7  253.50   31.50 
   6   7  -7  337.07   25.41 
  -7   6  -7  249.13   30.20 
  -6  -7  -7  283.60   32.98 
   6   7  -7  297.14   28.96 
   7   6  -7  260.82   28.34 
  -7   7  -7   18.03    6.91 
  -7   7  -7   -1.25    6.71 
   7  -7  -7   11.68    7.17 
  -7  -7  -7   20.36    9.10 
   7   7  -7   16.51    4.96 
   7   7  -7   15.48    6.99 
  -8   0  -7    1.23    4.92 
   8   0  -7    3.40    3.73 
   0  -8  -7    0.20    4.90 
   8   0  -7   -7.54    3.26 
   8   0  -7   -0.03    3.75 
  -8   0  -7    2.43    4.97 
   0  -8  -7   -1.28    4.64 
  -8   1  -7  329.87   33.99 
  -8  -1  -7  357.99   33.72 
   8  -1  -7  290.44   30.56 
   8  -1  -7  308.36   31.31 
   8   1  -7  378.45   31.15 
  -8   1  -7  328.07   33.75 
   1  -8  -7  252.92   32.59 
   8   1  -7  296.35   31.15 
   1  -8  -7  283.67   32.03 
  -1  -8  -7  262.64   31.63 
   8  -1  -7  376.33   31.86 
  -1  -8  -7  224.47   31.04 
   8   1  -7  330.42   30.56 
   2   8  -7   56.98   11.03 
   2  -8  -7   58.01   12.61 
   8  -2  -7   72.55   12.64 
  -8   2  -7   59.25   13.71 
   8   2  -7   76.29   13.96 
   8  -2  -7   35.08   10.27 
  -8   2  -7   56.47   13.95 
  -2  -8  -7   68.89   14.33 
   8  -2  -7   64.08   12.30 
  -8  -2  -7   49.23   12.18 
   8   2  -7   53.51    9.97 
   2  -8  -7   75.38   14.72 
  -8   3  -7  317.84   34.32 
  -8  -3  -7  293.92   32.12 
   8  -3  -7  270.96   30.98 
   8  -3  -7  257.90   29.70 
   3  -8  -7  347.95   33.50 
  -3  -8  -7  377.21   35.28 
   8  -3  -7  312.98   30.37 
   3  -8  -7  337.77   32.99 
   8   3  -7  311.93   31.49 
  -8   3  -7  325.52   33.03 
   8   3  -7  273.44   28.58 
   8  -4  -7   20.63    7.02 
   8  -4  -7   36.31    8.68 
  -8  -4  -7   28.57    9.54 
   4  -8  -7   22.59    8.50 
   8   4  -7   14.46    7.23 
   8   4  -7   23.50    6.53 
   4  -8  -7   19.71    9.23 
   8  -4  -7   27.80    8.75 
  -4  -8  -7   19.58    8.58 
  -8   4  -7   23.92    8.68 
  -8   4  -7   28.48   10.62 
   8  -5  -7  244.95   25.13 
   8  -5  -7  204.05   28.71 
   5  -8  -7  228.38   30.25 
   5   8  -7  268.74   21.12 
   8   5  -7  241.74   24.22 
   8   5  -7  230.78   28.83 
  -5  -8  -7  244.14   31.18 
   5  -8  -7  269.32   27.53 
  -8   5  -7  230.87   28.80 
  -8   5  -7  257.27   32.77 
  -8  -5  -7  223.55   28.99 
   8   6  -7    1.78    3.88 
   6  -8  -7    7.91    7.63 
  -8  -6  -7    9.11    6.75 
  -6  -8  -7   17.79    8.39 
  -8   6  -7   -2.05    4.81 
   8   6  -7    4.29    5.97 
   6   8  -7    1.20    3.20 
   8  -6  -7    6.86    6.16 
  -8   6  -7    2.61    6.25 
   8   7  -7  162.51   17.84 
   7  -8  -7  154.94   24.47 
  -8   7  -7  141.19   24.01 
   8  -7  -7  133.53   23.28 
  -8  -7  -7  185.70   25.40 
  -8   7  -7  179.38   23.77 
   7   8  -7  171.45   17.07 
   8   7  -7  160.51   23.37 
  -7  -8  -7  184.76   25.69 
   8  -8  -7   -5.79    4.93 
  -8   8  -7   -5.54    3.57 
  -8  -8  -7    9.39    7.36 
  -8   8  -7   -1.99    5.60 
   9   0  -7  252.33   26.21 
   0  -9  -7  250.62   29.16 
   0  -9  -7  274.52   31.33 
  -9   0  -7  270.26   28.84 
   9   0  -7  209.89   27.87 
   9  -1  -7    8.23    4.41 
  -9  -1  -7    8.99    6.66 
   1  -9  -7    7.43    6.57 
   9   1  -7   10.38    6.68 
   1  -9  -7   14.82    7.54 
   9   1  -7   10.98    5.26 
   9  -1  -7   13.73    6.35 
  -9   1  -7   16.21    7.29 
  -1  -9  -7    8.96    6.94 
   9  -1  -7   16.59    6.87 
  -2  -9  -7  286.28   33.02 
   2   9  -7  303.69   28.71 
   2  -9  -7  324.56   31.43 
  -9   2  -7  349.43   33.27 
   2  -9  -7  336.64   32.24 
   9   2  -7  234.85   30.38 
   9  -2  -7  254.77   27.84 
   9   2  -7  250.58   27.21 
   9  -2  -7  232.60   27.40 
  -9  -2  -7  279.04   29.48 
   9  -2  -7  220.08   27.39 
  -9   2  -7  246.63   31.51 
  -9   3  -7   14.43    7.92 
   9  -3  -7    3.18    5.26 
  -9   3  -7   16.91    8.23 
   3  -9  -7   13.88    6.81 
   3   9  -7   12.75    6.40 
   9   3  -7    1.53    4.15 
   3  -9  -7    4.87    6.71 
   9  -3  -7    5.71    5.17 
  -9  -3  -7   17.56    6.75 
   9  -3  -7   10.34    6.51 
   9   3  -7    8.17    5.64 
  -3  -9  -7   -1.45    6.54 
   9   4  -7  253.28   24.19 
   4  -9  -7  167.39   27.76 
  -9  -4  -7  242.00   28.05 
  -9   4  -7  251.37   30.75 
   9  -4  -7  239.84   27.71 
   4  -9  -7  163.26   25.99 
  -9   4  -7  227.76   28.34 
   9   4  -7  269.32   30.26 
   9  -4  -7  253.16   25.35 
  -4  -9  -7  178.32   28.24 
   9  -4  -7  240.28   28.28 
  -9   5  -7   19.24    7.11 
  -9   5  -7   12.05    7.85 
  -5  -9  -7  -13.99    4.51 
   5   9  -7    6.14    2.64 
   9   5  -7    4.56    6.95 
   5  -9  -7    1.81    5.47 
   9   5  -7    9.68    5.21 
   5  -9  -7    3.69    6.49 
   9  -5  -7    4.10    6.27 
   9   6  -7  241.54   23.09 
  -6  -9  -7  214.16   29.02 
  -9   6  -7  259.35   31.46 
   6  -9  -7  195.69   28.41 
   9   6  -7  240.07   28.24 
   9  -6  -7  184.54   26.83 
   6   9  -7  176.65   18.32 
  -9   6  -7  251.78   28.23 
  -9   7  -7   29.64    8.41 
   7   9  -7    6.37    3.69 
   9  -7  -7   14.97    8.00 
  -9   7  -7    7.21    6.45 
   7  -9  -7    6.08    8.84 
  -7  -9  -7   15.88    7.39 
   9   7  -7    6.01    7.45 
   8  -9  -7  155.69   24.78 
   9  -8  -7  123.07   22.22 
   9  -9  -7    0.90    6.14 
  10   0  -7   -9.92    4.47 
  10   0  -7    5.52    5.26 
   0 -10  -7    0.71    5.95 
   0 -10  -7    9.68    6.67 
  -1 -10  -7  177.55   28.28 
 -10   1  -7  261.06   28.39 
  10  -1  -7  200.48   26.70 
  10   1  -7  225.77   23.97 
   1 -10  -7  168.75   26.99 
  10  -1  -7  256.92   25.58 
   1 -10  -7  189.94   27.03 
  10   2  -7   49.45   10.99 
  10  -2  -7   45.04   10.53 
  10  -2  -7   51.39   11.77 
   2 -10  -7   54.82   13.98 
 -10   2  -7   41.84   10.90 
  10  -2  -7   48.55   11.37 
  -2 -10  -7   58.03   14.01 
  10   2  -7   40.85   12.24 
   2 -10  -7   38.29   11.87 
 -10   3  -7  229.66   27.24 
  10  -3  -7  222.02   26.17 
  10   3  -7  216.02   27.38 
   3 -10  -7  173.61   26.81 
   3  10  -7  158.77   23.62 
  10   3  -7  225.07   22.82 
  -3 -10  -7  156.05   26.45 
   3 -10  -7  179.45   26.02 
  10  -3  -7  225.86   26.19 
  10  -3  -7  191.66   24.91 
   4  10  -7   -0.19    1.70 
   4  10  -7   -2.76    4.53 
   4 -10  -7    2.42    7.15 
  10  -4  -7    3.67    5.72 
   4 -10  -7    9.89    7.03 
  10   4  -7    0.05    6.45 
  10  -4  -7    1.21    5.70 
  -4 -10  -7    5.49    7.21 
 -10   4  -7    3.42    4.67 
 -10   4  -7   10.56    6.19 
   5 -10  -7  243.74   27.67 
  10   5  -7  136.17   23.67 
 -10   5  -7  112.37   22.16 
  10  -5  -7  134.93   23.40 
   5  10  -7  208.82   16.30 
   5 -10  -7  225.96   28.75 
 -10   5  -7  168.09   24.69 
  -5 -10  -7  206.16   28.18 
   5  10  -7  176.03   23.84 
   6 -10  -7    8.81    8.53 
  10  -6  -7   16.35    8.07 
 -10   6  -7   11.53    7.04 
 -10   6  -7   -1.58    5.95 
   7 -10  -7  130.31   23.68 
  10  -7  -7  172.56   25.59 
  10  -8  -7    2.05    6.04 
   8 -10  -7   12.77    8.33 
  11   0  -7  173.45   22.90 
  11   0  -7  152.46   22.64 
   0 -11  -7  127.23   23.54 
  11   1  -7   66.73   12.74 
  11  -1  -7   54.43   12.16 
   1 -11  -7   44.16   12.80 
   1 -11  -7   36.39   12.35 
  11   1  -7   31.04   10.04 
  -1 -11  -7   46.67   13.53 
  11  -1  -7   69.34   14.11 
   2 -11  -7  142.75   23.11 
  11   2  -7  166.99   21.42 
  11  -2  -7  177.19   23.35 
   2 -11  -7  140.21   23.62 
  11  -2  -7  145.17   21.90 
   3 -11  -7    3.94    5.96 
  11  -3  -7   11.66    6.91 
  11  -3  -7    0.76    5.54 
   3 -11  -7    6.36    7.26 
   3  11  -7   12.43    6.13 
   4 -11  -7  171.02   26.08 
   4  11  -7  162.31   22.84 
  11  -4  -7  138.22   22.35 
  11  -5  -7    3.38    6.03 
   5 -11  -7    8.25    8.78 
  11  -6  -7  101.98   19.06 
   6 -11  -7  100.72   20.34 
   2 -12  -7   28.41   10.99 
   3 -12  -7  121.19   21.47 
   4 -12  -7   -9.02    7.39 
   0   0  -6  479.59   39.97 
   0   0  -6  499.07   43.36 
  -1   0  -6    0.28    3.26 
   0  -1  -6   -2.36    1.69 
  -1   0  -6   -3.84    1.19 
   1   0  -6    1.51    3.40 
   0  -1  -6   -3.30    2.85 
   0  -1  -6   -4.47    2.28 
   1   0  -6   -3.08    1.30 
   0   1  -6    4.17    3.79 
   0   1  -6   -0.27    1.92 
   1  -1  -6 2543.26  203.98 
  -1  -1  -6 2438.81  204.92 
   1  -1  -6 2535.65  198.96 
   1   1  -6 2556.59  204.16 
  -1  -1  -6 2642.78  199.58 
  -1   1  -6 2660.31  198.81 
   1   1  -6 2689.75  198.02 
   1  -1  -6 2636.31  205.70 
  -1   1  -6 2598.28  205.91 
   2   0  -6 2878.48  233.80 
   2   0  -6 2887.05  226.23 
   0   2  -6 3195.66  225.54 
  -2   0  -6 2951.48  227.27 
   0   2  -6 3113.82  225.68 
   0  -2  -6 2949.80  227.45 
   0   2  -6 3094.22  234.04 
   0  -2  -6 2841.63  233.86 
  -2   0  -6 2814.21  234.17 
   2   0  -6 2893.26  231.45 
   0  -2  -6 2893.30  232.56 
  -1  -2  -6   54.38    9.52 
   1   2  -6   48.48    9.67 
   2   1  -6   46.55    8.62 
   1  -2  -6   53.69    8.28 
   1   2  -6   44.39    5.70 
  -2   1  -6   45.67   10.51 
  -1   2  -6   34.81    9.51 
   1  -2  -6   39.73    8.53 
   2  -1  -6   33.76    7.43 
   1  -2  -6   36.28    8.26 
   2   1  -6   51.05    6.43 
  -1  -2  -6   51.25    9.97 
   2  -1  -6   40.44    8.60 
   2  -1  -6   45.85    7.31 
  -1  -2  -6   59.24    8.69 
  -2  -1  -6   51.58   10.86 
  -2   1  -6   45.09    7.49 
   1   2  -6   43.68    5.63 
  -2  -1  -6   55.58    8.49 
  -1   2  -6   46.68    6.94 
   2  -2  -6 1042.72   85.60 
   2  -2  -6  995.23   82.09 
  -2  -2  -6 1081.69   83.02 
   2   2  -6 1100.28   84.95 
   2   2  -6 1054.89   80.09 
  -2   2  -6  963.03   81.61 
  -2   2  -6 1071.52   88.17 
  -2  -2  -6  976.46   86.09 
   2  -2  -6 1040.56   84.21 
  -3   0  -6    0.12    2.35 
   0  -3  -6   -2.37    3.13 
  -3   0  -6    2.51    4.48 
   0  -3  -6    0.32    2.33 
   3   0  -6    1.66    3.70 
   0   3  -6    3.90    2.13 
   3   0  -6    0.41    3.07 
   0  -3  -6   -1.82    2.53 
   0   3  -6    1.30    3.95 
   3   0  -6   -1.98    1.79 
   0   3  -6    0.12    1.71 
   3   1  -6  589.64   50.71 
  -3   1  -6  581.04   53.63 
   3  -1  -6  606.84   51.15 
  -3  -1  -6  629.88   49.63 
   1  -3  -6  573.07   51.00 
   1   3  -6  615.71   46.04 
   1   3  -6  617.84   51.84 
   1  -3  -6  567.77   50.43 
   3   1  -6  633.33   49.85 
  -1   3  -6  602.35   52.96 
  -1  -3  -6  612.13   51.28 
   3   1  -6  586.30   47.25 
   3  -1  -6  563.10   49.26 
  -1   3  -6  589.23   47.40 
  -3   1  -6  511.46   48.60 
  -1  -3  -6  587.69   51.61 
  -1  -3  -6  603.06   49.39 
  -3  -1  -6  590.67   53.07 
   3  -1  -6  533.84   47.99 
   1  -3  -6  593.94   49.16 
  -3   2  -6  291.26   27.76 
   3  -2  -6  292.68   27.48 
   2  -3  -6  276.31   27.40 
   3   2  -6  340.85   28.37 
   3  -2  -6  330.37   28.37 
  -3  -2  -6  276.31   27.71 
  -2  -3  -6  347.01   30.91 
  -2  -3  -6  307.75   29.07 
  -2   3  -6  307.46   31.59 
  -2  -3  -6  309.11   28.30 
   3   2  -6  294.08   25.40 
   2  -3  -6  330.83   30.01 
  -3  -2  -6  304.32   30.85 
   2   3  -6  312.55   29.38 
  -3   2  -6  328.96   32.66 
   3   2  -6  290.56   28.51 
   2   3  -6  325.99   24.66 
  -2   3  -6  290.40   26.99 
   3  -2  -6  319.63   29.83 
   2  -3  -6  300.86   28.55 
  -3  -3  -6 2600.75  210.33 
  -3   3  -6 2467.32  212.16 
  -3  -3  -6 2707.72  211.08 
   3  -3  -6 2727.46  211.46 
   3  -3  -6 2689.45  205.11 
   3   3  -6 2704.71  208.38 
   3   3  -6 2629.32  201.63 
  -3   3  -6 2723.53  205.33 
  -3  -3  -6 2661.28  205.53 
   3  -3  -6 2603.49  208.03 
   0   4  -6 3248.61  232.69 
  -4   0  -6 2820.88  236.77 
   4   0  -6 3159.17  238.93 
   0  -4  -6 3107.32  243.14 
   0   4  -6 3337.22  239.94 
   0  -4  -6 2963.09  241.30 
   4   0  -6 3056.15  235.25 
   4   0  -6 2980.51  242.36 
   0  -4  -6 3078.96  236.68 
  -4   0  -6 2822.16  243.44 
   4   1  -6  135.70   16.16 
   4  -1  -6   97.60   15.55 
   1  -4  -6  133.24   15.54 
   1  -4  -6  127.91   16.80 
  -1  -4  -6  137.06   16.43 
  -4   1  -6  126.03   16.00 
  -4  -1  -6  125.07   18.75 
  -4   1  -6  154.76   21.30 
   1  -4  -6  123.23   16.18 
   4  -1  -6  143.07   13.94 
   4   1  -6  131.19   13.62 
   1   4  -6  119.43   17.13 
   4  -1  -6  139.38   14.32 
  -1  -4  -6  121.80   15.14 
  -1   4  -6  133.88   13.13 
   4   1  -6  123.91   13.07 
  -4  -1  -6  171.24   16.06 
  -1  -4  -6  108.85   16.60 
   2   4  -6 2144.41  164.09 
  -2  -4  -6 2079.61  160.60 
   4  -2  -6 2015.83  164.80 
   2  -4  -6 2071.66  165.30 
   4  -2  -6 2063.41  159.94 
  -4  -2  -6 1928.46  165.21 
  -4  -2  -6 1939.10  160.44 
  -4   2  -6 1998.68  160.78 
   2  -4  -6 2027.50  160.16 
   4   2  -6 2046.05  163.78 
   4   2  -6 2122.27  157.88 
   4  -2  -6 1990.83  161.47 
   4   2  -6 2151.21  161.38 
  -2  -4  -6 2134.53  165.10 
  -4   2  -6 2020.13  167.51 
   2  -4  -6 2053.86  163.13 
  -2  -4  -6 2105.26  164.65 
  -4   3  -6    0.83    3.48 
  -4  -3  -6    7.62    4.13 
   4  -3  -6    6.87    3.90 
   4   3  -6    2.54    3.77 
  -3  -4  -6    0.47    3.84 
  -4   3  -6    9.47    6.28 
  -3  -4  -6    4.60    4.28 
   3   4  -6    5.85    4.35 
  -4  -3  -6   10.13    5.62 
   3  -4  -6    7.04    4.13 
   3   4  -6    3.74    1.50 
   4  -3  -6    5.03    3.56 
   4  -3  -6    4.36    4.41 
   4   3  -6    7.40    2.51 
   3  -4  -6    4.81    3.75 
  -3  -4  -6   -4.27    2.02 
   3  -4  -6   11.32    4.73 
   4   4  -6  556.53   42.90 
  -4  -4  -6  577.27   47.41 
  -4   4  -6  532.39   47.28 
   4   4  -6  534.22   46.61 
  -4   4  -6  528.79   51.29 
   4  -4  -6  526.71   46.66 
   4  -4  -6  517.08   46.30 
  -4  -4  -6  592.50   48.00 
  -4  -4  -6  501.53   48.89 
   4  -4  -6  509.07   48.18 
   0   5  -6    0.46    1.24 
  -5   0  -6   -0.03    3.27 
   5   0  -6    2.80    3.77 
   5   0  -6    1.05    2.59 
   0   5  -6    0.09    2.78 
   0  -5  -6   -3.32    2.43 
   0  -5  -6    1.40    3.15 
   0  -5  -6    3.65    3.58 
  -5   0  -6    6.24    4.79 
  -5  -1  -6  959.00   88.88 
   5   1  -6 1083.01   87.16 
   5  -1  -6 1065.16   88.00 
  -1  -5  -6 1253.29   92.20 
  -5   1  -6 1066.63   93.87 
  -1  -5  -6 1040.69   91.19 
   1  -5  -6 1136.36   89.02 
  -5  -1  -6 1050.20   92.87 
  -1   5  -6 1127.07   88.66 
   1  -5  -6 1115.23   91.91 
  -1  -5  -6 1171.93   89.31 
  -5   1  -6 1125.80   90.26 
   1  -5  -6 1099.92   91.02 
   5   1  -6 1057.39   90.16 
   5  -1  -6 1168.59   91.67 
  -2  -5  -6    2.74    3.91 
   5   2  -6    6.52    4.73 
   2  -5  -6    6.40    5.14 
   2  -5  -6    6.14    4.19 
   5   2  -6    7.10    3.48 
   5   2  -6    8.52    4.70 
  -5  -2  -6   11.82    4.79 
  -2  -5  -6   12.75    4.87 
  -5  -2  -6    5.77    4.82 
  -5   2  -6   14.08    7.80 
   2  -5  -6    3.55    3.25 
   5  -2  -6    7.96    5.12 
  -2  -5  -6   10.61    5.91 
  -5   2  -6    5.31    4.19 
   5  -2  -6    7.41    3.86 
   5   3  -6 1156.43   91.85 
   5  -3  -6 1226.68   94.77 
   3  -5  -6 1130.46   97.60 
   5   3  -6 1187.41   95.78 
  -3  -5  -6 1208.58   96.65 
   3  -5  -6 1223.86   95.17 
   3  -5  -6 1202.95   96.46 
  -5  -3  -6 1152.86   98.17 
   5  -3  -6 1118.08   97.25 
   5  -3  -6 1243.63   94.75 
  -5   3  -6 1196.11   96.20 
  -3  -5  -6 1112.93   97.65 
  -3  -5  -6 1168.11   94.80 
  -5   3  -6 1201.18  100.96 
   5   3  -6 1080.69   92.90 
  -5  -3  -6 1155.25   95.35 
   5   4  -6   34.32    7.45 
  -4  -5  -6   27.64    8.82 
   5   4  -6   29.11    8.07 
   5   4  -6   21.12    4.87 
   4  -5  -6   26.04    7.26 
  -4  -5  -6   35.79    7.97 
  -5   4  -6   28.51    9.20 
   4   5  -6   22.31    3.88 
   5  -4  -6   21.17    6.70 
   5  -4  -6   18.32    7.06 
  -5  -4  -6   26.76    6.46 
   4   5  -6   25.15    7.38 
  -5   4  -6   23.92    7.43 
   4  -5  -6   43.81    8.83 
  -5  -4  -6   43.38   10.18 
   5  -4  -6   33.37    8.02 
   5  -4  -6   23.82    6.35 
   4  -5  -6   14.78    6.70 
   5  -5  -6 1489.09  111.20 
  -5  -5  -6 1496.56  119.11 
   5   5  -6 1427.86  113.00 
   5   5  -6 1337.30  110.82 
   5  -5  -6 1434.58  115.15 
   5  -5  -6 1507.65  116.51 
   5  -5  -6 1386.79  118.55 
   0  -6  -6  930.36   77.77 
   0  -6  -6  925.45   80.12 
   6   0  -6  964.57   77.28 
   6   0  -6  982.98   79.67 
  -6   0  -6  916.91   81.64 
   0   6  -6 1033.55   78.37 
  -6   0  -6  974.78   79.97 
   6   0  -6  893.62   76.77 
   0  -6  -6  912.36   80.03 
   6  -1  -6  122.79   17.01 
   1  -6  -6  130.03   18.01 
   6  -1  -6  124.86   15.84 
  -6   1  -6  159.70   19.61 
   1   6  -6  129.89   15.62 
   6   1  -6  123.92   15.91 
  -6   1  -6  132.48   20.37 
   6   1  -6  126.75   18.03 
  -1   6  -6  160.11   14.98 
  -1  -6  -6  115.59   16.78 
   1  -6  -6  135.64   17.04 
  -1  -6  -6  126.45   18.22 
   6   1  -6  132.36   15.29 
   6  -1  -6  130.80   17.52 
   1  -6  -6  103.82   16.61 
  -6  -1  -6  144.48   20.10 
  -6  -1  -6  127.37   18.24 
  -2  -6  -6 1419.22  109.38 
   6  -2  -6 1292.39  104.06 
  -2  -6  -6 1339.04  110.00 
  -6  -2  -6 1294.62  110.18 
   6   2  -6 1346.64  105.39 
   2  -6  -6 1300.67  108.58 
   6  -2  -6 1302.53  109.02 
  -6   2  -6 1455.46  113.39 
  -6   2  -6 1336.46  108.44 
   6   2  -6 1330.76  104.84 
  -6  -2  -6 1244.18  107.33 
   6  -2  -6 1263.16  105.94 
   2  -6  -6 1420.19  107.09 
   2  -6  -6 1274.80  109.52 
   6   2  -6 1301.60  107.75 
  -6   3  -6    9.37    6.81 
   6  -3  -6    2.31    4.40 
   3  -6  -6    4.68    4.23 
   6   3  -6    4.63    3.35 
   3  -6  -6    5.54    4.77 
  -3  -6  -6    1.73    3.80 
  -3  -6  -6    8.63    5.61 
  -6   3  -6   -2.11    3.32 
   6  -3  -6    3.79    3.58 
  -6  -3  -6   -0.30    4.34 
  -6  -3  -6    0.24    3.50 
   6   3  -6   -1.64    2.52 
   6  -3  -6    6.41    3.94 
   3  -6  -6    3.82    3.31 
   6   3  -6    2.91    3.87 
   4   6  -6 1110.45   90.51 
   6  -4  -6 1176.08   95.88 
  -6  -4  -6 1152.96   95.98 
   4   6  -6 1215.99   87.83 
   4  -6  -6 1102.60   93.89 
   6   4  -6 1093.25   89.53 
  -6   4  -6 1052.26   97.09 
   4  -6  -6 1185.19   93.17 
   6  -4  -6 1098.59   89.74 
   6   4  -6 1055.76   91.00 
  -6   4  -6 1187.50   94.56 
   6  -4  -6 1148.55   92.96 
  -4  -6  -6 1135.88   95.81 
   4  -6  -6 1133.61   96.15 
  -5  -6  -6    2.58    4.84 
   6  -5  -6    4.99    4.81 
   6   5  -6    4.07    3.41 
   5   6  -6    3.59    3.18 
   6  -5  -6    2.48    3.39 
   6   5  -6    2.38    4.74 
  -6   5  -6    6.87    5.17 
  -6   5  -6    8.15    5.93 
   5   6  -6    2.56    3.87 
   6  -5  -6    8.22    4.19 
   5  -6  -6    2.38    5.00 
   5  -6  -6    0.15    4.34 
  -6  -5  -6   12.69    6.64 
  -6  -6  -6  751.87   68.01 
   6   6  -6  828.66   62.95 
   6  -6  -6  772.38   68.78 
   6   6  -6  706.85   64.22 
   0  -7  -6   -2.78    2.94 
  -7   0  -6   -0.53    4.82 
  -7   0  -6    5.65    5.06 
   0  -7  -6    0.71    3.99 
   7   0  -6    3.68    4.75 
   0   7  -6    1.84    3.16 
   7   0  -6   -5.90    3.40 
   7   0  -6    0.02    2.75 
   7  -1  -6 1076.45   85.58 
   7   1  -6 1018.67   87.52 
   1   7  -6 1039.57   87.04 
  -7  -1  -6 1100.95   90.03 
  -1  -7  -6 1086.55   88.70 
  -7  -1  -6 1073.28   89.21 
   7   1  -6 1072.63   86.09 
   7  -1  -6 1042.21   88.17 
  -7   1  -6 1084.03   89.64 
   1  -7  -6  968.76   88.47 
   1  -7  -6 1129.77   89.90 
   7   1  -6 1052.97   85.65 
  -7   1  -6 1051.71   90.51 
  -1  -7  -6 1008.15   89.22 
  -1   7  -6 1070.13   86.70 
   7  -1  -6 1057.01   86.63 
   2  -7  -6   81.92   15.05 
   7   2  -6   88.24   15.12 
  -2  -7  -6   96.48   16.42 
   7   2  -6   90.17   12.79 
   7   2  -6  134.22   14.77 
  -2  -7  -6   98.64   14.50 
  -7   2  -6   93.67   17.10 
  -7  -2  -6  103.54   16.72 
  -7  -2  -6  106.50   16.63 
   2  -7  -6   87.43   15.39 
   7  -2  -6  111.75   15.55 
   7  -2  -6   80.26   14.03 
  -7   2  -6   95.87   16.77 
   7  -2  -6   78.29   14.35 
   7  -3  -6  703.34   64.40 
   7  -3  -6  746.15   61.21 
   7   3  -6  765.93   62.91 
   3   7  -6  782.84   61.17 
   3  -7  -6  761.87   65.53 
  -7  -3  -6  745.04   65.07 
   7  -3  -6  763.35   63.46 
   3  -7  -6  768.69   64.65 
  -3  -7  -6  716.78   65.36 
   7   3  -6  712.92   60.49 
  -7   3  -6  644.73   63.64 
  -7   3  -6  723.21   67.02 
   7  -4  -6    4.94    4.38 
  -7  -4  -6   23.58    8.09 
   4   7  -6    6.66    2.49 
   4   7  -6    2.33    4.26 
   7  -4  -6   12.20    4.72 
  -7   4  -6    9.89    5.19 
   7   4  -6    8.23    5.23 
   7  -4  -6    8.29    5.83 
  -7   4  -6    7.12    6.45 
   7   4  -6    3.85    4.57 
   4  -7  -6    3.72    5.11 
   4  -7  -6    6.56    6.38 
  -4  -7  -6   -0.41    5.16 
   7  -5  -6  467.21   40.58 
   5  -7  -6  445.90   42.78 
  -5  -7  -6  494.00   45.57 
   7   5  -6  470.54   42.56 
   7  -5  -6  495.43   43.38 
   5   7  -6  440.54   41.40 
   7  -5  -6  484.65   44.80 
  -7  -5  -6  461.32   44.22 
   5  -7  -6  437.04   44.74 
  -7   5  -6  441.77   45.96 
  -7   5  -6  456.86   43.63 
   7   5  -6  481.69   40.43 
   5   7  -6  449.00   37.90 
   7   6  -6   69.83   11.03 
   6  -7  -6   83.16   15.77 
   6   7  -6   72.76   10.17 
   7   6  -6   72.45   13.82 
  -7  -6  -6   73.74   14.46 
  -6  -7  -6   79.72   15.44 
   6   7  -6   80.53   14.18 
   7  -6  -6   73.58   14.84 
   7   7  -6  958.95   75.41 
  -7  -7  -6  957.09   81.35 
   7   7  -6  890.78   77.27 
   7  -7  -6  879.08   81.63 
  -8   0  -6  751.26   64.69 
   8   0  -6  696.85   60.71 
   0  -8  -6  666.39   62.92 
   0  -8  -6  702.70   62.66 
   8   0  -6  674.72   61.14 
  -8   0  -6  781.66   64.16 
   8   0  -6  707.75   60.54 
   0   8  -6  718.94   60.97 
   1  -8  -6   -1.22    4.25 
  -8   1  -6    4.85    5.35 
   8  -1  -6   -1.00    3.71 
   8   1  -6    4.40    3.91 
  -8  -1  -6    8.84    5.05 
   8  -1  -6    2.02    4.42 
   8   1  -6    1.95    3.57 
   1  -8  -6    5.84    5.32 
   1   8  -6    4.56    4.10 
  -1  -8  -6    5.60    4.38 
  -8   1  -6   -5.81    3.37 
  -1  -8  -6    4.79    5.02 
   8  -1  -6    1.33    3.36 
  -1   8  -6    3.59    4.01 
   8  -2  -6  837.12   67.71 
   8   2  -6  794.15   68.29 
  -8  -2  -6  826.49   70.81 
   2  -8  -6  806.72   71.43 
  -2  -8  -6  748.51   71.03 
   2  -8  -6  764.84   70.75 
  -8   2  -6  820.72   72.36 
   8  -2  -6  849.41   70.50 
  -8   2  -6  847.95   71.95 
   8   2  -6  809.88   67.67 
   8  -2  -6  811.25   69.14 
   2   8  -6  835.12   69.72 
  -8   3  -6   50.73   11.82 
  -3  -8  -6   43.77   11.71 
   3  -8  -6   45.10   11.01 
   8  -3  -6   39.86    9.87 
   3  -8  -6   36.90   10.72 
  -8   3  -6   52.30   12.12 
  -8  -3  -6   29.64    8.75 
   8  -3  -6   50.80   10.33 
   8  -3  -6   36.78    9.70 
   8   3  -6   47.07    9.27 
   8   3  -6   52.36   11.45 
   4  -8  -6 1145.71   98.14 
   8  -4  -6 1262.37   97.20 
   8   4  -6 1118.72   93.95 
   8  -4  -6 1123.19   98.60 
   8   4  -6 1058.73   94.23 
   8  -4  -6 1162.52   93.01 
  -8  -4  -6 1244.56   98.62 
   4   8  -6 1181.60   89.70 
  -8   4  -6 1231.56   98.53 
   4  -8  -6 1135.89   99.69 
  -4  -8  -6 1087.23   98.86 
  -8   4  -6 1243.33  101.39 
   8  -5  -6   60.65   11.38 
   8   5  -6   47.19    9.45 
   8  -5  -6   30.64    9.62 
  -8  -5  -6   40.52   10.43 
   5  -8  -6   41.25   10.73 
   5   8  -6   41.39    6.05 
  -5  -8  -6   37.58   10.41 
   8   5  -6   37.03   10.77 
  -8   5  -6   34.68   10.76 
   5  -8  -6   41.15   11.92 
  -8   5  -6   36.37    9.89 
   6  -8  -6  547.18   53.41 
   8   6  -6  534.52   48.18 
   6   8  -6  588.83   45.83 
  -8   6  -6  522.35   51.06 
   8  -6  -6  549.40   52.89 
  -8  -6  -6  541.08   51.68 
  -6  -8  -6  564.39   52.75 
   8   6  -6  569.25   50.68 
   7  -8  -6    5.87    6.24 
   8   7  -6    8.83    7.05 
   7   8  -6    3.70    3.59 
   8  -7  -6    5.74    6.33 
  -7  -8  -6    1.95    5.84 
   8   7  -6    3.90    4.46 
  -8  -7  -6    0.29    6.01 
   8  -8  -6  338.02   36.81 
   8   8  -6  338.34   31.61 
   0  -9  -6    9.79    6.39 
  -9   0  -6    0.04    4.40 
   0   9  -6    1.72    4.12 
   9   0  -6    1.72    4.59 
   9   0  -6    0.51    3.57 
   0  -9  -6    2.97    4.91 
   9  -1  -6  929.52   79.39 
  -9  -1  -6  948.19   80.17 
  -9   1  -6  994.36   81.23 
   1   9  -6  929.21   79.15 
   9   1  -6  970.49   78.57 
   9   1  -6  897.55   78.12 
   1  -9  -6  937.26   81.70 
   9  -1  -6  894.22   78.47 
  -1  -9  -6  914.36   79.93 
   9  -1  -6  938.13   77.85 
   1  -9  -6 1007.93   82.06 
  -1   9  -6  929.13   79.07 
  -1  -9  -6  875.00   81.26 
   2   9  -6    3.57    4.54 
   9  -2  -6   -0.58    4.18 
   9   2  -6   13.03    6.61 
   2  -9  -6    5.72    7.32 
  -9   2  -6   10.52    6.86 
  -9   2  -6    3.46    5.23 
   9  -2  -6   12.64    6.46 
   9  -2  -6   14.89    5.83 
   2  -9  -6   12.57    7.67 
   9   2  -6    9.17    5.13 
  -2  -9  -6    0.72    5.01 
  -9  -2  -6   -8.70    4.17 
   3   9  -6  452.86   35.30 
   3  -9  -6  441.61   43.97 
   9  -3  -6  455.51   42.15 
  -9   3  -6  426.01   43.40 
  -9  -3  -6  442.78   42.08 
   9  -3  -6  480.76   41.68 
   9   3  -6  418.34   40.19 
   9  -3  -6  438.71   42.56 
   3  -9  -6  438.47   43.45 
  -3  -9  -6  422.22   43.81 
   3   9  -6  465.42   42.34 
  -9   3  -6  406.49   43.02 
   9   3  -6  463.01   42.83 
   9   4  -6   13.24    5.11 
   9   4  -6    1.61    5.60 
   4  -9  -6    8.48    7.03 
  -4  -9  -6    3.95    5.62 
   9  -4  -6   -3.21    4.37 
   4   9  -6    4.90    2.54 
   4  -9  -6    3.54    5.48 
  -9   4  -6    1.40    5.21 
   9  -4  -6    5.50    4.31 
  -9   4  -6   -3.63    4.03 
   9  -4  -6   -6.40    3.71 
   9   5  -6  454.98   43.51 
   5  -9  -6  452.67   45.69 
  -9   5  -6  402.74   44.79 
  -5  -9  -6  442.34   45.24 
   5  -9  -6  477.89   44.54 
  -9   5  -6  454.15   44.38 
   9   5  -6  483.88   41.60 
   5   9  -6  479.52   37.47 
   9  -5  -6  423.31   44.20 
   6  -9  -6   -5.95    5.56 
   9   6  -6   -3.79    3.39 
   6   9  -6    0.03    2.92 
  -9   6  -6   -1.68    5.33 
  -6  -9  -6   -5.12    4.84 
   9   6  -6   -0.33    4.56 
  -9   6  -6   -0.87    4.05 
   9  -6  -6    6.32    5.87 
  -7  -9  -6  320.81   33.99 
   9   7  -6  317.55   30.24 
  -9   7  -6  279.62   32.10 
   7  -9  -6  248.79   35.06 
   7   9  -6  339.93   28.30 
   9  -7  -6  297.91   33.83 
   9   7  -6  309.24   32.81 
  -9   8  -6   25.21    7.95 
   8  -9  -6    7.52    7.13 
  -9   8  -6   40.61   11.22 
   9  -8  -6    9.54    6.55 
   9  -8  -6   23.43    9.58 
   9  -9  -6  486.56   49.53 
  10   0  -6  406.99   41.16 
   0  10  -6  459.63   41.46 
  10   0  -6  408.47   40.84 
   0 -10  -6  492.28   43.75 
   0 -10  -6  424.40   44.04 
  -1  10  -6   11.41    5.95 
   1 -10  -6   -5.98    5.06 
  10   1  -6   13.03    5.71 
  10  -1  -6   16.78    7.17 
  10   1  -6   22.72    8.71 
   1  10  -6   14.90    6.45 
  -1 -10  -6   15.11    7.56 
   1 -10  -6    6.94    7.11 
  10  -1  -6    4.92    4.80 
   2  10  -6  605.03   55.09 
   2 -10  -6  588.59   56.58 
  10  -2  -6  641.96   55.64 
  -2 -10  -6  559.30   57.01 
  10   2  -6  657.36   55.44 
   2 -10  -6  591.95   56.63 
  10  -2  -6  605.15   55.07 
  10   2  -6  585.98   53.46 
  10  -2  -6  626.12   53.82 
  10  -3  -6   84.93   15.36 
 -10   3  -6   86.75   15.62 
   3 -10  -6   72.41   15.81 
  -3 -10  -6   80.91   16.20 
  10  -3  -6   77.52   14.59 
  10   3  -6   82.18   13.73 
  10   3  -6   68.03   14.72 
   3  10  -6   63.97    7.95 
  10  -3  -6   72.43   13.28 
   3  10  -6   77.38   14.60 
   3 -10  -6   94.20   17.14 
   4 -10  -6  497.19   44.89 
  10   4  -6  400.36   40.96 
  10  -4  -6  386.53   41.02 
 -10   4  -6  441.42   42.22 
  10   4  -6  394.74   38.87 
  10  -4  -6  434.01   39.44 
  -4 -10  -6  433.65   43.66 
   4  10  -6  417.76   41.30 
   4  10  -6  414.71   34.27 
   4 -10  -6  421.64   42.50 
  10   5  -6   10.49    5.28 
  10   5  -6   17.64    8.30 
   5  10  -6    6.13    3.55 
   5 -10  -6    1.51    6.45 
 -10   5  -6   -4.70    5.30 
  -5 -10  -6   11.83    7.02 
  10  -5  -6    6.95    6.95 
   5 -10  -6    5.93    8.23 
 -10   5  -6   -1.94    5.12 
 -10   6  -6  533.73   49.12 
 -10   6  -6  563.23   50.81 
  10  -6  -6  519.50   50.03 
  -6 -10  -6  489.12   50.23 
  10   6  -6  488.35   45.78 
  10   6  -6  489.37   47.56 
   6 -10  -6  481.43   50.74 
   6  10  -6  498.62   41.65 
  10  -7  -6   12.21    7.60 
  10   7  -6   42.32   11.80 
  10  -7  -6   35.38   10.86 
 -10   7  -6   24.13    8.48 
 -10   7  -6   14.99    7.89 
  -7 -10  -6   32.03   10.80 
   7 -10  -6   14.14    8.72 
  10  -8  -6  223.32   27.49 
  10  -8  -6  195.24   29.13 
   8 -10  -6  248.59   32.05 
  10  -9  -6   17.39   10.15 
   9 -10  -6   25.61   10.15 
  11   0  -6    4.48    5.64 
  11   0  -6   -1.32    4.22 
   0  11  -6   -0.19    4.67 
   0 -11  -6    0.09    5.35 
  11  -1  -6  310.88   33.40 
   1 -11  -6  325.38   34.82 
  11  -1  -6  350.92   34.00 
  -1 -11  -6  297.62   37.15 
  11   1  -6  298.66   35.05 
   1  11  -6  295.75   32.49 
  11   1  -6  351.09   33.35 
   1 -11  -6  344.74   36.16 
  11  -2  -6   28.12    9.44 
   2 -11  -6   23.83   10.34 
  -2 -11  -6   26.49    9.52 
  11  -2  -6   35.75    9.66 
  11   2  -6   29.17    8.56 
  11   2  -6   36.91   10.84 
   2  11  -6   32.96    9.39 
   2 -11  -6   28.78   10.96 
  11  -3  -6  435.00   43.35 
   3 -11  -6  489.05   48.14 
  -3 -11  -6  468.97   48.51 
  11  -3  -6  482.89   45.89 
   3  11  -6  465.22   45.88 
   3 -11  -6  484.83   47.95 
  11   3  -6  476.80   44.07 
  11   3  -6  517.18   46.72 
  -4 -11  -6   -3.91    5.43 
   4  11  -6    4.27    5.90 
  11  -4  -6    1.53    6.37 
   4  11  -6    0.52    2.50 
  11  -4  -6    1.56    5.17 
   4 -11  -6    3.27    6.82 
  11   4  -6    0.63    4.50 
  11   4  -6   -4.06    4.36 
   4 -11  -6   16.50    8.60 
  -5 -11  -6  326.30   37.27 
   5  11  -6  303.03   32.56 
   5 -11  -6  314.21   33.65 
   5 -11  -6  309.92   36.30 
  11  -5  -6  309.50   32.86 
   5  11  -6  272.19   25.11 
  11  -6  -6   24.17    9.66 
  11  -6  -6   18.12    8.70 
   6 -11  -6   31.20   11.45 
   7 -11  -6  287.51   34.94 
  11  -7  -6  234.02   31.96 
  11  -7  -6  278.41   31.82 
   0  12  -6  520.35   49.27 
  12  -1  -6   11.23    5.51 
   1  12  -6    3.87    6.45 
  12   1  -6   10.28    5.72 
   2  12  -6  313.04   32.36 
   2 -12  -6  284.08   34.71 
   3 -12  -6   -1.39    7.12 
   4 -12  -6  233.45   31.25 
  12  -5  -6   14.08    7.90 
   5 -12  -6   -2.96    7.78 
  12  -5  -6   14.13    7.87 
   6 -12  -6  204.28   28.70 
  12  -6  -6  189.55   26.38 
  12  -6  -6  177.41   25.51 
  13  -1  -6  244.82   30.64 
  13  -2  -6    7.05    5.84 
   3 -13  -6  257.23   32.49 
   0   0  -5    1.80    2.90 
   0   0  -5    0.47    1.66 
   0   0  -5   -0.36    1.56 
   0   1  -5 1800.69  128.51 
   1   0  -5 1504.87  122.81 
  -1   0  -5 1358.32  127.27 
   1   0  -5 1512.94  122.81 
   0   1  -5 1856.71  122.90 
  -1   0  -5 1434.91  123.10 
   0  -1  -5 1793.53  123.85 
   0  -1  -5 1765.55  127.68 
   1   0  -5 1366.50  126.28 
   1  -1  -5   68.82   10.27 
   1  -1  -5   67.37    8.61 
   1   1  -5   63.76    7.29 
  -1  -1  -5   77.51    9.25 
   1  -1  -5   68.10   10.27 
  -1   1  -5   76.75   12.56 
   1   1  -5   59.54   10.11 
  -1   1  -5   78.68    6.54 
  -1   1  -5   71.14    7.74 
  -1  -1  -5   73.76   11.71 
  -1   1  -5   73.83    8.55 
   0   2  -5   -3.30    1.45 
   0  -2  -5    1.28    2.30 
   0  -2  -5   -2.29    2.59 
  -2   0  -5    1.24    3.52 
   2   0  -5   -3.61    2.45 
   2   0  -5    0.76    2.01 
   0  -2  -5   -0.72    2.42 
   0   2  -5    0.43    1.50 
   0   2  -5    7.94    4.82 
  -2   0  -5   -2.68    1.80 
   2   0  -5    2.66    2.94 
  -2  -1  -5 1438.33  105.01 
   1   2  -5 1345.03  102.26 
  -1  -2  -5 1256.24  107.64 
  -2   1  -5 1283.16  109.32 
  -2  -1  -5 1376.28  108.90 
   1  -2  -5 1280.08  107.87 
  -2   1  -5 1397.24  104.46 
  -1  -2  -5 1289.15  104.51 
  -1  -2  -5 1212.56  107.33 
   2  -1  -5 1348.72  106.34 
  -1   2  -5 1401.28  104.69 
   2  -1  -5 1307.34  103.96 
   2  -1  -5 1388.70  108.05 
   1  -2  -5 1331.19  106.94 
   1  -2  -5 1261.49  104.22 
   2   1  -5 1396.62  102.91 
  -1   2  -5 1389.69  102.89 
   1   2  -5 1310.66  107.73 
  -2   1  -5 1439.95  103.75 
  -1   2  -5 1269.63  103.35 
  -1   2  -5 1233.66  108.74 
   2   1  -5 1373.49  106.66 
  -2   2  -5 1234.01   92.65 
   2   2  -5 1290.56   96.42 
   2  -2  -5 1171.74   93.69 
  -2  -2  -5 1186.77   94.27 
   2   2  -5 1218.33   91.48 
  -2   2  -5 1214.47   99.16 
   2  -2  -5 1176.82   95.74 
  -2   2  -5 1146.52   93.70 
  -2   2  -5 1262.59   93.50 
  -2  -2  -5 1149.80   97.43 
   2  -2  -5 1055.81   96.57 
   3   0  -5 1538.79  117.68 
  -3   0  -5 1562.40  114.96 
   0  -3  -5 1325.55  117.33 
  -3   0  -5 1513.35  119.11 
   3   0  -5 1673.46  115.87 
   0  -3  -5 1282.34  113.84 
   3   0  -5 1638.28  113.45 
   0  -3  -5 1280.77  116.62 
   0   3  -5 1369.45  111.24 
   3   1  -5  599.46   48.88 
   3   1  -5  650.47   52.29 
  -3  -1  -5  661.79   54.49 
  -1   3  -5  628.60   50.00 
   1  -3  -5  605.75   50.69 
  -3  -1  -5  601.41   50.90 
   3  -1  -5  589.82   49.95 
   3  -1  -5  611.67   50.78 
  -3   1  -5  663.45   51.36 
  -3   1  -5  642.64   55.27 
   3   1  -5  655.19   51.07 
  -1   3  -5  637.20   48.28 
   1  -3  -5  629.57   52.28 
  -1  -3  -5  604.68   50.79 
  -1  -3  -5  562.31   51.98 
   1  -3  -5  598.50   52.50 
  -1  -3  -5  589.79   52.60 
   3  -1  -5  591.26   52.27 
   3   2  -5  969.57   74.41 
  -2   3  -5 1006.37   75.00 
   3  -2  -5  859.28   76.19 
   2   3  -5 1030.94   79.29 
  -2  -3  -5  936.59   77.03 
  -3   2  -5  833.82   76.91 
   2  -3  -5 1001.98   79.94 
  -2  -3  -5  972.81   78.94 
   2  -3  -5  991.62   76.99 
   3  -2  -5  987.58   77.70 
  -3  -2  -5  918.59   80.06 
  -3   2  -5  880.37   81.39 
   2  -3  -5  990.83   78.43 
   3   2  -5  974.37   77.64 
  -3  -2  -5  900.34   77.02 
  -2   3  -5 1064.38   76.63 
   3   2  -5  966.47   78.64 
   3  -2  -5  935.35   79.55 
  -2  -3  -5 1004.25   80.02 
   3  -3  -5  132.89   16.05 
   3   3  -5  117.77   10.79 
   3  -3  -5   97.66   13.85 
  -3   3  -5  138.88   12.13 
   3  -3  -5  126.10   14.59 
  -3  -3  -5  116.76   14.52 
   3   3  -5  138.70   14.18 
  -3  -3  -5  144.07   14.68 
  -3  -3  -5  124.06   16.76 
   4   0  -5   -2.36    1.89 
  -4   0  -5    2.56    3.76 
   4   0  -5    0.84    2.56 
   0  -4  -5    1.42    2.33 
   0   4  -5    1.30    1.06 
   0  -4  -5    2.83    3.39 
   4   0  -5    0.78    1.95 
   0   4  -5    1.06    2.33 
   0  -4  -5   -0.85    2.49 
  -4   0  -5   -3.74    1.66 
   4   1  -5 1123.69   96.77 
   1  -4  -5 1446.70   99.03 
  -1  -4  -5 1398.23   95.59 
  -1  -4  -5 1384.78   98.38 
   4  -1  -5 1105.19   94.02 
  -4   1  -5 1023.74   98.99 
   1  -4  -5 1373.99   95.55 
  -1   4  -5 1418.50   92.16 
   4   1  -5 1058.27   94.22 
   4  -1  -5 1096.44   94.63 
  -4  -1  -5  981.29   97.71 
   1  -4  -5 1368.48   97.63 
   4   1  -5 1115.36   93.20 
  -1  -4  -5 1339.48   97.76 
  -4   1  -5 1038.57   95.25 
  -4  -1  -5 1031.94   94.94 
   4  -1  -5 1097.87   97.30 
  -4  -2  -5    2.81    4.18 
   2  -4  -5   -0.82    3.11 
  -4   2  -5    4.84    3.63 
   4  -2  -5   -0.01    2.42 
   4   2  -5    2.68    2.63 
   2  -4  -5    0.32    2.46 
   4  -2  -5   -1.24    2.96 
  -4  -2  -5    0.21    2.60 
  -2  -4  -5    2.74    3.63 
  -4   2  -5   -2.75    4.00 
  -2  -4  -5    1.22    2.73 
   4   2  -5    4.71    3.86 
   4  -2  -5    0.69    2.50 
  -2   4  -5    3.20    2.92 
   4   2  -5   -1.54    2.35 
  -2  -4  -5   -4.24    2.86 
   2  -4  -5    2.72    3.79 
  -3   4  -5 1053.30   81.84 
   4   3  -5 1026.07   81.71 
   4   3  -5 1037.62   79.13 
   4  -3  -5 1026.62   82.37 
   3  -4  -5  993.45   83.03 
  -4   3  -5 1052.02   83.52 
  -3  -4  -5 1088.18   83.67 
  -3  -4  -5  942.50   81.95 
   4   3  -5 1083.31   83.02 
  -4   3  -5 1048.43   87.57 
   3  -4  -5  965.86   84.50 
  -4  -3  -5  984.21   84.70 
   3  -4  -5  930.85   81.62 
   4  -3  -5 1003.67   84.64 
   4  -3  -5 1031.32   81.85 
  -4  -3  -5 1043.23   82.50 
  -3  -4  -5  974.77   84.47 
   4   4  -5    8.64    2.72 
  -4  -4  -5   12.67    4.54 
   4  -4  -5   15.74    5.16 
   4  -4  -5   12.45    5.39 
  -4  -4  -5   19.17    5.39 
  -4  -4  -5   10.52    5.40 
   4   4  -5   14.68    4.72 
   4  -4  -5    9.72    4.77 
  -4   4  -5   14.50    4.25 
   4   4  -5   11.89    5.08 
   5   0  -5 1251.37   88.09 
   0  -5  -5 1007.94   90.53 
   5   0  -5 1219.60   87.69 
   0   5  -5 1002.79   84.03 
  -5   0  -5 1143.56   92.66 
  -5   0  -5 1338.95   91.17 
   5   0  -5 1182.34   90.57 
   0  -5  -5 1000.64   88.00 
   0   5  -5 1071.42   88.90 
   0  -5  -5  984.14   90.25 
   5  -1  -5  426.63   38.23 
  -5   1  -5  447.50   42.16 
  -1   5  -5  466.03   38.11 
  -5  -1  -5  434.11   41.08 
  -1   5  -5  453.43   35.36 
   1  -5  -5  432.93   40.03 
   5   1  -5  408.16   38.54 
  -5   1  -5  436.54   39.99 
  -1  -5  -5  441.87   40.02 
   5  -1  -5  466.64   38.30 
   1  -5  -5  418.16   39.57 
  -1  -5  -5  451.43   39.61 
   5  -1  -5  418.06   39.37 
  -1  -5  -5  426.65   38.33 
  -5  -1  -5  458.45   39.62 
   1  -5  -5  439.73   38.47 
   5  -1  -5  472.22   36.89 
   5   1  -5  430.78   37.21 
   5   1  -5  463.43   38.84 
   2  -5  -5  838.39   74.72 
   5  -2  -5  943.50   77.24 
   5   2  -5  984.91   75.93 
   5   2  -5 1034.69   74.96 
  -5  -2  -5  952.20   78.26 
   5   2  -5  999.65   73.44 
   5  -2  -5  971.40   73.68 
  -2  -5  -5  790.70   76.47 
   5  -2  -5  922.18   74.75 
  -2  -5  -5  862.96   76.22 
   5  -2  -5 1039.73   74.47 
  -2  -5  -5  841.19   74.50 
  -5  -2  -5 1063.09   76.70 
   2  -5  -5  807.84   76.71 
   2  -5  -5  741.79   75.54 
  -5   2  -5 1029.47   81.01 
  -5   2  -5 1065.07   77.85 
  -2   5  -5  844.28   74.70 
   5   3  -5   71.56   12.47 
  -3   5  -5   89.39   10.81 
  -5  -3  -5   70.93   12.87 
  -3  -5  -5   81.56   13.55 
   3  -5  -5   79.04   13.01 
  -5  -3  -5   70.08   11.93 
  -5   3  -5   74.90   14.68 
  -5   3  -5   68.99   12.56 
   5  -3  -5   75.75   10.36 
   5  -3  -5   74.93   11.76 
  -3  -5  -5   88.28   12.12 
   5   3  -5   85.97    9.86 
   5  -3  -5   72.10   11.25 
   3  -5  -5   75.93   11.95 
   5  -3  -5   70.61   12.16 
   5   3  -5   98.34   11.50 
  -3  -5  -5   76.82   11.37 
   3  -5  -5   85.32   12.67 
   5  -4  -5  977.49   85.45 
   5   4  -5  998.57   88.73 
   5  -4  -5  979.14   88.50 
   5  -4  -5  957.39   91.02 
  -4  -5  -5 1420.33   93.52 
  -5  -4  -5 1044.23   89.10 
   5  -4  -5 1020.07   88.95 
   5   4  -5  904.34   86.45 
   4  -5  -5 1427.63   91.52 
   4  -5  -5 1307.22   93.37 
   5   4  -5  983.49   85.84 
   4  -5  -5 1333.85   90.31 
   4   5  -5 1361.59   88.69 
  -5  -4  -5  993.59   91.22 
   5  -5  -5   56.47   10.57 
   5   5  -5   61.98   11.75 
   5  -5  -5   78.38   13.27 
   5  -5  -5   62.11   10.11 
   5   5  -5   67.85    8.73 
   5  -5  -5   80.37   11.99 
  -5  -5  -5   66.04   12.44 
   0  -6  -5    6.10    3.51 
   6   0  -5    6.23    4.28 
  -6   0  -5   -5.11    3.32 
   0   6  -5    1.77    2.97 
   0  -6  -5    3.34    3.33 
  -6   0  -5    4.02    3.96 
   0   6  -5    2.28    1.64 
   0  -6  -5   -0.43    2.80 
   6   0  -5    2.75    3.38 
   6   0  -5   -2.36    2.38 
   6   1  -5  671.03   60.30 
  -1  -6  -5  862.77   64.92 
  -6  -1  -5  751.70   63.32 
  -6   1  -5  715.62   63.71 
  -1   6  -5  840.25   62.12 
   6  -1  -5  677.03   62.31 
   6   1  -5  684.96   60.64 
  -1  -6  -5  844.59   63.67 
   6  -1  -5  685.10   60.42 
   1  -6  -5  811.54   64.10 
  -6   1  -5  640.45   64.27 
   1  -6  -5  800.82   63.93 
   6   1  -5  702.05   61.96 
  -6  -1  -5  717.82   64.17 
   6  -1  -5  678.79   61.02 
   1  -6  -5  802.69   62.07 
   2  -6  -5  557.53   48.16 
   2  -6  -5  519.90   48.99 
  -2  -6  -5  591.72   48.95 
  -6  -2  -5  573.50   49.30 
   2  -6  -5  557.32   49.89 
   6   2  -5  518.21   47.48 
   6  -2  -5  544.22   49.09 
   6   2  -5  581.79   46.74 
  -2   6  -5  572.05   47.84 
  -2  -6  -5  512.91   49.34 
   6  -2  -5  528.20   46.75 
   6   2  -5  558.41   47.67 
  -6   2  -5  578.84   50.37 
  -6  -2  -5  606.45   50.68 
   6  -2  -5  545.82   47.84 
  -6   2  -5  590.93   52.28 
   6   3  -5  811.43   63.34 
   6  -3  -5  830.83   65.65 
  -3  -6  -5  658.12   64.56 
  -6  -3  -5  939.75   66.92 
   6  -3  -5  849.58   62.02 
  -3  -6  -5  657.18   62.87 
  -6   3  -5  850.00   66.12 
   3  -6  -5  658.90   63.62 
   3   6  -5  654.19   60.60 
  -3   6  -5  672.05   62.52 
   6   3  -5  792.76   61.30 
   3  -6  -5  671.27   62.54 
  -6   3  -5  869.51   68.48 
   6  -3  -5  887.91   64.36 
   3  -6  -5  640.35   64.76 
  -6  -3  -5  862.15   65.01 
   4  -6  -5   29.56    8.01 
  -4  -6  -5   43.74   10.38 
   6  -4  -5   38.21    9.50 
   4  -6  -5   44.08    7.48 
  -6  -4  -5   50.01   10.51 
   4  -6  -5   40.10    9.25 
   6  -4  -5   47.97    9.09 
   4   6  -5   37.64    5.80 
   6   4  -5   53.58   10.45 
   4   6  -5   50.51    9.64 
  -4   6  -5   48.35    8.61 
   6   4  -5   41.97    7.83 
   6  -4  -5   50.05    9.73 
   4  -6  -5   27.18    8.32 
   6  -5  -5  565.41   48.27 
   5   6  -5  545.63   46.80 
  -5  -6  -5  501.14   48.90 
   6   5  -5  572.09   45.58 
   6  -5  -5  593.76   45.68 
   6   5  -5  559.02   47.28 
   5  -6  -5  485.26   49.15 
  -6  -5  -5  576.93   49.33 
   6  -5  -5  531.86   49.47 
   5   6  -5  520.05   44.09 
   5  -6  -5  492.19   47.11 
   6   6  -5   36.18    9.28 
  -6  -6  -5   50.97   11.49 
   6  -6  -5   46.07    9.76 
   6  -6  -5   48.16   11.45 
   6   6  -5   43.87    8.15 
   0  -7  -5  499.38   49.72 
   7   0  -5  560.01   48.21 
   7   0  -5  558.17   48.66 
  -7   0  -5  580.45   51.33 
   0  -7  -5  506.88   49.18 
  -7   0  -5  642.55   51.60 
   0   7  -5  571.80   48.79 
   7   0  -5  592.80   48.83 
   1   7  -5   87.27    7.53 
  -7  -1  -5   88.44   14.39 
   7  -1  -5   70.98   12.65 
   1  -7  -5   63.37   12.79 
  -7  -1  -5   59.09   12.69 
   7   1  -5   76.73   12.02 
   7  -1  -5   86.58   12.94 
   7   1  -5   94.05   12.24 
  -1  -7  -5   79.84   14.20 
  -1  -7  -5   80.10   12.77 
   7   1  -5   74.96   13.13 
  -7   1  -5   73.05   13.91 
  -7   1  -5   89.54   15.27 
   1   7  -5   84.76   12.51 
  -1   7  -5   87.20   12.19 
   1  -7  -5   86.41   13.85 
   7  -1  -5   70.59   12.19 
  -7   2  -5  526.00   56.33 
   7   2  -5  581.52   54.72 
  -7   2  -5  550.91   57.77 
   2   7  -5  786.37   54.46 
   2  -7  -5  716.97   58.17 
  -2  -7  -5  795.33   57.29 
   7  -2  -5  550.50   54.83 
   7  -2  -5  619.73   56.82 
   2  -7  -5  720.24   58.10 
  -7  -2  -5  628.97   57.14 
   7  -2  -5  568.53   53.77 
   7   2  -5  571.87   53.86 
  -7  -2  -5  627.23   56.99 
  -2   7  -5  821.01   57.02 
  -2  -7  -5  781.28   59.36 
   3  -7  -5   49.40   10.18 
  -7   3  -5   37.80   10.52 
   3   7  -5   40.68    8.63 
  -3  -7  -5   35.76    9.50 
   7  -3  -5   36.78    8.34 
  -7  -3  -5   51.38   10.68 
  -7   3  -5   39.22    9.35 
   7   3  -5   33.20    7.78 
   3   7  -5   40.65    4.56 
  -3   7  -5   39.90    8.48 
   3  -7  -5   42.70    9.85 
   7   3  -5   33.72    8.75 
   7  -3  -5   33.04    7.98 
   7  -3  -5   27.23    7.94 
   4   7  -5  431.41   42.91 
   7   4  -5  565.33   44.17 
  -4  -7  -5  450.54   46.41 
   4   7  -5  436.50   40.02 
   4  -7  -5  404.30   44.92 
  -7  -4  -5  614.14   47.55 
   7  -4  -5  611.78   44.36 
   7   4  -5  570.38   45.92 
  -7   4  -5  612.14   50.27 
   7  -4  -5  625.33   46.84 
  -4   7  -5  461.61   44.31 
   4  -7  -5  399.58   45.98 
   7  -4  -5  577.85   47.73 
  -7   4  -5  552.95   47.60 
   7  -5  -5    9.38    4.67 
   7  -5  -5    8.43    5.93 
   7  -5  -5    9.61    5.01 
  -7  -5  -5   -3.03    3.88 
   7   5  -5    7.57    5.71 
  -5  -7  -5   12.61    6.71 
   5  -7  -5    8.73    6.83 
   7   5  -5    9.54    4.33 
   5   7  -5   -3.19    3.70 
   5  -7  -5   14.61    5.76 
   5   7  -5    9.08    3.29 
   6   7  -5  349.53   35.53 
  -7  -6  -5  474.34   38.93 
   7  -6  -5  426.33   39.40 
   7   6  -5  467.32   37.96 
   6  -7  -5  313.10   37.38 
   6   7  -5  334.74   32.63 
   7   6  -5  477.65   35.66 
  -6  -7  -5  343.78   37.01 
   6  -7  -5  326.00   35.55 
   7  -7  -5   88.56   16.91 
  -7  -7  -5  115.98   17.53 
   7   7  -5   83.54   15.25 
   7   7  -5   96.83   13.25 
   8   0  -5    0.27    3.15 
   8   0  -5    8.98    4.70 
   0  -8  -5   -1.05    3.72 
  -8   0  -5    4.58    5.01 
   8   0  -5    4.94    5.17 
   0  -8  -5    3.23    4.79 
   0   8  -5    4.75    3.65 
  -8   0  -5   -4.17    3.22 
   1  -8  -5  535.29   52.18 
   1   8  -5  512.44   50.88 
  -8   1  -5  760.19   56.45 
   8  -1  -5  711.58   52.46 
   8   1  -5  661.45   51.47 
  -8  -1  -5  680.74   53.05 
   8  -1  -5  654.59   51.46 
  -1  -8  -5  480.41   50.46 
  -1  -8  -5  479.76   52.09 
  -8   1  -5  661.59   53.61 
   8  -1  -5  625.43   51.70 
  -1   8  -5  490.32   50.19 
   1  -8  -5  492.44   52.47 
   8   1  -5  658.23   52.07 
   8   2  -5    7.54    4.48 
   2   8  -5    7.64    2.40 
  -8   2  -5   14.17    6.62 
  -2   8  -5    5.61    4.34 
  -8  -2  -5    5.67    4.87 
  -2  -8  -5    6.11    5.30 
   2  -8  -5    8.78    5.89 
  -8   2  -5    0.72    5.58 
   8  -2  -5    5.26    4.79 
   2   8  -5    3.15    4.25 
   8  -2  -5    7.29    4.97 
   8  -2  -5   12.23    5.87 
   2  -8  -5    2.62    4.30 
   8   2  -5    5.71    4.70 
   8  -3  -5  416.76   43.93 
   8  -3  -5  453.78   42.84 
  -8   3  -5  450.05   46.20 
  -3  -8  -5  522.57   46.79 
  -8  -3  -5  437.17   44.27 
   3  -8  -5  609.15   48.18 
  -8   3  -5  411.96   45.03 
   8   3  -5  482.32   44.80 
   8  -3  -5  424.04   44.63 
   3  -8  -5  571.08   47.40 
  -3   8  -5  607.96   45.47 
   8   3  -5  434.65   42.77 
   3   8  -5  552.70   39.09 
   8  -4  -5   56.68   12.43 
   8  -4  -5   86.40   14.10 
   8   4  -5   57.04   10.99 
   8  -4  -5   87.65   13.50 
   8   4  -5   66.04   13.20 
  -4   8  -5   74.56   12.58 
  -4  -8  -5   50.46   12.40 
  -8   4  -5   83.53   15.49 
  -8   4  -5   67.91   13.70 
  -8  -4  -5   64.83   12.52 
   4   8  -5   73.60    7.58 
   4  -8  -5   57.99   13.54 
   4  -8  -5   53.44   11.84 
   8  -5  -5  383.96   39.00 
   8   5  -5  413.16   37.99 
   8   5  -5  397.93   36.11 
  -8  -5  -5  404.79   38.35 
   8  -5  -5  415.04   35.91 
  -8   5  -5  360.91   38.36 
  -8   5  -5  386.23   39.97 
   8   6  -5   22.34    9.15 
   6   8  -5   52.13    8.05 
   6  -8  -5   41.68    9.92 
   6  -8  -5   33.81   11.21 
  -6  -8  -5   35.07   10.08 
  -8  -6  -5   35.77    9.17 
   8  -6  -5   32.54   10.64 
   8   6  -5   49.83    9.46 
   7   8  -5  291.48   29.99 
  -7  -8  -5  292.31   33.72 
   8  -7  -5  427.26   37.84 
   8   7  -5  437.88   36.37 
   8   7  -5  406.46   33.12 
   7  -8  -5  257.87   35.68 
   8   8  -5    5.04    4.75 
   8  -8  -5    8.09    6.58 
   8  -8  -5    5.97    5.49 
   9   0  -5  551.69   49.49 
   9   0  -5  554.45   49.82 
  -9   0  -5  567.06   50.27 
  -1  -9  -5   36.04   11.36 
   9   1  -5   58.38   12.64 
   1  -9  -5   55.20   12.17 
   9   1  -5   72.28   12.15 
  -9   1  -5   67.04   12.34 
  -1  -9  -5   56.29   11.12 
   9  -1  -5   41.16   10.13 
  -1   9  -5   59.86   11.19 
   9  -1  -5   61.03   11.70 
  -9  -1  -5   56.12   11.11 
   1  -9  -5   70.93   14.33 
   9  -1  -5   64.79   12.20 
   1   9  -5   53.92   11.29 
   9  -2  -5  410.94   38.42 
   9   2  -5  447.40   39.14 
   2   9  -5  395.73   33.91 
  -9  -2  -5  442.78   39.30 
   9  -2  -5  458.65   40.34 
  -9   2  -5  422.75   40.40 
  -2   9  -5  403.64   38.84 
  -9   2  -5  481.87   42.85 
   2  -9  -5  353.30   40.14 
  -2  -9  -5  358.17   40.20 
   9  -2  -5  469.02   40.49 
   2   9  -5  394.76   39.01 
   2  -9  -5  416.45   41.23 
   9   2  -5  484.44   40.71 
  -3  -9  -5    0.00    5.51 
   9   3  -5   -7.57    2.54 
   3   9  -5    7.96    5.51 
  -9   3  -5   11.57    5.26 
   3   9  -5    1.51    2.23 
   3  -9  -5    0.89    4.07 
  -3   9  -5    1.41    3.97 
   9  -3  -5    4.35    4.43 
   9  -3  -5   -2.28    3.92 
   9   3  -5    7.53    4.36 
  -9   3  -5    3.81    5.04 
   3  -9  -5    4.88    5.85 
   9  -3  -5    2.15    4.91 
   9  -4  -5  510.75   41.66 
   4  -9  -5  344.77   40.02 
  -9   4  -5  496.05   42.17 
   9   4  -5  562.49   42.19 
   4  -9  -5  360.43   39.39 
   4   9  -5  362.61   33.39 
  -4   9  -5  375.92   38.54 
  -4  -9  -5  349.73   39.65 
  -9   4  -5  562.11   43.69 
   5   9  -5    6.65    2.98 
   5  -9  -5    1.20    5.03 
   9   5  -5   12.00    6.56 
  -5  -9  -5    8.38    7.19 
  -9   5  -5    8.74    6.45 
  -9   5  -5    7.06    5.93 
   5  -9  -5   14.02    7.30 
   9  -5  -5   10.34    6.07 
   9   5  -5    4.48    4.34 
   6  -9  -5  222.27   30.24 
   9   6  -5  230.76   25.22 
   6   9  -5  231.38   21.82 
  -6  -9  -5  260.97   29.61 
   6  -9  -5  254.47   26.92 
  -9   6  -5  225.77   28.52 
   9   6  -5  284.04   29.62 
  -9   6  -5  243.46   29.99 
   9  -6  -5  221.87   29.08 
   7   9  -5    2.79    3.71 
   9   7  -5   12.18    5.76 
   7  -9  -5    8.58    7.72 
   9   7  -5    7.94    6.76 
  -7  -9  -5    4.12    5.14 
   9  -7  -5   21.70    8.22 
   9  -7  -5    7.42    5.82 
   9  -8  -5  158.92   25.18 
   9  -8  -5  126.95   21.78 
   9   8  -5  152.21   20.58 
   8  -9  -5  201.16   27.42 
   8   9  -5  245.42   21.04 
   9  -9  -5    4.95    5.40 
   0  10  -5    3.45    4.30 
  10   0  -5   -5.95    3.98 
   0 -10  -5   -2.23    5.37 
   0 -10  -5    8.88    4.93 
  10   0  -5   -2.62    4.91 
  10   1  -5  359.72   31.92 
  -1  10  -5  278.64   30.65 
  -1 -10  -5  255.28   33.83 
  10  -1  -5  425.45   33.88 
  10  -1  -5  336.48   31.73 
   1 -10  -5  251.28   33.10 
   1  10  -5  276.08   30.47 
   1 -10  -5  268.62   31.33 
  10   1  -5  366.99   32.87 
   2 -10  -5   40.57   11.68 
  -2 -10  -5   42.15   11.23 
   2  10  -5   35.20    9.67 
  10  -2  -5   50.12   11.57 
  10  -2  -5   41.55   10.05 
  -2  10  -5   38.59    9.83 
  10   2  -5   35.23   10.48 
  10  -2  -5   57.31   11.85 
   2 -10  -5   57.34   12.68 
  10   2  -5   49.65    9.89 
   3  10  -5  379.86   28.10 
  10  -3  -5  270.35   32.42 
  10   3  -5  283.78   31.57 
  10  -3  -5  278.00   32.61 
   3 -10  -5  375.80   36.18 
  -3  10  -5  388.03   33.81 
  10  -3  -5  291.20   31.42 
  -3 -10  -5  370.30   36.12 
  10   3  -5  244.80   33.43 
   3  10  -5  366.75   34.09 
   3 -10  -5  346.08   35.33 
   4  10  -5   16.48    4.42 
   4 -10  -5   20.16    9.16 
  10  -4  -5    9.13    5.29 
   4 -10  -5   16.99    7.97 
  -4  10  -5   29.76    8.31 
  10   4  -5   25.88    8.96 
  10  -4  -5   12.74    6.41 
  10   4  -5   19.75    6.47 
  -4 -10  -5   10.50    6.47 
   4  10  -5   24.56    8.60 
   5 -10  -5  224.81   29.49 
  10  -5  -5  204.17   27.52 
   5  10  -5  221.69   20.26 
  -5 -10  -5  261.49   29.73 
   5 -10  -5  227.83   27.89 
 -10   5  -5  227.47   27.56 
  10   5  -5  224.53   24.24 
  10   5  -5  209.57   27.69 
 -10   5  -5  203.35   27.06 
   6  10  -5   43.33    7.48 
   6 -10  -5   24.28   10.82 
 -10   6  -5   42.29    9.75 
  10  -6  -5   45.38   11.09 
  10   6  -5   45.65   10.44 
 -10   6  -5   46.00   10.18 
  -6 -10  -5   18.09    8.40 
  10  -6  -5   31.70   10.22 
  10   6  -5   53.46   13.65 
   6 -10  -5   31.06    9.81 
  10  -7  -5  167.81   23.88 
 -10   7  -5  182.36   25.79 
 -10   7  -5  195.76   25.68 
  10   7  -5  181.38   24.94 
   7 -10  -5  155.56   26.01 
  10   7  -5  174.83   23.07 
  10  -7  -5  193.39   26.27 
   7  10  -5  190.26   18.87 
  -7 -10  -5  173.39   24.61 
  10  -8  -5   -5.32    5.53 
   8 -10  -5   -3.38    6.01 
  10  -8  -5   11.27    7.54 
  10  -9  -5  126.63   21.96 
   9 -10  -5  117.74   21.74 
  11   0  -5  261.20   28.71 
  11   0  -5  308.45   27.85 
   0 -11  -5  192.72   28.41 
   0  11  -5  181.75   25.28 
   1 -11  -5    4.93    5.89 
  11   1  -5    2.68    4.41 
  11  -1  -5    8.29    5.34 
   1 -11  -5    3.13    5.73 
  11  -1  -5    1.26    5.25 
   1  11  -5    2.92    5.19 
  11   1  -5   -1.03    5.47 
  -1  11  -5    4.10    4.93 
  -1 -11  -5    6.48    5.88 
  11   2  -5  215.39   25.35 
  -2  11  -5  225.94   25.86 
   2 -11  -5  186.62   27.51 
  11   2  -5  195.16   26.81 
   2 -11  -5  214.37   27.10 
   2  11  -5  169.30   24.31 
  11  -2  -5  279.74   26.86 
  -2 -11  -5  195.23   27.62 
  11  -2  -5  213.52   26.28 
   3 -11  -5   82.68   16.08 
  11   3  -5   73.10   13.24 
   3  11  -5   60.98    8.71 
  11  -3  -5   74.88   14.22 
   3 -11  -5   79.53   16.49 
   3  11  -5   66.44   13.86 
  11   3  -5   80.50   16.26 
  11  -3  -5   56.98   12.70 
  -3 -11  -5   61.24   14.36 
  -3  11  -5   78.25   14.15 
  -4 -11  -5  216.91   27.41 
   4  11  -5  164.18   23.42 
  11   4  -5  178.50   25.29 
   4  11  -5  207.76   17.16 
  11  -4  -5  143.22   22.33 
  11   4  -5  118.11   20.28 
   4 -11  -5  184.58   25.78 
   4 -11  -5  177.19   25.38 
  11  -4  -5  146.27   21.06 
   5 -11  -5   17.06    7.93 
  11  -5  -5    7.56    6.86 
  -5 -11  -5   17.68    8.27 
   5  11  -5   18.32    8.40 
   5 -11  -5    7.92    7.55 
  11  -5  -5   -1.90    5.83 
   5  11  -5   14.47    4.79 
  11   5  -5    3.37    5.05 
  11   5  -5   11.63    8.64 
  11   6  -5  194.61   25.48 
  11  -6  -5  139.39   22.10 
   6 -11  -5  144.26   23.02 
  11  -6  -5  165.92   23.91 
  -6 -11  -5  162.25   24.45 
   6 -11  -5  154.28   24.65 
  11  -7  -5   38.63   11.39 
   7 -11  -5   38.82   13.04 
  11  -7  -5   36.54   11.04 
   8 -11  -5  104.32   20.54 
  11  -8  -5  136.48   21.95 
  11  -8  -5  130.27   20.72 
   0 -12  -5    0.31    6.66 
  12   0  -5    4.49    5.30 
   0  12  -5   -3.30    4.30 
  12   0  -5    3.25    4.69 
  12  -1  -5  175.98   25.22 
   1 -12  -5  268.31   31.87 
  12   1  -5  168.51   25.43 
   1  12  -5  277.46   26.53 
  12   1  -5  154.83   23.85 
  -1  12  -5  253.57   25.68 
  -1 -12  -5  269.67   31.10 
  12  -1  -5  154.00   24.39 
   2 -12  -5   14.17    9.16 
  -2 -12  -5    7.97    7.25 
  12  -2  -5    8.73    6.03 
  -2  12  -5    7.83    6.01 
  12  -2  -5    2.75    5.54 
   2  12  -5    7.90    6.21 
  12   2  -5   15.63    6.59 
  12   2  -5    4.18    6.13 
   2 -12  -5    8.34    7.79 
  -3  12  -5  171.34   24.26 
   3  12  -5  174.49   24.43 
  12   3  -5  245.33   27.85 
  -3 -12  -5  162.57   25.92 
   3 -12  -5  154.34   25.43 
  12   3  -5  220.96   24.94 
   3 -12  -5  163.64   25.15 
  12  -3  -5  199.90   25.69 
  12  -4  -5  -12.03    3.79 
   4 -12  -5    9.64    7.26 
   5 -12  -5  117.44   21.57 
  12  -5  -5  166.73   22.00 
  12  -5  -5  107.65   19.52 
  12  -6  -5   10.09    7.68 
  12  -6  -5   15.41    8.05 
   6 -12  -5    8.12    8.05 
   7 -12  -5  130.00   22.03 
  12  -7  -5  129.62   20.62 
  12  -7  -5   97.81   19.11 
  13   0  -5  235.66   30.01 
  13   0  -5  253.25   29.58 
  13  -1  -5   -6.14    4.58 
  13   1  -5   -1.42    5.09 
  13  -2  -5  122.63   19.71 
  13   2  -5   93.61   17.75 
  13  -3  -5    8.83    7.74 
   3 -13  -5    8.12    7.09 
  13   3  -5   -3.49    6.17 
   4 -13  -5  215.76   25.27 
  13  -4  -5   81.70   17.42 
  13   4  -5  104.27   18.98 
   5 -13  -5   -4.64    7.51 
  13  -5  -5    3.30    6.39 
   0   0  -4 8156.93  657.82 
   0   0  -4 8753.09  645.48 
   0   0  -4 8681.72  645.54 
   0  -1  -4   -1.23    2.26 
   0   1  -4    0.13    1.34 
   0   1  -4    4.77    3.46 
   1   0  -4    0.29    1.51 
  -1   0  -4    0.54    1.46 
   0  -1  -4    1.71    1.60 
  -1   0  -4   -1.64    2.54 
   1   0  -4   -2.79    1.66 
   0   1  -4    0.74    1.31 
  -1  -1  -4 1875.81  153.15 
   1   1  -4 2022.63  147.70 
  -1   1  -4 2053.66  150.36 
   1  -1  -4 1910.68  153.41 
  -1   1  -4 1937.86  148.64 
   1  -1  -4 1842.08  152.01 
   1   1  -4 1963.59  152.66 
   1  -1  -4 1797.91  148.52 
  -1  -1  -4 1990.81  149.22 
  -1   1  -4 1888.61  154.04 
  -1   1  -4 1990.14  148.13 
   2   0  -4 1618.39  132.37 
   2   0  -4 1721.77  137.17 
   0  -2  -4 1732.63  133.53 
  -2   0  -4 1595.12  137.55 
   2   0  -4 1760.03  135.69 
   0   2  -4 1860.29  131.49 
   0  -2  -4 1792.97  137.44 
  -2   0  -4 1722.97  133.64 
   0  -2  -4 1709.06  136.52 
   2   1  -4   40.00    5.30 
   2   1  -4   49.79    7.63 
   2  -1  -4   66.09    8.96 
  -1  -2  -4   52.45    7.97 
   1  -2  -4   43.78    7.93 
  -2   1  -4   67.25   11.27 
  -2   1  -4   57.21    6.72 
  -1   2  -4   54.21    5.65 
   2  -1  -4   50.91    6.98 
   2  -1  -4   61.67    7.77 
   1  -2  -4   38.39    6.82 
  -1  -2  -4   55.32    9.08 
  -2   1  -4   54.53    7.67 
  -2  -1  -4   50.27    9.34 
  -1   2  -4   61.26    6.14 
  -2   1  -4   59.05    5.13 
   1   2  -4   52.07    9.03 
  -2  -1  -4   49.36    7.51 
   1  -2  -4   51.74    8.04 
  -1  -2  -4   52.13    7.46 
  -2   2  -4 3329.87  261.01 
   2  -2  -4 3318.14  261.60 
  -2  -2  -4 3271.34  263.08 
  -2  -2  -4 3293.62  257.60 
   2   2  -4 3345.76  255.02 
   2  -2  -4 3344.00  257.26 
   2  -2  -4 3479.18  264.68 
   2   2  -4 3406.21  261.86 
  -2   2  -4 3543.44  256.32 
   3   0  -4   -0.43    1.73 
   3   0  -4   -2.35    1.45 
  -3   0  -4   -1.33    1.82 
   0  -3  -4    3.80    2.64 
   3   0  -4   -2.25    2.23 
  -3   0  -4    0.08    3.07 
   0  -3  -4    2.80    2.95 
   0  -3  -4    1.02    2.83 
   3   1  -4 3096.17  249.20 
  -1  -3  -4 3288.65  248.67 
  -3   1  -4 3139.44  246.88 
   1  -3  -4 3412.91  250.50 
  -3  -1  -4 3099.68  243.88 
  -1  -3  -4 3306.04  249.78 
   3  -1  -4 3192.01  250.01 
  -1   3  -4 3288.43  247.49 
  -1   3  -4 3379.65  241.35 
   1  -3  -4 3087.65  243.40 
  -3   1  -4 3011.47  250.40 
   3   1  -4 3152.84  241.99 
  -3   1  -4 3054.55  244.18 
  -3  -1  -4 3213.32  245.89 
  -1  -3  -4 3030.00  243.47 
   3  -1  -4 3216.31  243.19 
   1  -3  -4 3075.86  247.75 
   3  -1  -4 3174.66  246.59 
   3   1  -4 3208.38  246.50 
   3  -2  -4    2.51    2.97 
  -2   3  -4    7.77    2.45 
   2  -3  -4    4.34    3.05 
   3  -2  -4    7.40    3.01 
  -2   3  -4    6.48    2.43 
  -3  -2  -4    8.76    3.43 
   2  -3  -4    7.35    3.26 
  -3  -2  -4    7.22    4.02 
   2  -3  -4   10.06    3.50 
  -2  -3  -4    6.29    2.96 
   3  -2  -4    3.60    2.71 
  -3   2  -4    5.62    2.15 
  -3   2  -4    1.44    3.84 
  -2  -3  -4    5.81    2.73 
  -3   2  -4    5.50    2.14 
  -2  -3  -4    5.71    3.63 
   3   2  -4    4.41    1.94 
   3   2  -4    5.06    2.91 
   3   2  -4   12.51    3.58 
  -3   2  -4    2.25    2.91 
  -3   3  -4  854.51   70.59 
  -3  -3  -4  849.87   70.93 
   3  -3  -4  922.90   73.70 
   3  -3  -4  889.29   70.92 
   3   3  -4  917.20   67.83 
   3  -3  -4  866.60   71.64 
  -3  -3  -4  894.81   73.18 
   3   3  -4  857.73   67.84 
  -3  -3  -4  908.11   71.97 
   4   0  -4 2718.55  205.50 
  -4   0  -4 2529.72  201.45 
   4   0  -4 2693.77  199.92 
   0  -4  -4 2612.58  200.62 
  -4   0  -4 2340.41  205.38 
   4   0  -4 2603.17  201.75 
   0  -4  -4 2669.25  205.79 
  -4   0  -4 2682.99  202.39 
   0  -4  -4 2559.36  204.32 
  -4  -1  -4  727.88   60.09 
   4  -1  -4  728.79   58.94 
   4   1  -4  747.88   58.06 
  -4   1  -4  777.62   59.32 
   1  -4  -4  734.14   59.28 
  -1  -4  -4  704.93   59.11 
  -4  -1  -4  750.46   57.86 
  -1  -4  -4  647.58   60.49 
   4  -1  -4  730.99   60.99 
   1  -4  -4  758.91   61.50 
  -1  -4  -4  749.64   60.73 
  -4   1  -4  713.13   62.94 
  -1   4  -4  714.32   56.58 
  -4   1  -4  765.93   60.85 
  -4  -1  -4  682.42   61.63 
  -1   4  -4  760.25   59.51 
   1  -4  -4  738.88   60.84 
   4   1  -4  728.70   60.11 
   4  -1  -4  691.45   58.34 
   4   1  -4  738.95   58.07 
   4  -2  -4 2787.07  222.61 
  -4   2  -4 2762.23  223.76 
  -4   2  -4 2768.83  218.57 
  -4  -2  -4 2789.39  218.71 
  -4  -2  -4 2807.12  221.76 
  -2  -4  -4 2986.60  221.67 
  -2  -4  -4 2779.96  216.76 
   4   2  -4 2658.23  211.57 
   4   2  -4 2784.34  221.08 
  -2   4  -4 2861.41  220.18 
  -2  -4  -4 2793.64  221.22 
   4  -2  -4 2954.31  219.08 
   4   2  -4 2742.43  214.87 
  -2   4  -4 2925.56  214.86 
  -4   2  -4 2687.85  219.65 
   2  -4  -4 2902.56  222.99 
   4  -2  -4 2736.75  216.59 
   2  -4  -4 2830.12  216.97 
   2  -4  -4 2874.70  220.75 
  -4  -2  -4 2751.28  217.20 
   4   2  -4 2938.16  218.34 
   3  -4  -4   59.09    9.17 
  -3  -4  -4   47.34    9.69 
  -3  -4  -4   53.88    8.42 
  -4  -3  -4   52.18    9.87 
  -4   3  -4   52.54    7.61 
  -3  -4  -4   56.22    9.10 
   3  -4  -4   58.47    9.33 
   4  -3  -4   48.66    8.73 
   3  -4  -4   50.78    9.76 
   4  -3  -4   49.76    8.13 
   4   3  -4   60.93    8.20 
   4   3  -4   61.89    7.81 
  -3   4  -4   65.56    8.45 
   4   3  -4   48.97    9.10 
  -4  -3  -4   54.14    9.15 
   4  -3  -4   56.13    9.83 
  -4  -3  -4   59.43    7.04 
   4   3  -4   54.97    6.70 
  -4  -4  -4 3196.82  237.64 
   4  -4  -4 2969.78  233.36 
   4  -4  -4 3072.15  240.01 
  -4  -4  -4 3044.39  238.06 
   4  -4  -4 2995.11  236.50 
   4   4  -4 2977.49  229.98 
   4   4  -4 2902.22  227.44 
  -4   4  -4 3018.27  236.94 
   4  -4  -4 3075.48  226.12 
   4   4  -4 3021.09  230.55 
  -4  -4  -4 3037.61  233.46 
   0   5  -4    0.10    2.47 
   0  -5  -4   -0.97    2.43 
   5   0  -4    0.65    2.53 
   5   0  -4    2.88    1.74 
   0  -5  -4   -2.98    2.02 
   0  -5  -4   -1.97    2.50 
   0   5  -4    2.97    1.27 
  -5   0  -4    4.27    2.65 
  -5   0  -4    2.71    3.66 
   5   0  -4   -0.41    2.13 
  -5   0  -4   -4.65    1.99 
   5   0  -4   -1.93    1.90 
   5  -1  -4 2107.43  160.01 
  -1   5  -4 2053.00  157.26 
  -5  -1  -4 2022.26  160.95 
  -1  -5  -4 2223.13  164.04 
   5   1  -4 2073.22  163.06 
  -5   1  -4 1893.91  164.68 
  -5  -1  -4 2093.85  161.52 
   1  -5  -4 2059.23  160.11 
  -5   1  -4 2157.84  162.53 
  -5  -1  -4 1985.92  163.94 
   5   1  -4 1927.10  158.97 
   5  -1  -4 2098.09  163.93 
   5  -1  -4 2136.28  156.59 
   5   1  -4 2037.54  156.79 
  -1  -5  -4 2042.63  159.94 
   1  -5  -4 2179.84  164.66 
  -1   5  -4 2115.90  162.56 
   1  -5  -4 2098.75  163.50 
  -5   1  -4 1909.63  161.53 
   5  -1  -4 1953.59  159.67 
  -1  -5  -4 2060.25  163.52 
  -5   2  -4   34.79    8.36 
  -2  -5  -4   57.59    8.50 
  -5  -2  -4   45.98    6.24 
   2  -5  -4   42.53    8.55 
  -5   2  -4   46.78    7.81 
   5   2  -4   37.26    8.22 
   5  -2  -4   32.99    7.33 
  -5  -2  -4   45.94    9.28 
   5   2  -4   51.66    7.43 
   2  -5  -4   32.25    7.30 
   5  -2  -4   59.40    9.61 
  -5   2  -4   36.07    9.81 
   5   2  -4   53.28    7.84 
  -5  -2  -4   38.46    8.12 
  -2   5  -4   49.67    8.01 
  -2  -5  -4   41.93    7.88 
   2  -5  -4   33.69    8.10 
  -2  -5  -4   35.70    8.24 
   5  -2  -4   37.28    7.58 
   5  -2  -4   52.46    6.75 
   3  -5  -4 2140.24  162.16 
  -3   5  -4 2023.57  163.92 
  -3  -5  -4 2197.78  161.98 
  -5   3  -4 2079.68  164.05 
   5   3  -4 1922.40  159.78 
   3  -5  -4 2131.61  166.94 
   5  -3  -4 2098.18  162.20 
  -5  -3  -4 2129.10  165.42 
  -3  -5  -4 2200.22  164.61 
   5  -3  -4 2022.46  166.22 
   3   5  -4 2038.29  157.40 
  -5  -3  -4 2044.66  162.36 
   5  -3  -4 2114.92  162.89 
   5   3  -4 1937.35  158.11 
   3  -5  -4 2064.14  164.53 
   5  -3  -4 2104.83  157.33 
   5   3  -4 2104.20  163.95 
  -5  -3  -4 2069.53  162.87 
  -3  -5  -4 2076.29  165.21 
   5   4  -4   -0.18    3.24 
  -4   5  -4    7.64    3.58 
   4   5  -4   -1.40    1.87 
  -5  -4  -4    9.93    3.50 
   5   4  -4    4.46    3.03 
   4  -5  -4    5.15    3.22 
   4   5  -4    1.88    3.55 
  -4  -5  -4    1.81    3.56 
   5  -4  -4    2.74    2.95 
   4  -5  -4    6.22    4.11 
   5  -4  -4    2.21    3.09 
   5  -4  -4   -0.54    2.85 
   4   5  -4    3.04    1.93 
   4  -5  -4   -1.77    1.86 
   5  -4  -4    1.82    2.20 
  -5  -4  -4   -1.44    2.61 
  -5   4  -4    1.15    2.59 
   4  -5  -4    4.26    3.74 
   5   5  -4  671.94   57.91 
   5  -5  -4  707.02   59.47 
  -5  -5  -4  756.70   61.03 
   5  -5  -4  699.36   56.28 
   5   5  -4  703.39   57.20 
   5  -5  -4  701.48   59.31 
  -5  -5  -4  729.34   58.72 
   5  -5  -4  718.93   61.92 
  -5   5  -4  684.74   59.26 
   0  -6  -4 1992.02  148.49 
  -6   0  -4 1926.25  150.24 
   6   0  -4 1872.65  145.19 
   0  -6  -4 1909.98  151.75 
   0   6  -4 1931.95  150.98 
  -6   0  -4 1851.57  151.80 
  -6   0  -4 1887.42  150.49 
   0  -6  -4 1990.17  152.25 
   0   6  -4 2020.56  145.54 
   6   0  -4 1622.69  147.43 
   6   0  -4 1852.76  150.99 
  -1  -6  -4  115.71   16.03 
  -1  -6  -4  108.11   14.01 
  -6   1  -4   86.99   15.27 
   1  -6  -4  112.29   14.48 
  -6   1  -4  122.24   17.25 
   6  -1  -4  117.68   14.62 
   6  -1  -4   91.87   14.13 
  -6  -1  -4   98.63   12.29 
   1  -6  -4  121.27   15.29 
  -6  -1  -4  107.55   15.52 
   6   1  -4  119.22   15.45 
   6   1  -4  103.59   13.44 
   1  -6  -4  113.41   15.60 
  -1   6  -4  124.97   14.04 
   6   1  -4  114.70   12.87 
  -6  -1  -4  128.53   16.75 
   1   6  -4  125.87    9.84 
   6  -1  -4  113.57   14.39 
  -6   1  -4  132.05   13.93 
   1   6  -4  120.79   10.35 
   6   2  -4 1601.73  133.69 
  -6  -2  -4 1766.46  138.15 
  -6  -2  -4 1685.48  135.59 
  -6  -2  -4 1763.65  136.52 
   2   6  -4 1704.38  130.68 
   6  -2  -4 1664.02  135.26 
   2  -6  -4 1815.51  139.40 
  -6   2  -4 1709.77  137.61 
   6  -2  -4 1680.13  138.32 
  -6   2  -4 1669.58  139.69 
  -6   2  -4 1707.35  137.29 
  -2   6  -4 1712.73  137.15 
   6  -2  -4 1745.94  131.70 
   2  -6  -4 1829.41  135.28 
   6   2  -4 1569.06  132.05 
   2  -6  -4 1671.17  137.76 
  -2  -6  -4 1787.46  138.72 
   6   2  -4 1750.85  136.68 
  -2  -6  -4 1830.20  137.41 
  -6  -3  -4    7.78    4.45 
   3   6  -4   12.58    4.81 
   3  -6  -4   13.21    4.71 
   6  -3  -4   10.23    4.18 
   3  -6  -4    9.66    4.84 
  -6  -3  -4   12.65    4.16 
   6   3  -4   13.26    4.63 
   3  -6  -4   10.24    5.11 
   3   6  -4   14.07    2.71 
  -3  -6  -4   10.60    5.09 
   6  -3  -4    9.64    4.61 
  -3   6  -4   16.84    4.98 
   6  -3  -4   12.08    4.71 
  -6   3  -4    6.27    4.04 
   6   3  -4    9.74    4.81 
  -3  -6  -4   14.43    4.15 
  -6  -3  -4   17.34    5.36 
   3   6  -4   12.65    2.51 
  -4  -6  -4 1158.37  100.56 
   6  -4  -4 1243.31   99.25 
   4   6  -4 1196.18   95.02 
   6  -4  -4 1272.71   95.30 
   6   4  -4 1235.83   96.96 
   6   4  -4 1246.40   97.41 
   4  -6  -4 1231.62  102.39 
  -6   4  -4 1226.64   99.80 
   4  -6  -4 1229.05  100.34 
  -6  -4  -4 1274.40  100.79 
  -4   6  -4 1257.13   99.94 
   4  -6  -4 1235.99   93.73 
  -6  -4  -4 1236.91   98.56 
   6  -4  -4 1224.03  101.76 
   6  -4  -4 1169.79   98.25 
   4   6  -4 1219.59   96.06 
  -5   6  -4   20.54    6.44 
  -6   5  -4   16.04    5.48 
  -6  -5  -4   20.01    6.36 
   6  -5  -4   27.61    5.74 
   5  -6  -4   13.24    6.73 
   6  -5  -4   10.75    5.40 
  -6  -5  -4   20.16    5.39 
   6   5  -4    9.19    4.67 
   6   5  -4   24.26    6.99 
  -5  -6  -4   11.06    5.66 
   5  -6  -4   21.20    6.80 
   6  -5  -4   11.32    5.27 
   5   6  -4   13.14    5.87 
   6  -5  -4   16.20    5.44 
   5   6  -4   17.77    4.76 
  -6   6  -4 1364.13  113.09 
   6  -6  -4 1366.30  112.49 
   6   6  -4 1405.42  109.60 
  -6  -6  -4 1391.33  113.45 
   6  -6  -4 1413.71  115.86 
   6   6  -4 1390.27  109.49 
  -6  -6  -4 1385.33  112.17 
   7   0  -4   -0.24    2.22 
   7   0  -4   -1.12    2.74 
  -7   0  -4   -0.45    3.36 
   0  -7  -4    2.16    3.69 
   0  -7  -4    0.90    3.20 
  -7   0  -4    0.27    3.48 
   0   7  -4    1.66    3.22 
   7   0  -4   -1.62    3.25 
  -1  -7  -4 1019.60   82.18 
  -7  -1  -4 1019.45   83.46 
   1   7  -4  968.53   76.61 
   7  -1  -4 1016.65   81.61 
  -7  -1  -4 1049.78   83.10 
   1   7  -4 1047.88   82.60 
  -1  -7  -4  988.90   83.52 
   7  -1  -4  956.13   79.19 
   7   1  -4 1004.18   81.42 
  -7   1  -4 1033.18   83.76 
   7   1  -4  951.08   80.46 
  -1   7  -4  945.15   81.70 
   7  -1  -4  986.37   82.20 
   1  -7  -4  980.20   83.63 
   7   1  -4  960.50   79.76 
  -7   1  -4 1005.41   83.84 
   1  -7  -4 1024.34   83.33 
  -7   2  -4  103.87   13.79 
  -2   7  -4   86.63   12.92 
   2   7  -4   89.37    8.61 
  -2  -7  -4   99.05   15.04 
   7  -2  -4   89.58   13.88 
  -2  -7  -4   96.98   12.39 
   7   2  -4  105.26   13.49 
  -7   2  -4  107.07   16.47 
   7   2  -4   79.71   13.80 
  -7  -2  -4   82.98   13.33 
   7  -2  -4  100.76   13.87 
   2  -7  -4  102.27   15.22 
   2   7  -4  118.31   13.22 
   2  -7  -4   84.51   14.33 
  -7   2  -4   91.71   15.71 
   7  -2  -4   87.81   13.48 
   3   7  -4 1244.14   96.59 
   3  -7  -4 1213.40  103.53 
   7  -3  -4 1308.31   98.64 
  -7   3  -4 1292.24  103.80 
   7  -3  -4 1226.00  101.62 
  -7  -3  -4 1313.41  102.93 
  -7   3  -4 1211.82  102.52 
  -7   3  -4 1229.59  104.93 
   3  -7  -4 1282.41  104.93 
   7   3  -4 1232.49   99.86 
   7  -3  -4 1251.04  103.91 
   7   3  -4 1276.40  100.59 
  -3  -7  -4 1191.17  103.37 
  -3   7  -4 1249.45  102.44 
   3   7  -4 1349.61   98.29 
  -4   7  -4    7.67    4.83 
   4  -7  -4    1.90    4.10 
   7   4  -4    7.96    5.67 
  -4  -7  -4   10.69    5.33 
   4   7  -4   15.54    5.06 
   4   7  -4    2.61    2.46 
  -7  -4  -4    6.06    4.80 
   7  -4  -4    5.30    5.01 
   7  -4  -4    3.15    3.84 
  -7   4  -4    9.85    4.70 
   7   4  -4   13.92    5.23 
   7  -4  -4    3.44    3.78 
   4  -7  -4   12.40    5.59 
   5  -7  -4 1256.92  112.46 
  -7  -5  -4 1416.45  110.46 
   7  -5  -4 1298.34  112.30 
   7   5  -4 1318.14  106.91 
  -5   7  -4 1393.69  110.84 
   5   7  -4 1413.49  106.85 
   5   7  -4 1304.24  105.16 
  -7   5  -4 1399.83  110.81 
   7   5  -4 1401.51  108.28 
   5  -7  -4 1267.85  110.23 
   7  -5  -4 1436.48  105.13 
  -5  -7  -4 1305.33  110.91 
  -7  -6  -4   19.50    7.09 
  -7   6  -4   10.01    5.06 
   6  -7  -4   12.48    6.21 
   6   7  -4    5.71    5.95 
   6  -7  -4   15.26    6.03 
   7   6  -4    7.27    5.79 
  -6  -7  -4   15.74    5.91 
   6   7  -4   14.27    4.59 
   7  -6  -4    1.16    5.19 
   7   6  -4   15.34    5.68 
  -6   7  -4   10.10    4.71 
  -7  -7  -4  510.48   43.85 
   7   7  -4  434.97   40.61 
   7  -7  -4  429.21   44.92 
  -7   7  -4  492.73   43.61 
   7   7  -4  483.81   43.05 
   8   0  -4 1378.93  109.99 
  -8   0  -4 1358.69  110.00 
  -8   0  -4 1430.51  111.77 
   0   8  -4 1294.01  109.99 
   8   0  -4 1296.79  106.59 
   0  -8  -4 1428.49  112.53 
   8   0  -4 1324.78  108.76 
   0  -8  -4 1331.73  110.83 
   8   1  -4    0.62    4.04 
   8  -1  -4   -1.34    3.60 
   8   1  -4   13.84    5.51 
  -8  -1  -4    4.29    4.03 
  -8   1  -4    6.55    4.79 
   1  -8  -4    0.70    4.02 
   8  -1  -4    2.36    4.59 
   1   8  -4   -1.37    2.94 
  -1  -8  -4    2.46    3.72 
   1  -8  -4    2.84    4.75 
   1   8  -4    4.13    2.09 
   8  -1  -4    9.27    4.53 
  -1  -8  -4   -2.71    2.97 
  -8   1  -4    1.39    4.42 
  -1   8  -4   -1.60    3.01 
  -8   2  -4 1445.00  118.66 
   8  -2  -4 1426.47  116.36 
  -8  -2  -4 1480.21  117.17 
  -2  -8  -4 1443.84  119.08 
   2  -8  -4 1549.15  120.07 
   2  -8  -4 1427.49  119.24 
   8   2  -4 1353.33  113.78 
   8  -2  -4 1419.97  113.03 
  -8   2  -4 1391.26  118.13 
   2   8  -4 1428.68  118.06 
   2   8  -4 1483.64  111.25 
   8   2  -4 1453.50  115.74 
   8  -2  -4 1442.41  118.38 
  -2   8  -4 1474.32  117.87 
  -8  -3  -4   24.07    6.69 
   8  -3  -4   31.95    7.96 
   3  -8  -4   15.41    6.97 
   8   3  -4   18.29    7.20 
   3   8  -4   15.16    3.58 
   3  -8  -4   14.16    6.18 
   8   3  -4   24.29    6.89 
  -3  -8  -4   11.63    6.39 
  -3   8  -4   15.15    5.74 
  -8   3  -4   12.83    6.34 
   8  -3  -4   14.99    5.90 
   8  -3  -4   12.76    5.87 
  -8   3  -4   15.52    6.27 
   8   4  -4  902.02   71.59 
   4   8  -4  866.49   67.26 
  -8  -4  -4  890.85   72.26 
   4  -8  -4  789.36   72.86 
   8  -4  -4  854.93   69.15 
  -8   4  -4  855.26   74.32 
   4  -8  -4  871.36   74.87 
  -8   4  -4  809.16   73.11 
   8   4  -4  866.59   71.10 
  -4   8  -4  823.40   72.52 
  -4  -8  -4  859.15   73.78 
   8  -4  -4  869.72   72.24 
   8  -4  -4  831.69   73.52 
  -8  -5  -4   50.11    9.96 
   5  -8  -4   47.03   11.43 
   8   5  -4   35.27    8.80 
  -5  -8  -4   33.02    9.38 
   5  -8  -4   44.67   10.78 
   8  -5  -4   41.39   10.63 
   8  -5  -4   42.66    9.00 
   8   5  -4   52.46   11.39 
  -5   8  -4   50.44   10.13 
   5   8  -4   46.34    7.18 
  -6   8  -4  987.51   76.36 
   6  -8  -4  839.99   74.91 
   6   8  -4  863.61   70.72 
   8   6  -4  855.73   73.18 
   8  -6  -4  869.99   77.25 
  -6  -8  -4  908.81   75.85 
   6  -8  -4  835.51   77.65 
   8   6  -4  873.07   73.39 
   8   7  -4   17.96    6.14 
   7   8  -4    9.47    4.47 
  -7  -8  -4    4.79    5.51 
   8  -7  -4    6.98    6.20 
   8   7  -4   13.11    6.69 
  -7   8  -4    5.66    5.28 
   8  -7  -4   11.54    6.85 
   7  -8  -4   10.43    5.34 
   7  -8  -4    6.20    6.10 
   8   8  -4  450.31   40.99 
   8  -8  -4  426.72   44.82 
   8  -8  -4  482.76   42.69 
   9   0  -4   -6.18    3.88 
   0  -9  -4    0.70    3.87 
   0   9  -4    2.88    4.34 
  -9   0  -4    5.04    3.58 
   9   0  -4   -3.60    3.29 
   0  -9  -4   -0.24    4.21 
  -1  -9  -4  952.86   82.18 
   9  -1  -4  988.59   80.06 
   9  -1  -4  928.76   77.43 
  -1   9  -4  923.54   79.72 
  -1  -9  -4  927.17   79.28 
   1  -9  -4 1050.10   81.61 
   9   1  -4  939.16   78.05 
   9  -1  -4  962.30   79.48 
  -9   1  -4  951.21   79.43 
   1   9  -4  864.90   79.73 
   1  -9  -4  958.02   81.96 
   9   1  -4  956.76   79.17 
   9  -2  -4    2.28    3.92 
  -2  -9  -4   -8.99    3.39 
   9  -2  -4    4.00    4.14 
  -2   9  -4    0.41    4.18 
   2  -9  -4   -0.87    4.36 
  -9   2  -4    6.66    5.52 
   9   2  -4    2.33    4.90 
   2  -9  -4    2.38    4.29 
   9   2  -4    5.28    3.92 
   9  -2  -4   -4.00    3.28 
  -9   2  -4   -2.17    3.54 
   2   9  -4   -2.49    3.59 
   2   9  -4    4.29    2.20 
   3  -9  -4  802.07   73.73 
   9  -3  -4  949.95   74.19 
   9   3  -4  803.77   71.10 
   3  -9  -4  838.70   74.38 
   9  -3  -4  929.64   73.55 
  -9   3  -4  852.90   73.78 
   9  -3  -4  830.01   69.76 
   3   9  -4  849.52   73.25 
  -3  -9  -4  867.96   74.47 
  -9   3  -4  883.62   73.40 
   3   9  -4  845.56   66.98 
   9   3  -4  799.28   71.08 
  -3   9  -4  806.28   72.30 
  -9   4  -4   -6.92    3.99 
  -4  -9  -4    3.71    5.04 
   4  -9  -4    3.82    5.97 
   9   4  -4    0.05    3.58 
   9  -4  -4    0.33    3.66 
   9   4  -4   -2.13    4.13 
  -4   9  -4    1.22    4.40 
   9  -4  -4    5.20    4.79 
  -9   4  -4   -0.77    3.94 
   4  -9  -4    3.87    4.41 
   4   9  -4    6.28    3.05 
   9   5  -4  475.55   44.26 
   9   5  -4  487.16   45.23 
   9  -5  -4  445.48   45.96 
  -5   9  -4  447.94   44.67 
   5  -9  -4  495.29   47.70 
   9  -5  -4  541.71   43.68 
  -5  -9  -4  535.59   47.24 
   5  -9  -4  459.37   45.71 
   5   9  -4  502.16   40.62 
   9   6  -4    0.47    5.87 
   9  -6  -4    4.67    5.30 
   9   6  -4   -3.02    3.63 
  -6  -9  -4   -1.11    4.29 
   9  -6  -4    5.27    5.49 
   6  -9  -4   -1.28    5.46 
  -6   9  -4   -1.16    4.08 
   6  -9  -4   -3.29    3.89 
   6   9  -4    1.60    3.08 
  -7   9  -4  669.05   59.63 
  -7  -9  -4  686.71   59.15 
   9   7  -4  680.19   57.83 
   9  -7  -4  601.88   60.01 
   9   7  -4  667.03   57.89 
   7  -9  -4  614.09   60.91 
   9  -7  -4  636.86   57.66 
   7   9  -4  660.30   54.81 
   8  -9  -4   41.87   11.29 
   9   8  -4   25.73    8.11 
   8   9  -4   28.12    7.54 
   9  -8  -4   30.57    9.91 
   9  -8  -4   35.19    9.46 
   9   9  -4  263.31   26.64 
   9  -9  -4  249.51   31.95 
   0 -10  -4  794.12   68.96 
   0 -10  -4  791.43   71.06 
  10   0  -4  854.18   69.39 
  10   0  -4  794.31   67.40 
   0  10  -4  767.70   68.73 
  -1  10  -4    4.43    5.17 
   1 -10  -4    0.63    5.42 
  10   1  -4    1.77    4.02 
  10   1  -4   10.74    5.41 
   1  10  -4   -3.23    3.55 
   1 -10  -4   17.01    6.70 
  10  -1  -4   -1.72    3.04 
  10  -1  -4    5.61    5.07 
  -1 -10  -4    5.94    5.50 
  -2  10  -4  501.74   50.35 
   2 -10  -4  577.00   52.61 
  10  -2  -4  552.80   51.53 
  10   2  -4  618.36   51.34 
   2 -10  -4  507.24   52.46 
   2  10  -4  560.44   51.61 
  -2 -10  -4  570.00   53.39 
  10  -2  -4  582.92   50.14 
   2  10  -4  582.35   46.14 
  10  -2  -4  590.79   51.61 
  -3  10  -4   -1.82    3.97 
  10  -3  -4    2.45    5.33 
   3  10  -4    3.98    2.54 
  10  -3  -4    1.57    4.49 
   3 -10  -4    1.27    5.35 
   3 -10  -4    2.43    6.36 
  10   3  -4   -2.47    3.40 
  10   3  -4   -3.57    5.01 
  -3 -10  -4    2.10    4.54 
   3  10  -4   -3.04    3.91 
  -4 -10  -4  706.83   64.26 
   4 -10  -4  719.93   64.68 
  10   4  -4  747.12   62.68 
   4  10  -4  723.90   57.16 
  -4  10  -4  715.55   63.00 
  10  -4  -4  632.17   62.31 
   4  10  -4  633.58   62.50 
  10  -4  -4  799.22   60.45 
  10   4  -4  718.59   61.83 
   4 -10  -4  670.36   63.41 
  10  -5  -4    7.01    6.47 
  -5  10  -4   13.51    6.80 
  10  -5  -4    7.86    5.95 
  -5 -10  -4    1.46    5.20 
  10   5  -4   19.65    8.18 
   5  10  -4   13.28    4.15 
   5 -10  -4   11.44    6.68 
  10   5  -4   22.39    7.67 
   5 -10  -4   23.98   10.06 
   6 -10  -4  313.08   36.67 
  10   6  -4  294.31   33.60 
  10   6  -4  372.46   35.99 
  -6 -10  -4  354.89   36.10 
  10  -6  -4  385.24   36.02 
  -6  10  -4  376.51   36.62 
   6  10  -4  367.90   31.33 
   6 -10  -4  346.55   35.98 
  10  -6  -4  336.64   36.12 
  10   7  -4   24.37    9.53 
  10  -7  -4   28.76    9.79 
  10   7  -4   12.78    6.88 
   7 -10  -4    8.98    7.89 
   7  10  -4   27.07    7.04 
  10  -7  -4   18.38    8.16 
  10   8  -4  414.85   40.27 
  10  -8  -4  350.28   41.20 
  10  -8  -4  414.82   40.77 
   8  10  -4  479.74   39.05 
  10  -9  -4   11.82    7.73 
   9 -10  -4   10.67    7.95 
  10 -10  -4  252.16   33.06 
   0  11  -4   -2.57    3.16 
  11   0  -4    2.55    4.66 
   0 -11  -4    3.13    4.80 
  11   0  -4    8.38    5.07 
   1 -11  -4  511.23   49.13 
   1  11  -4  491.40   46.28 
   1 -11  -4  468.53   45.97 
  11   1  -4  472.68   45.57 
  -1  11  -4  480.41   46.07 
  11   1  -4  478.29   45.56 
  11  -1  -4  487.37   44.87 
  -1 -11  -4  502.50   48.41 
  11  -1  -4  566.80   47.60 
  11   2  -4    8.17    4.73 
  11  -2  -4   -0.92    3.92 
  11   2  -4    5.95    5.37 
   2 -11  -4    7.86    7.04 
   2 -11  -4    0.63    6.21 
  -2 -11  -4    8.18    6.41 
   2  11  -4   10.69    6.33 
  11  -2  -4    1.45    4.08 
  -2  11  -4    0.47    4.75 
   3  11  -4  389.02   34.61 
  11  -3  -4  408.90   39.62 
  11  -3  -4  427.73   38.39 
  11   3  -4  437.91   40.24 
  -3 -11  -4  390.46   40.99 
  11  -3  -4  367.57   38.98 
   3 -11  -4  435.33   42.42 
   3 -11  -4  438.28   41.60 
  -3  11  -4  396.89   39.36 
   3  11  -4  421.90   40.58 
  11   3  -4  387.88   39.40 
  11   4  -4    9.05    6.34 
   4 -11  -4   -1.66    5.08 
  11   4  -4    2.61    4.74 
  -4  11  -4   -5.55    4.36 
   4 -11  -4   -3.76    4.17 
  11  -4  -4    1.29    4.40 
   4  11  -4   -6.67    3.21 
  11  -4  -4    5.46    6.08 
  -4 -11  -4    0.56    4.49 
   4  11  -4   -0.92    2.61 
  11  -4  -4   -5.92    4.47 
   5  11  -4  561.28   44.36 
  -5  11  -4  518.10   49.16 
   5 -11  -4  498.71   50.64 
  11  -5  -4  469.08   48.06 
   5  11  -4  548.55   50.92 
  11   5  -4  509.55   48.54 
  11  -5  -4  522.35   49.52 
  11   5  -4  562.67   49.73 
   5 -11  -4  494.51   50.01 
  -5 -11  -4  515.70   49.85 
  11   6  -4   19.96   10.15 
   6 -11  -4   29.55   11.13 
   6 -11  -4   35.47   11.10 
   6  11  -4   26.64   10.32 
  11  -6  -4   35.98   10.64 
  11   6  -4   37.30   10.51 
  11  -6  -4   28.88    9.71 
   6  11  -4   63.00    9.69 
  -6 -11  -4   33.27   10.17 
  -6  11  -4   50.13   12.28 
  11   7  -4  243.55   30.51 
   7 -11  -4  242.97   31.61 
  11  -7  -4  252.58   29.93 
  11  -7  -4  247.86   30.31 
   8 -11  -4    4.68    7.74 
  11  -8  -4   13.88    7.69 
  11  -8  -4    9.56    7.01 
  11  -9  -4  196.73   28.17 
   9 -11  -4  200.57   29.49 
  12   0  -4  297.92   34.10 
  12   0  -4  374.67   35.37 
  12   0  -4  350.12   34.82 
   0 -12  -4  330.64   36.99 
   0  12  -4  366.70   35.91 
  12  -1  -4   -1.34    3.99 
  12  -1  -4    6.07    5.28 
   1 -12  -4    6.16    6.92 
  -1 -12  -4    7.28    7.22 
  -1  12  -4    9.01    5.52 
   1  12  -4   20.96    7.57 
  12   1  -4    7.53    6.26 
  12   1  -4    9.57    5.84 
  12   1  -4    2.33    4.95 
  12  -2  -4  486.00   46.03 
   2 -12  -4  546.16   51.46 
  12   2  -4  523.72   48.14 
  -2 -12  -4  518.92   50.43 
  -2  12  -4  542.81   48.77 
   2 -12  -4  481.48   47.91 
  12   2  -4  578.14   49.10 
  12  -2  -4  448.49   47.00 
   2  12  -4  477.69   47.90 
  12   3  -4    1.54    3.81 
  12   3  -4   13.77    7.47 
  -3  12  -4   -2.22    5.01 
  12  -3  -4    4.64    4.90 
   3 -12  -4   -2.98    5.12 
  -3 -12  -4   10.33    6.01 
   3  12  -4    5.24    6.08 
  12   3  -4   -0.73    4.49 
   3 -12  -4   -0.21    6.44 
  12  -3  -4    4.38    6.10 
   4 -12  -4  244.64   32.79 
   4  12  -4  291.75   26.92 
  12   4  -4  337.31   33.20 
  12  -4  -4  212.94   31.20 
  12  -4  -4  375.59   31.84 
   4 -12  -4  266.94   34.68 
  12   4  -4  293.01   31.31 
  -4  12  -4  311.32   32.38 
   4  12  -4  299.23   32.90 
  12   4  -4  329.53   32.34 
  -4 -12  -4  329.03   33.96 
  12  -4  -4  281.12   30.90 
  -5 -12  -4    6.00    6.49 
   5 -12  -4    5.43    6.90 
   5 -12  -4    0.57    6.37 
  12  -5  -4    8.00    5.66 
  -5  12  -4    3.23    5.95 
  12  -5  -4   -5.25    4.91 
  12  -6  -4  350.03   36.72 
  12  -6  -4  331.30   36.02 
  -6  12  -4  403.28   38.33 
   6 -12  -4  323.72   37.82 
  12  -7  -4   -6.59    6.16 
  12  -7  -4   11.93    7.36 
   7 -12  -4    1.97    7.03 
  13   0  -4    0.58    5.17 
   0  13  -4   -2.30    4.78 
  13  -1  -4  282.34   32.97 
  13   1  -4  376.05   35.31 
  13   1  -4  317.14   34.03 
  -1  13  -4  333.09   34.56 
  13   2  -4    5.07    4.84 
  13  -2  -4    7.72    6.09 
  13   2  -4    6.28    5.90 
  -2  13  -4    4.61    5.35 
  13  -3  -4  267.63   34.02 
   3 -13  -4  318.36   34.22 
  13   3  -4  348.26   33.84 
   4 -13  -4    2.42    6.68 
  13  -4  -4    8.52    7.46 
   5 -13  -4  196.80   27.26 
  13  -5  -4  160.39   24.68 
  13  -6  -4    8.31    6.48 
   6 -13  -4    4.48    8.43 
  13  -6  -4    1.84    6.12 
  14   0  -4  241.70   30.41 
  14  -1  -4   -5.75    5.11 
  14   1  -4    4.75    7.16 
  14  -2  -4  193.23   27.21 
  14   2  -4  211.98   27.90 
  14  -3  -4    9.22    7.30 
  14   3  -4   10.89    7.28 
   0   0  -3    5.64    2.61 
   0   0  -3    0.07    1.34 
   0   0  -3    0.81    1.22 
   1   0  -3 1245.67  109.33 
   0   1  -3 1627.62  113.79 
  -1   0  -3 1285.82  109.89 
   0  -1  -3 1538.57  112.93 
   0  -1  -3 1610.32  110.28 
   0   1  -3 1625.54  109.35 
   1   0  -3 1249.39  112.09 
  -1   0  -3 1282.27  113.16 
   1   1  -3  170.56   15.75 
  -1  -1  -3  161.02   16.10 
  -1   1  -3  170.00   13.73 
   1  -1  -3  165.59   15.66 
  -1  -1  -3  161.12   14.79 
   1  -1  -3  159.27   14.49 
   1  -1  -3  168.23   15.32 
  -1   1  -3  163.56   16.95 
   1   1  -3  161.15   13.36 
  -1   1  -3  163.60   14.71 
  -1   1  -3  174.22   14.04 
   0  -2  -3    0.53    2.00 
  -2   0  -3   -2.15    2.45 
   0  -2  -3   -1.76    2.00 
   2   0  -3    2.42    2.23 
   2   0  -3    4.71    3.04 
   0  -2  -3   -2.04    2.02 
   2   0  -3   -2.70    1.46 
  -2   0  -3   -1.23    1.89 
  -1   2  -3 1055.92   84.08 
  -2   1  -3 1090.63   84.09 
  -2   1  -3 1120.54   83.67 
   1  -2  -3 1032.67   85.76 
  -1  -2  -3 1056.03   85.50 
   2  -1  -3 1144.39   84.50 
   2  -1  -3 1140.54   86.01 
   1  -2  -3  963.71   83.11 
   2   1  -3 1082.15   81.91 
  -1  -2  -3  948.24   83.15 
  -1   2  -3 1029.58   81.86 
  -2  -1  -3 1098.83   83.67 
   1  -2  -3 1025.75   84.95 
   2   1  -3 1180.01   84.74 
  -2   1  -3 1031.26   87.01 
  -1  -2  -3 1018.48   85.27 
  -2  -1  -3 1101.96   83.23 
   2  -1  -3 1105.37   83.14 
   2  -2  -3   28.95    5.33 
  -2  -2  -3   30.83    5.56 
   2  -2  -3   39.89    6.68 
  -2   2  -3   38.36    4.84 
   2  -2  -3   29.99    5.34 
  -2  -2  -3   37.79    6.69 
  -2   2  -3   33.07    4.51 
  -3   0  -3 1465.36  121.78 
  -3   0  -3 1555.91  119.21 
   3   0  -3 1558.53  121.13 
   3   0  -3 1544.20  117.65 
  -3   0  -3 1642.90  119.53 
   3   0  -3 1601.17  118.94 
   0  -3  -3 1302.09  121.00 
   3  -1  -3   51.67    8.53 
  -3   1  -3   82.18   10.38 
   1  -3  -3   65.36    9.24 
  -3   1  -3   74.91    7.64 
   1  -3  -3   58.72    8.26 
  -1  -3  -3   64.20    8.42 
  -3  -1  -3   60.55    6.54 
   3   1  -3   78.64    7.40 
  -1  -3  -3   53.82    8.96 
   3   1  -3   70.58    7.14 
  -3   1  -3   66.35   11.07 
  -1   3  -3   67.01    7.53 
  -1   3  -3   65.31    6.38 
  -3  -1  -3   68.48    9.15 
  -3  -1  -3   56.25    9.68 
   3  -1  -3   71.14    7.39 
   1  -3  -3   61.82    9.04 
   3   1  -3   81.01    8.39 
  -1  -3  -3   67.21    8.45 
   3  -1  -3   65.85    8.21 
  -2  -3  -3  842.68   71.11 
  -3  -2  -3  877.37   69.66 
   3  -2  -3  885.79   69.38 
  -2   3  -3  799.15   67.94 
   3  -2  -3  901.49   71.82 
  -3   2  -3  930.10   69.78 
   3  -2  -3  939.81   70.03 
   2  -3  -3  850.97   71.69 
   2  -3  -3  830.55   70.52 
   3   2  -3  911.78   67.66 
   2  -3  -3  807.03   69.23 
  -2   3  -3  854.38   69.85 
  -2  -3  -3  823.40   69.23 
  -3  -2  -3  875.63   71.33 
  -3  -2  -3  887.89   69.19 
   3   2  -3  934.05   70.36 
  -2  -3  -3  874.85   70.42 
   3   2  -3  900.25   69.55 
   3   3  -3  566.27   42.16 
   3  -3  -3  530.65   44.98 
   3   3  -3  534.68   42.30 
  -3  -3  -3  532.45   44.70 
   3   3  -3  525.38   43.88 
   3  -3  -3  526.91   44.73 
  -3  -3  -3  549.21   44.19 
  -3  -3  -3  527.19   45.80 
   3  -3  -3  523.39   46.27 
  -3  -3  -3  560.16   44.67 
  -3   3  -3  572.25   44.84 
   4   0  -3    1.10    1.27 
  -4   0  -3   -1.89    1.68 
   4   0  -3   -0.31    2.14 
   0  -4  -3   -1.74    1.62 
   4   0  -3    0.26    1.80 
   0   4  -3    0.19    2.04 
   0  -4  -3    0.56    2.43 
   0  -4  -3    2.81    2.31 
   4   0  -3    1.70    2.38 
  -4   0  -3   -3.42    1.65 
  -4   0  -3    1.67    2.50 
   4  -1  -3 1038.70   86.61 
  -4   1  -3 1041.05   90.13 
   4   1  -3 1060.05   85.36 
  -4   1  -3 1069.87   88.13 
  -4  -1  -3 1130.53   87.25 
   4   1  -3 1049.95   85.97 
   4   1  -3 1157.02   88.42 
   4  -1  -3 1104.63   85.05 
  -4  -1  -3 1127.75   89.53 
   4  -1  -3 1105.21   86.41 
  -4   1  -3 1113.91   88.79 
   4  -1  -3 1163.02   89.34 
   4   1  -3 1160.40   85.78 
  -4  -1  -3 1089.47   87.76 
  -4  -2  -3   47.68    6.24 
   4   2  -3   54.49    7.03 
   2  -4  -3   35.81    7.39 
  -4  -2  -3   44.07    8.28 
   4  -2  -3   38.04    6.98 
   4   2  -3   55.27    8.83 
  -2   4  -3   45.48    7.05 
   4  -2  -3   44.06    7.94 
  -4   2  -3   53.14    7.22 
   2  -4  -3   42.84    8.37 
   4   2  -3   36.65    6.15 
  -2  -4  -3   44.57    7.22 
   2  -4  -3   41.82    7.49 
  -4  -2  -3   50.79    8.32 
  -2   4  -3   45.58    6.41 
  -2  -4  -3   45.40    6.99 
   4  -2  -3   44.43    6.29 
   4   2  -3   58.21    5.67 
  -2  -4  -3   30.71    7.20 
   4  -2  -3   37.10    7.11 
   3   4  -3 1093.48   97.16 
   4   3  -3 1527.64   98.94 
   4  -3  -3 1590.13  104.27 
  -3   4  -3 1144.98   99.07 
   3  -4  -3 1107.48  101.14 
  -3  -4  -3 1172.46  100.64 
  -3  -4  -3 1059.77  101.25 
  -3  -4  -3 1155.64   99.65 
   3   4  -3 1098.82   97.04 
   4  -3  -3 1543.63  101.35 
  -4  -3  -3 1493.35  100.97 
  -4  -3  -3 1575.93  102.94 
  -4   3  -3 1554.19  101.87 
   3   4  -3 1133.08   96.67 
   3  -4  -3 1092.41  102.69 
  -3  -4  -3 1097.09  100.49 
   4  -3  -3 1475.91  100.86 
   4  -4  -3   24.02    6.70 
  -4  -4  -3   20.98    5.00 
  -4  -4  -3   24.56    5.83 
   4   4  -3   20.75    3.74 
  -4   4  -3   24.42    5.61 
  -4  -4  -3   35.29    6.44 
   4  -4  -3   29.03    6.33 
   4   4  -3   20.33    4.65 
   4   4  -3   27.78    6.43 
   4  -4  -3   24.68    5.01 
   4  -4  -3   22.10    5.67 
   0  -5  -3 1144.98  105.99 
   0   5  -3 1148.18  100.82 
   0   5  -3 1207.70  101.49 
  -5   0  -3 1640.44  107.03 
   0  -5  -3 1153.79  103.36 
   0  -5  -3 1136.39  105.85 
   0   5  -3 1184.40  105.42 
  -5   0  -3 1566.65  107.74 
   5   0  -3 1574.39  102.92 
   5   0  -3 1480.07  104.32 
  -5   0  -3 1642.29  106.70 
  -5   1  -3   50.82    8.21 
   1  -5  -3   44.08    8.30 
  -1  -5  -3   30.06    7.16 
  -1   5  -3   49.00    6.38 
   5  -1  -3   37.54    7.44 
   1  -5  -3   41.86    8.07 
   5   1  -3   46.04    8.64 
  -5   1  -3   44.54    9.36 
   1  -5  -3   41.72    7.51 
   5  -1  -3   42.01    7.58 
  -1  -5  -3   38.54    7.01 
  -1  -5  -3   42.03    7.27 
  -5   1  -3   37.43    8.45 
   1   5  -3   39.41    4.40 
   5   1  -3   53.07    7.74 
   5  -1  -3   43.21    7.83 
  -1   5  -3   36.64    6.93 
  -5  -1  -3   47.19    8.87 
   5  -1  -3   48.55    5.34 
   5   1  -3   59.07    7.46 
   1   5  -3   36.28    3.93 
  -5  -1  -3   41.82    8.26 
  -5  -1  -3   44.86    6.99 
   5   2  -3  703.65   68.25 
   2  -5  -3  947.41   72.80 
   5  -2  -3  753.70   68.94 
  -5  -2  -3  804.20   71.24 
   2  -5  -3  954.34   72.27 
   2   5  -3 1020.45   66.71 
  -2  -5  -3  960.58   72.48 
  -2   5  -3  965.50   69.58 
  -2  -5  -3 1055.01   71.19 
   5   2  -3  723.51   68.68 
   2   5  -3  967.23   68.13 
   5  -2  -3  792.18   71.74 
  -5  -2  -3  806.78   70.55 
   2  -5  -3  976.08   70.44 
  -2  -5  -3 1039.52   70.42 
   2   5  -3  960.35   66.71 
  -5  -2  -3  748.57   69.80 
   5  -2  -3  720.31   67.55 
  -2   5  -3 1035.80   71.82 
   5   2  -3  765.49   69.78 
  -5   2  -3  747.88   70.52 
   5  -2  -3  719.50   69.76 
   3  -5  -3   45.32    9.36 
  -5  -3  -3   53.75    9.05 
   3  -5  -3   54.11    9.43 
   5   3  -3   48.32    7.77 
   3   5  -3   55.24    9.08 
  -5  -3  -3   49.72    7.67 
   5  -3  -3   49.41    7.67 
   3  -5  -3   51.47    6.90 
   3   5  -3   54.85    5.86 
  -3  -5  -3   52.31    7.25 
  -5   3  -3   62.16    8.95 
  -3  -5  -3   50.94    8.20 
  -3  -5  -3   39.37    8.17 
  -5  -3  -3   47.34    8.73 
   5  -3  -3   41.21    7.33 
   3   5  -3   52.19    5.35 
  -3   5  -3   51.49    8.35 
   5  -3  -3   47.14    9.17 
   5  -3  -3   48.36    8.82 
   5   3  -3   68.53    7.34 
   5   3  -3   46.90    9.03 
   3  -5  -3   48.79    8.73 
  -4  -5  -3  934.57   71.07 
   4   5  -3  907.40   67.99 
   5   4  -3  821.99   68.16 
   4  -5  -3  874.37   69.63 
  -5  -4  -3  782.47   69.11 
   5   4  -3  765.91   67.65 
   4  -5  -3  933.80   72.65 
  -4   5  -3  899.13   70.36 
   5  -4  -3  753.74   71.22 
  -5  -4  -3  854.65   70.21 
   5  -4  -3  782.63   69.44 
  -4  -5  -3  866.05   69.51 
   4   5  -3  869.55   67.12 
  -5   4  -3  751.67   69.62 
   5  -4  -3  818.45   66.27 
   4  -5  -3  858.04   70.16 
   4   5  -3  936.27   66.32 
   5  -4  -3  809.01   69.23 
   4  -5  -3  936.66   66.06 
  -5   5  -3   22.74    5.90 
   5  -5  -3   11.67    5.87 
   5  -5  -3   22.32    6.14 
   5   5  -3    8.42    4.51 
  -5  -5  -3   24.06    6.24 
   5  -5  -3   17.37    4.48 
  -5  -5  -3   23.30    5.64 
   5  -5  -3   22.13    5.89 
   5   5  -3   17.94    4.75 
  -6   0  -3    0.25    2.44 
   0  -6  -3    1.99    3.36 
   6   0  -3    4.12    2.61 
  -6   0  -3   -1.21    2.47 
   0   6  -3    1.01    2.01 
   6   0  -3   -2.08    1.86 
   6   0  -3   -0.75    2.13 
   0   6  -3    2.71    3.34 
   0  -6  -3    3.37    2.64 
  -6   0  -3   -1.51    2.50 
   0   6  -3   -0.31    1.40 
   0  -6  -3    0.15    2.70 
   1   6  -3  718.67   59.68 
   6  -1  -3  774.00   61.73 
   6  -1  -3  790.68   63.95 
  -6   1  -3  848.49   65.97 
  -6   1  -3  833.17   64.66 
  -6   1  -3  859.38   65.66 
   1   6  -3  784.78   59.86 
  -1  -6  -3  721.21   64.54 
   1  -6  -3  781.64   62.83 
   6   1  -3  824.77   63.24 
  -1   6  -3  682.34   63.21 
  -6  -1  -3  855.67   64.63 
   1  -6  -3  697.81   64.15 
  -1  -6  -3  724.43   63.23 
   1   6  -3  709.27   63.74 
   6  -1  -3  788.25   63.49 
  -1   6  -3  770.99   61.65 
   1  -6  -3  692.97   64.54 
  -6  -1  -3  800.91   64.75 
  -6  -1  -3  865.34   64.17 
   6   1  -3  774.96   62.74 
   6   1  -3  746.86   62.06 
   1   6  -3  725.63   59.34 
   2  -6  -3   41.79    9.48 
   2   6  -3   62.74    6.35 
  -6  -2  -3   63.86   10.61 
  -2   6  -3   64.80   10.00 
  -6  -2  -3   69.84   10.38 
  -2  -6  -3   56.98   10.60 
   6   2  -3   57.75   10.64 
  -2  -6  -3   55.82    8.46 
  -6   2  -3   70.09   12.53 
   6  -2  -3   65.14   10.37 
  -6   2  -3   58.30   11.21 
  -6   2  -3   62.38   10.14 
   2  -6  -3   73.68   10.39 
   2  -6  -3   56.87   10.58 
   6  -2  -3   65.84   10.57 
   6  -2  -3   55.26    9.37 
  -6  -2  -3   55.54    9.01 
   6   2  -3   69.97    8.31 
   2   6  -3   59.08    6.07 
   6   2  -3   43.48    8.53 
   2   6  -3   52.18    8.63 
  -6  -3  -3  609.86   54.81 
   3  -6  -3  773.38   55.60 
   3  -6  -3  742.13   57.86 
   6   3  -3  595.38   54.13 
   3  -6  -3  659.72   56.03 
   6  -3  -3  582.55   55.90 
   6  -3  -3  605.37   54.75 
   3  -6  -3  756.82   51.01 
  -6   3  -3  591.78   55.07 
   6  -3  -3  592.66   52.67 
   3   6  -3  800.04   53.83 
  -3  -6  -3  746.19   56.88 
  -6  -3  -3  573.99   54.20 
   6  -3  -3  567.13   53.26 
  -3   6  -3  720.59   55.91 
   6   3  -3  588.38   53.92 
   3   6  -3  694.06   51.38 
  -6  -4  -3  177.32   17.60 
   4   6  -3  194.60   18.36 
   6  -4  -3  189.07   18.77 
   6   4  -3  157.30   17.21 
   6  -4  -3  190.97   19.79 
   6   4  -3  178.54   20.15 
  -6   4  -3  186.93   18.43 
   6  -4  -3  166.66   17.22 
   4  -6  -3  146.48   20.21 
  -4  -6  -3  157.38   19.14 
   4  -6  -3  175.14   18.62 
   6  -4  -3  148.34   16.55 
  -6  -4  -3  158.57   17.43 
   4   6  -3  159.98   15.38 
  -4   6  -3  176.65   18.23 
  -5  -6  -3  460.05   44.23 
   6  -5  -3  537.38   44.07 
  -5   6  -3  499.93   44.76 
  -6   5  -3  585.13   45.28 
   5  -6  -3  439.55   45.49 
   5  -6  -3  415.50   43.75 
  -6  -5  -3  538.48   44.14 
   6   5  -3  566.65   43.59 
   6  -5  -3  573.95   45.21 
   6  -5  -3  551.85   46.66 
   6   5  -3  538.65   44.23 
   6  -5  -3  570.32   42.21 
  -5  -6  -3  431.09   43.31 
   5   6  -3  447.09   42.74 
  -6  -5  -3  570.82   44.77 
   5   6  -3  433.02   41.27 
   6   6  -3  411.18   35.75 
   6   6  -3  400.51   33.92 
  -6  -6  -3  397.24   35.50 
  -6   6  -3  375.81   35.77 
  -6  -6  -3  356.21   34.57 
   6  -6  -3  383.38   37.40 
   6  -6  -3  370.94   35.03 
   7   0  -3  695.99   64.08 
  -7   0  -3  796.86   66.59 
  -7   0  -3  809.94   65.19 
  -7   0  -3  792.30   66.00 
   7   0  -3  824.52   64.94 
   7   0  -3  748.45   63.37 
  -7  -1  -3  111.95   14.51 
  -7  -1  -3  138.49   17.32 
   1  -7  -3   99.35   14.24 
   7   1  -3   96.88   14.78 
   1   7  -3  101.65    9.98 
  -1  -7  -3  108.93   13.19 
   7  -1  -3  100.03   14.24 
  -7  -1  -3  139.35   13.84 
   7   1  -3  115.43   12.12 
  -7   1  -3   89.92   14.12 
  -1   7  -3  105.14   13.94 
   1  -7  -3  105.78   15.66 
   7  -1  -3  108.21   14.69 
   7   1  -3  114.90   14.32 
  -1  -7  -3   73.89   13.83 
   7  -1  -3  126.43   14.39 
  -7   1  -3  112.51   14.99 
  -7   1  -3   93.37   15.12 
   1   7  -3   97.67   14.02 
   7   2  -3  813.19   58.04 
  -2  -7  -3  537.64   57.59 
   7   2  -3  798.56   57.81 
   7  -2  -3  761.07   56.33 
  -7   2  -3  827.18   60.03 
   7  -2  -3  834.86   58.84 
   7  -2  -3  763.04   58.85 
   2  -7  -3  532.45   57.60 
  -7   2  -3  803.90   60.42 
  -2  -7  -3  536.92   55.67 
   2   7  -3  570.33   53.03 
  -7  -2  -3  813.94   58.52 
  -7  -2  -3  808.54   57.97 
   2  -7  -3  597.21   58.31 
  -2   7  -3  554.10   56.92 
  -7   2  -3  804.77   59.28 
   2   7  -3  596.27   53.67 
   7  -3  -3  152.07   18.57 
  -3  -7  -3  153.68   19.10 
  -7   3  -3  133.83   17.75 
  -3   7  -3  159.48   17.02 
   7   3  -3  162.35   16.98 
   3   7  -3  140.75   13.63 
   3  -7  -3  153.31   19.28 
   3   7  -3  157.34   17.06 
   7  -3  -3  155.52   18.40 
  -7  -3  -3  156.75   16.46 
  -7  -3  -3  146.64   16.25 
   7  -3  -3  160.41   17.47 
   3  -7  -3  141.99   18.50 
   7   3  -3  130.01   18.25 
  -4  -7  -3  423.54   41.36 
  -7   4  -3  484.85   41.77 
   7   4  -3  511.28   41.07 
   7  -4  -3  501.33   42.97 
  -7  -4  -3  526.57   41.56 
   7  -4  -3  476.13   39.27 
   7   4  -3  489.94   41.42 
  -4   7  -3  399.93   40.89 
   4   7  -3  441.26   39.44 
   4  -7  -3  420.90   41.52 
   4   7  -3  392.04   37.17 
   7  -4  -3  524.23   42.14 
  -7  -4  -3  544.40   41.20 
   4  -7  -3  382.92   42.05 
   5   7  -3  139.25   17.12 
   7  -5  -3  115.85   17.62 
  -5   7  -3  122.89   16.79 
  -5  -7  -3  126.61   16.69 
   5  -7  -3  139.06   15.80 
   7  -5  -3  124.96   14.82 
  -7   5  -3  113.46   16.59 
   7   5  -3  111.02   16.76 
   5  -7  -3  116.07   16.62 
   5  -7  -3  125.52   18.57 
   7   5  -3  143.41   16.52 
  -7  -5  -3  113.35   15.30 
  -7  -5  -3  131.26   15.51 
   5   7  -3  122.93   13.04 
  -6  -7  -3  467.40   39.46 
   7   6  -3  380.14   38.31 
   6   7  -3  442.35   38.95 
  -6   7  -3  497.40   40.50 
   6   7  -3  432.41   36.47 
   6  -7  -3  423.45   39.04 
   6  -7  -3  503.71   39.03 
  -6  -7  -3  448.17   39.08 
  -7   6  -3  388.34   38.94 
   6  -7  -3  397.42   40.76 
   7  -6  -3  382.94   37.97 
   7  -6  -3  382.49   40.47 
   7   6  -3  397.85   37.51 
  -7  -6  -3  398.33   37.91 
  -7  -6  -3  411.65   38.58 
  -7   7  -3   45.56   10.39 
   7  -7  -3   50.95   10.69 
  -7  -7  -3   65.62   11.13 
   7   7  -3   62.94   12.15 
   7  -7  -3   63.24   11.50 
   7  -7  -3   60.93   12.93 
   7   7  -3   57.46   10.07 
  -7  -7  -3   54.73   11.25 
   8   0  -3    4.98    3.84 
  -8   0  -3    2.78    3.86 
   0  -8  -3    3.93    3.89 
   0   8  -3    1.89    3.04 
   8   0  -3    1.37    3.56 
   8   0  -3    4.27    3.63 
  -8   0  -3   -5.94    2.75 
   0  -8  -3    0.12    4.17 
  -8   0  -3   -0.16    2.81 
  -8   1  -3  653.95   49.33 
  -8  -1  -3  615.95   48.91 
  -1  -8  -3  421.34   45.53 
  -8   1  -3  603.80   49.53 
  -1  -8  -3  471.17   48.08 
  -8   1  -3  657.85   48.22 
  -1   8  -3  460.40   46.56 
   8  -1  -3  585.32   46.69 
   8  -1  -3  656.88   48.68 
   1  -8  -3  426.11   46.63 
   1   8  -3  448.70   42.77 
   1   8  -3  470.61   47.05 
   8   1  -3  564.69   47.08 
   8   1  -3  671.91   48.54 
   1  -8  -3  433.60   47.43 
  -8  -1  -3  674.88   47.37 
   8  -1  -3  604.98   47.68 
  -8   2  -3  150.92   20.82 
  -2  -8  -3  142.93   20.13 
   2  -8  -3  159.80   20.39 
   8  -2  -3  152.41   19.15 
   8   2  -3  154.59   19.32 
  -2   8  -3  153.98   19.20 
   2   8  -3  174.80   15.27 
  -8   2  -3  187.83   19.38 
  -8   2  -3  163.93   19.91 
   2   8  -3  176.05   19.12 
  -8  -2  -3  177.69   19.10 
   2  -8  -3  161.58   20.90 
   8   2  -3  166.17   20.71 
   8  -2  -3  159.17   20.17 
   8  -2  -3  158.41   19.29 
  -8  -2  -3  171.17   17.63 
  -3  -8  -3  642.51   51.08 
   8  -3  -3  541.60   48.94 
   3  -8  -3  613.49   50.69 
  -8  -3  -3  576.85   47.40 
   8   3  -3  459.55   47.17 
  -8   3  -3  441.29   48.19 
   8  -3  -3  512.50   46.31 
  -8   3  -3  510.51   48.90 
  -8  -3  -3  522.22   48.38 
   8   3  -3  474.30   47.57 
   3  -8  -3  602.49   50.65 
  -8   3  -3  496.75   49.34 
  -3   8  -3  671.14   50.12 
   8  -3  -3  510.81   48.98 
   3   8  -3  677.18   45.06 
   4   8  -3   44.15    7.00 
   8  -4  -3   48.96    9.77 
  -8   4  -3   46.06   10.22 
   4  -8  -3   47.73   10.54 
   8   4  -3   52.35   10.38 
  -4  -8  -3   27.55    8.78 
  -8  -4  -3   49.26    9.50 
   8   4  -3   31.87    8.79 
   8  -4  -3   44.96   10.00 
   4  -8  -3   39.45   10.26 
   8  -4  -3   52.33   10.83 
  -4   8  -3   43.56    9.53 
   8  -5  -3  338.59   31.74 
   5  -8  -3  398.40   35.55 
   5   8  -3  397.54   31.01 
  -8   5  -3  304.45   33.72 
   8  -5  -3  319.89   33.51 
   8   5  -3  302.23   33.09 
   8  -5  -3  335.42   35.05 
  -5   8  -3  381.78   34.73 
   8   5  -3  343.26   34.49 
   5  -8  -3  403.21   36.88 
  -5  -8  -3  452.23   36.38 
  -8  -5  -3  329.26   33.58 
  -8   6  -3    8.03    5.39 
  -6  -8  -3   -0.04    4.14 
   8  -6  -3    9.66    5.95 
  -6   8  -3    1.11    3.41 
   6  -8  -3    0.73    5.21 
  -8  -6  -3    6.21    4.88 
   8  -6  -3    3.00    4.00 
   6  -8  -3   -0.72    4.53 
   8   6  -3   -0.16    4.79 
   8   6  -3    1.71    3.06 
   6   8  -3    6.03    3.49 
  -7  -8  -3  256.15   28.33 
  -7  -8  -3  343.95   30.90 
   7  -8  -3  271.83   29.49 
   8   7  -3  261.58   27.71 
   8  -7  -3  299.09   29.64 
  -8   7  -3  321.33   31.18 
   8   7  -3  328.15   30.55 
   7  -8  -3  275.91   31.07 
   7  -8  -3  244.67   27.45 
   7   8  -3  277.07   27.13 
  -8  -7  -3  349.32   30.79 
  -7   8  -3  288.31   30.36 
   8  -7  -3  304.09   31.66 
  -8   8  -3   11.03    6.20 
   8  -8  -3    9.05    6.03 
  -8  -8  -3    2.14    4.39 
   8   8  -3   12.02    4.92 
   8  -8  -3   -1.08    4.36 
   0  -9  -3  397.68   35.42 
   9   0  -3  349.37   35.42 
   0   9  -3  385.82   35.91 
  -9   0  -3  403.26   37.13 
   9   0  -3  349.31   34.90 
   0  -9  -3  388.51   37.43 
   9   1  -3   12.39    6.02 
   9  -1  -3    7.33    5.04 
  -1  -9  -3   12.87    5.58 
   1   9  -3    9.72    3.22 
  -1   9  -3   -1.03    3.76 
   9   1  -3   11.62    5.14 
  -9  -1  -3   16.19    6.45 
   1  -9  -3    5.68    4.52 
   1   9  -3    5.38    4.75 
   9  -1  -3   10.75    5.24 
   1  -9  -3   14.42    6.68 
  -9   1  -3    9.30    4.96 
   9  -1  -3   11.91    5.90 
   9  -2  -3  413.11   41.17 
   2  -9  -3  495.33   42.70 
  -2  -9  -3  479.98   43.55 
  -9   2  -3  401.47   40.06 
   9   2  -3  434.12   41.18 
  -2   9  -3  529.20   42.79 
   2   9  -3  468.88   37.32 
   9  -2  -3  400.33   41.21 
   2   9  -3  543.41   43.06 
  -9   2  -3  400.11   41.27 
   2  -9  -3  488.32   43.72 
   9   2  -3  424.07   40.86 
   9  -2  -3  430.30   40.26 
  -9  -2  -3  429.83   41.74 
   3  -9  -3   48.46   11.23 
  -9   3  -3   52.04    9.83 
  -9   3  -3   35.13    9.68 
   9   3  -3   47.41   10.17 
   3  -9  -3   43.80   10.57 
  -9   3  -3   36.97    8.98 
  -3   9  -3   56.93   10.85 
   9   3  -3   46.61   11.26 
   3   9  -3   38.56    9.69 
   3   9  -3   34.38    6.46 
   9  -3  -3   31.52    8.53 
   9  -3  -3   42.52    9.89 
  -3  -9  -3   28.35    9.04 
  -9  -3  -3   34.35    9.10 
   9  -3  -3   34.21    8.56 
  -9   4  -3  462.05   37.82 
   9  -4  -3  465.82   35.77 
  -9  -4  -3  424.51   37.22 
   9  -4  -3  447.43   37.62 
   9   4  -3  495.80   38.18 
  -9   4  -3  460.42   38.77 
   4   9  -3  302.76   31.76 
  -4   9  -3  286.01   35.11 
   9  -4  -3  438.71   37.93 
  -4  -9  -3  287.57   35.57 
   9   4  -3  440.41   37.93 
   4  -9  -3  306.04   36.16 
  -9   4  -3  427.74   37.69 
   4  -9  -3  302.52   36.59 
   9  -5  -3    8.12    6.20 
   9   5  -3   32.55    9.31 
  -9   5  -3   22.11    8.07 
   5   9  -3   12.98    4.45 
   5  -9  -3   10.82    6.48 
   9   5  -3   16.26    7.18 
  -9  -5  -3   18.65    6.36 
   9  -5  -3   30.11    7.14 
   9  -5  -3   14.32    6.91 
   5  -9  -3    9.43    6.90 
  -5  -9  -3   15.26    6.50 
  -5   9  -3   20.99    6.85 
   9  -6  -3  391.06   32.32 
   6  -9  -3  237.69   31.92 
   6   9  -3  294.96   27.26 
   9  -6  -3  291.39   31.29 
  -6   9  -3  245.88   29.93 
  -6  -9  -3  255.65   29.37 
   9   6  -3  344.31   31.77 
   9   6  -3  348.04   31.39 
   6  -9  -3  250.95   29.83 
  -9   6  -3  354.14   32.33 
  -9   7  -3   10.25    6.17 
   7  -9  -3   22.22    7.94 
  -7   9  -3   15.32    7.28 
   7  -9  -3   21.32    8.92 
   9  -7  -3   23.31    8.19 
   9   7  -3   23.57    7.96 
   9  -7  -3   26.90    9.10 
   9   7  -3   28.81    9.08 
   7   9  -3   15.93    5.59 
   9   8  -3  160.51   23.21 
   9   8  -3  190.81   25.73 
   9  -8  -3  168.35   23.96 
  -9   8  -3  213.45   27.01 
  -8   9  -3  281.41   27.04 
   8  -9  -3  241.48   28.55 
   9  -8  -3  154.72   25.25 
   8   9  -3  271.23   23.54 
   9  -9  -3   17.07    8.00 
   9   9  -3   12.37    5.50 
  -9   9  -3   -1.08    5.51 
  10   0  -3   -3.74    2.82 
   0 -10  -3    1.87    3.30 
   0  10  -3    1.94    3.99 
   0 -10  -3    1.44    4.53 
  10   0  -3    0.82    3.70 
  -1 -10  -3  276.15   32.33 
  -1  10  -3  296.61   31.51 
   1 -10  -3  285.85   30.75 
  10   1  -3  326.83   31.90 
  10  -1  -3  397.54   33.81 
  10   1  -3  335.45   31.88 
   1 -10  -3  329.32   34.00 
   1  10  -3  336.96   32.30 
  10  -1  -3  302.04   30.80 
  10  -2  -3  142.25   19.38 
  10  -2  -3  194.01   22.16 
  10  -2  -3  146.47   20.78 
   2  10  -3  156.23   15.49 
   2 -10  -3  125.21   18.93 
  -2  10  -3  167.94   20.74 
   2  10  -3  182.40   21.67 
  10   2  -3  146.18   19.94 
  10   2  -3  149.72   20.99 
   2 -10  -3  153.26   22.65 
  -2 -10  -3  148.76   21.74 
  10  -2  -3  156.76   19.65 
  -3 -10  -3  280.00   31.05 
   3 -10  -3  234.10   31.85 
  -3  10  -3  288.02   30.29 
  10  -3  -3  303.11   29.19 
  10   3  -3  340.78   31.68 
  10  -3  -3  344.76   31.46 
  10   3  -3  372.14   32.08 
 -10   3  -3  324.17   30.87 
  10  -3  -3  332.89   31.39 
   3 -10  -3  240.08   30.00 
   3  10  -3  298.05   30.84 
   3  10  -3  284.53   26.31 
 -10   4  -3    2.04    3.86 
  10   4  -3   -4.07    4.36 
  10  -4  -3    4.89    5.38 
   4 -10  -3   10.39    6.79 
  10  -4  -3    3.28    4.99 
   4 -10  -3    2.14    4.86 
  -4  10  -3   11.33    5.79 
  -4 -10  -3    5.44    4.69 
  10   4  -3   10.04    5.27 
   4  10  -3    6.79    5.42 
  10  -4  -3    5.03    4.94 
   4  10  -3    5.88    3.18 
   5 -10  -3  284.75   30.60 
  10  -5  -3  169.46   27.32 
   5  10  -3  333.08   25.77 
  10   5  -3  212.26   29.03 
  -5 -10  -3  276.44   28.66 
   5 -10  -3  333.36   31.16 
  10   5  -3  262.03   28.41 
  10  -5  -3  208.92   28.52 
  -5  10  -3  334.38   30.46 
   6 -10  -3   44.34   12.04 
  10   6  -3   59.94   12.51 
  -6 -10  -3   47.34   11.03 
  -6  10  -3   81.74   15.35 
  10  -6  -3   51.48   11.88 
  10   6  -3   47.96   10.96 
   6  10  -3   51.09    9.22 
  10  -6  -3   68.85   13.63 
   6 -10  -3   48.61   11.79 
  10   7  -3  200.68   25.94 
   7 -10  -3  179.41   24.69 
   7  10  -3  183.78   19.93 
   7 -10  -3  174.98   25.77 
  10   7  -3  206.48   24.45 
  10  -7  -3  229.47   25.91 
  10  -7  -3  137.34   23.22 
  -7  10  -3  210.96   26.18 
  10  -8  -3    2.13    5.98 
   8  10  -3    5.95    4.50 
  -8  10  -3    1.47    5.70 
  10  -8  -3    6.15    6.73 
  10   8  -3   -9.40    5.24 
  10   8  -3    5.87    5.28 
   8 -10  -3    8.76    7.72 
  10  -9  -3  120.77   20.31 
   9 -10  -3   77.44   17.69 
  -9  10  -3  162.38   23.00 
  10 -10  -3   22.03   10.05 
   0 -11  -3  221.49   29.06 
  11   0  -3  236.41   25.45 
  11   0  -3  211.31   26.61 
  11   0  -3  252.87   27.51 
   0  11  -3  224.89   26.46 
   1 -11  -3  131.72   17.59 
  11  -1  -3  158.85   20.54 
  -1  11  -3  143.60   19.34 
  11   1  -3  112.19   18.34 
  11  -1  -3  117.41   18.16 
  11  -1  -3  103.62   17.80 
  11   1  -3  127.62   18.50 
  11   1  -3  101.18   17.73 
   1  11  -3  124.72   18.63 
  -1 -11  -3  120.08   20.46 
   1 -11  -3  123.58   20.90 
  -2  11  -3  184.77   25.23 
  11  -2  -3  221.29   25.36 
  11   2  -3  227.75   26.47 
  11   2  -3  228.40   27.09 
   2 -11  -3  247.52   29.31 
  -2 -11  -3  237.76   28.33 
   2  11  -3  226.31   26.17 
  11  -2  -3  216.59   26.47 
   2 -11  -3  179.07   24.34 
  11   2  -3  233.36   26.50 
  11   3  -3   16.40    7.45 
   3 -11  -3    9.90    6.93 
  11  -3  -3   14.26    5.83 
  11   3  -3   26.43    8.93 
   3  11  -3   12.80    4.31 
  -3  11  -3   31.50    8.44 
  11  -3  -3   22.88    7.99 
  11   3  -3   12.43    5.92 
  11  -3  -3    7.57    6.61 
  -3 -11  -3   17.51    7.72 
   3  11  -3   23.25    7.61 
   3 -11  -3   21.73    8.01 
   4  11  -3  201.99   19.36 
  11   4  -3  207.57   24.86 
  11  -4  -3  157.34   22.95 
   4 -11  -3  173.83   24.60 
  11   4  -3  207.36   25.88 
   4  11  -3  169.14   24.30 
   4 -11  -3  181.84   25.81 
  -4 -11  -3  227.29   26.69 
  11  -4  -3  214.26   23.73 
  11  -4  -3  180.15   24.73 
  -4  11  -3  208.35   25.41 
  11   4  -3  224.30   25.73 
  11  -5  -3   17.41    7.43 
  11   5  -3   24.33    9.39 
   5  11  -3   26.07    6.32 
   5 -11  -3   16.94    8.07 
  -5 -11  -3    7.78    5.89 
  11   5  -3   20.25    7.85 
  11  -5  -3   13.62    7.72 
   5  11  -3    7.82    7.64 
  -5  11  -3   18.20    7.66 
   5 -11  -3    5.94    6.80 
  11   6  -3  187.35   24.64 
  11   6  -3  184.07   24.83 
   6  11  -3  166.04   24.60 
  -6  11  -3  186.55   25.14 
  11  -6  -3  171.08   23.79 
  11  -6  -3  139.08   22.11 
  -6 -11  -3  162.80   22.71 
   6  11  -3  168.87   19.15 
   6 -11  -3  174.19   25.27 
   6 -11  -3  167.21   24.55 
  11  -7  -3   20.84    8.83 
   7  11  -3   21.81    6.76 
  -7  11  -3   16.32    8.38 
   7 -11  -3   19.85   10.07 
   7 -11  -3   15.12    8.66 
  11   7  -3   23.63    9.94 
  11   7  -3   30.92    9.85 
  11  -7  -3   11.53    7.52 
   8 -11  -3  125.09   23.09 
  11  -8  -3  147.97   21.92 
  11  -8  -3  146.64   22.69 
  -8  11  -3  130.44   21.12 
  11  -9  -3    4.38    6.90 
   9 -11  -3    8.84    7.86 
  12   0  -3   -2.31    4.04 
   0 -12  -3    4.39    5.44 
   0  12  -3   -3.16    4.43 
  12   0  -3    5.32    5.48 
  12   0  -3   -0.17    4.27 
  -1  12  -3  273.67   25.53 
   1 -12  -3  211.58   28.28 
  12   1  -3  171.73   23.97 
  -1 -12  -3  200.32   27.12 
  12  -1  -3  178.65   24.24 
  12  -1  -3  182.13   23.77 
  12   1  -3  141.39   22.76 
  12   1  -3  137.11   22.24 
   1  12  -3  223.43   25.32 
  12  -2  -3    3.57    5.87 
  -2 -12  -3   18.47    8.61 
  -2  12  -3    5.47    5.56 
   2 -12  -3   15.77    7.93 
   2  12  -3    7.14    6.35 
  12   2  -3   13.08    6.49 
   2 -12  -3   13.33    7.14 
  12   2  -3   14.81    6.85 
  12  -2  -3   14.96    6.08 
  12   2  -3   -2.89    4.83 
  12   3  -3  158.95   23.51 
  -3  12  -3  167.22   23.16 
   3  12  -3  144.28   16.57 
  12   3  -3  152.05   21.97 
  12   3  -3  189.57   23.73 
   3 -12  -3  189.30   23.70 
   3 -12  -3  184.38   25.84 
  -3 -12  -3  145.69   23.47 
   3  12  -3  175.36   23.53 
  12  -3  -3  136.85   22.34 
  12  -3  -3  196.92   22.52 
  -4  12  -3    7.66    6.26 
  12  -4  -3   -4.42    4.94 
   4  12  -3    1.19    5.58 
   4 -12  -3   -4.87    5.48 
  12  -4  -3   -1.18    4.88 
  -4 -12  -3   11.46    6.43 
   4  12  -3    1.84    3.64 
  12   4  -3    1.93    5.82 
  12   4  -3    4.63    4.97 
   4 -12  -3   -4.21    5.54 
  12  -4  -3    0.67    6.09 
  12   4  -3    5.65    5.93 
   5 -12  -3  143.12   24.27 
  12  -5  -3  215.69   25.17 
  -5  12  -3  150.62   23.27 
   5 -12  -3  132.92   23.30 
  -5 -12  -3  169.24   24.26 
   5  12  -3  168.14   24.79 
  12  -5  -3  230.36   26.18 
  12   5  -3  228.49   26.86 
   5  12  -3  154.89   18.54 
  -6  12  -3   18.18    7.39 
   6 -12  -3   18.81    8.65 
  12  -6  -3   10.77    7.27 
   6 -12  -3   10.15    7.36 
  12  -6  -3    3.87    6.41 
  12  -7  -3  108.30   19.02 
  12  -7  -3   97.07   18.63 
   7 -12  -3  142.34   23.07 
  12  -8  -3    1.65    6.22 
   8 -12  -3    3.51    7.47 
  12  -8  -3   -4.28    7.24 
   0 -13  -3  140.39   23.76 
   0  13  -3  160.92   23.64 
  13   0  -3  191.62   24.21 
  13   0  -3  169.27   23.91 
  -1  13  -3   10.19    6.70 
   1  13  -3   14.32    7.58 
   1 -13  -3   16.87    8.89 
  13  -1  -3   21.30    7.91 
  13   1  -3    9.23    6.79 
  13  -1  -3   11.88    7.71 
  13   1  -3   10.62    7.13 
  -1 -13  -3    7.23    5.96 
  -2  13  -3  139.01   22.42 
  13   2  -3  168.50   23.88 
   2  13  -3  149.43   22.49 
  13  -2  -3  185.75   24.37 
  13   2  -3  175.15   24.02 
  13   2  -3  149.64   22.98 
  -2 -13  -3  165.09   24.98 
  13  -2  -3  161.28   22.11 
  13  -3  -3    4.13    6.67 
  13   3  -3    3.37    5.35 
  -3  13  -3   -3.18    4.79 
  -3 -13  -3   -9.20    4.81 
  13  -3  -3    0.71    5.33 
   3 -13  -3    4.59    6.61 
  13   3  -3    1.50    5.40 
  13  -4  -3   97.47   18.63 
   4 -13  -3  173.76   23.19 
   5 -13  -3    5.02    7.10 
  13  -5  -3    1.90    5.88 
  13  -6  -3  109.51   20.18 
   6 -13  -3  120.15   22.27 
  13  -6  -3  125.86   20.14 
  14   0  -3    7.51    6.20 
  14   1  -3  101.85   19.28 
  14  -1  -3  124.24   20.31 
  14  -2  -3   25.92    9.00 
  14   2  -3   21.99   10.04 
  14   3  -3  136.37   21.39 
  14  -3  -3  116.94   20.38 
  14  -4  -3   18.65    8.48 
   4 -14  -3   -8.15    6.33 
   0   0  -2 3454.04  277.73 
   0   0  -2 3631.01  272.35 
   0   0  -2 3668.64  272.35 
   1   0  -2    9.72    2.54 
  -1   0  -2    1.91    1.63 
  -1   0  -2    5.06    2.74 
   1   0  -2   -2.37    0.86 
   0  -1  -2    0.77    1.83 
   0  -1  -2    0.63    1.41 
  -1   1  -2 2421.06  180.92 
  -1   1  -2 2445.76  177.24 
  -1  -1  -2 2161.27  181.19 
   1  -1  -2 2305.93  177.74 
   1  -1  -2 2321.40  180.79 
  -1  -1  -2 2324.93  177.97 
   2   0  -2 4560.91  333.60 
   0  -2  -2 4596.51  334.10 
  -2   0  -2 4459.61  340.56 
   0  -2  -2 4604.09  339.90 
   2   0  -2 4412.82  338.69 
  -2   0  -2 4128.22  340.42 
  -2   0  -2 4037.09  334.31 
  -1   2  -2 2083.13  155.33 
  -1  -2  -2 2016.84  155.51 
  -1   2  -2 2218.82  151.61 
  -1  -2  -2 1950.52  152.57 
   2   1  -2 2119.41  154.51 
  -2   1  -2 1830.70  154.92 
  -2  -1  -2 1925.20  152.73 
   2  -1  -2 1968.55  152.51 
  -2  -1  -2 1979.90  154.74 
   2   1  -2 1962.65  151.53 
   1  -2  -2 1991.98  155.26 
  -2  -1  -2 1881.26  155.66 
   2  -1  -2 2017.26  154.55 
   1  -2  -2 1930.26  152.52 
   2  -2  -2  837.65   65.82 
   2   2  -2  817.19   63.05 
  -2  -2  -2  779.19   65.27 
  -2   2  -2  869.55   65.81 
   2  -2  -2  830.58   67.00 
  -2  -2  -2  826.16   64.93 
   2  -2  -2  816.41   64.93 
   2   2  -2  825.70   63.15 
   0  -3  -2    0.02    1.79 
   3   0  -2   -2.79    1.48 
   3   0  -2   -1.10    0.91 
   0  -3  -2    0.36    2.10 
   3   0  -2   -1.28    1.56 
  -3   0  -2    3.51    2.80 
  -3   0  -2   -0.80    2.03 
  -3   0  -2   -2.50    1.82 
   1  -3  -2 1196.74   94.67 
   3  -1  -2 1234.97   92.48 
  -3  -1  -2 1174.73   95.80 
   3  -1  -2 1229.16   97.21 
   3  -1  -2 1187.66   94.74 
   3   1  -2 1234.27   94.47 
   1  -3  -2 1279.04   97.52 
  -3  -1  -2 1208.42   95.24 
  -3   1  -2 1205.45   96.34 
   3  -1  -2 1223.49   95.08 
  -1   3  -2 1180.67   93.38 
   3   1  -2 1191.39   94.10 
  -1  -3  -2 1202.19   94.49 
  -1   3  -2 1230.90   96.40 
   3   1  -2 1173.58   92.81 
  -3  -1  -2 1310.02   97.08 
   1  -3  -2 1285.31   96.84 
   3   2  -2   58.37    6.11 
  -3   2  -2   62.13    7.30 
   2  -3  -2   73.87    9.00 
  -2   3  -2   58.68    7.08 
  -2  -3  -2   56.35    6.96 
   2   3  -2   61.31    5.31 
   2   3  -2   58.42    5.01 
   3  -2  -2   51.27    6.96 
  -3  -2  -2   65.38    8.04 
   3  -2  -2   64.13    8.49 
   3  -2  -2   54.43    7.28 
  -2   3  -2   63.30    7.51 
   3   2  -2   56.39    8.13 
   3  -2  -2   58.02    7.92 
  -3  -2  -2   55.86    6.55 
   2   3  -2   50.05    7.30 
  -2  -3  -2   54.34    7.94 
  -2  -3  -2   60.90    7.60 
   2  -3  -2   54.06    7.70 
  -3  -2  -2   43.42    7.24 
   3   2  -2   58.30    6.43 
   2  -3  -2   45.65    7.51 
  -3  -3  -2 2681.19  228.70 
  -3   3  -2 2751.05  229.09 
   3  -3  -2 3081.60  228.60 
   3   3  -2 2758.38  219.03 
   3   3  -2 2908.84  222.97 
  -3  -3  -2 2948.64  224.86 
   3  -3  -2 3099.27  218.22 
  -3  -3  -2 3020.00  228.69 
   3  -3  -2 3139.17  231.24 
   3   3  -2 2949.74  223.75 
   3  -3  -2 3024.53  225.35 
  -4   0  -2 2463.94  203.17 
   0  -4  -2 2784.97  206.17 
  -4   0  -2 2357.21  205.72 
   0  -4  -2 2739.85  202.04 
   4   0  -2 2585.69  197.14 
   0   4  -2 2672.02  206.34 
   4   0  -2 2689.41  206.55 
   0   4  -2 2647.39  199.96 
   4   0  -2 2500.01  202.06 
   0  -4  -2 2928.44  207.26 
   0   4  -2 2689.10  200.45 
  -4   0  -2 2570.67  206.62 
   1  -4  -2   78.60   11.03 
  -4   1  -2   99.36   10.61 
   1   4  -2   90.82    7.77 
   4  -1  -2   92.09   10.37 
   4  -1  -2  103.88    8.92 
   1   4  -2   96.80    7.98 
   1  -4  -2   79.90   10.87 
  -1  -4  -2   83.62    9.61 
  -1  -4  -2   93.95   11.47 
  -1   4  -2   94.79    9.41 
  -4  -1  -2  111.23   10.40 
   4  -1  -2   78.78   10.57 
  -4  -1  -2   88.31   11.42 
  -1   4  -2   91.59   10.03 
   1  -4  -2   88.70   10.02 
   4  -1  -2   89.49   10.76 
   4   1  -2   81.23   11.03 
   4   1  -2   69.65    9.72 
  -4  -1  -2   87.59   10.94 
  -2  -4  -2 3310.71  250.48 
  -2   4  -2 3079.91  255.82 
  -4  -2  -2 3073.35  251.00 
  -4  -2  -2 3008.43  255.31 
  -4  -2  -2 3377.17  254.87 
   2  -4  -2 3327.01  255.40 
   4   2  -2 2942.51  244.36 
  -4   2  -2 3174.40  255.94 
   4   2  -2 3448.28  250.32 
  -2  -4  -2 3541.65  255.72 
   2   4  -2 3215.56  243.69 
   2   4  -2 3253.23  248.45 
   4  -2  -2 3316.77  253.86 
  -2   4  -2 3524.89  250.82 
   4  -2  -2 3459.15  251.74 
   2   4  -2 3432.72  248.73 
   2  -4  -2 3282.92  251.02 
   4   2  -2 3158.13  250.39 
   4  -2  -2 3276.00  243.92 
   2  -4  -2 3432.28  257.71 
   4  -2  -2 3304.39  257.28 
  -4   3  -2   28.92    5.57 
   4  -3  -2   15.34    4.23 
   4   3  -2   12.06    4.46 
   3   4  -2   21.43    3.20 
  -4  -3  -2   19.47    4.45 
   3  -4  -2   12.31    4.18 
   3  -4  -2   15.97    4.89 
  -4  -3  -2   10.02    3.76 
   3   4  -2   15.95    4.58 
  -4  -3  -2   22.56    4.93 
   3  -4  -2   17.31    3.62 
   4  -3  -2   17.10    4.18 
   4   3  -2   14.21    4.19 
   3   4  -2   21.03    3.82 
   4  -3  -2   25.78    6.28 
  -3   4  -2   18.56    4.82 
   3  -4  -2   11.57    4.78 
  -3  -4  -2   15.21    4.15 
  -3  -4  -2   16.64    4.73 
   4   3  -2   22.34    4.06 
   4  -3  -2   15.48    4.77 
  -3  -4  -2   18.81    4.45 
  -4  -4  -2 2533.37  196.64 
  -4  -4  -2 2207.46  196.71 
   4   4  -2 2479.53  192.58 
   4   4  -2 2511.72  189.20 
   4  -4  -2 2655.88  187.45 
  -4  -4  -2 2473.05  193.22 
   4   4  -2 2624.04  191.82 
  -4   4  -2 2410.94  197.54 
   4  -4  -2 2595.40  196.87 
   4  -4  -2 2633.23  194.56 
   4  -4  -2 2534.17  199.49 
   5   0  -2    1.80    2.39 
   0   5  -2    2.99    1.92 
   5   0  -2    1.92    2.27 
   5   0  -2    5.37    3.42 
   0  -5  -2   -0.45    1.91 
  -5   0  -2   -1.82    2.18 
   0  -5  -2   -0.31    1.84 
   0   5  -2   -0.70    2.21 
  -5   0  -2   -1.46    2.32 
   0   5  -2   -1.75    1.21 
   0  -5  -2   -3.20    1.90 
  -5   0  -2   -4.33    1.43 
   1   5  -2 2963.16  227.18 
  -1  -5  -2 3166.35  234.52 
  -5   1  -2 2857.03  234.33 
   1   5  -2 3049.95  222.29 
  -1  -5  -2 3158.00  229.47 
  -1   5  -2 2924.26  234.36 
   1  -5  -2 3320.84  236.14 
  -5  -1  -2 3078.61  233.49 
   1  -5  -2 2993.04  234.33 
  -5  -1  -2 2753.69  234.36 
   5  -1  -2 2936.76  230.24 
  -1   5  -2 3092.07  229.06 
   5  -1  -2 3053.87  224.13 
  -1  -5  -2 3302.19  234.65 
  -5   1  -2 2763.69  231.54 
  -5   1  -2 2847.22  234.99 
   5   1  -2 3040.28  234.09 
  -5  -1  -2 2714.05  230.58 
   5  -1  -2 3059.47  235.21 
   1   5  -2 3004.19  227.51 
   1  -5  -2 3126.59  229.63 
   5  -1  -2 2949.97  231.14 
   5   1  -2 2864.56  224.37 
   5   1  -2 2845.66  229.81 
   5  -2  -2  109.81   14.73 
   5   2  -2  118.08   15.34 
   5  -2  -2  132.78   14.52 
   2  -5  -2  121.57   13.50 
   5   2  -2  118.01   13.71 
   2   5  -2  168.02   13.80 
   2   5  -2  133.41   11.78 
  -5  -2  -2  121.61   13.49 
   2  -5  -2  129.90   11.51 
   2  -5  -2  125.62   15.39 
  -5  -2  -2  150.45   14.71 
  -5   2  -2  124.99   14.23 
   5  -2  -2  145.44   14.21 
  -2  -5  -2  137.53   14.67 
   2   5  -2  148.58   11.92 
   2  -5  -2  135.99   14.79 
  -5  -2  -2  134.19   13.91 
  -2  -5  -2  150.91   13.81 
  -2   5  -2  150.03   14.21 
   5  -2  -2  117.54   12.68 
  -2   5  -2  150.13   14.65 
   5  -3  -2  747.90   63.18 
   5   3  -2  731.16   61.88 
   5  -3  -2  801.19   62.72 
   5  -3  -2  767.49   64.81 
   3  -5  -2  804.83   62.91 
   3  -5  -2  732.05   64.86 
   3  -5  -2  704.34   63.57 
  -5  -3  -2  769.86   62.81 
   3   5  -2  775.19   60.08 
  -3  -5  -2  779.57   63.39 
   3  -5  -2  790.92   58.84 
   5   3  -2  757.53   62.35 
  -3  -5  -2  777.39   63.89 
   5  -3  -2  789.39   60.80 
   3   5  -2  750.73   60.33 
  -3  -5  -2  906.52   62.58 
   3   5  -2  749.74   60.78 
  -3   5  -2  806.51   63.96 
  -5  -3  -2  736.52   63.21 
  -5   3  -2  741.88   63.73 
  -5  -3  -2  791.10   63.05 
   4   5  -2   75.65    8.95 
   4  -5  -2   81.23    8.96 
   4  -5  -2   64.13   10.59 
  -5  -4  -2   67.62    9.89 
   5  -4  -2   93.84   12.24 
   4   5  -2   81.61   11.37 
   4  -5  -2   70.16   11.89 
   4  -5  -2   81.27   11.62 
   5   4  -2   63.17   10.98 
  -5  -4  -2   79.27   10.63 
   5   4  -2   70.58   10.06 
  -4  -5  -2   79.43   10.65 
   5  -4  -2   85.74   10.07 
   5  -4  -2   71.22   10.41 
  -4   5  -2   98.67   11.75 
  -5   4  -2   70.48   10.89 
   5  -4  -2   78.36   12.10 
  -4  -5  -2   72.75   10.79 
   5  -5  -2  833.37   69.00 
   5  -5  -2  830.50   71.24 
   5   5  -2  834.71   67.47 
  -5   5  -2  846.30   69.98 
   5   5  -2  871.88   67.42 
  -5  -5  -2  768.35   68.97 
   5  -5  -2  860.69   65.15 
   5  -5  -2  815.11   69.17 
  -5  -5  -2  886.51   69.18 
   0  -6  -2  620.76   55.16 
   0   6  -2  671.88   54.82 
  -6   0  -2  668.00   54.16 
  -6   0  -2  609.55   54.80 
   6   0  -2  635.72   54.01 
  -6   0  -2  676.10   55.44 
   0   6  -2  670.37   49.87 
   0   6  -2  672.13   51.92 
   6   0  -2  658.64   54.05 
   0   6  -2  653.57   51.26 
   0  -6  -2  618.91   54.24 
   6   0  -2  608.46   52.69 
   1  -6  -2    6.13    3.52 
   1   6  -2    7.84    2.53 
  -1  -6  -2    6.91    3.87 
   6  -1  -2    3.62    3.30 
   1   6  -2    5.31    2.27 
   1   6  -2    8.95    2.89 
   1  -6  -2    9.66    3.43 
  -6   1  -2    6.51    3.46 
   1   6  -2    3.61    3.47 
   1  -6  -2   11.88    5.05 
   6   1  -2    3.67    3.41 
   6  -1  -2    9.57    4.27 
   6   1  -2    4.89    2.94 
  -1   6  -2   13.59    3.67 
  -6   1  -2    1.43    3.17 
  -6   1  -2    3.91    3.76 
  -6  -1  -2    2.77    2.69 
  -6  -1  -2    1.30    2.97 
  -1   6  -2    7.89    3.57 
  -6  -1  -2    9.11    4.12 
   6  -1  -2    6.54    3.28 
  -1  -6  -2    2.08    2.51 
   6   1  -2    8.18    3.71 
   2  -6  -2 1997.21  154.85 
  -6  -2  -2 1860.13  151.19 
  -2  -6  -2 2059.21  152.41 
  -2   6  -2 2022.38  153.91 
   6  -2  -2 1933.64  150.77 
   6   2  -2 1631.83  150.08 
   2  -6  -2 2140.02  143.04 
   2   6  -2 2096.62  145.64 
   6   2  -2 1808.57  147.29 
   6  -2  -2 1886.25  154.20 
  -6  -2  -2 1972.46  151.90 
  -6  -2  -2 1872.83  153.58 
   2   6  -2 2035.44  147.94 
  -2  -6  -2 1938.39  153.59 
   6  -2  -2 1791.54  150.93 
  -6   2  -2 1823.03  153.93 
   6  -2  -2 1850.04  146.41 
   2   6  -2 1892.62  147.68 
   2  -6  -2 1859.17  153.53 
   2  -6  -2 2055.66  150.55 
   3  -6  -2  467.68   42.89 
   6   3  -2  452.69   41.46 
   6  -3  -2  477.28   43.21 
   6  -3  -2  470.84   40.38 
   6   3  -2  445.12   41.44 
   3   6  -2  515.71   40.49 
  -6  -3  -2  497.51   42.55 
   3  -6  -2  511.81   43.96 
   6  -3  -2  503.15   42.63 
   6  -3  -2  551.52   41.54 
  -6  -3  -2  467.34   41.15 
  -3  -6  -2  481.57   42.71 
  -6   3  -2  498.41   42.89 
   3   6  -2  485.08   39.25 
  -3   6  -2  496.32   42.73 
   6   4  -2 1923.61  150.20 
   4  -6  -2 1929.48  157.83 
  -6  -4  -2 2045.29  154.38 
  -6  -4  -2 1716.18  155.25 
   6  -4  -2 1912.41  157.53 
   6  -4  -2 1980.86  153.88 
  -4  -6  -2 1890.13  155.67 
   4  -6  -2 1894.42  155.79 
   6   4  -2 1955.43  152.84 
  -6   4  -2 1914.31  156.41 
   4   6  -2 2107.94  149.38 
   6  -4  -2 2080.98  148.32 
   4   6  -2 1879.72  150.63 
  -4   6  -2 1978.16  156.44 
   6  -4  -2 2048.56  154.83 
  -4  -6  -2 1952.72  155.45 
   4  -6  -2 2109.02  151.40 
  -6   5  -2   98.97   14.23 
   5  -6  -2  106.04   15.88 
   5  -6  -2   84.45   13.51 
  -6  -5  -2  116.55   14.09 
   5   6  -2  101.86   11.77 
   6  -5  -2  123.26   16.46 
   6  -5  -2   97.83   13.94 
   6  -5  -2  122.60   12.05 
   5  -6  -2   98.68   13.33 
   6   5  -2   96.84   12.96 
  -6  -5  -2  104.88   12.89 
  -5   6  -2  115.09   15.09 
   5   6  -2   98.42   13.91 
   6   5  -2  101.31   14.89 
   6  -5  -2  116.70   14.17 
  -5  -6  -2  111.23   14.06 
  -5  -6  -2   80.48   12.70 
  -6  -6  -2 1237.67   97.45 
   6   6  -2 1149.07   94.81 
   6   6  -2 1220.13   95.68 
   6  -6  -2 1234.41   96.20 
   6  -6  -2 1091.97   99.89 
  -6  -6  -2 1231.24   98.87 
   6  -6  -2 1174.82   98.24 
  -6   6  -2 1270.81   99.74 
   0   7  -2   -0.83    1.49 
   7   0  -2    1.35    2.56 
   0  -7  -2   -2.40    2.09 
   0  -7  -2   -3.84    2.37 
   7   0  -2   -2.41    2.79 
  -7   0  -2   -1.57    2.39 
   7   0  -2   -1.11    2.57 
  -7   0  -2    3.69    3.84 
  -7   0  -2    3.42    3.79 
   0   7  -2    1.30    2.94 
  -7  -1  -2  833.32   71.12 
   7  -1  -2  812.59   69.42 
  -1   7  -2  813.62   70.03 
  -1  -7  -2  825.81   71.21 
  -7   1  -2  829.99   69.48 
   1   7  -2  801.19   65.98 
   1   7  -2  904.65   70.75 
  -7  -1  -2  887.27   68.82 
  -7   1  -2  797.62   70.42 
   7   1  -2  890.65   69.14 
   7   1  -2  822.57   68.37 
   7   1  -2  845.55   69.63 
  -1  -7  -2  880.72   69.35 
   1  -7  -2  817.61   71.05 
  -7  -1  -2  825.11   70.40 
   1  -7  -2  856.34   70.52 
  -7   1  -2  850.52   71.00 
   7  -1  -2  870.08   70.33 
   7  -1  -2  846.89   67.87 
  -7   2  -2   91.05   13.06 
  -2  -7  -2   71.10   12.23 
   2  -7  -2   64.85   11.65 
  -7  -2  -2   79.62   12.63 
   7  -2  -2   72.96   12.26 
   7  -2  -2   74.52   11.75 
   2   7  -2   82.69    8.37 
   7   2  -2   78.16   12.85 
   7   2  -2   86.67   12.58 
  -7   2  -2   64.80   12.15 
  -7   2  -2   81.49   12.12 
  -2  -7  -2   82.72    9.65 
   7  -2  -2   66.18   10.93 
  -2   7  -2   72.13   11.68 
  -7  -2  -2   76.90   10.10 
   2  -7  -2   61.01   12.06 
   3  -7  -2 1379.06  118.23 
  -3  -7  -2 1482.00  118.19 
   3   7  -2 1479.31  112.79 
   7   3  -2 1371.19  113.50 
   3   7  -2 1577.40  111.64 
  -3   7  -2 1404.97  117.95 
   7  -3  -2 1512.86  117.02 
  -7   3  -2 1450.71  118.66 
   3  -7  -2 1482.76  119.58 
  -7  -3  -2 1521.01  115.66 
   7  -3  -2 1507.29  119.24 
  -7  -3  -2 1407.84  118.17 
   7   3  -2 1330.91  115.53 
   7  -3  -2 1477.57  112.62 
   7   4  -2   75.42   11.67 
   4   7  -2   61.65   10.52 
  -4  -7  -2   64.77   11.22 
   7  -4  -2   55.53    9.69 
  -7  -4  -2   64.39    9.16 
   7  -4  -2   53.63   10.90 
   4  -7  -2   55.66    8.81 
   7   4  -2   66.68   12.05 
   4  -7  -2   56.38   11.15 
   7  -4  -2   46.02    9.66 
  -7   4  -2   63.51   11.23 
   4   7  -2   68.23    8.28 
   4  -7  -2   68.16   12.16 
  -7  -4  -2   51.97   10.25 
  -4   7  -2   73.35   11.70 
   7  -4  -2   63.20   11.40 
   7   5  -2 1063.27   82.08 
  -5  -7  -2  896.61   82.54 
  -5  -7  -2 1063.16   83.32 
  -7  -5  -2 1011.34   83.44 
   7  -5  -2 1103.25   78.85 
  -7  -5  -2  988.28   81.05 
   7  -5  -2 1065.65   82.55 
   5  -7  -2 1051.09   80.24 
   7  -5  -2  970.83   81.49 
   7  -5  -2  955.78   84.55 
   5  -7  -2  989.59   83.32 
  -7   5  -2 1047.65   84.41 
  -5   7  -2 1000.39   83.83 
   5   7  -2 1015.69   79.64 
   7   5  -2  951.14   80.50 
   5   7  -2  925.07   79.18 
   5  -7  -2  914.77   84.50 
  -7  -6  -2    5.34    3.35 
  -6   7  -2    6.71    5.23 
  -7   6  -2   12.12    5.48 
   6  -7  -2   15.72    6.02 
  -6  -7  -2    7.71    4.97 
  -6  -7  -2   10.36    5.01 
   6  -7  -2    7.70    4.50 
   6   7  -2    9.50    4.24 
   7   6  -2   10.75    5.88 
   6   7  -2   15.76    6.50 
  -7  -6  -2   18.35    6.14 
   7  -6  -2   13.74    6.58 
   7   6  -2   10.09    4.98 
   7  -6  -2   19.47    6.22 
   6  -7  -2    8.49    5.55 
   7  -6  -2   10.11    5.70 
   7   7  -2 1097.78   85.99 
  -7   7  -2 1066.74   89.61 
   7  -7  -2 1096.13   86.60 
   7  -7  -2 1094.73   88.85 
  -7  -7  -2 1045.32   88.91 
   7   7  -2 1016.63   85.96 
   7  -7  -2 1016.97   90.29 
   0  -8  -2 2540.76  196.09 
   8   0  -2 2466.17  193.37 
   8   0  -2 2582.04  195.99 
  -8   0  -2 2518.90  193.62 
   0   8  -2 2333.15  196.03 
  -8   0  -2 2383.65  197.08 
   8   0  -2 2495.80  188.56 
   0  -8  -2 2428.45  196.77 
  -8  -1  -2   17.72    6.52 
   8  -1  -2    2.89    3.35 
  -1  -8  -2    4.28    4.44 
  -8   1  -2   12.49    4.29 
   8  -1  -2    9.08    4.65 
   1   8  -2    4.80    2.87 
   8   1  -2    2.36    3.59 
   8  -1  -2   12.14    5.45 
  -1  -8  -2    2.66    2.71 
   8   1  -2    7.50    5.03 
   1   8  -2    8.03    4.50 
  -1   8  -2    5.28    4.09 
  -8   1  -2    0.89    3.15 
  -8   1  -2   11.58    4.83 
   1  -8  -2    6.94    4.51 
   1  -8  -2    5.55    3.65 
   2  -8  -2 1341.59  109.24 
   8  -2  -2 1310.09  107.07 
   8  -2  -2 1358.85  103.48 
   2   8  -2 1330.61  108.42 
   8   2  -2 1184.58  105.68 
  -2  -8  -2 1434.68  109.34 
   8   2  -2 1311.62  104.76 
   8  -2  -2 1373.25  108.47 
  -8   2  -2 1251.89  107.22 
  -8  -2  -2 1287.62  108.94 
  -8   2  -2 1283.06  106.64 
  -8   2  -2 1368.37  108.79 
  -2   8  -2 1341.80  108.32 
   2   8  -2 1399.96  103.02 
   2  -8  -2 1238.80  108.22 
   8  -3  -2   33.20    8.14 
  -8   3  -2   24.96    7.45 
   8  -3  -2   15.10    6.15 
  -3  -8  -2   28.03    7.97 
   8  -3  -2   26.73    7.17 
   3  -8  -2   22.92    7.60 
   8  -3  -2   24.18    6.61 
   3  -8  -2   22.91    7.44 
  -8  -3  -2   30.77    8.20 
   3   8  -2   24.21    5.19 
  -3   8  -2   30.97    7.76 
   8   3  -2   34.16    8.68 
   8   3  -2   29.85    8.13 
   4  -8  -2  532.26   49.24 
  -4   8  -2  541.30   49.27 
   8  -4  -2  602.76   46.72 
   4   8  -2  546.49   45.20 
   8   4  -2  585.28   49.14 
  -8  -4  -2  551.50   49.34 
   8   4  -2  502.88   47.46 
   4  -8  -2  510.16   49.56 
  -4  -8  -2  557.77   49.27 
   8  -4  -2  571.49   49.90 
   8  -4  -2  532.22   48.09 
  -8   4  -2  556.64   49.76 
   5   8  -2   26.84    6.24 
   5  -8  -2   19.18    7.44 
   8   5  -2   22.67    7.25 
   8  -5  -2   33.61    8.05 
   8  -5  -2   22.42    6.16 
   8  -5  -2   30.32    8.27 
  -8  -5  -2   24.74    7.58 
   8   5  -2   39.95    9.57 
  -5  -8  -2   16.44    6.59 
  -5   8  -2   34.05    8.67 
   5  -8  -2   21.62    7.48 
  -8   5  -2   16.89    7.18 
   6  -8  -2  472.32   51.88 
   6  -8  -2  584.71   48.98 
  -6  -8  -2  556.86   51.54 
   8  -6  -2  592.16   50.89 
   6   8  -2  564.51   48.29 
  -8  -6  -2  571.64   51.93 
  -8   6  -2  620.23   53.22 
   8  -6  -2  569.73   52.66 
  -6   8  -2  607.53   52.85 
   6  -8  -2  567.39   51.90 
   8   6  -2  540.50   50.30 
   8   6  -2  666.24   51.91 
  -6  -8  -2  600.02   51.05 
   8   7  -2   -3.23    4.40 
  -8  -7  -2    8.11    5.49 
  -7   8  -2    4.05    4.82 
   7   8  -2    7.77    3.94 
  -8   7  -2    4.94    4.97 
   8   7  -2   12.17    5.23 
   8  -7  -2    5.55    4.08 
   7  -8  -2    4.35    3.56 
   7  -8  -2   -1.23    4.56 
  -7  -8  -2    4.75    4.87 
   7  -8  -2    1.02    4.81 
   8  -7  -2   -7.93    3.41 
   8   8  -2  982.79   82.44 
   8  -8  -2 1051.95   82.92 
  -8  -8  -2  925.43   85.05 
  -8   8  -2 1002.31   86.49 
   8  -8  -2 1037.16   87.30 
  -9   0  -2    0.83    4.49 
   9   0  -2    2.57    3.22 
   9   0  -2   -1.53    2.76 
   0  -9  -2    5.93    3.25 
   0   9  -2   -2.15    2.96 
   0  -9  -2    5.07    5.27 
   1   9  -2  603.99   55.17 
   9  -1  -2  637.76   54.88 
   9  -1  -2  672.09   54.90 
   9   1  -2  618.09   54.56 
   1  -9  -2  643.44   57.21 
   9   1  -2  604.26   53.70 
  -1   9  -2  603.33   55.38 
  -9  -1  -2  689.61   57.27 
  -1  -9  -2  596.34   56.07 
   1   9  -2  631.51   51.45 
   9  -1  -2  603.17   53.17 
  -9   1  -2  663.92   56.25 
   1  -9  -2  628.88   54.63 
   9  -1  -2  642.67   55.49 
   2   9  -2   36.27    6.36 
   9   2  -2   30.02    8.73 
  -2  -9  -2   30.65    8.46 
   2  -9  -2   17.80    7.83 
  -2   9  -2   33.68    8.61 
   9  -2  -2   46.97    9.71 
   9  -2  -2   30.77    7.95 
   2  -9  -2   30.48    7.66 
   2   9  -2   24.35    7.69 
   9  -2  -2   22.95    7.37 
  -9  -2  -2   26.91    8.68 
  -9   2  -2   24.69    7.45 
   9  -2  -2   29.34    7.97 
   9   2  -2   24.71    7.91 
   9  -3  -2 1072.74   89.59 
   9  -3  -2 1014.67   90.92 
  -3  -9  -2 1018.93   91.26 
   3  -9  -2 1131.95   92.76 
   9   3  -2 1120.43   90.47 
  -9  -3  -2 1201.63   93.56 
   3   9  -2 1128.56   92.00 
  -9   3  -2 1171.41   92.59 
   9   3  -2 1067.25   88.48 
   9  -3  -2 1106.13   87.05 
   3   9  -2 1094.51   86.41 
   3  -9  -2 1077.90   91.73 
  -3   9  -2 1024.42   91.08 
   9  -4  -2   -2.63    3.22 
  -9  -4  -2   -2.58    3.97 
   9   4  -2    7.09    4.66 
   4  -9  -2    6.98    5.29 
   9  -4  -2    2.89    3.94 
   4  -9  -2    7.35    4.82 
  -4  -9  -2    3.59    4.30 
   9  -4  -2   -0.17    3.46 
   9   4  -2    9.92    5.92 
  -9   4  -2    4.55    4.44 
   9   4  -2    0.57    4.28 
  -4   9  -2    3.71    4.19 
   4   9  -2    6.76    3.62 
   9  -5  -2 1378.88   95.20 
   9  -5  -2 1173.04   98.07 
   9  -5  -2 1168.96  100.72 
  -9   5  -2 1198.48  101.32 
  -9  -5  -2 1162.42  100.59 
  -5   9  -2 1129.90  100.05 
   9   5  -2 1173.12   96.74 
   5  -9  -2 1164.02  101.32 
  -5  -9  -2 1184.46   99.38 
   5  -9  -2 1179.65  100.64 
   5   9  -2 1192.16   95.15 
   9   5  -2 1296.49   99.92 
   6  -9  -2   10.09    6.51 
   9   6  -2   21.62    7.47 
  -6   9  -2   11.03    6.82 
   6  -9  -2   25.40    9.06 
  -9   6  -2   17.85    7.39 
   9  -6  -2   12.29    6.63 
  -6  -9  -2   24.21    7.22 
   6   9  -2    8.34    4.45 
   9  -6  -2    7.40    6.32 
  -9  -6  -2   23.23    8.19 
   9   6  -2   12.84    7.50 
   9   7  -2  180.72   23.80 
  -9   7  -2  197.04   25.00 
   9  -7  -2  190.79   24.92 
  -7   9  -2  180.22   24.45 
   7  -9  -2  157.43   24.31 
   9  -7  -2  182.36   23.45 
  -9  -7  -2  153.14   23.26 
  -7  -9  -2  219.73   25.39 
   7  -9  -2  168.86   23.31 
   7   9  -2  203.20   20.44 
   9   7  -2  220.31   24.32 
  -8   9  -2   17.72    7.69 
   8  -9  -2   10.26    6.87 
   8   9  -2   14.58    6.17 
   9   8  -2   13.69    6.18 
  -8  -9  -2   12.22    7.84 
   9  -8  -2   21.37    7.72 
  -9   8  -2    8.87    6.91 
  -9  -8  -2   32.61    9.32 
   9  -8  -2   16.05    8.01 
   9   8  -2   16.36    7.23 
  -9   9  -2  333.31   33.53 
   9  -9  -2  240.07   32.33 
  -9  -9  -2  262.94   32.40 
   9   9  -2  281.67   29.05 
  10   0  -2  890.07   72.29 
   0 -10  -2  812.34   70.72 
 -10   0  -2  901.44   74.11 
  10   0  -2  806.73   69.99 
  10   0  -2  817.53   71.39 
   0 -10  -2  858.06   74.64 
   0  10  -2  844.18   72.54 
   1 -10  -2   36.02   10.10 
 -10   1  -2   38.59    9.33 
  10  -1  -2   21.69    8.04 
  -1  10  -2   39.77    9.97 
  10  -1  -2   36.27    9.56 
  10   1  -2   37.19    9.37 
  10   1  -2   21.75    7.80 
  10  -1  -2   36.88    8.97 
   1 -10  -2   32.21    8.05 
  10   1  -2   39.43    9.66 
  -1 -10  -2   36.68   10.18 
 -10  -1  -2   38.20   10.25 
   1  10  -2   39.19    9.72 
  10   2  -2  772.16   68.85 
   2  10  -2  836.94   70.51 
  -2 -10  -2  831.57   71.09 
   2  10  -2  793.94   64.93 
   2 -10  -2  784.52   68.88 
 -10  -2  -2  780.15   70.93 
   2 -10  -2  816.13   71.48 
  10  -2  -2  821.80   68.95 
  10  -2  -2  735.11   67.92 
  -2  10  -2  831.89   69.98 
  10  -2  -2  763.55   65.97 
  10   2  -2  837.72   68.79 
  10   2  -2  825.89   68.20 
 -10   2  -2  758.39   69.80 
  10  -2  -2  898.28   70.22 
   3  10  -2    2.25    4.49 
  -3 -10  -2   -0.86    3.77 
   3 -10  -2    7.12    5.54 
  -3  10  -2   -2.20    2.93 
  10   3  -2    2.27    4.23 
  10   3  -2    0.44    3.49 
  10   3  -2    8.02    5.21 
   3  10  -2   -0.46    2.55 
  10  -3  -2   -7.42    3.43 
  10  -3  -2    4.64    4.09 
  10  -3  -2    1.83    4.20 
 -10   3  -2    3.61    4.15 
 -10  -3  -2   -3.44    5.34 
   3 -10  -2   -1.08    4.21 
 -10  -4  -2  348.66   34.27 
  -4  10  -2  351.55   33.70 
   4  10  -2  293.78   28.71 
   4  10  -2  312.52   32.89 
  10   4  -2  330.85   32.51 
  10  -4  -2  348.46   32.85 
  -4 -10  -2  295.31   32.15 
   4 -10  -2  290.28   32.95 
  10   4  -2  320.85   32.87 
  10  -4  -2  336.93   30.66 
  10  -4  -2  304.96   32.11 
  10   4  -2  371.51   32.47 
 -10   4  -2  316.49   33.05 
   4 -10  -2  292.68   32.45 
  10   5  -2   27.68    8.60 
  10  -5  -2   17.33    7.01 
 -10   5  -2    7.51    5.27 
   5  10  -2   20.18    6.05 
  10   5  -2   22.32    9.10 
   5 -10  -2    8.23    7.05 
  -5 -10  -2   16.15    7.06 
  10  -5  -2   23.28    8.66 
   5 -10  -2   16.21    7.20 
 -10  -5  -2   14.05    6.98 
  -5  10  -2   19.58    7.03 
   6  10  -2  666.41   53.48 
  10  -6  -2  620.28   55.75 
   6 -10  -2  595.47   57.24 
 -10   6  -2  692.53   59.17 
  -6 -10  -2  620.36   55.78 
  10  -6  -2  579.45   56.92 
  10   6  -2  623.28   55.86 
  10   6  -2  619.61   56.66 
  -6  10  -2  649.52   58.37 
 -10  -6  -2  629.03   58.40 
   6 -10  -2  585.85   57.89 
  10  -7  -2   10.26    7.12 
  -7  10  -2   17.12    7.15 
  10   7  -2   13.16    6.50 
 -10   7  -2   15.42    7.27 
   7  10  -2   10.63    5.00 
  10  -7  -2    2.19    5.14 
   7 -10  -2    2.15    5.77 
  10   7  -2   16.48    7.95 
   7 -10  -2    1.00    6.30 
 -10  -7  -2    1.95    4.88 
 -10   8  -2  452.65   43.06 
   8 -10  -2  358.21   41.39 
  -8  10  -2  431.55   42.19 
  10   8  -2  440.18   40.67 
  10  -8  -2  455.32   40.55 
  10   8  -2  361.16   39.11 
  10  -8  -2  392.03   41.41 
   8  10  -2  388.64   37.81 
 -10  -8  -2  422.66   42.17 
 -10   9  -2   13.74    8.42 
  -9  10  -2    3.59    6.86 
  10  -9  -2    7.90    7.36 
   9 -10  -2   -0.87    5.12 
  10 -10  -2  261.11   32.94 
  11   0  -2    1.26    4.92 
   0 -11  -2    1.52    4.15 
 -11   0  -2    8.49    5.68 
  11   0  -2   -0.19    4.41 
  11   0  -2    1.61    4.36 
   0  11  -2   -2.20    3.76 
  11   1  -2  464.33   45.40 
 -11  -1  -2  503.55   47.64 
  11   1  -2  528.78   46.16 
  11  -1  -2  476.63   45.77 
   1 -11  -2  455.64   44.54 
  -1 -11  -2  476.77   47.81 
  11  -1  -2  547.43   45.62 
   1 -11  -2  514.30   48.62 
  11   1  -2  502.81   46.39 
   1  11  -2  515.92   46.84 
  -1  11  -2  479.68   46.34 
 -11   1  -2  525.10   47.17 
 -11  -2  -2   25.44    9.03 
  -2 -11  -2   19.34    7.68 
  11  -2  -2   28.88    7.97 
  -2  11  -2   28.82    8.51 
  11  -2  -2   39.34   10.06 
   2  11  -2   16.28    5.19 
   2  11  -2   30.94    8.60 
  11   2  -2   13.93    7.35 
  11   2  -2   30.45    8.96 
  11   2  -2   27.79    8.49 
 -11   2  -2   26.10    7.83 
   2 -11  -2   28.08    9.68 
   2 -11  -2   27.68    8.74 
  11  -3  -2  447.88   42.33 
  11  -3  -2  423.76   43.81 
  -3  11  -2  467.40   45.09 
   3 -11  -2  504.15   47.47 
  11   3  -2  501.55   45.64 
  11   3  -2  443.04   43.68 
 -11  -3  -2  567.66   48.48 
  11  -3  -2  547.06   45.50 
   3  11  -2  467.47   40.86 
 -11   3  -2  489.39   45.60 
   3 -11  -2  409.52   44.01 
   3  11  -2  509.22   46.35 
  -3 -11  -2  498.58   46.56 
  11   3  -2  433.48   43.76 
  -4 -11  -2    0.17    3.77 
  11  -4  -2    0.48    4.39 
   4 -11  -2   -1.34    4.76 
  11   4  -2   -1.74    4.46 
  11  -4  -2   -0.05    4.45 
  11  -4  -2    0.27    3.28 
   4  11  -2   -1.68    4.26 
  -4  11  -2    1.48    4.48 
 -11  -4  -2   -0.05    5.04 
   4 -11  -2   -1.34    4.27 
  11   4  -2    6.35    5.40 
 -11   4  -2    5.28    5.55 
   4  11  -2   -3.89    2.83 
  11   4  -2    1.59    6.26 
 -11  -5  -2  311.73   34.41 
  -5 -11  -2  335.37   33.33 
  11   5  -2  306.03   33.04 
   5  11  -2  302.19   29.19 
  -5  11  -2  347.52   33.96 
  11   5  -2  376.42   35.33 
  11  -5  -2  303.58   32.86 
   5  11  -2  285.52   32.90 
   5 -11  -2  299.22   33.53 
   5 -11  -2  266.11   34.62 
 -11   5  -2  327.66   33.72 
  11  -5  -2  333.99   32.90 
  11  -6  -2    9.34    7.10 
   6  11  -2   14.09    6.64 
  11   6  -2   14.77    7.27 
  -6  11  -2    9.17    6.77 
   6 -11  -2   18.42    7.93 
   6 -11  -2    3.65    6.46 
   6  11  -2   10.23    5.06 
 -11   6  -2    5.82    7.00 
  11   6  -2   16.94    8.59 
 -11  -6  -2    7.22    6.56 
  11  -6  -2    2.30    5.68 
   7  11  -2  511.70   44.18 
  11  -7  -2  479.90   47.90 
   7 -11  -2  484.86   48.06 
  11   7  -2  502.70   48.00 
  11   7  -2  493.46   46.93 
 -11   7  -2  478.04   48.45 
  -7  11  -2  523.60   48.97 
   7 -11  -2  469.37   48.61 
  11  -7  -2  453.58   45.93 
   8 -11  -2   70.59   15.88 
  11  -8  -2   35.64   11.28 
  11  -8  -2   55.30   12.99 
  -8  11  -2   41.11   11.97 
 -11   8  -2   74.11   16.12 
  11   8  -2   55.20   13.97 
  11  -9  -2  299.47   31.11 
  11  -9  -2  247.65   32.90 
   9 -11  -2  317.12   36.13 
  12   0  -2  300.39   30.81 
   0  12  -2  303.00   32.07 
   0 -12  -2  295.06   33.03 
 -12   0  -2  285.97   31.44 
  12   0  -2  306.72   31.56 
  -1 -12  -2   16.23    7.67 
  12   1  -2   -4.40    3.76 
   1  12  -2    5.36    5.49 
  12   1  -2    5.54    4.22 
 -12   1  -2    1.30    4.70 
  -1  12  -2    1.14    4.99 
  12   1  -2    0.50    5.37 
  12  -1  -2   11.34    5.90 
   1 -12  -2    8.50    6.38 
  12  -1  -2    1.76    4.99 
  12  -2  -2  329.67   35.17 
  -2 -12  -2  346.36   36.93 
   2  12  -2  331.65   35.59 
  12   2  -2  369.29   35.94 
   2 -12  -2  369.00   35.40 
 -12   2  -2  312.85   34.59 
  12  -2  -2  357.25   34.09 
  -2  12  -2  383.87   36.56 
  12   2  -2  331.56   35.12 
  12   2  -2  388.12   36.60 
   2 -12  -2  346.52   38.02 
 -12   3  -2   10.66    6.69 
  12  -3  -2   24.69    8.61 
  -3 -12  -2   12.55    5.90 
  -3  12  -2   17.16    8.15 
  12   3  -2   31.37    8.93 
  12   3  -2   21.83    9.34 
  12  -3  -2   20.35    7.46 
   3  12  -2   12.01    6.61 
   3  12  -2   25.43    6.39 
  12   3  -2   12.78    6.81 
   3 -12  -2   12.68    7.21 
   3 -12  -2   32.18   10.70 
  -4  12  -2  746.79   68.44 
  12  -4  -2  764.65   67.70 
   4 -12  -2  718.88   69.54 
  -4 -12  -2  795.84   68.87 
  12  -4  -2  740.27   66.70 
 -12   4  -2  743.68   68.01 
   4  12  -2  771.78   63.30 
  12  -4  -2  788.01   64.41 
   4  12  -2  745.61   68.81 
  12   4  -2  715.54   65.77 
  12   4  -2  800.60   66.78 
  12   5  -2   -6.16    5.42 
  12  -5  -2   -4.82    4.86 
   5  12  -2   11.68    6.83 
  12   5  -2    1.42    6.12 
  12  -5  -2    0.49    5.29 
 -12   5  -2    6.26    5.02 
  -5 -12  -2    4.06    5.45 
  -5  12  -2    4.95    5.30 
   5 -12  -2   -0.73    6.63 
   5  12  -2    3.45    3.97 
   5 -12  -2   11.15    7.07 
   6 -12  -2  311.23   36.27 
  12   6  -2  315.11   33.85 
  12  -6  -2  288.44   33.85 
  -6  12  -2  377.75   36.20 
   6 -12  -2  300.43   35.54 
  12  -6  -2  255.41   32.97 
  12   6  -2  307.75   34.82 
   7 -12  -2   41.73   11.97 
  12  -7  -2   33.24   10.88 
  12  -7  -2   36.90   10.59 
   8 -12  -2  111.02   20.68 
  12  -8  -2   81.27   16.66 
  12  -8  -2  118.40   18.83 
   0 -13  -2   -8.98    4.52 
  13   0  -2   -2.98    4.13 
   0  13  -2   -0.57    5.65 
  13   0  -2    7.27    6.18 
  13  -1  -2  647.70   53.98 
   1  13  -2  539.27   55.22 
  13   1  -2  586.95   53.68 
  13   1  -2  587.18   54.38 
  -1 -13  -2  618.89   57.68 
   1 -13  -2  586.52   57.88 
  -1  13  -2  621.62   56.48 
  13  -1  -2  568.40   54.14 
  13   2  -2    8.26    6.11 
   2  13  -2   12.54    7.04 
  13   2  -2   11.84    6.62 
  -2  13  -2    2.71    5.45 
   2 -13  -2    9.34    9.00 
  13  -2  -2    3.98    5.44 
  13  -2  -2   12.53    7.11 
  -2 -13  -2   -0.23    5.03 
  13   3  -2  192.44   26.63 
  -3 -13  -2  161.05   25.45 
  13  -3  -2  221.06   25.16 
  13   3  -2  209.98   26.17 
   3 -13  -2  201.64   29.27 
  13  -3  -2  199.88   26.62 
  -3  13  -2  232.44   27.86 
   3  13  -2  182.56   25.82 
   3 -13  -2  186.46   24.77 
  13   3  -2  194.48   26.41 
   4 -13  -2    7.36    6.69 
  13   4  -2  -10.14    5.17 
  -4 -13  -2   14.47    7.69 
  13  -4  -2    0.36    5.82 
   5 -13  -2  160.30   24.13 
  13  -5  -2  168.84   24.21 
   6 -13  -2    8.09    7.25 
  13  -6  -2    2.34    5.27 
  13  -6  -2    2.51    5.60 
  13  -7  -2  258.40   32.22 
  13  -7  -2  291.28   31.88 
   7 -13  -2  293.32   35.60 
  14   0  -2  174.87   25.07 
  14  -1  -2   12.35    7.22 
  14   1  -2   -0.40    6.18 
  14   2  -2  245.71   32.59 
  14  -2  -2  342.46   33.38 
  14   3  -2   16.70    7.72 
  14  -3  -2   -0.34    5.38 
  14  -4  -2  223.72   27.80 
   4 -14  -2  182.18   25.70 
   0   0  -1    0.03    0.99 
   0   0  -1    2.68    1.82 
   0  -1  -1 1986.01  133.66 
   1   0  -1 1623.87  132.98 
  -1   0  -1 1571.76  133.74 
   1   0  -1 1705.25  130.93 
  -1   0  -1 1505.07  133.74 
   0  -1  -1 1943.61  131.24 
   1  -1  -1   17.56    2.77 
   1  -1  -1   12.81    2.60 
  -1   1  -1   15.79    2.38 
  -1  -1  -1   14.94    2.85 
  -1  -1  -1   15.42    2.20 
  -1  -1  -1   17.69    2.74 
  -2   0  -1   -0.29    2.00 
   2   0  -1    2.05    0.97 
   2   0  -1   -0.49    1.78 
  -2   0  -1    0.30    2.11 
   0  -2  -1   -1.64    1.39 
   2   0  -1   -0.92    1.56 
   0  -2  -1    2.08    2.17 
   0   2  -1    0.54    0.77 
  -2   0  -1   -1.44    1.91 
   0   2  -1   -2.37    0.79 
   2  -1  -1 1774.22  127.05 
  -1  -2  -1 1768.92  130.40 
  -2   1  -1 1852.74  133.33 
   2  -1  -1 1778.81  132.20 
  -2  -1  -1 1573.31  132.81 
  -2  -1  -1 1668.48  130.62 
   1  -2  -1 1780.47  132.89 
   2   1  -1 1690.99  129.95 
  -1  -2  -1 1584.61  132.86 
  -1  -2  -1 1724.32  132.79 
   1  -2  -1 1711.40  130.52 
  -1   2  -1 1666.65  130.11 
   2   1  -1 1617.71  127.28 
   2   1  -1 1630.85  130.14 
  -2  -1  -1 1724.52  132.56 
  -1   2  -1 1723.88  133.16 
   2   2  -1 1277.51   90.30 
  -2  -2  -1 1138.05   92.88 
   2  -2  -1 1157.70   88.37 
  -2  -2  -1 1184.67   92.76 
   2  -2  -1 1184.28   91.71 
  -2   2  -1 1167.24   93.17 
  -2  -2  -1 1189.03   91.17 
   2   2  -1 1189.63   90.67 
   2   2  -1 1172.59   89.16 
   2  -2  -1 1131.78   92.72 
   0   3  -1 1712.26  135.17 
  -3   0  -1 1877.93  140.13 
   3   0  -1 1864.37  133.40 
   0   3  -1 1821.14  135.63 
  -3   0  -1 1686.37  138.82 
   0   3  -1 1714.31  139.33 
  -3   0  -1 1717.77  137.46 
   0  -3  -1 1836.56  139.24 
   0  -3  -1 1806.71  136.26 
   3   0  -1 1780.36  136.77 
  -1  -3  -1  849.13   69.20 
  -3  -1  -1  825.35   68.19 
   3  -1  -1  857.64   66.27 
   1  -3  -1  782.91   69.15 
  -3  -1  -1  826.44   69.18 
   1   3  -1  937.75   65.65 
  -1   3  -1  921.41   69.39 
  -3   1  -1  843.53   69.54 
   3  -1  -1  855.68   68.05 
  -1  -3  -1  889.29   67.53 
   1  -3  -1  876.53   67.86 
   3   1  -1  764.86   67.66 
   1   3  -1  908.15   66.47 
  -1   3  -1  903.75   67.70 
   1   3  -1  898.40   66.52 
  -3  -1  -1  866.87   68.60 
   3  -1  -1  898.22   68.45 
   3  -2  -1 1230.20   95.88 
   3   2  -1 1212.80   93.73 
   3  -2  -1 1211.82   91.86 
  -3  -2  -1 1237.26   94.52 
  -2   3  -1 1245.41   96.64 
  -2  -3  -1 1206.52   96.28 
   2  -3  -1 1321.14   90.98 
  -2  -3  -1 1345.33   96.46 
   2   3  -1 1258.42   92.06 
  -3  -2  -1 1059.10   96.09 
   3  -2  -1 1179.22   95.09 
  -3   2  -1 1156.11   96.52 
   3  -2  -1 1197.78   97.36 
   2  -3  -1 1278.82   96.58 
   2   3  -1 1240.30   93.39 
   3   2  -1 1133.09   94.16 
  -3  -2  -1 1103.11   95.37 
   3   2  -1 1112.39   92.52 
  -2  -3  -1 1317.85   94.32 
   2   3  -1 1287.88   93.20 
  -3  -3  -1    3.78    2.21 
   3  -3  -1    3.64    3.00 
  -3  -3  -1   -3.38    1.00 
   3  -3  -1    0.28    1.75 
   3   3  -1   -0.04    2.07 
   3  -3  -1    1.49    2.28 
  -3   3  -1    0.91    1.97 
  -3  -3  -1   -1.20    1.78 
   3   3  -1    1.10    1.68 
   3   3  -1    1.83    1.75 
   3  -3  -1    2.96    1.92 
   0   4  -1   -2.02    2.02 
   0   4  -1   -3.18    1.23 
  -4   0  -1   -2.30    1.94 
  -4   0  -1   -1.52    2.54 
  -4   0  -1   -1.93    2.08 
   0  -4  -1   -1.54    1.51 
   0  -4  -1   -2.23    1.72 
   4   0  -1    0.94    2.41 
   4   0  -1   -4.93    1.70 
   0   4  -1    0.13    1.44 
   0   4  -1   -1.53    1.77 
   0  -4  -1   -2.46    2.07 
   1   4  -1 1515.68  109.01 
   4  -1  -1 1322.54  111.01 
   4  -1  -1 1304.05  110.92 
   4  -1  -1 1430.92  107.98 
  -4  -1  -1 1396.99  111.14 
  -4  -1  -1 1339.31  113.18 
  -4   1  -1 1364.64  113.56 
  -4  -1  -1 1458.09  111.71 
   4  -1  -1 1395.06  113.28 
  -1   4  -1 1534.57  110.40 
   1  -4  -1 1500.65  110.44 
  -1  -4  -1 1541.04  113.06 
   1   4  -1 1499.96  109.17 
   4   1  -1 1159.55  110.34 
  -1   4  -1 1469.52  113.01 
   4   1  -1 1304.06  108.12 
   1   4  -1 1489.08  106.52 
   1  -4  -1 1605.57  113.83 
   4  -2  -1    3.39    2.45 
   2  -4  -1    7.69    1.82 
   2   4  -1    3.84    2.23 
   2   4  -1    6.35    1.99 
  -4  -2  -1   -0.64    1.86 
  -4  -2  -1    5.62    2.30 
  -2  -4  -1    1.72    2.13 
   4  -2  -1    2.45    2.37 
   4   2  -1    5.42    3.10 
   2  -4  -1    4.37    2.23 
   4  -2  -1    6.40    2.65 
   2   4  -1    4.03    1.98 
   4   2  -1    2.26    2.44 
   4  -2  -1    4.59    2.83 
  -2  -4  -1    3.95    2.69 
  -4   2  -1    5.11    3.03 
   2  -4  -1    6.52    2.93 
  -2   4  -1    7.06    3.08 
   2  -4  -1    3.47    3.06 
  -4  -2  -1    1.22    2.08 
  -3  -4  -1 1293.99  104.16 
  -4   3  -1 1200.49  104.41 
  -4  -3  -1 1303.04  101.79 
   4  -3  -1 1293.18   98.90 
   4  -3  -1 1318.13  103.89 
  -4  -3  -1 1077.65  103.68 
   3  -4  -1 1422.87  102.93 
   3   4  -1 1416.11   99.84 
  -4  -3  -1 1225.40  102.88 
   3   4  -1 1376.78  101.12 
  -3  -4  -1 1408.40  103.88 
   3   4  -1 1422.47  100.85 
   3  -4  -1 1391.75  105.86 
   4  -3  -1 1256.25  105.42 
   4   3  -1 1165.48   99.88 
   3  -4  -1 1542.51   98.22 
   4   3  -1 1274.69  101.21 
   4   3  -1 1175.81  101.52 
   3  -4  -1 1374.71  104.62 
  -3   4  -1 1372.23  104.74 
   4  -3  -1 1169.20  102.48 
   4  -4  -1   27.26    4.75 
   4   4  -1   14.45    4.16 
  -4  -4  -1   17.57    4.64 
   4   4  -1   25.32    4.77 
   4  -4  -1   19.76    5.03 
   4   4  -1   23.01    5.81 
   4  -4  -1   34.98    6.66 
  -4   4  -1   23.61    5.95 
  -4  -4  -1   20.53    5.18 
   4  -4  -1   22.03    5.56 
   4  -4  -1   31.95    7.00 
   5   0  -1 1214.00  106.25 
  -5   0  -1 1343.12  109.28 
  -5   0  -1 1440.50  107.03 
  -5   0  -1 1246.30  106.96 
   0   5  -1 1396.54  104.84 
   0   5  -1 1371.70  108.31 
   5   0  -1 1332.41  103.89 
   5   0  -1 1398.75  107.91 
   0  -5  -1 1392.73  108.01 
   0   5  -1 1415.55  100.58 
   0   5  -1 1304.29  104.17 
   5  -1  -1  521.36   42.99 
   1   5  -1  522.56   40.21 
  -5  -1  -1  519.03   41.41 
   1   5  -1  531.38   39.19 
  -5   1  -1  463.41   43.46 
   1  -5  -1  507.08   42.92 
   1  -5  -1  543.27   41.67 
  -1   5  -1  529.56   42.91 
   5  -1  -1  459.41   42.24 
  -1  -5  -1  498.88   41.75 
   5  -1  -1  469.16   40.98 
   1   5  -1  507.91   40.33 
   1  -5  -1  474.92   43.08 
  -1  -5  -1  486.93   43.08 
   5   1  -1  490.99   41.81 
   5   1  -1  513.52   42.51 
  -5  -1  -1  484.58   43.44 
   5  -1  -1  493.88   40.99 
  -5  -1  -1  515.19   42.72 
  -1   5  -1  536.22   41.51 
   2  -5  -1 1179.05   93.13 
   5   2  -1 1164.51   93.28 
   5  -2  -1 1408.53   95.11 
   2  -5  -1  994.32   94.82 
   2   5  -1 1141.69   91.50 
  -5  -2  -1 1271.24   95.87 
  -2  -5  -1 1048.85   94.72 
  -5  -2  -1 1446.03   94.33 
  -5  -2  -1 1281.20   93.38 
   2  -5  -1 1040.29   95.55 
   2  -5  -1 1134.89   87.53 
   2   5  -1 1040.41   91.17 
   5  -2  -1 1385.77   96.55 
  -5   2  -1 1347.09   96.48 
  -2   5  -1 1054.39   94.90 
   5  -2  -1 1285.16   93.87 
  -2  -5  -1 1017.74   94.62 
   5  -2  -1 1347.75   91.31 
   2   5  -1 1119.79   89.58 
   5   2  -1 1184.19   91.71 
   5   3  -1   43.23    8.17 
   3  -5  -1   32.23    4.09 
   3  -5  -1   27.07    6.88 
  -3  -5  -1   30.03    6.33 
   5  -3  -1   39.98    6.77 
   5  -3  -1   38.24    7.91 
   5   3  -1   26.70    5.99 
   5  -3  -1   24.98    5.50 
  -3  -5  -1   33.55    6.54 
  -5  -3  -1   32.05    7.16 
   3  -5  -1   32.10    5.52 
  -3   5  -1   32.46    6.77 
  -5  -3  -1   33.37    5.43 
   5  -3  -1   30.02    6.88 
  -5   3  -1   21.32    6.02 
   3  -5  -1   30.59    7.19 
   3  -5  -1   29.00    6.19 
  -5  -3  -1   38.35    6.54 
   3   5  -1   36.08    6.42 
   3   5  -1   31.05    5.20 
   3   5  -1   44.34    5.53 
  -5  -4  -1 1176.52  103.36 
  -5   4  -1 1133.56  105.38 
   4   5  -1 1456.15  102.22 
   4  -5  -1 1603.03  104.62 
   4  -5  -1 1585.54  107.98 
   5  -4  -1 1117.59  102.23 
   5  -4  -1 1144.92  104.52 
  -4  -5  -1 1441.36  105.79 
   5  -4  -1 1228.54   99.20 
   5  -4  -1 1209.86  103.73 
  -5  -4  -1 1123.56  104.89 
   5  -4  -1 1078.49  105.86 
   4  -5  -1 1588.14  106.55 
   4   5  -1 1583.88  101.59 
   5   4  -1 1104.31  100.68 
  -4  -5  -1 1598.09  105.32 
   5   4  -1 1148.22  102.42 
  -4   5  -1 1482.90  106.27 
   5  -5  -1   76.56    9.29 
  -5  -5  -1   80.28   10.51 
   5  -5  -1   76.48   12.53 
   5   5  -1   68.59   11.27 
   5  -5  -1  107.49   12.17 
   5  -5  -1   70.13   11.53 
   5   5  -1   76.40   10.28 
  -5  -5  -1   84.68   11.82 
  -5   5  -1   97.04   12.81 
   5  -5  -1   87.12   12.47 
   0   6  -1    4.71    3.01 
   0  -6  -1   -0.22    2.36 
   6   0  -1    5.39    3.04 
   0   6  -1    3.15    2.05 
   0  -6  -1    9.60    3.32 
  -6   0  -1    3.48    2.66 
   6   0  -1    2.51    2.51 
  -6   0  -1   -1.51    2.88 
   0   6  -1    6.04    2.50 
  -6   0  -1    1.00    2.34 
   6   0  -1    1.99    3.00 
   1  -6  -1 1123.13   84.98 
  -1  -6  -1 1085.19   84.42 
   1  -6  -1 1161.59   84.46 
   1   6  -1 1085.96   84.28 
   6   1  -1  875.42   82.13 
  -6   1  -1  893.44   83.03 
  -6   1  -1  869.17   82.24 
  -6  -1  -1  967.60   82.78 
   6   1  -1 1007.88   82.51 
   6   1  -1  926.26   80.74 
   6  -1  -1  950.56   82.79 
  -6  -1  -1  961.53   84.66 
   6  -1  -1 1011.87   83.78 
   1   6  -1 1177.27   77.50 
  -1   6  -1 1133.54   84.28 
   6  -1  -1  901.11   80.04 
   1   6  -1 1210.10   80.94 
   1   6  -1 1108.84   80.36 
   6  -1  -1  930.57   80.92 
  -6  -1  -1 1033.20   81.61 
  -1  -6  -1 1182.17   83.13 
  -6   1  -1  984.81   84.75 
  -2   6  -1  349.22   30.87 
  -6   2  -1  318.38   31.13 
   2  -6  -1  328.66   31.32 
   6  -2  -1  317.61   28.89 
   6  -2  -1  293.86   30.09 
  -6  -2  -1  362.01   31.51 
   6   2  -1  317.64   29.98 
  -6  -2  -1  358.40   28.50 
   2   6  -1  342.31   27.98 
   2   6  -1  339.84   27.35 
  -6  -2  -1  385.52   30.84 
   6  -2  -1  316.47   28.84 
   6   2  -1  344.38   30.62 
   2  -6  -1  313.24   27.15 
  -2  -6  -1  307.74   30.55 
  -2  -6  -1  338.88   28.35 
   2   6  -1  350.22   28.10 
   2  -6  -1  322.91   30.62 
   6  -2  -1  354.04   30.95 
   6   3  -1  970.18   74.64 
   6  -3  -1  999.24   74.66 
  -6  -3  -1 1055.64   76.95 
   3  -6  -1  806.17   76.03 
   6   3  -1 1006.59   73.82 
   3  -6  -1  801.14   75.53 
  -6  -3  -1  987.35   73.35 
  -6   3  -1 1046.09   77.05 
   6  -3  -1 1039.29   77.25 
  -3  -6  -1  804.50   74.94 
   3   6  -1  857.53   72.25 
   6  -3  -1 1044.04   75.71 
  -3   6  -1  782.80   75.19 
   6  -3  -1 1072.27   72.44 
   6  -3  -1 1072.26   75.11 
   3   6  -1  797.02   70.56 
   3  -6  -1  800.16   71.49 
  -3  -6  -1  779.55   74.85 
   6  -4  -1  124.24   16.01 
  -6   4  -1  127.97   15.90 
  -4  -6  -1  113.66   14.50 
  -4  -6  -1   96.00   13.75 
   6  -4  -1  127.47   15.85 
   4  -6  -1  118.53   15.90 
   4  -6  -1  106.98   15.34 
  -6  -4  -1  119.65   12.14 
   4   6  -1  104.06   11.88 
   6   4  -1  132.33   15.85 
   6  -4  -1  123.48   14.70 
   4   6  -1  136.50   13.50 
   4  -6  -1  135.12   12.88 
  -6  -4  -1  115.44   15.03 
   6  -4  -1  109.64   12.89 
  -4   6  -1  114.40   15.13 
   6  -4  -1  136.91   15.38 
   6   4  -1  123.09   14.66 
  -6   5  -1  614.21   52.65 
   6  -5  -1  602.09   50.72 
   5  -6  -1  626.76   50.09 
   6   5  -1  607.34   50.64 
  -5  -6  -1  618.31   51.11 
  -5   6  -1  609.66   52.99 
   5   6  -1  633.81   50.00 
   6   5  -1  582.36   50.48 
   5  -6  -1  620.76   53.38 
   5   6  -1  627.50   50.00 
  -6  -5  -1  591.70   50.02 
   6  -5  -1  638.95   52.26 
  -6  -5  -1  551.99   51.93 
   6  -5  -1  528.16   52.32 
   6  -5  -1  612.82   48.08 
  -5  -6  -1  574.45   51.99 
   5  -6  -1  631.60   52.80 
   6  -6  -1   14.40    5.77 
   6  -6  -1   13.25    4.38 
   6  -6  -1    9.14    5.08 
   6   6  -1    7.25    4.78 
   6   6  -1    4.16    3.40 
  -6  -6  -1    8.92    3.86 
  -6  -6  -1    5.93    4.44 
  -6   6  -1    3.26    4.44 
   0  -7  -1  708.35   66.35 
  -7   0  -1  982.86   68.73 
  -7   0  -1  917.87   69.61 
   7   0  -1  849.59   65.67 
   7   0  -1  965.09   67.56 
   7   0  -1  932.20   68.21 
   0   7  -1  682.52   67.05 
   0   7  -1  646.06   63.72 
   1   7  -1   15.23    3.95 
  -1   7  -1   19.48    5.60 
  -7   1  -1   11.14    5.09 
   7   1  -1   17.46    5.51 
   7   1  -1   11.70    5.29 
   1  -7  -1   17.22    5.01 
   1  -7  -1   19.56    6.12 
   7  -1  -1   16.27    5.27 
  -1  -7  -1    9.13    4.99 
  -7   1  -1   23.02    5.22 
  -7   1  -1   12.54    5.16 
   7  -1  -1   13.15    5.25 
   7  -1  -1   14.01    5.43 
  -7  -1  -1   15.50    3.95 
   7  -1  -1   14.28    4.75 
  -7  -1  -1   24.38    7.25 
   1   7  -1   12.97    5.00 
   7   1  -1   18.75    4.42 
  -1  -7  -1   18.32    4.36 
  -7  -2  -1  732.74   63.07 
  -2  -7  -1  930.69   67.63 
   2   7  -1  947.48   63.51 
   7   2  -1  681.47   65.27 
   7  -2  -1  702.95   66.02 
   7  -2  -1  685.73   65.45 
  -7   2  -1  728.40   67.10 
   2   7  -1  983.66   68.04 
   7  -2  -1  744.94   63.26 
   2  -7  -1  935.37   67.44 
   2  -7  -1  969.29   68.64 
   7   2  -1  641.02   63.39 
  -7  -2  -1  700.42   66.86 
   7  -2  -1  649.69   64.38 
  -2   7  -1  967.92   67.87 
   3  -7  -1    7.76    4.42 
  -3   7  -1    5.79    4.13 
   3  -7  -1   10.91    2.83 
  -7  -3  -1    7.12    2.32 
   3   7  -1   13.28    3.44 
  -7   3  -1    3.29    4.01 
   7   3  -1   -0.67    3.73 
   7  -3  -1   10.61    4.19 
   7  -3  -1    4.52    3.57 
   7  -3  -1    6.11    3.84 
   7  -3  -1    4.68    3.54 
  -7  -3  -1    6.38    3.95 
   3   7  -1    6.34    3.15 
   7   3  -1   10.44    4.62 
   3  -7  -1    3.10    3.83 
   7  -3  -1   10.67    4.17 
  -3  -7  -1    8.46    4.33 
  -4  -7  -1  491.99   47.90 
   4  -7  -1  513.04   49.35 
   7   4  -1  592.05   47.64 
   4  -7  -1  559.27   49.89 
  -4   7  -1  570.86   49.63 
   4   7  -1  528.83   46.03 
  -7  -4  -1  591.57   49.75 
  -7   4  -1  667.78   50.95 
   7   4  -1  591.94   48.43 
   7  -4  -1  578.80   49.89 
  -4  -7  -1  498.34   48.37 
   7  -4  -1  607.78   46.41 
   7   4  -1  620.53   49.09 
   4   7  -1  537.67   45.52 
   4  -7  -1  498.41   45.37 
   7  -4  -1  618.63   48.71 
   7  -4  -1  561.07   48.20 
   7  -5  -1    6.14    4.66 
   5  -7  -1   11.02    4.31 
   7   5  -1   20.75    6.85 
   7  -5  -1    8.53    5.00 
   5   7  -1   17.64    4.49 
   7   5  -1   13.32    5.46 
   5   7  -1   12.84    5.01 
   5  -7  -1   15.87    6.31 
   7  -5  -1    9.97    5.14 
  -5  -7  -1    9.86    4.19 
   5  -7  -1   10.51    5.37 
  -5  -7  -1   14.82    5.23 
  -7  -5  -1    1.54    4.51 
  -5   7  -1    8.34    4.71 
  -7   5  -1   11.69    5.45 
   7  -5  -1    8.60    3.99 
   7   5  -1   11.97    4.92 
   6  -7  -1  378.98   41.83 
   6   7  -1  379.41   39.44 
  -6   7  -1  421.65   42.72 
   6  -7  -1  459.73   40.34 
   7   6  -1  566.13   42.90 
  -7  -6  -1  550.03   44.12 
  -6  -7  -1  433.32   42.32 
   7  -6  -1  544.96   43.48 
   7  -6  -1  562.46   42.30 
   6   7  -1  459.57   40.77 
   6  -7  -1  381.33   42.36 
  -6  -7  -1  413.50   40.40 
   7  -6  -1  497.05   43.89 
  -7   6  -1  553.13   44.63 
   7   6  -1  569.35   42.57 
   7  -7  -1   30.59    8.60 
   7   7  -1   37.33    9.01 
  -7   7  -1   17.10    6.56 
   7  -7  -1   27.72    8.39 
   7  -7  -1   14.68    5.91 
   7   7  -1   31.10    7.50 
  -7  -7  -1   29.34    8.25 
   8   0  -1    3.64    3.52 
   8   0  -1    3.56    3.23 
   0  -8  -1    0.59    2.46 
   8   0  -1    2.37    3.54 
   0  -8  -1    0.11    3.45 
  -8   0  -1    3.37    3.67 
   0   8  -1    3.88    3.87 
   8   0  -1    2.77    3.15 
  -8   1  -1  680.42   55.84 
   8   1  -1  660.42   53.85 
   8  -1  -1  739.45   55.35 
  -8  -1  -1  683.55   56.14 
   1  -8  -1  576.17   54.86 
  -1   8  -1  586.73   54.18 
  -1  -8  -1  598.32   54.81 
   1   8  -1  551.91   50.49 
   8   1  -1  662.48   54.51 
   8  -1  -1  624.16   52.36 
   8  -1  -1  700.89   54.31 
  -1  -8  -1  568.75   52.01 
   8  -1  -1  699.00   54.09 
   1  -8  -1  518.33   52.64 
   8   1  -1  707.43   53.78 
  -8  -2  -1   50.89   10.87 
   2   8  -1   47.82    9.55 
   2  -8  -1   45.95    9.17 
   8  -2  -1   50.41    9.26 
   2  -8  -1   44.96   10.04 
   8  -2  -1   64.46   10.53 
   8   2  -1   50.82   10.47 
   8   2  -1   55.45   10.49 
   8  -2  -1   51.27   10.32 
  -8   2  -1   39.65    9.17 
   2   8  -1   61.87    8.41 
  -2  -8  -1   44.59   10.04 
  -8   2  -1   39.73    9.18 
  -8   2  -1   47.10    8.43 
   8   2  -1   40.31    9.36 
   8  -2  -1   63.01   11.05 
  -2   8  -1   38.01    9.04 
   3   8  -1  632.33   47.91 
   8  -3  -1  555.95   47.88 
   8  -3  -1  526.42   49.42 
   8  -3  -1  581.10   50.78 
   8  -3  -1  564.61   50.61 
  -3   8  -1  662.34   51.64 
  -8  -3  -1  597.24   52.03 
  -8   3  -1  560.21   51.48 
   8   3  -1  612.15   49.85 
   8   3  -1  552.01   49.33 
  -3  -8  -1  579.86   50.74 
   3  -8  -1  511.59   50.18 
   8   3  -1  577.48   50.76 
   3  -8  -1  540.03   51.14 
   4   8  -1   83.13   10.79 
   4  -8  -1   61.25   12.37 
  -4  -8  -1   82.31   12.94 
   8   4  -1   80.22   13.61 
   8  -4  -1   91.83   12.55 
   4  -8  -1   90.72   14.78 
   8  -4  -1   74.04   12.92 
   8  -4  -1   85.97   13.69 
   8   4  -1   80.21   13.61 
  -8  -4  -1   83.18   13.98 
  -8   4  -1   68.36   13.60 
  -4   8  -1   85.19   13.71 
   8   4  -1  107.77   13.81 
  -8  -5  -1  422.38   44.11 
   5   8  -1  585.55   42.18 
   8   5  -1  442.22   42.82 
   8  -5  -1  401.62   43.74 
  -5  -8  -1  539.71   45.06 
  -8   5  -1  432.38   44.38 
   8  -5  -1  421.54   42.47 
  -5   8  -1  639.94   47.08 
   8  -5  -1  433.11   40.29 
   5  -8  -1  511.19   45.46 
   5  -8  -1  525.31   45.55 
  -5  -8  -1  568.64   44.23 
   8   5  -1  433.98   43.29 
   8   6  -1   25.04    8.25 
   8   6  -1   36.28    8.91 
  -6  -8  -1   37.51    9.17 
   6  -8  -1   37.87    7.19 
   6   8  -1   33.69    7.61 
   6  -8  -1   24.14    8.51 
   8  -6  -1   31.33    8.66 
  -6   8  -1   27.04    8.41 
  -8  -6  -1   40.25    9.55 
  -6  -8  -1   26.30    7.35 
  -8   6  -1   27.03    8.83 
   8  -6  -1   27.42    7.66 
   6  -8  -1   35.19    9.19 
  -8   7  -1  466.60   39.41 
   8  -7  -1  441.44   36.00 
  -8  -7  -1  415.03   37.84 
   8  -7  -1  391.75   37.78 
  -7  -8  -1  312.38   35.52 
   8   7  -1  444.43   36.76 
   7   8  -1  302.94   33.29 
   8   7  -1  442.81   36.44 
   7  -8  -1  330.46   36.62 
  -7   8  -1  338.11   36.72 
   7  -8  -1  336.90   36.02 
   7  -8  -1  356.47   33.71 
   8  -8  -1    0.03    4.30 
   8  -8  -1    1.48    4.07 
  -8  -8  -1    1.10    4.86 
   8   8  -1   -4.53    2.86 
   8  -8  -1   -6.04    3.48 
  -8   8  -1    1.05    4.68 
   9   0  -1  532.29   46.05 
   9   0  -1  492.88   44.98 
   9   0  -1  529.61   46.72 
  -9   0  -1  516.02   47.45 
  -9  -1  -1   61.18   12.14 
   1   9  -1   46.76    7.88 
   9   1  -1   70.51   11.73 
   1  -9  -1   37.60    8.56 
   9  -1  -1   53.60   10.57 
  -9   1  -1   56.62   11.60 
   9   1  -1   48.86   10.20 
   9  -1  -1   50.21   10.36 
   9  -1  -1   45.93   10.51 
   9  -1  -1   61.14   10.34 
   9   1  -1   46.74   10.18 
  -1   9  -1   43.60    9.72 
  -1  -9  -1   34.60    9.73 
   1   9  -1   42.62    9.49 
   1  -9  -1   53.83   11.45 
  -2  -9  -1  497.18   47.85 
   9  -2  -1  626.66   48.08 
  -9   2  -1  551.14   48.39 
  -2   9  -1  485.19   47.00 
  -9  -2  -1  605.11   50.00 
   9   2  -1  539.21   46.80 
   2  -9  -1  438.22   47.23 
   9   2  -1  578.71   47.06 
   9  -2  -1  588.01   48.25 
   9   2  -1  511.61   47.18 
   9  -2  -1  520.78   46.82 
   2   9  -1  492.83   43.70 
   2   9  -1  486.71   47.19 
   2  -9  -1  461.59   46.17 
   9  -2  -1  587.95   46.10 
   9   3  -1    5.69    4.74 
   9   3  -1   12.03    6.19 
   9  -3  -1   12.28    5.33 
   9  -3  -1    9.84    5.43 
  -3   9  -1   11.78    5.59 
   3   9  -1    6.81    3.59 
   3  -9  -1   17.11    6.23 
  -9   3  -1    6.22    4.97 
   9  -3  -1    7.45    4.36 
   3   9  -1    0.49    3.17 
   3  -9  -1   15.39    6.66 
   9   3  -1   19.23    6.79 
  -9  -3  -1    8.53    5.17 
  -3  -9  -1   -0.49    4.21 
   9   4  -1  534.89   40.46 
   9   4  -1  500.13   41.78 
  -4  -9  -1  357.14   39.16 
   9   4  -1  433.29   39.90 
   9  -4  -1  477.44   41.33 
  -9   4  -1  457.86   41.71 
   9  -4  -1  491.26   38.36 
  -9  -4  -1  505.09   43.11 
   4  -9  -1  364.36   40.17 
   4  -9  -1  381.87   39.98 
   4   9  -1  373.19   36.70 
   9  -4  -1  406.96   39.42 
  -4   9  -1  390.24   40.06 
   9   5  -1   -1.65    4.55 
  -5  -9  -1    4.82    4.35 
  -5   9  -1    1.32    3.85 
   9   5  -1    2.71    4.81 
   5  -9  -1    8.25    5.85 
   5  -9  -1    7.63    5.32 
   5   9  -1    4.33    3.68 
  -9   5  -1   -1.71    4.09 
  -9  -5  -1    8.81    5.42 
   9  -5  -1    1.87    4.59 
   9  -5  -1    0.26    4.50 
   9  -5  -1    0.90    3.64 
   9   6  -1  302.26   31.26 
   9  -6  -1  276.01   31.88 
   6  -9  -1  338.87   33.20 
   9  -6  -1  281.93   30.84 
   9   6  -1  310.69   31.84 
  -9   6  -1  294.77   32.56 
  -6  -9  -1  350.62   33.33 
  -6   9  -1  317.78   32.92 
  -9  -6  -1  325.55   33.61 
   6   9  -1  336.40   29.76 
   6  -9  -1  298.68   32.89 
  -6  -9  -1  359.10   31.55 
  -7  -9  -1    3.24    5.76 
   7   9  -1   -0.66    2.98 
  -9   7  -1   -0.72    3.72 
  -7   9  -1    6.68    5.58 
   7  -9  -1    2.05    6.14 
  -9  -7  -1    2.01    4.56 
   9   7  -1    6.06    4.53 
   9  -7  -1    5.74    5.32 
   7  -9  -1    4.76    4.97 
   9  -7  -1    2.14    5.08 
   9   7  -1    3.28    5.06 
  -9   8  -1  208.67   26.97 
   9   8  -1  209.94   24.12 
   8  -9  -1  158.20   25.03 
  -9  -8  -1  188.29   26.04 
   9  -8  -1  151.08   21.99 
  -8  -9  -1  235.00   27.36 
   9   8  -1  208.53   25.36 
   8  -9  -1  228.21   26.72 
   8   9  -1  196.89   23.01 
  -8   9  -1  279.22   26.66 
   9  -8  -1  137.37   24.00 
   9   9  -1    0.66    4.45 
   9  -9  -1   10.51    6.52 
  -9   9  -1    0.49    5.89 
  -9  -9  -1   -7.16    5.16 
 -10   0  -1    3.07    4.53 
   0  10  -1    5.10    4.39 
  10   0  -1   -0.79    3.34 
   0 -10  -1    0.91    4.61 
  10   0  -1    2.72    3.94 
  10   0  -1    1.43    3.44 
   0 -10  -1    6.23    3.62 
  10   1  -1  366.29   35.30 
   1 -10  -1  320.20   34.15 
  -1 -10  -1  333.30   36.32 
  10   1  -1  423.39   37.06 
  10  -1  -1  407.06   35.50 
 -10   1  -1  374.50   36.64 
   1  10  -1  343.33   35.64 
   1 -10  -1  320.61   36.19 
  10  -1  -1  455.33   38.00 
  10   1  -1  424.72   36.74 
  10  -1  -1  355.50   35.66 
  -1  10  -1  369.75   36.20 
 -10  -1  -1  419.16   38.17 
  10   2  -1    2.82    4.57 
   2 -10  -1    0.33    3.61 
   2  10  -1    7.59    4.86 
  -2 -10  -1    5.23    4.44 
 -10   2  -1   -4.62    3.52 
   2 -10  -1   -4.22    2.90 
  10   2  -1    1.82    4.37 
   2  10  -1    3.42    3.43 
  10  -2  -1    7.62    5.35 
  10  -2  -1    4.39    4.36 
  -2  10  -1   -3.50    3.47 
 -10  -2  -1   -3.68    3.91 
  10  -2  -1    2.18    4.23 
  10   2  -1    1.33    4.85 
  10   3  -1  343.09   35.94 
  10  -3  -1  351.95   36.71 
  10  -3  -1  331.96   34.47 
   3  10  -1  473.01   35.08 
   3 -10  -1  450.08   38.25 
  10   3  -1  352.16   37.17 
 -10  -3  -1  314.20   37.44 
   3  10  -1  489.49   39.65 
  -3  10  -1  446.46   38.74 
  10   3  -1  336.69   36.28 
  -3 -10  -1  427.34   38.51 
 -10   3  -1  376.89   37.75 
   3 -10  -1  409.94   39.30 
  10  -3  -1  343.01   36.36 
  10  -4  -1   22.35    6.71 
   4  10  -1   12.56    6.15 
  -4  10  -1   17.56    7.25 
  10  -4  -1   10.60    6.46 
  -4 -10  -1   11.68    5.62 
  10   4  -1   16.32    6.85 
   4 -10  -1    6.67    5.87 
  10  -4  -1   14.83    6.99 
   4 -10  -1   17.14    7.64 
  10   4  -1   15.75    7.81 
 -10   4  -1    8.36    6.01 
 -10  -4  -1   14.48    7.23 
  10   4  -1   21.82    7.69 
   4  10  -1   18.36    5.64 
  10   5  -1  351.34   31.43 
  -5 -10  -1  258.78   27.74 
   5  10  -1  251.09   28.56 
  -5  10  -1  253.43   28.75 
  10   5  -1  298.11   29.46 
   5 -10  -1  249.52   30.66 
   5  10  -1  221.62   25.03 
 -10   5  -1  281.97   29.98 
  10  -5  -1  284.31   28.91 
  10  -5  -1  279.35   29.47 
 -10  -5  -1  346.59   32.40 
   5 -10  -1  240.15   30.18 
  10   6  -1   13.10    7.55 
 -10   6  -1   -5.23    4.86 
  10   6  -1    2.95    4.90 
 -10  -6  -1    4.37    6.44 
   6  10  -1   13.07    5.16 
   6 -10  -1   11.01    7.28 
  10  -6  -1   17.66    7.37 
   6 -10  -1   21.18    7.95 
  10  -6  -1   14.65    6.72 
  -6  10  -1   13.97    7.04 
  10  -7  -1  160.34   25.07 
  10  -7  -1  190.66   24.87 
 -10   7  -1  216.67   28.11 
  10   7  -1  211.08   26.57 
  10   7  -1  208.59   26.26 
  -7  10  -1  239.07   28.30 
   7 -10  -1  195.50   26.57 
   7  10  -1  217.25   22.37 
 -10  -7  -1  233.21   28.64 
   7 -10  -1  209.28   27.40 
   8 -10  -1    4.92    7.92 
   8  10  -1    3.50    4.15 
  10  -8  -1   -4.18    4.47 
   8 -10  -1    5.61    5.66 
  10  -8  -1   10.66    6.58 
 -10  -8  -1    4.04    6.08 
  10   8  -1    6.75    7.01 
  -8 -10  -1   16.42    8.57 
  10   8  -1   -4.16    4.05 
  -8  10  -1   -0.54    5.24 
 -10   8  -1   -5.68    5.34 
  10   9  -1  158.53   22.34 
  -9  10  -1  141.19   22.75 
   9 -10  -1  114.59   20.58 
  10  -9  -1  112.98   20.37 
   9  10  -1  128.02   19.01 
  10  -9  -1  161.98   20.86 
 -10   9  -1  147.41   23.73 
  -9 -10  -1  111.18   21.22 
 -10  -9  -1  133.85   22.61 
  10 -10  -1    3.81    6.36 
   0 -11  -1  273.72   30.55 
  11   0  -1  324.46   30.51 
  11   0  -1  277.15   28.39 
  11   0  -1  291.93   29.74 
 -11   0  -1  295.49   30.37 
   0  11  -1  236.06   28.77 
 -11  -1  -1   -0.48    4.90 
   1  11  -1    3.67    4.88 
  11   1  -1    5.40    5.52 
   1 -11  -1   18.64    5.46 
  11   1  -1    8.80    6.24 
  11  -1  -1   26.94    7.78 
 -11   1  -1    9.13    5.31 
  11   1  -1    7.92    6.36 
  -1 -11  -1    7.53    5.44 
  -1  11  -1    9.38    5.66 
  11  -1  -1    4.97    4.70 
   1 -11  -1   12.41    7.19 
   2  11  -1  230.39   23.59 
 -11  -2  -1  281.36   29.25 
   2 -11  -1  216.92   25.54 
  11  -2  -1  233.36   25.54 
   2  11  -1  263.84   27.65 
  -2  11  -1  256.47   27.37 
  -2 -11  -1  254.82   27.77 
  11   2  -1  283.70   28.54 
  11  -2  -1  229.11   27.96 
 -11   2  -1  256.90   27.41 
  11   2  -1  259.33   27.28 
  11   2  -1  235.98   27.95 
   2 -11  -1  265.25   31.07 
  11  -3  -1   22.69    7.34 
   3 -11  -1   12.69    6.75 
  11   3  -1   16.70    7.56 
  11   3  -1   18.41    8.02 
   3 -11  -1   11.99    7.34 
 -11   3  -1   23.08    8.08 
  11   3  -1   25.21    7.48 
   3  11  -1   27.10    8.07 
  -3  11  -1   36.41    9.96 
  11  -3  -1   25.66    8.98 
 -11  -3  -1   27.99    9.35 
   3  11  -1   23.83    6.22 
  11  -3  -1   22.71    8.01 
  -3 -11  -1   21.11    7.71 
  11  -4  -1  184.70   22.79 
  -4  11  -1  251.24   25.58 
  11  -4  -1  176.95   23.90 
   4  11  -1  208.02   25.70 
  11   4  -1  209.52   24.54 
 -11  -4  -1  197.14   27.40 
   4 -11  -1  198.77   27.11 
   4  11  -1  205.83   20.71 
  11   4  -1  226.27   27.21 
   4 -11  -1  217.22   25.38 
  11   4  -1  184.66   25.25 
  -4 -11  -1  185.38   24.64 
 -11   4  -1  184.03   25.11 
  11  -4  -1  190.56   25.14 
  -5 -11  -1    2.51    4.12 
  11   5  -1    2.91    5.14 
 -11  -5  -1    8.70    6.45 
  11   5  -1    4.86    5.43 
   5  11  -1    0.82    3.52 
   5 -11  -1    3.64    5.46 
  11  -5  -1    8.07    6.02 
 -11   5  -1    7.39    5.40 
   5 -11  -1    3.26    5.63 
   5  11  -1    3.18    4.60 
  -5  11  -1    6.90    5.28 
  11  -5  -1    5.68    5.65 
 -11   6  -1  193.39   26.69 
  11  -6  -1  183.43   24.63 
   6  11  -1  202.85   26.19 
  11   6  -1  180.46   25.96 
  11   6  -1  199.39   26.15 
   6  11  -1  196.33   20.94 
 -11  -6  -1  213.45   28.72 
  -6  11  -1  206.10   26.98 
   6 -11  -1  159.50   24.50 
   6 -11  -1  186.55   26.62 
  11  -6  -1  196.62   25.32 
 -11   7  -1   30.83   10.38 
   7  11  -1   -2.58    5.44 
  11   7  -1   21.23    8.39 
 -11  -7  -1   30.21   10.15 
  11   7  -1   14.58    8.83 
  11  -7  -1    0.77    5.99 
   7  11  -1   14.80    5.88 
  -7  11  -1   13.95    8.26 
   7 -11  -1    8.83    7.41 
  11  -7  -1   14.97    7.48 
   7 -11  -1   30.22    9.62 
  -8  11  -1  138.15   23.33 
   8 -11  -1  153.47   24.26 
  11   8  -1  149.59   22.62 
  11  -8  -1  123.01   21.60 
 -11  -8  -1  176.41   26.46 
  11   8  -1  135.56   22.18 
   8 -11  -1  146.05   23.46 
 -11   8  -1  195.57   27.25 
  11  -8  -1  173.48   23.07 
  11  -9  -1    1.12    5.85 
   9 -11  -1   14.42    8.47 
  11  -9  -1    2.98    5.85 
  10 -11  -1   98.77   18.41 
  11 -10  -1   74.17   16.59 
 -12   0  -1    0.97    4.15 
  12   0  -1    4.04    5.20 
   0 -12  -1    2.71    4.55 
  12   0  -1    4.08    4.71 
   0  12  -1    1.05    4.28 
 -12   1  -1  231.66   27.72 
  12   1  -1  169.04   25.68 
   1  12  -1  274.48   27.59 
   1 -12  -1  238.57   30.11 
  -1 -12  -1  243.76   29.94 
  12  -1  -1  203.83   25.78 
  -1  12  -1  320.15   28.81 
  12   1  -1  219.08   27.53 
  12  -1  -1  182.82   26.77 
 -12  -1  -1  224.71   28.16 
  12   2  -1    0.38    5.46 
 -12   2  -1   -2.02    4.42 
  12   2  -1   14.78    5.43 
  12  -2  -1    7.14    5.57 
 -12  -2  -1    7.28    5.91 
  -2 -12  -1   -0.21    3.41 
   2 -12  -1    1.19    4.63 
  12  -2  -1    5.27    5.99 
   2  12  -1   -2.71    3.79 
  12   2  -1    1.95    4.92 
   2 -12  -1   -1.95    4.42 
  -2  12  -1    8.88    6.13 
  12   3  -1  266.59   29.08 
   3 -12  -1  186.54   24.67 
  12   3  -1  211.29   27.00 
   3  12  -1  161.99   24.90 
   3 -12  -1  191.88   28.05 
 -12   3  -1  254.07   27.69 
  12  -3  -1  234.78   27.40 
  -3 -12  -1  165.44   25.37 
   3  12  -1  157.71   21.29 
  -3  12  -1  203.22   26.75 
  12   3  -1  246.77   27.38 
  12  -3  -1  283.95   24.95 
 -12  -3  -1  266.40   30.51 
   4 -12  -1   -3.66    4.26 
  12  -4  -1   -0.32    3.61 
 -12   4  -1    4.41    5.25 
  -4  12  -1    7.79    6.34 
  12  -4  -1    4.93    5.26 
  12  -4  -1    6.85    6.31 
   4 -12  -1    8.89    7.06 
   4  12  -1    4.76    4.22 
  12   4  -1    2.51    6.58 
  12   4  -1   17.40    6.97 
   4  12  -1    2.31    3.69 
  -4 -12  -1   -1.09    4.11 
  12   4  -1    4.75    6.29 
 -12  -4  -1   -1.27    5.59 
  -5  12  -1  176.01   25.19 
   5  12  -1  203.46   25.90 
  12   5  -1  172.06   25.50 
   5  12  -1  171.63   20.40 
  12  -5  -1  191.90   24.31 
   5 -12  -1  143.25   23.13 
   5 -12  -1  190.71   26.89 
  12   5  -1  159.89   24.49 
  12  -5  -1  184.37   24.82 
 -12  -5  -1  198.83   27.87 
  -5 -12  -1  172.49   23.18 
 -12   5  -1  169.13   24.75 
  12  -6  -1    2.75    5.22 
   6  12  -1    3.70    5.12 
 -12  -6  -1    3.36    7.58 
   6 -12  -1    1.99    6.02 
   6  12  -1    8.70    4.83 
  -6  12  -1    9.21    7.29 
 -12   6  -1   10.50    7.28 
   6 -12  -1    7.33    6.84 
  12   6  -1    2.45    7.16 
  12  -6  -1   12.67    7.11 
  12   6  -1    5.48    6.75 
   7 -12  -1  123.58   22.37 
  12  -7  -1  122.51   20.35 
 -12  -7  -1  137.06   23.17 
  12  -7  -1  132.84   21.42 
  12   7  -1  139.82   21.78 
   7 -12  -1  143.25   22.92 
 -12   7  -1  157.43   23.68 
   8 -12  -1    6.18    7.94 
  12  -8  -1    8.44    6.73 
  12  -8  -1    0.57    4.93 
  13   0  -1  203.90   25.07 
 -13   0  -1  172.36   24.15 
  13   0  -1  199.39   25.44 
   0  13  -1  159.05   24.41 
   0 -13  -1  163.68   26.26 
  13  -1  -1    4.93    6.46 
 -13   1  -1    2.28    5.48 
   1  13  -1    0.89    6.16 
  13   1  -1   15.91    8.09 
  13   1  -1    1.11    5.69 
 -13  -1  -1   -1.43    5.83 
   1 -13  -1    4.01    5.02 
  -1 -13  -1   14.42    6.18 
  -1  13  -1   11.02    6.25 
  13  -1  -1   -0.33    5.04 
 -13  -2  -1  180.57   24.45 
  13   2  -1  135.80   21.84 
 -13   2  -1  128.44   20.99 
  -2  13  -1  174.82   23.47 
  -2 -13  -1  190.89   25.54 
  13   2  -1  118.65   20.58 
  13  -2  -1  163.03   23.42 
   2  13  -1  153.29   22.66 
  13  -2  -1  134.28   20.37 
   2 -13  -1  198.76   27.65 
  13   3  -1   -5.47    5.66 
   3 -13  -1   -3.28    6.28 
 -13   3  -1   13.84    6.81 
  -3 -13  -1    8.19    5.91 
  13   3  -1    5.15    6.21 
 -13  -3  -1   -0.02    6.37 
   3  13  -1   -2.62    3.99 
  13  -3  -1    4.58    5.02 
   3 -13  -1    8.80    6.37 
  -3  13  -1   10.44    7.00 
  13  -3  -1    0.41    4.98 
  13   4  -1  170.82   24.25 
  -4 -13  -1  155.78   23.26 
   4 -13  -1  169.43   22.44 
 -13  -4  -1  130.40   23.47 
  13  -4  -1  132.30   22.25 
 -13   4  -1  152.67   22.62 
  13   5  -1   -5.31    5.83 
 -13  -5  -1    5.52    5.85 
   5 -13  -1    4.05    7.18 
 -13   5  -1    9.30    5.57 
  13  -5  -1    4.91    6.94 
  13  -6  -1   93.86   17.79 
   6 -13  -1  114.32   19.69 
  13  -6  -1  109.38   18.37 
  13  -7  -1    1.95    5.51 
   7 -13  -1   -1.76    6.55 
  13  -7  -1   -0.38    5.28 
  14   0  -1    8.46    6.21 
  14  -1  -1  138.90   22.41 
  14   1  -1  163.98   23.72 
  14  -2  -1   -1.51    5.44 
  14   2  -1   -4.78    5.66 
  14   3  -1  114.07   18.95 
  14  -3  -1  101.46   18.30 
   4 -14  -1    2.48    6.66 
  14  -4  -1    1.84    5.07 
   5 -14  -1   94.32   17.53 
  14  -5  -1   80.78   16.86 
   1   0   0    0.93    1.21 
   0   1   0   -0.07    0.83 
   0  -1   0    1.19    1.23 
   1   0   0   -0.18    1.10 
   1   0   0    1.04    0.90 
  -1   0   0    5.39    1.82 
   0   1   0   -0.57    1.00 
  -1  -1   0 1663.62  127.08 
   1   1   0 1497.46  120.95 
  -1  -1   0 1654.14  126.23 
   1  -1   0 1799.11  120.80 
   1  -1   0 1673.20  126.67 
   1   1   0 1500.45  124.14 
   0  -2   0 2672.50  191.28 
  -2   0   0 2495.00  192.57 
   2   0   0 2409.52  182.77 
   0   2   0 2330.34  187.28 
   0   2   0 2601.53  182.71 
   0   2   0 2320.61  191.70 
   2  -1   0  235.75   19.02 
   2  -1   0  240.15   20.06 
   2  -1   0  230.67   19.98 
  -2   1   0  231.68   20.38 
   1   2   0  245.21   18.74 
   2   1   0  220.21   19.44 
  -1  -2   0  229.91   19.90 
  -2  -1   0  237.21   20.23 
  -1  -2   0  224.06   19.89 
   1  -2   0  214.06   20.33 
   1  -2   0  233.15   17.98 
   2   1   0  235.99   19.49 
   1   2   0  246.90   19.07 
  -1   2   0  234.91   20.14 
  -2  -1   0  226.77   19.07 
  -2   2   0 3887.97  317.02 
  -2  -2   0 3929.85  316.81 
   2   2   0 3837.24  309.87 
   2   2   0 3619.25  301.48 
   2  -2   0 4179.90  315.85 
   2  -2   0 4382.74  310.87 
  -2  -2   0 4264.46  314.98 
   2  -2   0 4572.24  301.14 
  -3   0   0   -0.96    1.47 
   0  -3   0   -2.03    1.62 
  -3   0   0   -1.25    2.17 
  -3   0   0    4.57    2.49 
   0   3   0    0.62    2.00 
   3   0   0    0.18    1.86 
   0   3   0    0.03    1.48 
   3   0   0    0.86    1.95 
   3   1   0 4184.54  345.28 
   1   3   0 4681.54  344.13 
  -1  -3   0 4438.02  362.34 
   3  -1   0 5102.15  345.40 
  -3  -1   0 4483.75  359.53 
   1   3   0 4348.64  354.14 
  -1   3   0 4623.90  362.75 
  -3  -1   0 5266.41  355.31 
  -3  -1   0 5019.02  363.39 
   3  -1   0 4304.85  360.63 
   3   1   0 4477.81  355.17 
   3  -1   0 4959.42  355.84 
   1   3   0 4252.74  354.12 
   1  -3   0 4873.99  361.63 
  -1  -3   0 5199.55  361.28 
  -3   1   0 4731.08  363.41 
   2   3   0  347.89   27.81 
   2  -3   0  348.11   28.62 
  -2  -3   0  335.02   29.01 
   3   2   0  336.24   28.03 
   2  -3   0  339.28   29.57 
   3  -2   0  323.28   28.86 
   3  -2   0  337.26   28.39 
  -2  -3   0  342.85   28.77 
  -3   2   0  351.41   29.69 
  -3  -2   0  336.38   27.83 
   3  -2   0  327.74   27.17 
   2   3   0  354.81   27.47 
   3   2   0  336.90   28.28 
  -2   3   0  370.41   29.58 
   2  -3   0  350.40   29.72 
   2  -3   0  349.68   26.26 
  -3  -2   0  334.74   29.16 
   3  -2   0  340.39   29.64 
   3  -2   0  326.82   29.09 
   3   3   0  537.27   45.98 
   3  -3   0  608.18   46.44 
   3  -3   0  554.18   47.99 
   3  -3   0  590.04   48.50 
   3   3   0  581.17   45.59 
   3  -3   0  556.95   44.27 
   3  -3   0  599.32   47.32 
  -3   3   0  585.29   48.22 
  -3  -3   0  608.20   46.92 
  -3  -3   0  565.17   47.73 
   0  -4   0 2433.01  176.12 
  -4   0   0 2222.31  173.24 
  -4   0   0 2316.91  177.32 
   4   0   0 2149.00  167.89 
   0   4   0 2045.73  171.20 
  -4   0   0 2360.24  173.86 
   4   0   0 2303.27  171.69 
   4   0   0 2134.57  172.69 
   4   1   0 1696.14  134.46 
   1  -4   0 1794.43  137.47 
  -4  -1   0 1829.44  134.45 
  -1  -4   0 1788.94  137.05 
  -1  -4   0 1723.76  136.56 
   4  -1   0 1769.91  130.61 
   1   4   0 1739.60  133.08 
   4  -1   0 1697.89  134.76 
   4   1   0 1608.54  130.77 
   1  -4   0 1669.24  136.94 
   4   1   0 1790.34  133.59 
  -4  -1   0 1776.02  137.94 
   1   4   0 1914.54  128.77 
  -4   1   0 1707.03  138.09 
   1   4   0 1727.70  133.01 
   4  -1   0 1771.39  133.78 
   4  -1   0 1552.82  135.72 
   4  -1   0 1686.35  137.20 
  -4  -1   0 1722.66  134.33 
   4  -2   0 3749.05  308.27 
  -4  -2   0 3881.72  306.60 
  -2  -4   0 4211.36  308.50 
   4   2   0 3686.15  295.35 
  -2   4   0 3550.28  309.71 
   2  -4   0 4283.51  292.70 
   4   2   0 3715.77  301.22 
   4  -2   0 4261.98  311.51 
   2   4   0 4087.88  294.07 
   2   4   0 3857.23  302.52 
   4  -2   0 4207.32  302.00 
   4   2   0 3480.42  303.10 
   2  -4   0 4440.12  311.68 
   2  -4   0 4055.72  309.32 
  -4  -2   0 4034.98  310.39 
  -2  -4   0 3871.62  309.67 
   4  -2   0 4201.91  294.81 
  -4   2   0 3849.92  310.69 
   4  -2   0 4294.33  304.57 
   3   4   0   69.35    8.07 
   3  -4   0   58.11    7.95 
   3  -4   0   71.23   10.31 
   4   3   0   66.72    8.16 
   4  -3   0   85.76   10.27 
  -4  -3   0   64.64    7.27 
  -3  -4   0   58.19    8.41 
  -4   3   0   76.04   10.12 
   4  -3   0   54.37    7.53 
   4  -3   0   76.84    9.45 
  -3   4   0   76.23    9.80 
  -4  -3   0   66.02    9.46 
   4   3   0   59.48    8.37 
  -3  -4   0   75.83    9.50 
   4  -3   0   73.80    9.82 
   3  -4   0   62.18    9.52 
   4   3   0   65.69    9.20 
   3   4   0   61.50    8.29 
   3  -4   0   65.91    6.43 
   4  -3   0   80.65   10.31 
   3  -4   0   72.47    9.28 
   4  -4   0 5905.22  417.73 
  -4  -4   0 5170.46  425.76 
  -4  -4   0 5743.56  422.98 
  -4   4   0 4994.83  426.05 
   4  -4   0 5943.87  414.37 
   4   4   0 4960.21  405.08 
   4  -4   0 5819.99  428.23 
   4   4   0 4933.70  415.97 
   4  -4   0 5359.10  424.45 
   4  -4   0 5971.65  403.86 
   5   0   0    0.02    2.36 
   0  -5   0    2.28    2.22 
   0  -5   0   -2.91    2.29 
  -5   0   0    1.76    2.54 
   5   0   0    0.90    2.47 
   5   0   0   -3.07    1.88 
  -5   0   0   -6.50    1.63 
   5   0   0    0.55    1.93 
  -5   0   0   -1.32    1.57 
   0   5   0   -2.05    1.34 
   0   5   0   -2.39    2.01 
   5  -1   0 3582.22  283.28 
   5   1   0 3407.57  282.83 
   5   1   0 3735.13  281.18 
   1   5   0 3364.22  281.08 
  -5   1   0 3669.40  289.97 
   1  -5   0 3834.73  288.29 
   5  -1   0 3654.21  274.67 
   1   5   0 3979.01  272.27 
  -1  -5   0 4062.08  288.09 
  -1   5   0 3491.31  288.49 
  -5  -1   0 3598.35  284.58 
   1   5   0 3348.30  288.24 
  -5  -1   0 3971.27  283.18 
   5  -1   0 3802.17  289.25 
   5  -1   0 3620.76  286.34 
   5   1   0 3355.72  275.01 
  -5  -1   0 3701.36  289.78 
   5  -1   0 3788.53  281.38 
   1  -5   0 4344.61  289.80 
  -5   2   0    5.92    3.84 
   5  -2   0    7.19    3.50 
  -2   5   0    0.72    2.58 
   2   5   0    0.79    1.92 
   2  -5   0    1.37    2.33 
  -5  -2   0   -0.94    2.75 
   5   2   0   -1.05    2.77 
   5  -2   0    6.23    3.25 
  -2  -5   0    1.75    2.61 
  -5  -2   0    4.86    1.66 
   5  -2   0    3.42    2.87 
   5  -2   0    4.86    3.09 
   2  -5   0    3.84    3.47 
  -2  -5   0    5.49    3.09 
   5   2   0   18.03    4.59 
   5   2   0    2.06    2.81 
   2   5   0    4.27    2.07 
   5  -2   0    4.26    2.86 
  -5  -3   0 2146.98  166.31 
   5  -3   0 2275.08  163.51 
  -3   5   0 2027.44  166.00 
   3  -5   0 2080.38  165.89 
   5   3   0 1890.96  161.81 
   3  -5   0 2220.73  154.75 
   5  -3   0 2113.37  161.57 
   5   3   0 1838.17  157.76 
   5   3   0 2003.29  160.55 
   5  -3   0 2161.44  166.80 
   3  -5   0 2278.92  160.18 
  -5   3   0 2076.43  166.62 
   5  -3   0 2096.35  165.09 
   3   5   0 2097.56  156.69 
  -3  -5   0 2192.46  164.77 
  -3  -5   0 2127.86  165.77 
   5  -3   0 2125.25  157.01 
   3   5   0 2080.01  161.15 
   3  -5   0 2087.68  166.61 
  -5  -3   0 1997.28  162.61 
  -4  -5   0    3.93    2.57 
  -5  -4   0    3.43    2.33 
  -5   4   0    1.22    2.96 
   4   5   0    1.18    2.61 
   4   5   0    0.91    2.04 
   5   4   0    1.22    2.72 
   5  -4   0    2.57    3.21 
   5  -4   0    3.15    2.55 
   4  -5   0    0.72    1.47 
   4  -5   0    0.88    2.15 
  -4  -5   0    0.88    2.56 
   5  -4   0   -1.59    1.69 
  -4   5   0    1.27    3.25 
   4  -5   0    3.27    3.45 
   4  -5   0    8.09    4.18 
  -5  -4   0    3.16    2.94 
   4  -5   0   -1.69    1.91 
   5  -4   0    2.99    2.29 
   5   4   0    1.82    2.33 
   5  -4   0    5.42    3.54 
   5   4   0    4.28    2.69 
   5  -5   0  306.69   27.62 
   5   5   0  334.15   27.97 
   5  -5   0  326.16   25.60 
   5  -5   0  322.14   29.97 
  -5  -5   0  304.21   29.18 
   5  -5   0  275.16   29.19 
  -5   5   0  356.57   30.23 
   5   5   0  307.52   27.72 
  -5  -5   0  280.40   27.03 
   0   6   0 2034.38  163.28 
  -6   0   0 2062.37  164.97 
   6   0   0 2088.54  162.83 
   0  -6   0 2091.20  163.56 
  -6   0   0 2215.47  160.05 
   6   0   0 1912.59  159.01 
   0   6   0 1894.66  158.44 
   0  -6   0 2233.49  163.21 
   6   0   0 2009.96  156.02 
  -6   0   0 2057.49  160.79 
   6   1   0  673.72   55.62 
   6  -1   0  722.01   57.54 
   1  -6   0  616.99   57.02 
   1   6   0  685.42   55.12 
   6  -1   0  717.48   57.60 
  -6  -1   0  691.74   54.20 
   1   6   0  748.16   58.10 
  -6  -1   0  681.61   58.99 
   1   6   0  735.44   51.72 
   1  -6   0  644.42   58.12 
  -1   6   0  710.79   58.02 
   6  -1   0  652.35   55.65 
  -6   1   0  721.09   59.37 
  -6  -1   0  668.88   56.67 
   6   1   0  694.59   56.49 
  -1  -6   0  667.49   57.99 
   6  -1   0  643.49   55.00 
   6  -1   0  662.79   56.50 
  -1  -6   0  749.13   56.55 
   6   1   0  661.72   56.91 
   6  -2   0 2350.29  169.84 
   6  -2   0 2254.40  174.12 
   6  -2   0 2333.87  175.88 
  -6  -2   0 2148.30  174.14 
   2   6   0 2336.09  167.36 
   2  -6   0 2337.42  171.04 
   6   2   0 2085.06  174.91 
  -2  -6   0 2348.53  178.09 
  -6  -2   0 2149.30  179.26 
   6   2   0 2249.66  170.78 
   6  -2   0 2359.82  179.26 
   6  -2   0 2323.14  177.19 
  -2   6   0 2197.36  178.56 
   2   6   0 2106.30  172.97 
  -6   2   0 2261.22  179.85 
   6   2   0 2229.53  173.52 
   2  -6   0 2275.45  179.04 
  -3   6   0  416.81   34.36 
  -3  -6   0  347.87   32.88 
   3   6   0  344.68   31.11 
   3  -6   0  349.76   33.51 
   6   3   0  378.06   32.24 
  -6  -3   0  349.07   30.22 
   6  -3   0  381.63   33.63 
   3   6   0  419.77   30.57 
   6  -3   0  384.14   33.41 
   3  -6   0  360.44   34.06 
   3  -6   0  347.62   30.37 
   6  -3   0  365.79   33.76 
   6   3   0  337.64   32.44 
  -6  -3   0  380.04   34.22 
   6  -3   0  396.93   33.04 
  -3  -6   0  364.90   33.27 
   6  -3   0  378.71   31.12 
   6   3   0  350.62   32.40 
  -6   3   0  390.51   34.70 
  -4  -6   0 1772.43  143.21 
   4  -6   0 1813.78  143.88 
  -6   4   0 1828.21  144.44 
  -4  -6   0 1829.46  141.94 
   6   4   0 1782.29  138.40 
   6   4   0 1679.38  136.70 
   6  -4   0 1976.29  141.64 
  -6  -4   0 1762.88  143.57 
  -4   6   0 1640.42  143.13 
   6   4   0 1707.68  139.93 
  -6  -4   0 1818.05  140.02 
   4   6   0 1851.43  139.40 
   6  -4   0 1797.32  139.32 
   6  -4   0 1859.52  135.14 
   4   6   0 1797.15  135.27 
   6  -4   0 1799.60  142.90 
   4  -6   0 1831.19  144.42 
   4  -6   0 1735.37  137.58 
   6  -4   0 1738.24  144.10 
   5   6   0   17.29    5.50 
  -5   6   0   15.59    5.89 
  -5  -6   0   16.32    4.76 
  -6   5   0   21.11    6.20 
   6  -5   0   21.74    6.75 
   6  -5   0   17.00    5.31 
   6  -5   0   15.06    4.22 
  -6  -5   0    9.66    5.06 
   6   5   0   18.88    5.64 
   6  -5   0   10.18    4.56 
  -6  -5   0   18.14    4.28 
   5  -6   0   11.39    5.80 
   5   6   0   14.29    4.26 
  -5  -6   0   16.86    5.66 
   6   5   0   24.17    6.36 
   5  -6   0   22.92    7.23 
   5  -6   0    9.26    3.55 
  -6  -6   0 1966.05  152.24 
  -6   6   0 1897.56  152.72 
   6  -6   0 1871.27  151.87 
   6  -6   0 1864.65  152.91 
   6   6   0 1825.63  147.55 
   6   6   0 1855.84  144.28 
   6  -6   0 1888.39  146.78 
  -6  -6   0 1925.73  149.03 
  -7   0   0   -0.59    2.76 
   0  -7   0    1.09    2.50 
   0   7   0    0.62    2.06 
   0   7   0   -2.34    2.06 
   7   0   0    1.08    2.99 
   0  -7   0   -1.75    2.41 
   7   0   0   -0.30    3.08 
   7   0   0    3.92    2.77 
   7   0   0   -2.74    2.19 
   7  -1   0  953.79   71.29 
   7  -1   0  800.41   70.02 
   7   1   0  800.81   68.29 
  -1  -7   0  911.67   69.66 
  -7   1   0  798.74   72.05 
   7   1   0  852.00   69.64 
  -1   7   0  898.51   71.64 
   1   7   0  826.90   67.90 
   7   1   0  871.10   70.43 
  -7   1   0  842.53   70.48 
   7  -1   0  832.25   68.00 
   7  -1   0  829.89   69.70 
  -1  -7   0  844.26   71.56 
   1  -7   0  881.73   70.88 
   1   7   0  816.81   71.05 
  -7   1   0  891.03   68.27 
  -7  -1   0  901.29   72.92 
   1  -7   0  784.63   71.33 
   7  -2   0  682.23   56.52 
  -2  -7   0  735.16   55.72 
   7  -2   0  742.83   58.61 
   7   2   0  693.39   57.69 
   7   2   0  685.41   56.70 
  -7   2   0  670.95   59.52 
  -2  -7   0  666.77   58.36 
   2   7   0  651.18   55.19 
   2   7   0  622.36   57.81 
  -2   7   0  727.70   58.79 
   7  -2   0  690.88   57.16 
  -7  -2   0  725.00   59.86 
   7  -2   0  697.33   57.90 
   2  -7   0  653.82   58.93 
   7   2   0  646.45   56.07 
   2  -7   0  640.22   57.76 
   7  -2   0  677.37   55.24 
   7  -3   0 2085.70  155.94 
   7   3   0 1857.26  154.82 
  -3  -7   0 2058.11  157.53 
  -3   7   0 1896.13  158.16 
   7  -3   0 2003.78  156.57 
   7   3   0 1964.50  153.41 
   7  -3   0 1916.16  153.94 
   3   7   0 2078.58  147.81 
   7   3   0 1866.99  151.00 
   3  -7   0 1926.85  158.24 
   7  -3   0 2050.08  158.85 
   3  -7   0 1945.63  158.43 
   3   7   0 1936.52  152.88 
   7  -3   0 2060.62  149.90 
  -3  -7   0 1983.84  158.03 
  -7  -3   0 1871.82  158.71 
   3  -7   0 2049.53  150.83 
  -7   3   0 1958.34  159.29 
  -4  -7   0   32.17    7.95 
   7   4   0   34.93    8.49 
  -7   4   0   37.83    9.20 
   7  -4   0   40.71    8.77 
   4   7   0   41.67    6.99 
   4  -7   0   30.16    5.89 
   4   7   0   40.85    7.21 
   7  -4   0   32.18    7.76 
  -7  -4   0   30.38    8.53 
   7   4   0   51.74    8.60 
   4  -7   0   34.06    8.25 
   7  -4   0   22.18    6.06 
  -4  -7   0   31.75    7.53 
   4  -7   0   34.98    8.95 
  -4   7   0   32.82    8.38 
   7   4   0   38.30    8.40 
   7  -4   0   31.66    7.78 
   5   7   0 2120.20  155.17 
  -5   7   0 1983.16  164.79 
   5   7   0 2013.93  159.21 
  -7  -5   0 2091.58  164.91 
   5  -7   0 1987.44  165.06 
   7  -5   0 2096.61  154.18 
   5  -7   0 2086.45  157.79 
   7  -5   0 2143.91  163.97 
   7   5   0 1908.64  156.29 
  -5  -7   0 2157.54  162.53 
   7   5   0 1977.17  160.32 
   7  -5   0 2019.94  159.36 
  -5  -7   0 2054.73  164.12 
  -7   5   0 2007.58  165.23 
   7  -5   0 2106.57  165.51 
   5  -7   0 1945.31  164.09 
  -7   6   0  214.11   24.22 
   6  -7   0  185.58   23.41 
  -6  -7   0  206.76   20.28 
   7   6   0  205.12   20.84 
   7   6   0  205.92   21.24 
  -6  -7   0  195.05   21.83 
  -7  -6   0  212.53   22.63 
   7  -6   0  171.96   20.99 
   6   7   0  203.58   20.22 
   7  -6   0  202.35   23.70 
   7  -6   0  180.66   23.24 
   6  -7   0  181.84   23.40 
   6  -7   0  187.20   19.41 
  -6   7   0  199.12   23.57 
   6   7   0  193.46   20.24 
   7  -7   0  459.38   40.08 
  -7   7   0  460.76   43.16 
   7  -7   0  449.34   42.90 
   7   7   0  434.78   40.20 
   7   7   0  499.72   40.98 
  -7  -7   0  428.50   42.51 
   7  -7   0  452.56   43.28 
   0  -8   0 2915.20  220.89 
   0   8   0 2566.51  219.93 
  -8   0   0 2678.64  221.59 
   8   0   0 2938.45  219.85 
   0  -8   0 2976.01  219.83 
   8   0   0 2627.38  210.28 
   8   0   0 2845.20  215.46 
   8   0   0 2711.02  216.76 
   8   1   0   -0.15    3.14 
  -1  -8   0    5.45    2.98 
   1  -8   0    0.52    3.04 
   8  -1   0   -0.51    3.12 
   1  -8   0    0.88    3.02 
   8  -1   0    2.98    3.08 
  -8  -1   0   -0.21    3.28 
  -8   1   0   -1.75    3.16 
   8  -1   0    3.34    3.38 
   8   1   0   -0.77    3.37 
   1   8   0    2.89    2.51 
  -1   8   0    0.64    3.01 
  -1  -8   0   -1.88    2.53 
   1   8   0    3.39    3.43 
   8  -1   0   -1.04    2.90 
   8   1   0    8.81    4.88 
   8   2   0 1864.10  150.71 
  -8  -2   0 1896.55  158.82 
  -2  -8   0 2057.34  157.74 
  -2   8   0 1892.23  157.59 
   2   8   0 1961.31  157.70 
   8  -2   0 1900.64  153.77 
   2  -8   0 1993.83  157.77 
   8  -2   0 2056.54  158.09 
   8   2   0 1981.93  155.36 
  -8   2   0 1900.70  158.59 
   8  -2   0 2070.25  150.17 
   8   2   0 2044.41  153.78 
   2   8   0 1870.42  152.12 
   8  -2   0 2041.68  155.26 
   2  -8   0 1926.24  158.18 
   3  -8   0   28.86    8.26 
   8   3   0   65.78   10.87 
   8  -3   0   51.12    9.14 
   3   8   0   54.64   10.22 
  -8  -3   0   35.88    9.77 
   8  -3   0   53.01   10.16 
   3   8   0   52.66    8.29 
   8   3   0   45.20    9.70 
  -3  -8   0   56.16   10.35 
  -8   3   0   42.49   10.30 
   8  -3   0   61.61   10.82 
  -3   8   0   42.93    9.62 
   8   3   0   37.46    9.20 
   3  -8   0   35.62    9.74 
   8  -4   0  469.59   38.35 
  -4  -8   0  469.56   40.79 
   8  -4   0  435.34   40.03 
   8   4   0  487.66   41.56 
   4  -8   0  400.00   41.59 
  -8  -4   0  505.77   43.50 
  -4   8   0  424.39   41.29 
   4   8   0  448.46   38.59 
   8  -4   0  429.91   41.44 
   4  -8   0  396.03   40.90 
  -4  -8   0  465.58   41.60 
   8   4   0  404.00   39.51 
   8   4   0  480.67   39.62 
  -8   4   0  443.33   42.37 
   8  -5   0   93.19   12.45 
   5   8   0   83.22   12.28 
   8  -5   0  128.74   16.34 
  -5  -8   0  113.17   16.02 
  -5   8   0  136.58   17.51 
   8   5   0   70.68   13.40 
  -8  -5   0  102.39   16.40 
   5  -8   0   77.47   14.49 
   5  -8   0   73.46   14.62 
  -5  -8   0   87.91   13.45 
   8  -5   0   82.00   14.10 
   8  -5   0   90.26   15.15 
  -8   5   0  100.84   16.24 
   5  -8   0  102.83   11.94 
   8   5   0   96.61   15.17 
   8   6   0  904.99   74.98 
  -8  -6   0 1010.39   78.53 
   8  -6   0  897.28   77.30 
   6  -8   0  897.24   77.11 
   6   8   0  841.93   72.95 
   8   6   0  904.69   73.55 
   6  -8   0  911.78   72.26 
  -8   6   0  950.59   78.17 
  -6  -8   0  802.91   75.73 
   6  -8   0  777.86   76.38 
  -6   8   0  904.55   77.26 
   8  -6   0  987.91   77.25 
   8  -6   0  853.58   73.62 
  -7  -8   0   -2.46    3.64 
   8  -7   0    1.48    3.60 
   7   8   0    4.27    3.63 
  -7   8   0   -3.76    3.81 
   8   7   0    9.15    4.34 
  -8  -7   0    2.88    4.06 
   7  -8   0    2.83    3.09 
   7  -8   0   -1.93    4.44 
   8  -7   0    0.40    3.45 
   7  -8   0    7.54    4.98 
  -8   7   0    0.34    3.88 
   8   7   0   -1.29    4.71 
   8  -7   0   10.15    5.28 
   8  -8   0  898.23   70.83 
  -8   8   0  867.79   75.27 
  -8  -8   0  827.21   74.47 
   8  -8   0  723.29   73.13 
   8   8   0  958.88   72.91 
   8  -8   0  783.94   73.69 
   9   0   0    2.60    3.66 
   9   0   0    1.51    3.62 
   0  -9   0   -0.29    3.35 
   0  -9   0    3.73    3.28 
  -9   0   0    4.61    4.27 
   0   9   0   -1.06    3.10 
   9   0   0   -1.91    3.40 
   9   1   0  816.73   66.72 
   9  -1   0  746.58   63.47 
   9  -1   0  770.98   65.17 
   1  -9   0  737.93   64.99 
   9   1   0  724.92   63.71 
   1   9   0  800.48   63.35 
  -9   1   0  788.55   67.91 
  -1   9   0  832.55   67.08 
   9  -1   0  821.95   66.54 
   1  -9   0  761.58   67.71 
  -1  -9   0  709.05   66.37 
   9  -1   0  794.36   65.67 
  -9  -1   0  785.46   67.88 
   1   9   0  721.08   65.86 
   9   1   0  793.44   65.43 
   2  -9   0   31.65    8.07 
  -2   9   0   45.58   10.19 
   9  -2   0   51.51   10.42 
  -9  -2   0   42.03   10.60 
  -2  -9   0   46.99   10.11 
   2   9   0   40.18    7.99 
   9   2   0   49.21   10.02 
   9   2   0   36.18    9.33 
  -9   2   0   35.01    9.65 
   9  -2   0   35.70    8.71 
   9  -2   0   37.02    8.73 
   9   2   0   48.70   10.23 
   2  -9   0   22.50    8.20 
   2   9   0   43.78    9.87 
   9   3   0 1488.51  117.54 
   3   9   0 1467.90  117.54 
   3  -9   0 1475.54  123.27 
  -9   3   0 1522.86  123.66 
  -3   9   0 1488.47  122.70 
   9  -3   0 1430.43  119.12 
   9   3   0 1614.17  121.43 
   9  -3   0 1461.97  122.08 
   9  -3   0 1521.40  116.01 
   9   3   0 1493.75  118.75 
   3   9   0 1415.27  121.80 
  -9  -3   0 1474.85  123.79 
  -3  -9   0 1536.45  122.04 
   4   9   0    6.40    4.17 
   9  -4   0   15.24    6.15 
  -9   4   0    9.95    6.53 
   9  -4   0    8.13    5.46 
   4   9   0    6.39    4.38 
   9   4   0    5.50    5.16 
   9   4   0    9.05    5.66 
   4  -9   0    5.86    5.43 
  -4   9   0    2.91    4.43 
   9  -4   0    5.54    4.05 
   4  -9   0    8.88    4.66 
  -9  -4   0   13.05    6.27 
  -4  -9   0    7.48    4.56 
   9   4   0    7.39    5.00 
  -9  -5   0  883.80   81.34 
   9  -5   0  845.47   79.81 
   9  -5   0  952.60   78.23 
   5   9   0  978.80   76.73 
  -5   9   0  936.11   80.94 
   9  -5   0 1078.27   75.69 
  -9   5   0  904.02   81.50 
  -5  -9   0  998.60   81.39 
   5  -9   0  912.40   80.55 
   9   5   0  902.92   77.22 
  -5  -9   0 1005.69   79.22 
   5  -9   0  858.33   80.58 
   9   5   0  898.54   78.93 
   9   6   0    7.87    5.88 
   9  -6   0    3.16    4.91 
  -6   9   0    6.37    5.01 
   9   6   0    9.19    5.17 
   6  -9   0    2.03    5.45 
   6   9   0    9.62    4.60 
   9  -6   0   -0.49    4.27 
   6  -9   0   10.22    6.44 
  -9   6   0    8.52    6.15 
  -9  -6   0    5.04    5.08 
  -6  -9   0    4.28    5.18 
  -7  -9   0  628.10   57.06 
  -7   9   0  659.16   58.02 
   7   9   0  582.48   53.10 
   9  -7   0  630.39   54.30 
   9  -7   0  566.20   56.26 
  -9  -7   0  679.10   58.41 
   7  -9   0  560.74   56.46 
   9   7   0  648.39   55.52 
   7  -9   0  617.89   57.09 
  -9   7   0  613.18   57.33 
   9  -8   0   34.56   10.63 
   8  -9   0   40.32   11.10 
  -9  -8   0   32.41   11.24 
   8   9   0   33.75    8.81 
  -8  -9   0   39.86   10.97 
  -8   9   0   35.22   11.03 
   9  -8   0   53.04   11.10 
   8  -9   0   43.25   11.58 
   9   8   0   49.14   11.04 
   9   8   0   39.76    9.45 
  -9   8   0   46.84   12.19 
   9   9   0  135.33   19.46 
   9  -9   0  106.15   19.87 
  -9  -9   0  130.19   21.89 
  -9   9   0  168.57   24.35 
   9  -9   0  128.62   17.86 
   0 -10   0 1161.56  100.34 
  10   0   0 1116.04   94.76 
 -10   0   0 1120.30   99.63 
  10   0   0 1346.46   99.55 
   0 -10   0 1197.08   97.03 
   0  10   0 1150.29   99.19 
  10   0   0 1240.16   97.69 
  10  -1   0   12.31    5.85 
   1 -10   0   18.79    5.89 
 -10  -1   0   17.06    7.06 
   1 -10   0   23.24    8.13 
  10   1   0   36.18    9.08 
  10   1   0   20.51    7.52 
   1  10   0   25.81    7.73 
  -1 -10   0   26.46    8.58 
  -1  10   0   10.47    5.80 
 -10   1   0   23.68    7.06 
  10   1   0   19.37    6.72 
  10  -1   0   14.36    6.67 
   2  10   0  641.94   56.19 
  10  -2   0  624.46   56.55 
  10  -2   0  730.74   59.58 
  10   2   0  668.97   58.58 
   2 -10   0  709.18   61.75 
   2  10   0  667.65   59.73 
  -2  10   0  660.98   59.75 
 -10  -2   0  661.36   61.10 
   2 -10   0  678.95   58.88 
  10   2   0  747.90   60.66 
  10  -2   0  688.87   59.04 
  -2 -10   0  668.13   60.11 
 -10   2   0  661.71   60.53 
  10   2   0  658.59   58.09 
  10   3   0   88.64   15.44 
  -3 -10   0   82.32   14.01 
 -10   3   0   63.64   12.93 
  10   3   0   40.62   11.54 
   3 -10   0   77.07   15.03 
   3  10   0   64.93   10.85 
  -3  10   0   69.79   13.64 
   3 -10   0   75.92   13.00 
  10   3   0   92.14   14.22 
  10  -3   0   63.89   11.78 
 -10  -3   0   71.63   14.14 
  10  -3   0   62.45   13.22 
   3  10   0   45.03   10.75 
  10  -3   0   78.07   13.61 
 -10   4   0  599.28   58.63 
  10   4   0  647.51   56.70 
  10   4   0  696.95   56.60 
 -10  -4   0  698.19   61.12 
  10   4   0  672.55   58.57 
   4 -10   0  619.24   58.97 
  10  -4   0  671.71   58.50 
   4  10   0  686.87   55.27 
   4 -10   0  583.89   57.40 
   4  10   0  647.19   58.14 
  10  -4   0  674.30   54.55 
  10  -4   0  627.74   56.89 
  -4  10   0  683.87   59.15 
  -4 -10   0  566.34   56.57 
  10  -5   0  116.00   14.77 
  -5  10   0   75.67   15.07 
  10  -5   0   68.18   13.99 
  10   5   0   73.51   14.76 
 -10   5   0   85.05   15.94 
   5  10   0   76.94   14.37 
  10   5   0   84.36   15.71 
   5 -10   0   80.54   14.87 
 -10  -5   0   85.82   16.67 
  10  -5   0   75.40   14.49 
   5 -10   0   68.89   14.95 
   5  10   0   88.88   13.19 
  -5 -10   0   82.74   13.92 
   6 -10   0  344.94   37.04 
   6 -10   0  373.68   37.96 
 -10   6   0  418.95   39.53 
  10   6   0  385.17   37.59 
  10  -6   0  354.42   36.90 
  -6  10   0  326.19   36.73 
   6  10   0  350.34   34.15 
  10   6   0  388.38   36.52 
  10  -6   0  360.13   35.44 
 -10  -6   0  367.61   38.45 
  10   7   0  120.97   18.73 
  10  -7   0  112.63   18.16 
   7  10   0  133.03   17.30 
  10   7   0  124.55   19.25 
  10  -7   0   89.41   17.51 
 -10   7   0  105.08   19.40 
   7 -10   0   90.70   17.91 
  -7 -10   0  137.99   20.57 
  -7  10   0  120.41   19.82 
 -10  -7   0  135.52   21.82 
   7 -10   0   92.38   18.49 
  10   8   0  619.42   54.07 
  10  -8   0  568.72   51.64 
 -10  -8   0  623.90   56.62 
  -8 -10   0  576.60   54.64 
 -10   8   0  581.64   55.61 
   8  10   0  593.37   51.62 
  10   8   0  587.50   52.45 
   8 -10   0  540.20   54.04 
  10  -8   0  467.29   52.46 
  -8  10   0  554.29   54.67 
   8 -10   0  571.38   54.78 
   9  10   0   45.15   11.20 
  10  -9   0   48.33   11.03 
  -9  10   0   32.10   11.22 
   9 -10   0   42.38   11.83 
  10  -9   0   52.06   13.01 
 -10  -9   0   36.24   12.09 
  10   9   0   29.79    9.64 
  -9 -10   0   41.16   12.51 
 -10   9   0   45.46   13.47 
  10 -10   0  355.12   38.20 
   0 -11   0    4.74    4.35 
 -11   0   0   -1.37    3.96 
  11   0   0    2.52    4.57 
   0  11   0    5.82    4.54 
  11   0   0   10.99    5.98 
  11   1   0  632.10   55.76 
  11  -1   0  662.47   54.71 
   1  11   0  630.42   56.45 
   1 -11   0  583.59   57.56 
  11  -1   0  656.51   56.15 
 -11   1   0  595.71   56.56 
  -1  11   0  601.01   56.35 
  11   1   0  633.24   55.11 
  -1 -11   0  632.87   57.76 
 -11  -1   0  623.57   57.46 
   1 -11   0  623.30   54.49 
   2 -11   0   98.94   18.47 
 -11   2   0  122.37   18.49 
  11   2   0  131.36   19.28 
  11  -2   0  106.62   17.90 
  11  -2   0  108.91   16.48 
  -2 -11   0   99.92   17.55 
  11   2   0  113.89   17.68 
   2  11   0  114.42   14.60 
  11   2   0  127.57   18.96 
  -2  11   0   82.49   15.72 
   2 -11   0   89.84   15.01 
   2  11   0  111.28   17.36 
 -11  -2   0  133.17   20.13 
   3 -11   0  331.79   36.95 
  11  -3   0  388.54   36.18 
   3 -11   0  360.19   39.38 
  11  -3   0  417.43   38.44 
  11   3   0  414.56   38.27 
   3  11   0  426.04   35.96 
  -3 -11   0  370.18   38.51 
   3  11   0  428.45   39.28 
  -3  11   0  418.34   39.66 
 -11   3   0  383.79   38.99 
  11   3   0  399.25   38.42 
  11   3   0  418.84   39.99 
 -11  -3   0  362.96   39.33 
  11  -3   0  372.02   37.92 
  11  -4   0    5.11    4.60 
  11  -4   0    9.01    6.14 
  -4 -11   0    3.60    4.54 
  11  -4   0   -4.15    4.50 
   4 -11   0   10.52    6.00 
   4 -11   0    6.49    6.58 
   4  11   0    1.84    3.14 
 -11   4   0    3.39    5.41 
  11   4   0    5.10    6.18 
  11   4   0    5.19    5.22 
  11   4   0    2.81    5.02 
  -4  11   0    2.28    4.47 
 -11  -4   0    8.86    6.91 
   4  11   0    2.02    3.81 
  11   5   0  617.02   55.08 
   5 -11   0  508.27   53.71 
  11  -5   0  535.98   51.50 
  11  -5   0  623.13   53.86 
   5  11   0  554.68   49.97 
  -5  11   0  581.76   54.39 
   5 -11   0  516.79   52.58 
  -5 -11   0  588.85   52.65 
  11   5   0  621.48   52.80 
   5  11   0  556.90   53.51 
 -11   5   0  575.74   54.65 
 -11  -5   0  629.30   56.47 
   6 -11   0  177.36   25.76 
  11  -6   0  165.21   23.04 
 -11   6   0  176.75   25.58 
   6 -11   0  170.17   23.90 
  11  -6   0  165.98   23.24 
  11   6   0  160.28   23.49 
  -6  11   0  189.12   25.56 
   6  11   0  153.55   23.09 
   6  11   0  158.58   20.50 
 -11  -6   0  163.31   25.49 
  11   6   0  201.94   26.07 
  11  -7   0  343.92   36.22 
  11   7   0  431.59   38.94 
   7  11   0  383.66   35.41 
  11  -7   0  358.54   37.58 
  -7  11   0  371.56   39.25 
  11   7   0  324.96   36.82 
   7 -11   0  385.76   39.26 
 -11  -7   0  397.47   40.89 
   7 -11   0  308.49   36.80 
 -11   7   0  350.94   38.92 
  11  -8   0    3.72    5.38 
 -11   8   0    1.99    6.69 
   8 -11   0    8.32    6.58 
  11  -8   0    6.26    5.82 
  11   8   0   12.69    6.59 
 -11  -8   0    3.84    6.97 
   8  11   0   -3.29    4.52 
   8  11   0   -4.69    5.02 
   8 -11   0    6.74    7.56 
  -8  11   0    9.33    6.48 
  11   8   0   -4.34    5.22 
  11  -9   0  274.53   29.90 
  11  -9   0  292.65   34.18 
   9 -11   0  269.46   34.39 
  10 -11   0    5.04    6.72 
  11 -10   0    5.31    6.51 
  12   0   0  158.21   23.12 
 -12   0   0  192.29   25.16 
   0 -12   0  188.84   27.11 
   0  12   0  255.22   25.07 
  12   0   0  176.91   24.80 
   1 -12   0   56.89   13.00 
 -12  -1   0   48.54   11.79 
   1  12   0   39.69   10.20 
  -1  12   0   27.57    8.82 
  -1 -12   0   28.41    8.75 
  12  -1   0   29.25    8.18 
  12  -1   0   31.96   10.07 
  12   1   0   50.74   11.90 
 -12   1   0   29.79    9.94 
  12   1   0   21.41    8.28 
  -2  12   0  580.98   54.14 
 -12  -2   0  627.69   56.03 
  12   2   0  625.68   53.85 
   2 -12   0  587.61   56.00 
   2  12   0  551.52   53.52 
 -12   2   0  592.92   54.45 
  12  -2   0  543.75   50.96 
  -2 -12   0  577.64   54.87 
  12   2   0  571.52   52.73 
   2 -12   0  568.73   52.36 
  12  -2   0  590.45   53.52 
 -12  -3   0   16.83    7.99 
 -12   3   0    9.60    6.05 
   3 -12   0   17.88    6.99 
  -3  12   0   14.56    7.00 
  12   3   0    7.38    6.45 
   3  12   0   11.02    5.07 
  12  -3   0   22.82    7.16 
  12  -3   0    8.05    6.28 
  12   3   0   10.32    6.87 
   3 -12   0   21.41    9.04 
  -3 -12   0   17.15    7.50 
   3  12   0   10.12    5.29 
  -4 -12   0  584.70   52.26 
   4  12   0  506.65   51.47 
   4 -12   0  595.66   55.03 
   4  12   0  546.57   48.49 
   4 -12   0  489.05   50.55 
 -12   4   0  522.63   51.97 
  12   4   0  560.14   51.12 
  12  -4   0  503.30   50.23 
  -4  12   0  621.85   53.86 
  12   4   0  592.25   53.13 
 -12  -4   0  593.06   55.07 
  12  -4   0  564.52   49.37 
   5 -12   0    3.43    5.15 
   5  12   0   17.31    6.37 
  12   5   0   10.89    7.00 
 -12  -5   0    3.16    7.47 
 -12   5   0   -0.25    5.44 
  12  -5   0   12.09    7.49 
   5  12   0   22.37    8.27 
   5 -12   0    7.85    7.65 
  -5  12   0    9.48    7.50 
  12  -5   0   18.36    8.17 
  12   5   0   13.88    7.90 
 -12   6   0  532.43   48.39 
   6 -12   0  412.37   46.40 
   6  12   0  430.67   45.68 
  12   6   0  476.72   45.70 
  -6  12   0  494.69   47.43 
   6  12   0  456.05   42.48 
 -12  -6   0  507.58   48.97 
  12  -6   0  446.26   45.31 
  12  -6   0  413.89   44.04 
  12   6   0  539.91   48.40 
   6 -12   0  429.19   45.20 
   7 -12   0    4.65    7.06 
  12  -7   0   -9.72    4.67 
  12   7   0    1.21    6.14 
   7 -12   0    3.68    5.81 
  12   7   0   -7.05    5.67 
  12  -7   0    5.45    5.79 
 -12  -7   0    0.02    6.92 
  12  -8   0  176.04   23.11 
  12  -8   0  144.42   23.01 
   8 -12   0  130.81   23.70 
  12  -9   0    8.33    6.80 
   9 -12   0   -7.25    5.66 
  12  -9   0   10.46    6.68 
   0 -13   0    6.62    6.03 
  13   0   0   -1.83    4.79 
  13   0   0    1.21    4.49 
   0  13   0   -1.71    4.09 
 -13   0   0   -0.95    5.16 
   1  13   0  579.33   55.48 
  13   1   0  564.76   54.05 
   1 -13   0  589.87   57.29 
  13  -1   0  639.59   55.21 
  -1 -13   0  533.68   55.89 
  13   1   0  590.25   53.78 
  13  -1   0  617.26   53.87 
  -1  13   0  636.68   56.24 
 -13   1   0  622.99   56.07 
 -13  -1   0  543.66   55.15 
  -2 -13   0   -0.14    5.44 
  13   2   0    5.75    6.21 
 -13  -2   0   -0.31    5.44 
  13   2   0    9.66    6.57 
   2 -13   0    5.21    5.77 
  13  -2   0   15.80    6.93 
  13  -2   0    9.07    6.43 
  -2  13   0    9.88    7.39 
 -13   2   0    4.68    5.36 
   2  13   0    4.45    5.41 
   3 -13   0  294.85   36.12 
  13   3   0  250.12   32.09 
  13   3   0  259.42   30.98 
   3 -13   0  259.92   29.13 
  13  -3   0  280.60   29.03 
  13  -3   0  246.70   31.08 
  -3  13   0  303.70   31.92 
 -13   3   0  216.88   30.52 
  -3 -13   0  270.54   32.66 
   3  13   0  285.14   30.61 
 -13  -3   0  335.86   33.95 
  13   4   0   -4.00    6.13 
   4  13   0    3.35    4.75 
   4 -13   0   12.44    7.57 
 -13  -4   0   -4.05    6.26 
  -4 -13   0    3.81    6.04 
  13  -4   0   17.42    7.92 
   4  13   0    8.95    4.75 
 -13   4   0    9.89    6.98 
 -13  -5   0  147.36   23.31 
  13  -5   0   89.65   17.94 
   5 -13   0  111.00   19.53 
  13  -6   0   37.17   10.82 
   6 -13   0   16.73    9.01 
  13  -6   0   32.97   10.58 
   7 -13   0  206.41   28.97 
  13  -7   0  220.13   28.12 
  13  -7   0  203.00   27.74 
  14   0   0  198.75   27.08 
  14   1   0   19.52    9.05 
  14  -1   0    1.33    5.38 
  14   2   0  266.37   31.10 
  14  -2   0  220.61   29.84 
  14  -3   0   39.96   12.20 
  14   3   0   52.08   12.48 
  14  -4   0  281.88   34.73 
   4 -14   0  313.59   32.82 
  14  -5   0   13.07    8.56 
   5 -14   0   16.35    8.06 
  15   0   0   10.51    8.07 
   0   0   1   -2.08    1.08 
   0   1   1 1831.00  152.54 
   0   1   1 1906.93  148.17 
   1   0   1 2163.58  152.54 
   0   1   1 1831.44  155.60 
   0  -1   1 2004.52  155.65 
  -1   0   1 2117.99  148.73 
   0  -1   1 1820.19  148.14 
  -1   0   1 2098.23  156.44 
   0  -1   1 2085.09  156.00 
   1   0   1 2212.92  148.52 
  -1  -1   1   17.07    3.02 
  -1  -1   1   16.90    2.86 
   1  -1   1   16.93    4.01 
   1  -1   1   14.85    2.44 
  -1   1   1   20.56    2.81 
   1   1   1   23.13    2.88 
  -1   1   1   17.71    3.08 
   1   1   1   15.00    2.61 
  -1  -1   1   17.24    2.90 
   0  -2   1    0.70    1.35 
   0   2   1   -1.69    1.12 
   0  -2   1    0.52    1.73 
   0   2   1   -2.48    1.31 
   0   2   1   -1.88    1.36 
  -2   0   1   -1.50    2.01 
   2   0   1   -0.46    1.47 
   0  -2   1    1.18    2.31 
   2   0   1    1.21    1.89 
  -1   2   1 1817.01  136.15 
   1  -2   1 1963.00  136.17 
   1   2   1 1733.77  140.49 
   1  -2   1 1923.99  144.23 
  -2  -1   1 1923.23  144.22 
  -2   1   1 1755.07  144.46 
  -2  -1   1 1903.41  142.32 
  -1  -2   1 1966.50  143.35 
  -1  -2   1 1918.52  143.81 
   2  -1   1 1777.97  144.24 
  -1   2   1 1758.21  143.80 
   2   1   1 1781.95  140.65 
   1   2   1 1735.01  136.26 
   2  -1   1 1858.05  140.67 
   2  -1   1 1776.29  136.54 
   2  -2   1 1223.05   89.37 
   2  -2   1 1210.44   95.49 
   2   2   1 1176.00   92.39 
   2   2   1 1156.63   89.89 
  -2  -2   1 1157.82   93.54 
  -2  -2   1 1231.14   94.89 
  -2   2   1 1233.39   95.16 
   0   3   1 1885.60  152.82 
   0  -3   1 2143.51  153.42 
   0   3   1 1931.29  144.25 
   3   0   1 1826.90  149.79 
   0  -3   1 2155.37  144.63 
   0   3   1 1881.04  149.49 
  -3   0   1 1869.72  154.16 
   3   1   1  849.88   69.01 
   3  -1   1  939.82   67.26 
   3   1   1  832.46   67.30 
  -1  -3   1  864.51   70.42 
   3  -1   1  846.70   69.03 
  -3   1   1  903.22   71.81 
  -1   3   1  912.51   65.77 
   1   3   1  902.49   66.10 
   1   3   1  860.04   68.74 
  -1  -3   1  887.66   70.67 
   1  -3   1  917.55   65.74 
   3  -1   1  828.19   71.04 
  -3  -1   1  919.14   71.49 
   1  -3   1  853.74   71.18 
   2  -3   1 1280.86   93.96 
   2   3   1 1149.86   94.58 
  -2  -3   1 1210.66   99.30 
  -3   2   1 1248.21  100.77 
   3  -2   1 1349.53   98.15 
  -2   3   1 1155.89  100.19 
  -3  -2   1 1332.22   98.35 
   2  -3   1 1226.54  100.71 
  -3  -2   1 1350.11  100.69 
   3  -2   1 1260.99  100.99 
   2   3   1 1173.69   97.51 
   3  -2   1 1313.62   94.83 
   3  -2   1 1368.57   97.67 
  -2  -3   1 1280.40  100.26 
   3  -2   1 1371.57  101.05 
   3   2   1 1190.63   95.28 
   3   2   1 1204.83   97.79 
  -3  -3   1    2.05    2.63 
   3  -3   1   -0.28    1.22 
  -3   3   1   -1.19    1.98 
   3  -3   1    2.91    2.81 
   3  -3   1    1.88    2.07 
  -3  -3   1    0.60    1.57 
   3  -3   1   -2.32    2.13 
   3   3   1    0.39    1.60 
   3   3   1   -0.36    1.87 
   0  -4   1    1.55    2.01 
   4   0   1   -0.98    2.21 
   0   4   1   -1.57    1.15 
   0   4   1    2.25    2.59 
   4   0   1   -0.59    1.78 
  -4   0   1   -4.82    2.19 
   0   4   1   -1.66    1.68 
   0  -4   1   14.77    4.49 
   4   0   1   -0.07    2.30 
  -4   1   1 1598.46  119.29 
  -1  -4   1 1502.17  117.42 
   1  -4   1 1557.59  117.90 
   4   1   1 1567.71  114.34 
  -1   4   1 1329.94  117.18 
   4   1   1 1500.25  115.10 
   4  -1   1 1493.41  117.59 
   1   4   1 1384.49  109.91 
   1  -4   1 1390.32  109.45 
   4  -1   1 1518.68  115.24 
   4  -1   1 1450.00  117.25 
   4   1   1 1495.11  112.17 
  -4  -1   1 1634.43  118.98 
   1   4   1 1391.18  117.05 
  -1  -4   1 1498.53  117.35 
   1   4   1 1300.53  114.08 
   1  -4   1 1473.16  118.03 
   4  -1   1 1619.04  114.81 
   4  -1   1 1576.84  111.95 
   2  -4   1    3.26    1.74 
   4  -2   1    5.22    2.44 
   4  -2   1    0.60    2.65 
   4  -2   1    3.52    2.48 
  -4  -2   1    8.63    3.61 
  -2  -4   1    3.39    2.59 
   4   2   1    5.60    2.81 
   2  -4   1    6.01    1.63 
   4  -2   1    9.59    3.35 
  -2   4   1    3.98    2.80 
   2  -4   1    3.69    3.18 
   4  -2   1    2.05    1.97 
  -4  -2   1    5.64    1.57 
   2  -4   1    7.03    3.18 
   4   2   1   10.92    3.06 
   2   4   1    4.15    2.38 
   4   2   1    9.09    3.17 
   2   4   1    5.92    2.19 
  -2  -4   1    5.05    2.67 
  -4   2   1    1.61    2.75 
   4  -3   1 1520.01  103.32 
   3  -4   1 1189.94  109.54 
   4  -3   1 1496.33  106.60 
   4   3   1 1334.35  104.13 
   4   3   1 1371.14  106.89 
   3   4   1 1234.81  106.41 
   3  -4   1 1345.89  110.17 
   4  -3   1 1547.08  107.43 
  -4   3   1 1339.36  109.92 
  -4  -3   1 1477.64  107.26 
  -3   4   1 1210.06  109.31 
  -4  -3   1 1449.63  110.06 
   3   4   1 1221.90  103.18 
   4   3   1 1407.07  105.26 
   4  -3   1 1503.93  110.57 
   3  -4   1 1390.81  105.75 
   4  -3   1 1366.93  110.10 
   3  -4   1 1347.04  102.09 
  -3  -4   1 1347.49  109.43 
  -3  -4   1 1314.87  108.13 
   4   4   1   32.69    5.94 
   4  -4   1   23.35    5.94 
   4  -4   1   26.18    5.55 
   4  -4   1   27.52    4.42 
  -4  -4   1   21.45    5.85 
   4   4   1   15.30    4.57 
  -4  -4   1   17.50    4.50 
   4  -4   1   33.93    6.00 
  -4   4   1   30.93    6.68 
   4  -4   1   18.20    6.07 
   5   0   1 1338.44  107.77 
  -5   0   1 1478.18  108.99 
   0   5   1 1332.24  110.31 
  -5   0   1 1476.71  112.58 
   5   0   1 1376.72  108.68 
   0  -5   1 1389.54  111.16 
   0   5   1 1326.84  107.52 
   0  -5   1 1494.86  110.33 
   0   5   1 1399.77  102.27 
   5   0   1 1299.47  105.38 
   5   0   1 1337.90  109.90 
   1   5   1  496.59   41.27 
   5  -1   1  519.23   42.83 
  -1  -5   1  485.59   41.48 
   1   5   1  509.43   42.90 
   5  -1   1  489.70   42.21 
  -1   5   1  491.09   42.93 
   5  -1   1  506.83   40.99 
   5  -1   1  527.36   42.81 
   5   1   1  459.62   41.02 
   5  -1   1  531.46   42.31 
   1   5   1  529.56   38.56 
   1  -5   1  540.16   43.13 
   5   1   1  500.31   42.26 
   5   1   1  512.10   41.87 
  -5  -1   1  488.71   44.18 
   1  -5   1  475.48   43.79 
  -5   1   1  553.37   45.13 
  -1  -5   1  480.25   43.19 
   2  -5   1 1362.26   96.93 
   5  -2   1 1039.81   93.12 
  -2  -5   1 1367.90   96.36 
   2  -5   1 1407.69   92.01 
   5  -2   1 1101.80   96.04 
  -2  -5   1 1392.21   96.29 
   2  -5   1 1353.11   88.36 
  -5  -2   1 1055.24   96.42 
  -5   2   1  991.59   96.45 
   5   2   1 1006.02   91.14 
   5  -2   1 1078.47   95.95 
   5   2   1 1013.91   92.44 
   2   5   1 1243.57   93.18 
   5   2   1 1008.81   93.43 
   2   5   1 1336.41   89.60 
   5  -2   1 1047.14   90.44 
   5  -2   1 1159.04   94.37 
   2  -5   1 1337.53   97.58 
  -2   5   1 1288.50   96.33 
   5  -3   1   35.44    7.38 
  -5  -3   1   33.20    7.26 
   3  -5   1   34.75    4.18 
  -3  -5   1   22.46    5.62 
   5   3   1   30.40    6.10 
   3  -5   1   42.02    8.79 
   3   5   1   34.45    5.79 
  -3  -5   1   32.75    6.92 
   5   3   1   35.18    6.15 
   5  -3   1   26.45    6.10 
   5  -3   1   40.41    8.47 
   3  -5   1   30.57    6.74 
   5   3   1   41.14    7.48 
   3   5   1   25.43    5.54 
   5  -3   1   31.17    5.67 
   5  -3   1   30.55    6.08 
  -3   5   1   32.67    7.12 
   3  -5   1   25.17    5.04 
  -5  -3   1   33.63    4.45 
  -5   3   1   33.71    7.74 
  -4  -5   1 1211.22  109.98 
   4  -5   1 1241.34  102.15 
   4   5   1 1186.81  107.03 
   5  -4   1 1695.84  112.46 
   5  -4   1 1500.70  111.67 
  -5  -4   1 1577.02  111.33 
   5   4   1 1465.29  107.96 
   4  -5   1 1128.11  110.20 
  -4  -5   1 1243.92  108.34 
   5   4   1 1508.53  105.50 
   4   5   1 1197.31  103.80 
   5   4   1 1527.44  105.80 
  -5   4   1 1533.81  111.66 
   4  -5   1 1195.80  105.85 
   5  -4   1 1594.23  103.74 
  -4   5   1 1139.26  110.14 
   5  -4   1 1506.85  107.32 
   5  -5   1   93.03   13.55 
   5  -5   1   87.35    9.20 
  -5  -5   1   89.30   10.82 
   5  -5   1   96.96   14.49 
   5  -5   1   86.17   11.55 
  -5  -5   1  100.31   13.41 
   5   5   1   84.17   11.51 
   5   5   1   98.91   11.93 
  -5   5   1   86.08   13.55 
   6   0   1    2.20    2.72 
  -6   0   1   -3.95    1.87 
   0   6   1   -1.73    1.46 
   6   0   1    5.37    2.66 
   0   6   1    1.53    2.36 
   0  -6   1   -1.28    1.88 
   6   0   1    0.54    2.10 
  -6   0   1    0.40    3.10 
   0  -6   1   -1.30    2.33 
   6   0   1    0.06    2.42 
  -1  -6   1  987.86   84.68 
  -1   6   1  987.76   84.33 
   1   6   1  892.96   83.74 
   6  -1   1 1075.14   80.73 
   6  -1   1 1087.41   82.81 
   1   6   1  862.67   81.07 
   1  -6   1 1026.16   84.29 
   1   6   1 1045.45   77.21 
   6   1   1 1090.55   81.25 
   6   1   1 1136.63   83.55 
  -6   1   1 1171.45   86.89 
  -6  -1   1 1110.83   86.43 
   6  -1   1 1141.13   84.43 
   6   1   1 1090.84   82.53 
  -1  -6   1  976.41   82.76 
   1  -6   1  989.43   85.23 
   6  -2   1  346.76   30.94 
   6  -2   1  307.70   29.87 
  -2  -6   1  332.48   30.74 
   6  -2   1  314.77   30.39 
   6   2   1  345.35   30.09 
   6  -2   1  323.75   30.72 
  -2  -6   1  337.99   30.94 
  -6  -2   1  361.63   32.49 
  -2   6   1  357.52   31.23 
  -6   2   1  300.70   31.76 
   2  -6   1  340.29   32.39 
   2   6   1  317.41   28.96 
   2   6   1  333.62   30.69 
   6   2   1  375.65   30.19 
   2  -6   1  334.81   30.86 
  -2  -6   1  351.09   28.60 
   2  -6   1  341.33   27.78 
   6   2   1  299.45   30.04 
   2   6   1  372.00   27.09 
   6  -2   1  327.86   28.88 
   6  -3   1  827.60   71.23 
   6  -3   1  855.42   76.18 
  -3  -6   1 1056.59   76.07 
   6  -3   1  814.80   74.24 
   3   6   1 1031.41   73.92 
   3  -6   1 1080.13   78.40 
   3  -6   1 1001.93   76.88 
   6  -3   1  833.04   73.67 
  -6  -3   1  828.80   76.47 
   6   3   1  756.76   72.45 
   3  -6   1 1077.64   72.39 
   3   6   1 1044.96   70.64 
   6  -3   1  877.20   76.17 
   6   3   1  734.49   71.91 
  -3  -6   1 1073.24   76.76 
  -6   3   1  814.40   76.68 
   6   3   1  824.92   73.83 
  -3   6   1 1084.07   77.26 
  -6  -4   1  127.83   16.89 
   4  -6   1  107.97   15.43 
   4   6   1  148.72   14.14 
   6  -4   1  141.45   13.12 
   6   4   1   97.60   14.55 
   6  -4   1  116.17   15.86 
   4  -6   1  121.51   17.17 
   6  -4   1  127.41   16.84 
  -4  -6   1  126.91   14.68 
  -4  -6   1  133.78   15.90 
   6   4   1  130.88   13.03 
   4   6   1  141.62   13.39 
  -4   6   1  145.75   16.87 
  -6   4   1  137.94   17.59 
   6  -4   1  106.71   14.48 
   6   4   1  106.06   14.58 
   4  -6   1  110.86   12.39 
   5  -6   1  615.08   50.45 
   5   6   1  638.87   49.99 
  -5  -6   1  561.77   52.85 
   6  -5   1  658.61   54.61 
  -6   5   1  580.15   53.74 
   5   6   1  626.19   51.50 
   6  -5   1  595.14   48.14 
   6  -5   1  597.78   53.76 
   6  -5   1  597.85   50.96 
   6   5   1  581.94   51.34 
  -6  -5   1  633.08   53.83 
   5  -6   1  603.17   53.75 
  -5   6   1  604.28   53.67 
   5  -6   1  643.43   54.79 
   6   5   1  622.67   50.45 
  -5  -6   1  654.13   51.70 
   6  -6   1    6.55    5.16 
  -6  -6   1    3.92    4.10 
   6  -6   1    8.79    4.01 
   6  -6   1   11.74    5.16 
   6   6   1   11.94    5.16 
  -6   6   1    4.52    4.05 
   6   6   1    6.83    3.82 
   7   0   1  706.55   65.62 
   7   0   1  716.10   65.02 
   7   0   1  740.13   65.62 
   0  -7   1  872.68   68.43 
   0  -7   1  959.82   66.80 
   7   0   1  711.15   63.82 
  -7   0   1  679.89   67.59 
   0   7   1  915.76   67.47 
   0   7   1  904.45   64.86 
  -1  -7   1   15.56    5.65 
  -7   1   1    4.74    4.79 
   1  -7   1   10.24    5.12 
   7   1   1   21.17    6.13 
   7  -1   1   11.84    4.43 
   7  -1   1   14.41    4.92 
  -1  -7   1    9.70    3.54 
   1   7   1   18.08    5.35 
   7  -1   1   13.21    4.86 
  -7  -1   1   18.38    6.55 
  -1   7   1   18.21    5.66 
   1   7   1   16.69    4.86 
   7  -1   1   14.52    5.20 
   7   1   1   16.88    5.28 
   1  -7   1   23.02    5.40 
   7   1   1   15.42    5.56 
  -7  -2   1  879.27   72.46 
   2  -7   1  714.21   69.72 
   2   7   1  656.67   69.21 
   2  -7   1  689.88   70.66 
   7  -2   1  962.94   70.04 
   7   2   1 1009.49   69.14 
   7   2   1  985.07   70.52 
   7  -2   1 1017.24   70.63 
   7   2   1  957.31   69.10 
   7  -2   1  917.83   67.17 
   7  -2   1 1061.56   70.43 
  -2  -7   1  720.56   69.81 
  -7   2   1 1017.49   73.76 
   2  -7   1  792.39   65.45 
  -2  -7   1  763.28   67.55 
   7  -2   1  983.80   71.25 
  -2   7   1  673.27   69.48 
   2   7   1  701.47   67.16 
   3  -7   1    8.31    2.83 
   7   3   1    4.26    3.35 
   7  -3   1   12.23    4.61 
  -3   7   1   11.95    4.93 
   3   7   1    3.99    2.95 
   7   3   1    5.89    3.74 
  -7   3   1   13.03    6.01 
   7  -3   1    7.49    4.60 
   7   3   1    4.37    4.05 
  -3  -7   1    9.64    4.28 
   3   7   1    2.54    3.24 
  -7  -3   1   10.71    4.93 
   7  -3   1    4.92    3.39 
   3  -7   1    7.16    5.09 
   3  -7   1    4.30    3.69 
   7  -3   1   11.19    5.27 
  -3  -7   1   15.44    5.50 
   3   7   1    8.57    3.22 
   7   4   1  509.88   46.18 
   7   4   1  469.74   46.58 
   4  -7   1  574.96   50.90 
  -7   4   1  579.61   50.86 
   7  -4   1  540.30   47.54 
   4  -7   1  617.24   50.31 
   4   7   1  594.31   47.44 
  -4   7   1  619.20   50.11 
   7  -4   1  525.97   49.19 
   7  -4   1  550.91   49.78 
   4   7   1  615.48   45.03 
   7   4   1  473.47   47.57 
   4  -7   1  632.39   45.95 
  -4  -7   1  568.24   49.27 
  -4  -7   1  586.28   48.66 
  -7  -4   1  552.24   50.55 
   7  -4   1  501.56   45.16 
  -7  -5   1   22.27    7.24 
   7  -5   1    8.14    4.37 
  -5  -7   1    4.70    4.73 
   5  -7   1   14.04    4.68 
  -5  -7   1    7.33    4.30 
   7  -5   1   16.32    6.52 
   7   5   1   11.12    5.04 
  -7   5   1   18.57    6.88 
   7   5   1   15.65    6.03 
   5   7   1   15.43    5.23 
   5  -7   1   11.16    5.54 
   5   7   1   12.00    4.69 
   5  -7   1   14.78    6.68 
  -5   7   1   14.53    5.93 
   7  -5   1    6.98    3.41 
   7  -5   1   11.02    5.72 
  -6  -7   1  574.57   45.32 
  -7  -6   1  423.62   43.64 
   7   6   1  393.51   41.18 
   7  -6   1  396.98   40.74 
   6  -7   1  564.51   46.59 
   6   7   1  542.64   41.49 
   7  -6   1  408.91   43.50 
   6  -7   1  523.16   45.02 
   6   7   1  545.42   42.59 
  -6   7   1  485.13   44.69 
   7  -6   1  448.49   44.30 
  -7   6   1  414.84   44.02 
   6  -7   1  529.09   41.12 
   7   6   1  470.76   41.66 
   7  -7   1   24.51    8.63 
  -7  -7   1   32.73    9.08 
   7  -7   1   12.85    5.24 
  -7   7   1   28.56    8.78 
   7   7   1   30.92    8.23 
   7   7   1   26.68    7.04 
   7  -7   1   25.15    8.20 
   0  -8   1    1.56    2.80 
  -8   0   1   -0.73    3.40 
   8   0   1    5.73    3.75 
   0  -8   1   -0.79    3.34 
   8   0   1   -1.60    3.39 
   0   8   1    2.49    3.16 
   8   0   1    7.00    3.72 
   8   0   1   -0.34    3.05 
   8   1   1  613.66   54.66 
   8  -1   1  651.68   55.77 
  -1   8   1  694.50   56.60 
   8   1   1  617.95   53.95 
  -8  -1   1  646.86   57.69 
   1   8   1  693.20   56.15 
  -8   1   1  564.09   56.60 
   8   1   1  610.15   55.40 
   8  -1   1  613.27   53.35 
   1   8   1  693.09   53.98 
   1  -8   1  651.36   55.22 
  -1  -8   1  692.72   54.22 
   8  -1   1  628.17   55.29 
   8  -1   1  552.39   54.26 
  -1  -8   1  749.50   57.83 
   1  -8   1  701.68   58.06 
  -2   8   1   59.50   10.69 
  -8   2   1   53.53   11.44 
   8  -2   1   61.74   10.78 
   8  -2   1   47.95    9.44 
  -2  -8   1   58.48   11.13 
   8   2   1   50.94   10.57 
   2   8   1   51.54    8.96 
  -8  -2   1   54.06   11.66 
   2  -8   1   42.05    8.89 
   8   2   1   61.91   11.27 
   8  -2   1   48.16    9.92 
   2  -8   1   65.31   12.92 
   8   2   1   58.17   10.45 
   2   8   1   62.76   10.85 
   8   3   1  667.05   52.67 
  -3   8   1  614.75   54.61 
   8   3   1  611.78   52.49 
   3  -8   1  520.18   53.23 
   3   8   1  595.68   53.76 
   3  -8   1  538.36   54.61 
   8  -3   1  672.26   53.51 
   8  -3   1  678.98   51.53 
   8  -3   1  627.74   53.10 
  -8  -3   1  659.48   56.23 
   8   3   1  610.17   53.40 
  -3  -8   1  606.34   54.00 
  -8   3   1  720.51   56.99 
   8  -3   1  654.13   54.53 
   3   8   1  540.93   51.02 
  -4   8   1   85.87   13.98 
   8  -4   1   75.51   11.43 
   8  -4   1   79.38   13.15 
   4  -8   1   77.94   14.35 
  -4  -8   1   75.01   13.28 
  -8   4   1   67.20   13.95 
   4   8   1   88.67   12.46 
  -8  -4   1   71.99   14.09 
   8  -4   1   63.55   11.70 
  -4  -8   1   88.93   13.50 
   4   8   1   76.20   13.15 
   8   4   1   94.81   13.96 
   4  -8   1   66.86   12.58 
   8   4   1   70.71   12.81 
   8  -4   1   80.68   13.59 
   8   4   1   79.76   11.87 
   5   8   1  460.50   43.93 
  -8  -5   1  623.43   49.45 
   8   5   1  609.16   47.13 
   5  -8   1  402.80   45.57 
   8  -5   1  651.10   48.72 
   8   5   1  547.84   45.21 
   8  -5   1  606.00   43.05 
  -5  -8   1  410.96   45.42 
   5  -8   1  417.25   41.81 
  -5  -8   1  479.06   45.00 
  -5   8   1  466.30   46.94 
  -8   5   1  604.69   49.31 
   8  -5   1  559.96   45.59 
   5  -8   1  425.54   46.76 
   8  -5   1  592.98   48.21 
   8   6   1   32.96    8.16 
  -6  -8   1   19.28    6.92 
   8   6   1   38.41    9.20 
   6  -8   1   31.65    9.17 
  -6   8   1   14.86    7.05 
  -8   6   1   33.42    9.67 
   6  -8   1   32.59    9.89 
   6  -8   1   23.33    6.34 
   8  -6   1   30.22    8.68 
   8  -6   1   33.49    9.15 
  -8  -6   1   18.60    7.62 
   6   8   1   25.30    6.91 
   8  -6   1   26.01    7.88 
   8  -7   1  326.95   37.12 
  -8   7   1  384.94   39.29 
   8  -7   1  383.19   38.61 
   7  -8   1  419.38   39.95 
   7   8   1  422.71   36.67 
  -7  -8   1  508.07   40.68 
   7  -8   1  348.91   34.44 
  -8  -7   1  371.63   38.55 
   8  -7   1  353.39   35.19 
   7  -8   1  401.25   38.40 
   8   7   1  390.18   37.07 
   8   7   1  352.93   35.64 
  -7   8   1  417.11   39.07 
   8  -8   1    1.24    4.47 
   8   8   1    1.42    3.74 
   8  -8   1   -0.13    4.37 
  -8   8   1    1.05    4.57 
  -8  -8   1    5.36    5.13 
   8  -8   1    5.74    5.12 
   0   9   1  486.09   45.36 
   0  -9   1  504.41   43.85 
   0  -9   1  513.88   46.92 
   9   1   1   57.73   11.11 
  -9   1   1   48.32   11.15 
  -1  -9   1   62.49   11.68 
   9  -1   1   55.37   10.32 
   1  -9   1   55.91   10.15 
   9   1   1   69.29   12.69 
   9  -1   1   44.40    9.99 
   1  -9   1   39.97   10.46 
  -1   9   1   52.00   10.48 
   1   9   1   46.80    8.74 
   9   1   1   51.73   10.85 
  -9  -1   1   69.06   12.98 
  -1  -9   1   58.03    9.03 
   1   9   1   61.12   11.01 
   9  -1   1   50.70   10.73 
   9   2   1  487.86   46.27 
   2   9   1  552.16   48.10 
   9   2   1  521.77   48.00 
   2  -9   1  523.32   47.19 
   2  -9   1  527.78   49.63 
  -2   9   1  605.97   49.22 
  -9  -2   1  525.19   49.61 
  -2  -9   1  567.01   48.97 
   9  -2   1  505.14   45.56 
   9  -2   1  524.63   47.69 
   9   2   1  533.00   47.01 
   9  -2   1  472.98   46.64 
  -9   2   1  550.59   49.67 
   2   9   1  572.41   45.86 
   9   3   1   18.24    6.21 
  -9  -3   1   12.97    6.30 
   3  -9   1   11.46    5.30 
   3   9   1    6.84    3.84 
  -3   9   1   13.41    5.83 
   9   3   1    1.43    4.38 
   9  -3   1   12.30    5.96 
   9  -3   1   15.95    5.52 
   3   9   1   11.83    5.50 
  -9   3   1    6.87    5.10 
   9   3   1    3.56    4.74 
   3  -9   1   18.11    7.35 
  -3  -9   1   16.18    6.44 
   9  -3   1    8.24    4.81 
   9  -4   1  357.91   38.91 
   9  -4   1  395.25   36.52 
   9   4   1  401.95   39.41 
   9  -4   1  327.10   37.21 
   4   9   1  506.56   38.58 
   9   4   1  395.72   38.36 
  -4  -9   1  485.40   40.20 
  -9  -4   1  361.59   40.53 
   4  -9   1  420.92   39.58 
   4  -9   1  485.02   42.49 
  -4   9   1  505.41   41.61 
   4   9   1  513.71   41.14 
   9   4   1  372.21   37.06 
  -5   9   1    3.44    4.79 
   5   9   1    0.78    3.51 
  -5  -9   1    0.81    3.05 
  -9   5   1   -2.19    3.70 
   5   9   1    0.43    3.33 
   5  -9   1    3.42    4.66 
   9  -5   1   -3.53    3.22 
  -5  -9   1   -0.43    4.68 
   9   5   1    2.68    5.43 
   9  -5   1    3.58    3.04 
   5  -9   1   -2.31    3.90 
  -9  -5   1    9.53    6.36 
   9  -5   1   -0.79    4.19 
   9   5   1   -4.75    3.01 
   6   9   1  295.86   30.10 
   6  -9   1  291.37   32.27 
   9   6   1  336.54   32.27 
  -6  -9   1  324.58   33.22 
   9   6   1  354.08   32.87 
   6  -9   1  299.33   33.42 
   9  -6   1  345.94   33.43 
  -9  -6   1  321.73   33.99 
   9  -6   1  297.53   31.05 
  -6   9   1  286.41   32.51 
  -9   6   1  345.84   34.53 
  -7  -9   1   -5.09    3.28 
  -9  -7   1    6.27    5.68 
   9   7   1    8.30    6.31 
   9   7   1    1.45    4.29 
   9  -7   1   -1.84    3.32 
   7   9   1   -1.80    3.43 
   7  -9   1    8.96    6.15 
  -7   9   1   -0.57    4.85 
   7  -9   1   -0.56    5.27 
   9  -7   1    1.64    4.40 
  -9   7   1    2.29    5.57 
   8  -9   1  165.81   26.45 
  -8   9   1  195.08   27.13 
   8  -9   1  198.04   21.13 
  -9  -8   1  217.54   28.03 
   8  -9   1  162.97   25.14 
   8   9   1  172.15   23.18 
  -9   8   1  247.94   29.05 
  -8  -9   1  195.08   26.86 
   9   8   1  240.62   26.15 
   9  -8   1  200.72   26.46 
   9  -8   1  227.27   23.31 
   9   9   1    6.44    5.30 
  -9  -9   1    3.04    6.34 
   9  -9   1   -0.93    3.99 
   9  -9   1   12.39    6.11 
  -9   9   1    1.01    6.52 
   0 -10   1    5.27    4.80 
 -10   0   1    1.77    4.33 
  10   0   1    2.86    4.77 
  10   0   1    1.19    3.60 
   0 -10   1    3.42    3.17 
   0  10   1    5.14    4.43 
  10  -1   1  330.47   34.29 
  -1 -10   1  429.16   38.58 
  -1  10   1  388.49   36.48 
 -10  -1   1  394.31   37.96 
   1 -10   1  414.20   35.50 
  10  -1   1  341.46   35.47 
  10   1   1  375.57   35.86 
 -10   1   1  308.83   35.81 
   1 -10   1  385.67   37.91 
  10   1   1  359.70   35.18 
   1  10   1  405.85   36.56 
  10   2   1    3.68    4.28 
  10   2   1    1.27    4.65 
  10  -2   1    3.18    4.48 
   2 -10   1   -2.83    3.23 
  -2  10   1    0.02    3.65 
  10  -2   1    0.24    3.72 
   2  10   1   -0.25    3.38 
 -10   2   1   -2.58    3.72 
  10  -2   1    2.64    4.18 
  10   2   1   -0.01    4.36 
  -2 -10   1    5.60    4.64 
   2 -10   1    0.19    3.44 
 -10  -2   1    4.74    5.27 
   2  10   1    2.88    3.58 
  10  -3   1  506.79   38.72 
   3  10   1  332.65   35.82 
  -3  10   1  372.75   39.08 
   3 -10   1  321.81   37.37 
   3 -10   1  353.57   40.03 
  10   3   1  435.85   39.01 
   3  10   1  346.44   38.01 
  10  -3   1  431.38   38.82 
  10  -3   1  543.54   41.37 
  10   3   1  482.93   40.79 
  -3 -10   1  339.88   38.11 
 -10   3   1  475.85   41.73 
 -10  -3   1  445.10   41.74 
  10   3   1  477.27   38.91 
  10   4   1   12.35    6.67 
  10  -4   1   18.13    6.92 
  10   4   1   22.36    7.18 
  -4  10   1    9.09    5.86 
   4 -10   1   16.38    8.05 
  10   4   1   23.42    8.24 
   4 -10   1    9.06    6.46 
   4  10   1   11.35    5.18 
  10  -4   1   10.08    5.89 
  10  -4   1   25.35    7.22 
  -4 -10   1   19.57    7.03 
   4  10   1   24.25    8.04 
 -10  -4   1   19.70    7.82 
 -10   4   1   23.92    8.39 
   5 -10   1  263.25   29.88 
 -10   5   1  270.46   33.12 
 -10  -5   1  267.78   33.10 
  -5  10   1  321.85   32.09 
   5  10   1  295.60   28.34 
  10  -5   1  229.68   29.94 
  10  -5   1  244.18   30.88 
  10  -5   1  320.32   27.85 
   5  10   1  328.14   31.15 
  10   5   1  294.69   30.28 
   5 -10   1  316.13   32.78 
 -10   6   1   21.84    8.41 
  10  -6   1    5.52    5.71 
  -6 -10   1   15.83    7.62 
   6 -10   1    5.73    6.09 
   6 -10   1   12.43    6.83 
   6  10   1    7.82    5.17 
  -6  10   1   11.22    6.75 
  10   6   1   13.28    7.05 
  10  -6   1    0.77    5.09 
 -10  -6   1    6.91    6.33 
   6  10   1    7.08    4.59 
  10   6   1   18.64    6.71 
  10  -7   1  236.11   28.50 
  -7  10   1  225.03   29.20 
   7  10   1  192.53   24.71 
   7 -10   1  209.22   29.38 
  10   7   1  266.83   28.48 
   7 -10   1  189.80   27.05 
 -10   7   1  221.69   29.84 
  10  -7   1  198.65   25.24 
  -7 -10   1  207.04   27.84 
  10   7   1  251.16   28.24 
 -10  -7   1  248.58   30.74 
  -8 -10   1   10.93    7.80 
   8  10   1   -2.03    3.95 
   8 -10   1   -5.35    5.68 
  -8  10   1   -7.32    5.38 
 -10  -8   1    8.10    7.68 
  10  -8   1    4.38    5.60 
  10   8   1    3.87    4.93 
  10   8   1   -5.86    4.98 
  10  -8   1   -9.95    4.07 
 -10   8   1   10.41    7.53 
   8 -10   1   -3.73    5.24 
  10  -9   1  119.28   21.58 
   9  10   1  163.56   22.10 
 -10  -9   1  165.66   26.12 
 -10   9   1  158.12   24.77 
  -9  10   1  167.81   25.53 
   9 -10   1  138.61   22.66 
  -9 -10   1  134.17   23.07 
  10   9   1  192.89   24.00 
  10  -9   1  106.65   18.55 
  10 -10   1    2.11    5.52 
  11   0   1  216.24   28.62 
 -11   0   1  272.67   29.68 
   0 -11   1  317.51   31.29 
   0  11   1  311.40   29.86 
  11   0   1  252.33   27.86 
  11   1   1   26.64    8.51 
  11  -1   1    5.96    4.62 
   1 -11   1   12.19    5.98 
   1  11   1   16.61    6.35 
  -1  11   1   20.28    7.06 
   1 -11   1    0.76    3.77 
 -11   1   1    8.74    5.55 
  11   1   1    7.25    6.14 
  -1 -11   1    8.17    5.97 
  11  -1   1   17.99    6.90 
 -11  -1   1    4.48    5.30 
  11  -2   1  252.10   27.06 
  -2 -11   1  185.03   27.85 
 -11   2   1  250.79   29.36 
   2 -11   1  244.45   25.86 
  11  -2   1  271.19   26.75 
   2 -11   1  258.14   31.14 
  11   2   1  263.87   29.45 
 -11  -2   1  258.87   30.23 
  11   2   1  233.04   27.73 
   2  11   1  274.80   27.41 
   2  11   1  240.27   24.49 
  -2  11   1  245.02   27.10 
   3 -11   1   13.78    7.12 
   3 -11   1   27.19    8.45 
  11  -3   1   32.99    9.24 
  -3 -11   1   28.29    8.38 
  11  -3   1   33.10    8.16 
  -3  11   1   32.53    8.76 
  11  -3   1   28.90    9.30 
   3  11   1   14.11    5.92 
 -11   3   1   29.98    9.29 
   3  11   1   19.92    7.11 
  11   3   1   26.75    8.24 
 -11  -3   1   19.67    8.47 
  11   3   1   18.92    8.25 
 -11   4   1  186.57   25.85 
   4 -11   1  138.34   22.73 
  11   4   1  174.12   25.04 
 -11  -4   1  214.54   28.26 
  11  -4   1  239.76   22.66 
  11   4   1  274.76   28.93 
  11  -4   1  246.88   25.04 
  -4 -11   1  187.27   24.74 
  11   4   1  191.68   23.96 
   4  11   1  200.69   21.36 
   4  11   1  199.14   24.86 
   4 -11   1  179.87   26.52 
  11  -4   1  183.02   24.82 
  -4  11   1  178.09   25.06 
  11   5   1   -1.14    5.76 
  -5  11   1   -2.20    4.70 
 -11  -5   1   -1.35    6.12 
  11  -5   1    7.74    6.14 
  11  -5   1    1.24    5.62 
   5  11   1    1.57    3.26 
   5 -11   1    0.26    5.59 
 -11   5   1   -1.33    3.86 
   5 -11   1   -2.23    4.32 
   5  11   1    5.70    4.86 
  11   5   1    7.03    5.29 
   6  11   1  211.99   22.17 
 -11   6   1  208.95   28.59 
  11   6   1  211.67   26.61 
   6  11   1  166.10   24.61 
   6 -11   1  175.57   27.10 
  11  -6   1  199.53   25.42 
  11   6   1  246.41   28.39 
  -6  11   1  166.95   25.53 
  11  -6   1  177.85   25.41 
 -11  -6   1  214.04   29.03 
   6 -11   1  156.86   24.67 
  11   7   1   20.35    8.73 
  -7  11   1    5.02    6.81 
   7 -11   1    3.47    6.21 
  11   7   1    5.69    5.87 
  11  -7   1    5.85    7.20 
  11  -7   1   -1.47    5.75 
   7 -11   1    6.16    7.01 
 -11   7   1   10.38    7.39 
   7  11   1   17.02    6.22 
   7  11   1   -2.47    3.92 
 -11  -7   1   18.29    8.91 
 -11  -8   1  126.45   23.81 
 -11   8   1  174.94   26.69 
   8  11   1  173.94   21.89 
  11  -8   1  128.94   20.53 
   8  11   1  155.47   23.39 
   8 -11   1  156.92   24.17 
   8 -11   1  116.52   22.86 
  11   8   1  176.68   24.69 
  11  -8   1  139.54   22.65 
   9 -11   1   -5.58    5.88 
  11  -9   1    3.92    5.98 
  11  -9   1   -3.88    4.96 
  11 -10   1  115.11   20.71 
  10 -11   1  114.18   20.78 
  12   0   1    6.13    6.18 
   0 -12   1   -0.85    4.43 
   0  12   1    0.25    3.23 
 -12   0   1    4.86    4.71 
  12   0   1    0.63    4.75 
   1  12   1  204.72   27.03 
  -1 -12   1  166.85   26.91 
  -1  12   1  163.84   25.56 
   1 -12   1  201.90   29.07 
  12   1   1  241.24   28.09 
  12   1   1  285.72   27.81 
 -12  -1   1  250.22   28.96 
 -12   1   1  242.45   28.44 
  12  -1   1  231.68   28.05 
  12  -1   1  312.00   27.44 
   2 -12   1    1.94    5.06 
  -2  12   1   -3.10    3.75 
  12   2   1    6.53    6.33 
   2 -12   1    6.54    5.37 
  -2 -12   1    3.56    4.22 
   2  12   1    3.51    4.79 
  12  -2   1   -1.42    4.05 
  12  -2   1   -2.33    3.67 
 -12   2   1    0.59    5.01 
  12   2   1   11.45    6.78 
 -12  -2   1    1.08    5.35 
 -12   3   1  205.51   27.92 
  12  -3   1  218.52   25.41 
  -3 -12   1  233.79   28.10 
   3  12   1  224.15   23.22 
   3  12   1  222.89   27.11 
   3 -12   1  220.69   29.89 
   3 -12   1  240.53   25.05 
  12   3   1  203.97   26.61 
  12  -3   1  218.54   27.58 
 -12  -3   1  177.82   27.20 
  12   3   1  192.73   27.20 
  -3  12   1  253.33   28.60 
  12  -4   1   10.27    6.48 
  -4 -12   1   -5.51    3.97 
   4 -12   1    5.87    6.37 
   4 -12   1    8.70    6.21 
   4  12   1    3.15    4.12 
  12  -4   1   -2.00    4.10 
 -12   4   1    4.24    5.84 
  -4  12   1    5.97    5.51 
  12   4   1    0.79    5.47 
   4  12   1    8.98    5.13 
 -12  -4   1   -5.44    5.54 
   5 -12   1  186.81   24.75 
  12   5   1  161.05   25.14 
   5  12   1  190.47   25.12 
  12  -5   1  162.63   24.33 
  12  -5   1  170.43   24.33 
   5 -12   1  188.55   28.19 
 -12  -5   1  174.18   27.35 
   5  12   1  212.79   23.20 
 -12   5   1  178.41   26.11 
  -5  12   1  194.83   27.11 
   6 -12   1   14.43    7.55 
   6  12   1    6.04    5.37 
 -12   6   1   -5.34    4.79 
  12  -6   1    0.23    5.57 
   6  12   1   -1.02    4.93 
   6 -12   1    4.06    5.79 
  -6  12   1   17.53    7.23 
  12  -6   1   -6.98    5.11 
  12   6   1   12.32    8.08 
 -12  -6   1    8.54    7.22 
  12   7   1  157.25   23.77 
  12  -7   1  155.50   23.07 
   7 -12   1  122.41   22.01 
  12  -7   1  162.72   23.05 
  12  -8   1    8.61    6.51 
  12  -8   1    3.02    6.45 
   8 -12   1    0.51    6.53 
  13   0   1  141.30   22.67 
   0  13   1  211.00   25.10 
  13   0   1  143.76   21.92 
   0 -13   1  192.04   26.77 
 -13   0   1  115.90   21.07 
  13  -1   1   11.25    7.18 
   1 -13   1   11.56    7.25 
  13  -1   1    4.42    5.51 
  -1 -13   1    4.44    6.16 
  13   1   1    4.93    6.30 
  13   1   1    2.25    5.37 
 -13   1   1    1.98    5.84 
   1  13   1   -1.17    4.81 
  -1  13   1    5.86    4.99 
 -13  -1   1    1.31    6.54 
  -2  13   1  173.87   24.35 
   2  13   1  140.91   22.36 
  13   2   1  161.89   23.89 
   2 -13   1  133.82   23.94 
  13   2   1  183.43   24.84 
  -2 -13   1  164.01   24.63 
  13  -2   1  181.64   23.04 
 -13   2   1  160.71   23.75 
  13  -2   1  183.52   25.18 
 -13  -2   1  187.85   25.62 
   3  13   1    5.98    4.97 
   3 -13   1    2.00    5.43 
  13  -3   1    5.08    6.66 
  13   3   1    3.29    6.91 
   3 -13   1    0.42    5.19 
  13   3   1    7.51    7.66 
 -13   3   1    0.82    5.77 
  -3  13   1   16.08    6.72 
  -3 -13   1  -13.88    4.10 
  13  -3   1    5.68    5.26 
 -13  -3   1   11.10    8.34 
  13  -4   1  179.19   24.99 
 -13   4   1  145.71   23.34 
   4  13   1  167.46   23.69 
   4 -13   1  159.56   22.56 
 -13  -4   1  193.46   27.56 
   4  13   1  143.15   19.96 
   5 -13   1   -2.19    5.31 
  13  -5   1   -2.76    6.00 
  13  -6   1  101.44   17.78 
   6 -13   1   79.28   15.95 
  13  -6   1   74.22   16.21 
  13  -7   1    2.91    6.56 
  13  -7   1    5.52    6.54 
   7 -13   1    3.53    6.58 
  14   0   1   -1.82    5.38 
  14  -1   1  152.30   23.31 
  14   1   1  121.46   21.57 
  14   2   1   -0.29    6.56 
  14  -2   1   -2.24    5.71 
  14   3   1  139.68   21.19 
  14  -3   1   99.42   19.47 
   4 -14   1  -10.96    5.38 
  14  -4   1   -9.85    4.78 
  14  -5   1   92.47   17.86 
   5 -14   1  106.35   19.10 
   0   0   2 4222.05  310.48 
   0   0   2 3782.31  295.93 
   0  -1   2    1.45    2.16 
   0   1   2   -1.53    1.03 
   0  -1   2   -1.56    0.96 
  -1   0   2    3.63    2.19 
   0   1   2   -1.67    1.31 
   0  -1   2   -0.20    1.42 
  -1   0   2    0.69    1.81 
   1   0   2   -0.78    1.53 
   1  -1   2 2539.46  192.78 
   1   1   2 2674.91  198.30 
  -1  -1   2 2771.41  201.99 
  -1  -1   2 2555.02  193.17 
   1  -1   2 2601.09  203.12 
  -1   1   2 2457.83  202.74 
   1   1   2 2559.70  192.94 
  -1   1   2 2515.27  192.92 
   1   1   2 2668.17  201.73 
  -1  -1   2 2691.99  202.48 
   0  -2   2 4559.69  359.59 
   0  -2   2 5118.68  377.79 
   0   2   2 4751.80  370.29 
   0   2   2 4618.26  377.69 
   0  -2   2 5675.09  378.33 
   2   0   2 4888.02  360.13 
  -2   0   2 4821.59  360.50 
  -2   0   2 4816.73  379.06 
   0   2   2 4575.86  359.50 
   2   0   2 5080.77  369.99 
  -2  -1   2 2086.99  162.45 
   2  -1   2 1831.47  162.60 
   2   1   2 2207.35  158.76 
  -1   2   2 2065.20  153.95 
  -1  -2   2 2062.28  162.07 
   1   2   2 2133.00  161.47 
  -2   1   2 1996.43  162.89 
   1   2   2 2064.95  158.72 
   1   2   2 2043.08  154.05 
  -2   1   2 2107.74  154.65 
  -1  -2   2 2064.78  154.35 
  -1   2   2 2085.96  162.10 
   1  -2   2 2086.91  153.95 
  -2  -1   2 2057.05  154.92 
  -1  -2   2 2189.20  162.01 
   2  -1   2 2171.96  154.38 
   2   1   2 1962.21  154.28 
  -2  -2   2  886.90   65.41 
  -2  -2   2  844.39   67.53 
   2  -2   2  841.65   64.34 
   2   2   2  786.44   66.29 
  -2   2   2  898.70   64.73 
  -2  -2   2  842.64   68.09 
   2  -2   2  817.57   68.37 
  -2   2   2  866.91   68.62 
   2  -2   2  877.59   66.15 
   2  -2   2  840.31   69.94 
   2   2   2  812.03   64.50 
   0  -3   2   -1.56    1.34 
   0   3   2   -1.48    1.48 
   0   3   2   -0.39    1.75 
   3   0   2   -0.85    1.61 
   0   3   2   -1.86    1.21 
  -3   0   2   -0.57    2.27 
   3   0   2   -0.84    1.62 
   0  -3   2    1.69    1.81 
   3   0   2   -2.64    1.44 
   0  -3   2   -4.84    1.57 
   3  -1   2 1254.27  103.68 
   1   3   2 1275.89  102.15 
  -1   3   2 1288.73   96.77 
   3  -1   2 1305.17   97.65 
   3  -1   2 1302.01  103.14 
  -1  -3   2 1276.50  102.93 
  -3  -1   2 1347.68  103.67 
   3   1   2 1230.10   99.46 
   1   3   2 1293.33  100.49 
   3   1   2 1301.61  100.46 
   1  -3   2 1232.07  103.86 
  -1  -3   2 1261.85  102.39 
  -1  -3   2 1338.47   97.53 
   1   3   2 1316.53   97.04 
  -3   1   2 1335.80  104.32 
   1  -3   2 1310.10  103.02 
   3  -1   2 1348.85  100.17 
   3  -1   2 1333.93  100.12 
  -1   3   2 1297.38  102.65 
   1  -3   2 1280.73   96.76 
   3   1   2 1276.10   97.97 
  -2  -3   2   54.25    7.79 
   2   3   2   62.21    7.69 
  -3  -2   2   68.98    6.65 
  -2  -3   2   48.21    7.54 
   3   2   2   65.70    7.96 
   3  -2   2   61.70   10.36 
   2  -3   2   64.96   10.39 
   3   2   2   56.58    7.43 
   3  -2   2   54.39    8.26 
   3  -2   2   55.78    7.03 
   2  -3   2   49.01    7.98 
   2  -3   2   57.62    6.26 
  -2   3   2   51.47    7.97 
   2   3   2   70.08    6.98 
  -2   3   2   56.93    6.70 
   2  -3   2   59.03    7.36 
  -3   2   2   57.76    9.02 
  -3  -2   2   55.54    8.32 
   3  -2   2   61.31    7.81 
   3  -3   2 3244.15  231.87 
  -3  -3   2 3209.83  244.81 
   3  -3   2 3393.43  237.98 
   3  -3   2 3052.86  245.59 
  -3  -3   2 3421.97  242.80 
   3  -3   2 3400.24  246.08 
  -3   3   2 2787.54  244.82 
   3   3   2 2762.89  232.20 
   3   3   2 2904.19  239.09 
   0   4   2 2758.56  209.46 
   0  -4   2 2884.27  222.23 
   0   4   2 2663.15  216.93 
   0   4   2 2698.98  221.52 
   0  -4   2 3159.76  222.36 
   0  -4   2 2799.50  209.82 
   4   0   2 2880.46  217.10 
   4   0   2 2916.15  222.19 
   4   0   2 2789.82  211.26 
   4   0   2 2836.47  215.94 
  -1  -4   2   77.04    9.24 
   4  -1   2   79.19   10.00 
   4   1   2   99.93   11.08 
  -1   4   2   96.14    8.52 
   1   4   2  104.94   10.36 
   1   4   2   86.22    9.80 
   4  -1   2   89.73    9.92 
   1  -4   2   83.39   12.49 
   1   4   2  103.22    9.07 
   4   1   2  110.28   10.60 
   4   1   2   85.32    9.82 
  -4  -1   2   85.63   12.05 
  -1  -4   2   83.49   11.58 
   1  -4   2  103.20    8.67 
  -1  -4   2   88.12   10.05 
   4  -1   2   85.67   10.72 
   4  -1   2   91.23   10.29 
  -1  -4   2   91.22    9.32 
  -4   1   2   98.35   13.03 
   1  -4   2   78.59   10.56 
  -1   4   2   85.40   10.15 
   1  -4   2  106.66    9.49 
   2   4   2 3155.62  270.44 
   2  -4   2 3454.22  261.77 
   2  -4   2 3597.82  277.74 
   4  -2   2 3731.07  269.59 
   2   4   2 3240.33  262.16 
   4  -2   2 3453.39  277.56 
   4  -2   2 3728.05  278.02 
  -2  -4   2 3765.03  275.93 
   4   2   2 3522.47  268.72 
  -4  -2   2 3825.87  273.07 
  -2   4   2 3377.03  261.80 
  -2   4   2 3143.67  276.61 
  -2  -4   2 3581.35  276.71 
   4  -2   2 4053.99  271.09 
   2  -4   2 3863.08  268.76 
   4  -2   2 3632.52  263.03 
  -4   2   2 3343.80  277.99 
   2  -4   2 3808.47  278.17 
   4   2   2 3205.50  263.31 
   4   2   2 3474.43  270.95 
  -4  -2   2 3572.11  277.62 
   3   4   2   23.64    5.14 
   4  -3   2   15.40    4.37 
   3  -4   2   14.23    4.83 
   3   4   2   22.16    4.72 
   4  -3   2   21.39    6.80 
  -3  -4   2   17.05    4.71 
   4   3   2   16.74    4.36 
  -3  -4   2   16.08    4.67 
  -4   3   2   18.15    5.44 
  -4  -3   2   17.73    3.72 
   4   3   2   25.11    5.43 
  -3   4   2   23.62    5.83 
  -4  -3   2   19.68    5.21 
   4  -3   2   16.72    5.18 
   4  -3   2   18.98    4.10 
   3  -4   2   31.06    4.45 
   4   3   2   23.88    4.35 
   3  -4   2   18.80    6.29 
   3  -4   2   13.70    3.85 
   4   4   2 2435.46  195.54 
   4  -4   2 2679.25  194.40 
   4   4   2 2353.01  192.35 
   4  -4   2 2650.34  201.62 
   4  -4   2 2614.81  188.82 
   4  -4   2 2580.12  201.65 
  -4  -4   2 2612.28  200.41 
  -4  -4   2 2739.80  197.82 
   4   4   2 2396.53  189.72 
  -4   4   2 2357.60  200.54 
   5   0   2   -1.45    2.01 
   0  -5   2    2.97    1.59 
  -5   0   2   -1.61    2.68 
   0  -5   2    0.61    1.85 
   0   5   2    1.30    1.37 
   0  -5   2   -7.15    1.52 
   5   0   2    0.61    2.02 
   0   5   2    0.13    2.11 
   0   5   2   -3.59    1.10 
   5   0   2    1.96    2.32 
   5   0   2    0.77    2.33 
   5  -1   2 3421.80  245.06 
   5   1   2 3095.53  245.63 
  -5   1   2 3166.90  252.97 
  -5  -1   2 3155.55  252.56 
   1   5   2 2940.48  245.06 
   1   5   2 3001.53  236.77 
   5   1   2 3338.97  244.47 
   5   1   2 3037.98  239.27 
   1  -5   2 3500.51  242.92 
   1  -5   2 3053.85  236.54 
   1  -5   2 3475.88  251.97 
   1  -5   2 3331.72  251.89 
  -1   5   2 3089.56  236.34 
  -1  -5   2 3545.64  250.89 
   5  -1   2 3354.41  246.02 
   5   1   2 3067.06  250.43 
  -1   5   2 2999.76  250.82 
  -1  -5   2 3283.02  250.98 
   1   5   2 2930.07  250.27 
  -1  -5   2 3431.99  251.26 
   5  -1   2 3316.32  251.77 
   5  -1   2 3132.19  238.90 
   2  -5   2  128.25   12.70 
  -2   5   2  129.84   14.41 
  -2  -5   2  109.95   14.76 
   5   2   2  154.02   14.55 
  -2  -5   2  145.14   14.50 
   5  -2   2  110.97   12.88 
   5  -2   2  123.35   13.60 
   2   5   2  136.67   12.30 
   5  -2   2  134.28   16.54 
   5  -2   2  137.40   14.34 
   2  -5   2  145.89   17.67 
   5   2   2  146.11   14.48 
   2   5   2  120.04   13.36 
  -5  -2   2  124.49   16.04 
  -5   2   2  126.14   16.83 
   2   5   2  142.98   14.15 
   5  -2   2  145.22   14.72 
   5   2   2  133.14   13.58 
  -2  -5   2  131.82   12.70 
   2  -5   2  143.39   11.66 
   2  -5   2  137.03   14.60 
   5   3   2  762.82   62.17 
   3  -5   2  735.85   65.57 
   3  -5   2  766.10   67.02 
   5  -3   2  781.70   65.78 
   3   5   2  789.64   63.38 
   5  -3   2  792.50   63.36 
  -3  -5   2  759.56   64.39 
   5  -3   2  769.42   63.38 
  -3  -5   2  722.99   64.73 
   5   3   2  732.45   62.05 
   3  -5   2  856.49   59.85 
  -5  -3   2  838.56   66.17 
   5   3   2  763.05   63.59 
   3   5   2  791.23   60.71 
   3  -5   2  858.68   62.58 
  -3   5   2  772.48   65.41 
  -5  -3   2  786.90   61.73 
   5  -3   2  754.66   66.69 
   5  -3   2  810.07   61.15 
  -5   3   2  835.25   66.84 
   4  -5   2   72.78   13.02 
   5  -4   2   68.41   12.61 
   5  -4   2   70.05    8.95 
   5  -4   2   53.76   10.85 
   4  -5   2   78.88   10.00 
   5  -4   2   77.60   10.68 
   5   4   2   82.61    9.12 
  -4  -5   2   62.77    9.75 
   4  -5   2   86.27    8.22 
   5   4   2   82.57   10.62 
  -5  -4   2   87.82   12.30 
   4   5   2   90.08   10.31 
   4   5   2   72.99   10.41 
   4  -5   2   64.55   11.41 
  -5   4   2   81.72   12.58 
  -5  -4   2   73.69    8.53 
  -4  -5   2   69.41   11.12 
  -4   5   2   58.60   10.81 
   5   4   2   71.19   10.37 
   5  -5   2  886.73   74.14 
  -5  -5   2  860.42   73.37 
   5   5   2  882.33   71.35 
  -5  -5   2  947.63   71.05 
   5  -5   2  865.78   70.34 
   5   5   2  815.76   68.61 
  -5   5   2  826.70   73.49 
   5  -5   2  911.61   67.43 
   5  -5   2  861.26   74.93 
   0   6   2  602.86   53.27 
   6   0   2  649.97   54.24 
   6   0   2  683.66   54.80 
  -6   0   2  686.94   57.70 
   0  -6   2  651.82   56.68 
   0  -6   2  658.45   54.61 
   6   0   2  619.21   52.93 
   0   6   2  648.84   55.20 
   0   6   2  709.91   49.56 
   6   0   2  623.68   54.19 
   1   6   2    4.43    2.23 
   1  -6   2    5.64    2.15 
   6   1   2    7.90    4.34 
  -1  -6   2    0.72    2.97 
   1  -6   2    3.12    3.77 
   6  -1   2    7.39    3.53 
  -1  -6   2    3.02    2.46 
   6  -1   2    4.14    2.83 
  -6   1   2    0.84    3.38 
   6   1   2    9.33    3.41 
   1  -6   2    6.59    1.99 
   1   6   2    1.45    2.48 
   6   1   2    5.74    4.04 
  -6  -1   2    7.27    4.50 
   1   6   2   10.44    3.99 
   1  -6   2   -0.75    2.33 
   6   1   2    2.48    2.64 
   6  -1   2    3.92    3.12 
   6  -1   2    6.58    3.65 
  -1   6   2   12.21    4.47 
   2   6   2 1946.55  149.75 
   2   6   2 1932.77  159.35 
   2   6   2 1880.52  155.73 
   6  -2   2 2098.04  156.30 
   2  -6   2 2060.32  160.62 
   2  -6   2 2137.32  153.91 
  -2  -6   2 2129.96  158.22 
  -2  -6   2 1941.28  159.76 
   6  -2   2 2221.18  157.08 
   2  -6   2 1854.58  148.68 
  -6  -2   2 2012.58  161.51 
   6   2   2 1967.58  152.90 
   2  -6   2 2027.32  161.48 
  -2  -6   2 2120.33  160.05 
  -2   6   2 1925.68  160.06 
   6  -2   2 2053.73  160.18 
   6   2   2 2031.92  156.78 
   6  -2   2 1971.37  160.18 
  -6   2   2 2077.32  162.20 
   6   2   2 2030.72  155.30 
   6  -2   2 1891.25  151.49 
   3  -6   2  499.08   41.28 
   6  -3   2  487.34   42.95 
   3   6   2  485.26   42.42 
   3  -6   2  523.53   38.88 
   3   6   2  535.76   40.29 
  -6  -3   2  484.83   45.13 
   6  -3   2  558.17   46.10 
  -3  -6   2  451.48   43.53 
  -3   6   2  496.20   44.30 
  -3  -6   2  494.30   43.74 
   6   3   2  518.97   42.00 
   6  -3   2  535.87   44.94 
   6  -3   2  476.51   40.85 
   3  -6   2  489.87   44.58 
   6   3   2  466.38   42.92 
   3   6   2  511.16   43.70 
   6   3   2  532.18   42.90 
   3  -6   2  524.97   46.47 
  -6   3   2  510.27   45.80 
   6  -4   2 2056.10  165.03 
   4   6   2 2040.76  154.38 
   6   4   2 2016.50  157.69 
   4  -6   2 2212.23  153.00 
   6  -4   2 2060.35  154.41 
   4  -6   2 2083.04  165.90 
  -4   6   2 1993.91  164.50 
   4   6   2 1880.74  159.41 
   6  -4   2 1996.95  159.11 
  -4  -6   2 2251.69  162.71 
  -4  -6   2 2099.38  164.04 
  -6   4   2 1908.55  164.79 
   4  -6   2 2089.77  157.94 
   4  -6   2 2059.76  165.06 
   6   4   2 1985.89  156.01 
  -6  -4   2 2241.64  165.54 
   6  -4   2 2008.42  164.91 
   6   4   2 1954.90  160.05 
   6  -5   2  109.33   11.36 
   5  -6   2  106.51   12.97 
  -5  -6   2  125.48   13.77 
   5  -6   2  106.94   17.50 
   6   5   2   95.26   13.65 
   6   5   2  137.48   15.32 
  -5  -6   2  104.58   15.16 
   6  -5   2  111.09   17.29 
   5   6   2   83.44   13.05 
   5   6   2  100.21   12.95 
  -6  -5   2  137.09   16.98 
   6  -5   2  108.69   13.95 
  -6   5   2   98.01   16.02 
   6  -5   2  100.25   15.42 
   5  -6   2  104.34   15.52 
  -5   6   2  104.53   15.68 
   6  -6   2 1239.28  104.25 
   6  -6   2 1226.57  103.50 
   6   6   2 1219.84   96.64 
  -6  -6   2 1288.41  103.29 
  -6   6   2 1250.55  103.35 
   6   6   2 1244.51   99.89 
   6  -6   2 1226.77   98.42 
   7   0   2    0.21    2.77 
   7   0   2   -3.79    2.09 
   7   0   2   -0.82    2.84 
  -7   0   2   -5.21    3.37 
   0  -7   2    1.53    3.70 
   7   0   2   -0.47    2.68 
   0  -7   2    0.94    2.51 
   0   7   2    1.31    2.48 
   7   1   2  906.92   71.94 
   1  -7   2  852.59   72.82 
  -7  -1   2  897.30   75.30 
  -1  -7   2  898.44   71.82 
   1   7   2  901.74   71.12 
  -1   7   2  880.46   73.35 
  -1  -7   2  837.07   73.89 
   7   1   2  924.01   71.01 
   1  -7   2  799.20   74.38 
   7   1   2  844.47   71.42 
   7   1   2  868.94   72.09 
   7  -1   2  913.45   72.37 
   7  -1   2  839.28   69.89 
   7  -1   2  899.26   72.10 
  -7   1   2  827.30   74.84 
   7  -1   2  940.92   73.38 
   1   7   2  894.32   72.97 
  -2  -7   2   86.65    9.95 
  -7  -2   2   86.24   14.63 
   2   7   2   84.33   12.27 
   2  -7   2   70.11   11.90 
  -7   2   2   85.52   14.48 
   7  -2   2   84.41   11.74 
   7  -2   2   98.98   12.91 
   2  -7   2   81.16   14.21 
  -2  -7   2   75.49   12.35 
   7   2   2   68.29   11.99 
   7   2   2   88.67   12.37 
   7   2   2   96.20   12.82 
   2  -7   2   94.20    9.33 
   7  -2   2   73.70   12.21 
  -2  -7   2   66.59   12.25 
   2   7   2   70.49   10.88 
  -2   7   2  102.40   13.61 
   3   7   2 1471.25  121.77 
   7   3   2 1519.09  120.27 
  -3  -7   2 1501.26  121.95 
   7  -3   2 1477.50  115.53 
  -7   3   2 1470.38  124.32 
   7  -3   2 1538.47  123.13 
  -7  -3   2 1453.77  123.82 
   3  -7   2 1508.38  123.10 
   3  -7   2 1477.89  124.18 
   3   7   2 1501.67  119.01 
   3  -7   2 1623.99  117.05 
   7  -3   2 1561.60  122.84 
   3   7   2 1481.58  113.76 
   7  -3   2 1463.01  119.27 
  -3   7   2 1565.99  123.15 
  -3  -7   2 1498.60  122.52 
   7   3   2 1534.57  118.39 
   7   3   2 1519.29  117.44 
   7   4   2   70.43    9.95 
   4  -7   2   64.26    9.17 
   7  -4   2   75.81   10.25 
  -4   7   2   78.03   12.59 
  -7  -4   2   59.13   11.86 
   7   4   2   56.81   10.95 
   4   7   2   60.13   10.35 
  -4  -7   2   51.53   10.16 
   7  -4   2   48.31    9.95 
   4  -7   2   61.13   11.32 
   7  -4   2   69.40   12.52 
   4  -7   2   51.97   12.02 
  -4  -7   2   57.04   10.89 
   4   7   2   71.32    9.37 
  -7   4   2   65.36   12.68 
   7  -4   2   62.41   11.64 
   7   4   2   58.70   10.84 
   5  -7   2  958.06   79.29 
   7  -5   2 1061.77   85.17 
   7  -5   2  942.46   80.41 
  -5  -7   2  995.74   83.86 
  -5  -7   2 1049.80   82.25 
   7   5   2  936.14   79.38 
  -7   5   2  977.42   85.03 
   7  -5   2 1004.45   77.54 
   7   5   2  883.00   80.97 
  -5   7   2 1010.13   84.51 
   5  -7   2  971.10   85.75 
   5  -7   2 1025.66   84.84 
   5   7   2 1054.78   81.63 
   7  -5   2 1049.34   85.42 
   5   7   2 1011.93   78.11 
  -7  -5   2 1059.81   85.28 
  -7  -6   2    6.19    5.21 
   6  -7   2    6.61    3.62 
   6   7   2   12.81    5.47 
   6  -7   2    7.74    5.58 
   7   6   2    8.86    4.93 
  -6  -7   2    8.99    5.02 
   6   7   2   17.90    5.83 
  -7   6   2    3.87    5.22 
   7  -6   2   15.38    6.77 
   7  -6   2   17.83    5.42 
   7   6   2   18.44    6.07 
   6  -7   2    9.47    6.35 
  -6   7   2    8.16    4.83 
   7  -6   2   15.07    6.45 
   7  -7   2 1090.26   88.19 
   7  -7   2 1225.38   94.49 
  -7  -7   2 1068.00   92.89 
   7  -7   2 1058.53   93.48 
   7   7   2 1064.82   86.83 
  -7   7   2 1143.55   94.20 
   7   7   2 1038.65   89.71 
   8   0   2 2577.88  196.40 
   8   0   2 2672.95  202.10 
   0   8   2 2384.58  204.91 
   0  -8   2 2759.51  204.89 
   8   0   2 2639.82  200.71 
   8   0   2 2551.44  204.80 
  -8   0   2 2503.11  207.02 
   0  -8   2 2593.40  206.42 
   8   1   2    3.63    3.66 
  -1  -8   2    7.36    4.57 
   1   8   2    6.90    4.15 
  -1   8   2   13.86    5.41 
   8   1   2    7.66    4.89 
   1  -8   2    8.24    5.34 
   1  -8   2    1.80    3.49 
   1   8   2    7.39    3.80 
  -8  -1   2    8.69    5.54 
   8  -1   2   10.56    4.78 
  -1  -8   2    8.08    3.93 
   8  -1   2    6.15    4.61 
   8   1   2   10.13    5.30 
  -8   1   2    2.64    4.49 
   8  -1   2    4.41    4.03 
  -2  -8   2 1416.40  110.39 
   8  -2   2 1362.31  104.23 
   2   8   2 1299.16  109.04 
  -8  -2   2 1337.87  111.54 
   8  -2   2 1398.83  107.66 
   2  -8   2 1400.04  109.76 
   8   2   2 1308.60  107.54 
   2   8   2 1260.61  106.04 
   2  -8   2 1267.74  110.93 
  -2   8   2 1279.60  109.52 
   8  -2   2 1293.30  109.41 
   8   2   2 1296.30  105.31 
  -8   2   2 1400.90  111.84 
   8   2   2 1436.52  107.08 
   3  -8   2   27.11    8.78 
   8  -3   2   15.61    6.07 
   3   8   2   25.13    6.46 
  -3  -8   2   27.91    7.94 
   8   3   2   34.91    7.61 
   8   3   2   20.11    7.12 
  -8  -3   2   40.19   10.32 
  -3  -8   2   29.60    7.64 
   8   3   2   27.41    7.60 
   3  -8   2   21.93    7.04 
  -3   8   2   17.99    6.51 
   8  -3   2   18.77    5.62 
  -8   3   2   21.55    8.41 
   8  -3   2   30.02    7.80 
   3   8   2   16.13    5.73 
   8  -3   2   41.99    8.56 
  -8  -4   2  570.93   53.23 
   8   4   2  567.26   50.87 
   4   8   2  581.81   51.29 
   4  -8   2  503.80   52.75 
   4  -8   2  610.24   52.45 
   8  -4   2  610.74   51.85 
   8  -4   2  591.49   52.27 
   8  -4   2  480.63   49.28 
  -4   8   2  622.07   52.71 
   8   4   2  571.02   48.62 
   8   4   2  548.04   49.53 
   4  -8   2  568.10   47.43 
  -4  -8   2  613.26   52.21 
   8  -4   2  564.52   47.75 
  -4  -8   2  594.84   51.11 
  -8   4   2  635.70   54.43 
   4   8   2  619.17   50.06 
   5  -8   2   14.56    7.27 
  -5  -8   2   30.63    8.33 
   8   5   2   23.99    7.47 
  -5   8   2   21.40    7.46 
  -8  -5   2   24.15    8.27 
  -8   5   2   34.19    9.46 
   8  -5   2   27.35    8.49 
   5   8   2   33.73    8.14 
   5  -8   2   29.78    6.45 
   8  -5   2   27.13    7.13 
  -5  -8   2   32.58    7.88 
   5  -8   2   16.70    7.21 
   8   5   2   30.74    8.28 
   8  -5   2   28.96    8.69 
   8  -5   2   39.72    7.22 
   8  -6   2  601.88   55.16 
  -8  -6   2  691.10   56.55 
   6  -8   2  540.71   49.90 
  -6   8   2  609.12   55.21 
   6  -8   2  541.97   54.25 
   8  -6   2  554.19   54.39 
   8   6   2  662.80   54.15 
  -8   6   2  675.52   56.73 
  -6  -8   2  675.38   55.34 
   6  -8   2  523.99   55.24 
   8  -6   2  552.19   51.49 
   6   8   2  605.31   52.33 
   8   6   2  615.78   51.52 
   7  -8   2   -2.85    4.16 
  -8  -7   2    1.19    5.38 
  -7  -8   2    9.69    5.64 
   8  -7   2    2.19    4.37 
   8  -7   2    9.40    6.83 
   7  -8   2   -4.51    4.07 
   8   7   2    4.36    4.60 
   7  -8   2    2.95    3.40 
  -8   7   2    5.39    5.07 
  -7   8   2   11.01    5.85 
   7   8   2    9.94    5.62 
   8  -7   2    4.31    4.61 
   8   7   2    2.64    3.67 
   8  -8   2 1068.28   89.17 
   8  -8   2  962.13   83.14 
  -8   8   2 1040.38   90.01 
   8  -8   2 1079.53   89.79 
   8   8   2  959.10   85.12 
  -8  -8   2 1049.27   89.26 
   0   9   2    0.11    3.27 
   9   0   2    1.60    3.62 
  -9   0   2    2.24    4.57 
   0  -9   2   -0.90    3.15 
   9   0   2    0.47    3.76 
   0  -9   2   -0.34    4.15 
  -1   9   2  730.89   59.57 
   9   1   2  603.79   56.48 
  -1  -9   2  601.53   59.26 
   1  -9   2  690.63   58.34 
   9  -1   2  672.84   56.62 
  -1  -9   2  734.79   57.17 
   9  -1   2  647.50   57.93 
   9   1   2  718.77   58.34 
   1   9   2  660.12   56.36 
   1  -9   2  665.59   60.76 
  -9   1   2  701.39   61.07 
   1   9   2  644.71   58.18 
  -9  -1   2  648.94   60.36 
   9  -1   2  688.63   58.23 
   9   2   2   31.23    7.95 
  -9   2   2   32.65    9.00 
   9  -2   2   30.12    7.84 
   9   2   2   17.81    7.11 
   2  -9   2   18.28    6.16 
  -9  -2   2   26.90    8.51 
   2   9   2   23.91    6.48 
   9   2   2   30.15    7.92 
   9  -2   2    8.72    5.77 
   9  -2   2   17.79    6.16 
  -2   9   2   23.47    7.15 
  -2  -9   2   25.08    7.52 
   2   9   2   25.31    6.96 
   2  -9   2   30.46    9.07 
  -9   3   2 1150.27   94.55 
  -9  -3   2 1050.58   93.75 
   3  -9   2  968.45   93.17 
   3   9   2 1129.29   89.12 
  -3   9   2 1075.31   92.35 
   9  -3   2 1042.44   91.93 
   3  -9   2 1050.56   91.66 
   9  -3   2 1081.47   90.09 
   9  -3   2 1144.22   87.24 
   9   3   2 1135.66   91.50 
   9   3   2 1119.66   89.35 
   3   9   2 1133.13   91.87 
  -3  -9   2 1131.06   92.30 
   9   3   2 1143.70   89.27 
   9  -4   2    4.02    4.11 
  -9   4   2    7.49    5.86 
  -4  -9   2   -4.76    2.98 
   4  -9   2   -2.44    3.42 
   9  -4   2    2.89    3.52 
  -4  -9   2    1.50    4.20 
   4   9   2   -5.20    2.93 
   9  -4   2   10.47    5.59 
  -4   9   2    4.33    3.58 
   4   9   2    1.47    3.18 
   9   4   2    8.51    5.52 
   9   4   2   -0.09    3.87 
  -9  -4   2   -1.75    3.94 
   4  -9   2   -1.99    4.05 
   9   4   2   -2.55    4.50 
   5   9   2 1254.40  101.49 
   9   5   2 1206.62   99.95 
   5   9   2 1169.48   98.15 
   9  -5   2 1276.48   94.93 
   9  -5   2 1164.01  101.90 
   9  -5   2 1181.69   98.07 
  -5  -9   2 1222.50  101.94 
   5  -9   2 1183.10  103.82 
   9   5   2 1191.64   97.08 
   5  -9   2 1132.96  101.52 
  -9   5   2 1316.23  104.52 
  -5   9   2 1241.46  102.74 
  -9  -5   2 1176.73  102.86 
  -9  -6   2   16.32    6.95 
   6  -9   2   19.89    8.83 
   6   9   2   11.87    6.03 
   9   6   2   22.77    7.82 
   6  -9   2   20.07    7.90 
   9  -6   2   13.02    6.77 
  -6   9   2   23.74    8.07 
  -6  -9   2   24.35    8.05 
   9  -6   2   14.02    6.53 
   6   9   2   13.66    6.01 
  -9   6   2   16.51    7.84 
   9   6   2   19.57    7.09 
   9  -7   2  181.39   24.78 
   9  -7   2  141.78   23.43 
   7  -9   2  174.92   24.67 
  -7   9   2  186.36   25.27 
  -7  -9   2  187.83   25.16 
   7   9   2  191.15   22.83 
   9   7   2  225.72   25.43 
   7  -9   2  201.06   20.14 
  -9   7   2  188.38   26.21 
   9  -7   2  170.74   22.27 
   9   7   2  195.86   23.36 
   7  -9   2  172.91   26.30 
  -9  -7   2  214.46   27.18 
  -8   9   2   21.14    9.26 
   8  -9   2    6.92    6.41 
   8  -9   2   21.53    8.57 
   8   9   2   20.30    6.69 
  -9   8   2    4.84    6.44 
   9   8   2   15.49    7.77 
   9  -8   2   21.93    7.26 
  -8  -9   2   18.99    8.91 
   9  -8   2   10.98    6.91 
   9  -8   2   14.99    7.02 
   8  -9   2   14.72    6.68 
  -9  -8   2   21.58    8.70 
   9  -9   2  273.45   29.64 
  -9  -9   2  292.58   36.05 
   9   9   2  324.30   32.25 
  -9   9   2  283.84   35.84 
   9  -9   2  308.23   33.12 
   9  -9   2  307.41   36.36 
 -10   0   2  809.18   75.43 
   0 -10   2  886.72   73.02 
  10   0   2  903.78   72.33 
   0 -10   2  852.22   76.23 
  10   0   2  821.85   73.10 
   0  10   2  920.07   75.07 
   1  10   2   31.81    8.09 
  -1  10   2   41.47    9.40 
  10   1   2   31.80    8.87 
  10  -1   2   35.16    9.48 
 -10   1   2   30.65    9.46 
   1 -10   2   33.53    8.22 
   1 -10   2   36.62   10.07 
  10   1   2   29.09    8.47 
 -10  -1   2   23.18    8.82 
  10  -1   2   45.87   10.00 
  -1 -10   2   30.01    9.31 
 -10   2   2  789.06   73.52 
  10   2   2  893.42   70.61 
  10  -2   2  838.79   68.66 
   2 -10   2  829.52   74.29 
  -2  10   2  800.47   72.23 
 -10  -2   2  919.17   74.70 
   2  10   2  820.51   69.45 
  -2 -10   2  824.06   72.96 
  10  -2   2  847.49   71.27 
   2  10   2  813.32   71.52 
   2 -10   2  799.69   71.26 
  10   2   2  800.19   70.24 
  10  -2   2  865.10   72.00 
  -3  10   2   -1.87    3.40 
  -3 -10   2    4.15    4.38 
   3  10   2    1.02    3.38 
   3  10   2    6.21    3.95 
   3 -10   2   -1.39    4.42 
  10  -3   2    6.73    5.12 
 -10  -3   2    5.48    5.43 
   3 -10   2   -3.54    4.07 
  10  -3   2    8.81    4.54 
  10   3   2    5.28    4.92 
  10   3   2   -4.99    4.20 
 -10   3   2   -4.96    3.76 
  10  -3   2   -0.16    4.54 
  10  -4   2  310.30   32.43 
  10  -4   2  372.89   34.38 
   4  10   2  309.60   32.58 
  10   4   2  357.37   34.02 
  -4  10   2  317.66   33.38 
  10   4   2  325.86   32.79 
  -4 -10   2  312.32   32.76 
 -10   4   2  335.15   35.08 
   4  10   2  309.88   30.93 
   4 -10   2  291.30   32.36 
   4 -10   2  299.66   34.57 
  10   4   2  361.45   31.95 
 -10  -4   2  271.48   35.40 
  10  -4   2  367.25   31.48 
  10   5   2   25.41    8.72 
   5  10   2   19.79    7.63 
   5 -10   2   19.81    7.98 
 -10  -5   2   14.48    6.87 
  10  -5   2   14.94    6.97 
 -10   5   2   13.55    7.42 
  10   5   2   19.95    6.39 
   5  10   2    7.28    5.07 
   5 -10   2   12.11    7.54 
  10  -5   2   12.30    4.81 
  10  -5   2   21.67    8.70 
  -5  10   2   28.47    8.91 
   6 -10   2  622.11   61.13 
   6  10   2  667.72   59.09 
   6  10   2  649.15   56.81 
  -6 -10   2  653.01   59.92 
  -6  10   2  652.24   60.31 
   6 -10   2  592.07   58.77 
  10   6   2  556.56   55.69 
 -10  -6   2  719.01   62.31 
 -10   6   2  672.27   61.67 
  10  -6   2  710.28   58.31 
  10   6   2  652.36   58.91 
  10   7   2   13.63    6.64 
   7 -10   2    1.77    5.73 
   7  10   2   11.66    5.26 
  10   7   2    8.98    6.56 
  -7  10   2   14.40    7.38 
  10  -7   2    5.80    6.19 
  10  -7   2    1.00    4.84 
  -7 -10   2    4.44    5.97 
 -10   7   2   10.00    7.83 
 -10  -7   2   12.92    7.90 
   7  10   2    5.92    4.69 
   7 -10   2   26.39    9.27 
   8 -10   2  392.89   42.42 
 -10   8   2  390.90   42.47 
  10   8   2  428.37   41.06 
  -8 -10   2  462.01   43.63 
 -10  -8   2  448.05   43.96 
   8  10   2  415.52   41.09 
   8  10   2  420.10   39.97 
  10  -8   2  356.52   40.31 
   8 -10   2  370.59   40.66 
  -8  10   2  353.42   41.45 
  10  -8   2  391.17   38.32 
   9 -10   2    7.26    7.67 
  10   9   2   16.49    8.17 
   9 -10   2    6.69    6.33 
   9  10   2   12.46    6.61 
  10  -9   2    6.70    6.49 
  10  -9   2   11.15    7.40 
  10 -10   2  206.88   29.22 
 -11   0   2    1.12    4.56 
   0  11   2    3.71    3.53 
  11   0   2   -2.41    4.03 
  11   0   2   10.24    5.32 
   0 -11   2    9.59    6.01 
 -11   1   2  491.38   48.51 
   1 -11   2  514.50   49.95 
  -1  11   2  521.15   48.05 
   1  11   2  528.14   48.02 
   1 -11   2  486.70   45.76 
  11  -1   2  512.24   46.03 
  -1 -11   2  479.05   48.78 
  11  -1   2  559.79   48.36 
 -11  -1   2  491.12   48.77 
  11   1   2  534.20   47.80 
  11   1   2  518.88   46.87 
  11   2   2   25.30    8.95 
  11  -2   2   30.10    9.64 
   2 -11   2   17.76    7.11 
   2 -11   2   22.74    9.11 
  -2  11   2   29.04    8.65 
   2  11   2   33.67    8.78 
  11   2   2   21.52    8.55 
  11  -2   2   26.36    8.13 
   2  11   2   35.57    7.97 
 -11  -2   2   16.96    7.76 
 -11   2   2   29.76    9.30 
  -2 -11   2   32.86    9.52 
  11  -3   2  498.60   44.94 
  11   3   2  487.70   46.73 
   3  11   2  542.71   46.33 
  11  -3   2  466.93   46.84 
  -3 -11   2  527.09   48.81 
   3 -11   2  508.12   50.51 
  11   3   2  529.35   46.66 
 -11  -3   2  523.42   49.63 
   3  11   2  527.56   47.95 
  -3  11   2  496.17   48.26 
 -11   3   2  483.77   48.91 
  11  -3   2  549.26   48.49 
   3 -11   2  474.13   47.08 
   4 -11   2   -3.20    3.57 
  11   4   2    6.64    6.54 
   4 -11   2    0.99    5.47 
 -11   4   2    0.79    5.46 
 -11  -4   2    8.59    6.56 
  11  -4   2    6.15    5.24 
  -4 -11   2    0.96    5.22 
  -4  11   2    2.61    4.24 
   4  11   2   -3.27    3.20 
  11  -4   2   -8.56    3.92 
  11  -4   2    1.97    4.95 
   4  11   2   -1.02    3.16 
  11  -5   2  309.27   33.39 
   5 -11   2  290.48   32.55 
 -11  -5   2  276.39   35.47 
 -11   5   2  332.55   34.98 
   5 -11   2  290.63   37.51 
  11   5   2  314.75   32.42 
   5  11   2  290.78   31.91 
  11  -5   2  340.14   32.71 
  -5  11   2  333.24   34.41 
   5  11   2  305.37   30.73 
 -11   6   2    9.82    7.58 
   6  11   2   11.69    6.09 
   6 -11   2   15.42    7.55 
  11   6   2   10.91    7.20 
 -11  -6   2    7.39    7.65 
  -6  11   2    2.27    5.06 
  11  -6   2   18.57    8.19 
   6 -11   2   22.58    9.91 
   6  11   2    9.14    5.63 
  11  -6   2   20.58    9.33 
   7  11   2  470.81   47.58 
   7  11   2  508.89   46.17 
 -11  -7   2  592.84   52.86 
   7 -11   2  472.58   48.09 
 -11   7   2  524.28   50.66 
  11  -7   2  455.17   48.00 
   7 -11   2  509.01   50.76 
  11   7   2  490.52   46.58 
  -7  11   2  472.88   48.79 
  11  -7   2  439.66   45.27 
   8 -11   2   61.12   14.91 
  11  -8   2   60.74   13.05 
   8  11   2   69.95   13.49 
   8  11   2   62.34   13.06 
   8 -11   2   50.52   13.99 
  11  -8   2   63.74   14.99 
   9 -11   2  300.97   38.13 
  11  -9   2  340.42   34.33 
  11  -9   2  333.82   36.54 
   0 -12   2  256.06   33.40 
   0  12   2  309.54   30.99 
  12   0   2  291.95   30.87 
 -12   0   2  274.38   30.89 
  12   0   2  264.04   30.53 
  12   1   2    2.34    4.46 
 -12   1   2   13.09    6.80 
  -1 -12   2   14.39    7.34 
  -1  12   2    6.35    5.18 
  12  -1   2    8.88    6.64 
   1 -12   2   11.96    6.57 
  12  -1   2   14.98    6.76 
   1  12   2    4.76    4.51 
 -12  -1   2    6.33    6.19 
  12   1   2    6.39    6.18 
   2 -12   2  403.50   36.36 
   2  12   2  415.19   38.43 
  12   2   2  367.67   36.89 
  12  -2   2  360.00   35.08 
  12   2   2  356.43   36.20 
  -2  12   2  333.36   36.65 
  -2 -12   2  348.06   37.62 
  12  -2   2  399.37   37.76 
 -12   2   2  344.64   37.39 
 -12  -2   2  338.63   37.64 
   2 -12   2  329.20   38.27 
 -12  -3   2   29.43    9.71 
   3 -12   2   16.94    8.64 
  -3 -12   2   33.47    8.99 
   3  12   2   11.38    5.79 
  12   3   2   27.78    9.29 
  -3  12   2   22.52    8.31 
   3 -12   2   11.66    6.87 
  12  -3   2    5.09    5.63 
  12   3   2   14.86    8.75 
  12  -3   2   22.44    7.60 
   3  12   2   24.20    6.77 
 -12   3   2   10.67    6.74 
  -4  12   2  736.17   68.22 
  12  -4   2  740.92   66.21 
  12  -4   2  836.35   64.53 
   4  12   2  774.90   65.21 
   4  12   2  715.08   67.05 
  12   4   2  799.42   66.50 
   4 -12   2  733.87   66.93 
   4 -12   2  677.80   69.56 
 -12   4   2  716.11   68.63 
   5 -12   2    0.96    5.39 
   5 -12   2    6.93    7.36 
 -12  -5   2    1.50    6.44 
  12  -5   2    8.63    6.16 
   5  12   2   15.22    6.44 
  -5  12   2    2.89    4.93 
 -12   5   2   20.30    8.82 
  12  -5   2   -2.40    5.62 
  12   5   2    2.31    7.17 
   5  12   2    1.71    4.07 
  12   6   2  320.37   35.38 
   6 -12   2  252.92   36.95 
  12  -6   2  290.57   33.82 
   6 -12   2  321.16   33.93 
 -12   6   2  270.63   35.71 
   6  12   2  299.09   32.84 
 -12  -6   2  285.85   36.92 
  12  -6   2  314.73   33.86 
   6  12   2  337.21   31.82 
  12  -7   2   52.22   12.67 
   7 -12   2   34.26   11.71 
  12  -7   2   37.56   10.90 
  12  -8   2   98.19   17.79 
   8 -12   2   97.56   18.82 
  12  -8   2   99.18   19.17 
 -13   0   2   -3.85    5.08 
  13   0   2   -1.24    4.20 
   0  13   2    5.56    4.83 
  13   0   2   14.20    7.14 
   0 -13   2   -0.44    5.38 
  13   1   2  626.71   54.96 
  -1  13   2  566.03   55.16 
  13  -1   2  658.24   55.42 
  -1 -13   2  557.85   56.26 
 -13  -1   2  554.98   55.41 
   1  13   2  557.14   54.69 
 -13   1   2  588.70   55.90 
   1 -13   2  659.56   59.17 
  13   1   2  540.56   52.90 
  13  -1   2  569.59   52.44 
  -2  13   2    7.64    6.05 
  13   2   2    7.31    6.29 
 -13  -2   2    3.07    7.33 
  13   2   2   16.85    8.26 
  13  -2   2    6.53    5.63 
  13  -2   2    1.91    5.09 
 -13   2   2    4.10    5.27 
   2  13   2   10.32    6.04 
   2 -13   2    3.03    6.43 
  -2 -13   2    9.03    6.61 
  -3 -13   2  178.52   26.66 
  13   3   2  196.67   26.33 
  -3  13   2  209.59   27.32 
   3 -13   2  195.47   30.00 
 -13  -3   2  194.50   27.65 
  13  -3   2  205.70   26.96 
 -13   3   2  172.94   26.20 
   3  13   2  190.53   26.52 
  13  -3   2  199.15   25.03 
   3 -13   2  208.91   24.92 
  13   3   2  198.28   27.32 
  13  -4   2    1.65    6.74 
   4  13   2    8.45    5.30 
   4 -13   2   -4.29    5.14 
   4  13   2    5.77    4.68 
   5 -13   2  151.18   21.95 
  13  -5   2  124.15   21.07 
   6 -13   2    4.08    7.16 
  13  -6   2   -1.81    6.42 
  13  -6   2   -6.62    5.66 
  13  -7   2  247.53   30.45 
   7 -13   2  236.76   31.22 
  14   0   2  166.43   24.79 
  14  -1   2   17.45    7.99 
  14   1   2    8.54    7.26 
  14   2   2  290.32   33.71 
  14  -2   2  259.68   33.19 
  14  -3   2    0.64    5.88 
   4 -14   2  174.44   25.01 
  14  -4   2  215.63   27.91 
   0   0   3    0.81    1.63 
   0   0   3   -0.74    0.78 
   0   0   3   -2.10    1.52 
   1   0   3 1697.81  127.65 
   0  -1   3 1495.71  125.80 
  -1   0   3 1804.79  126.99 
   1   0   3 1783.71  121.51 
   0   1   3 1425.56  126.07 
  -1   0   3 1771.06  121.58 
   0   1   3 1346.39  120.78 
   0  -1   3 1342.36  120.79 
   1   0   3 1813.37  123.94 
  -1   0   3 1754.92  127.81 
  -1  -1   3  145.69   15.18 
   1   1   3  172.14   14.91 
   1   1   3  166.80   13.68 
  -1   1   3  189.86   15.79 
  -1  -1   3  175.46   15.22 
   1  -1   3  164.29   14.94 
   1   1   3  167.34   15.04 
   1  -1   3  159.87   15.69 
   1  -1   3  160.75   14.95 
   1   1   3  174.71   14.86 
  -1  -1   3  171.07   14.87 
  -1   1   3  169.00   14.96 
   1   1   3  172.31   15.60 
   0  -2   3   -1.11    2.20 
   0  -2   3   -3.45    1.21 
   2   0   3   -1.76    1.88 
   2   0   3    0.42    2.29 
  -2   0   3   -1.75    2.22 
  -2   0   3   -1.45    2.07 
   0  -2   3   -3.10    2.16 
   0   2   3   -1.29    1.55 
   0  -2   3   -3.93    1.46 
   2   0   3   -3.33    1.89 
   0  -2   3   -3.63    1.54 
   0   2   3   -0.58    2.01 
  -1  -2   3 1218.30   91.29 
   2   1   3 1105.67   88.31 
  -1  -2   3 1178.33   90.52 
   2  -1   3 1077.54   88.56 
  -2  -1   3 1076.10   87.18 
   2  -1   3 1102.24   91.61 
  -1   2   3 1169.14   86.59 
   1   2   3 1200.10   86.77 
   2   1   3 1017.44   90.87 
   1  -2   3 1181.38   88.54 
   1  -2   3 1238.22   91.89 
   1   2   3 1226.60   89.81 
   1   2   3 1300.84   89.38 
  -2   1   3 1016.25   91.56 
  -1  -2   3 1229.27   87.15 
  -2  -1   3 1077.64   90.91 
   1  -2   3 1238.81   86.77 
  -2   1   3 1047.20   86.80 
   2   1   3 1065.93   86.76 
  -1  -2   3 1183.09   91.50 
  -1   2   3 1206.49   90.97 
   2  -1   3 1104.67   86.74 
   2   1   3 1108.25   88.72 
  -2  -1   3 1087.53   90.98 
   2  -2   3   22.69    4.74 
   2   2   3   26.71    5.13 
   2   2   3   27.07    5.07 
   2  -2   3   26.12    6.85 
  -2   2   3   33.12    5.47 
  -2   2   3   30.54    5.80 
   2   2   3   32.05    4.96 
   2   2   3   29.74    5.30 
  -2  -2   3   28.52    5.11 
  -2  -2   3   31.97    5.82 
   2  -2   3   48.14    6.82 
   2   2   3   35.89    4.15 
   2  -2   3   33.29    5.25 
  -2  -2   3   29.39    5.42 
  -2  -2   3   31.74    5.08 
   0  -3   3 1782.75  117.79 
   3   0   3 1424.48  117.97 
   0   3   3 1617.60  120.37 
   0  -3   3 1724.46  115.11 
   3   0   3 1330.67  117.46 
  -3   0   3 1293.45  121.64 
  -3   0   3 1257.15  115.42 
   3   0   3 1323.73  115.10 
   3   0   3 1338.96  121.05 
   0  -3   3 1715.19  120.54 
   0   3   3 1674.05  114.85 
   0  -3   3 1774.13  121.83 
   0  -3   3 1660.04  122.92 
  -1   3   3   75.09    7.77 
  -1  -3   3   71.01    8.49 
   1  -3   3   68.77    7.81 
   3  -1   3   68.98    8.96 
   3   1   3   66.99    8.38 
   1  -3   3   64.47    8.98 
  -3   1   3   85.37   11.12 
   3   1   3   67.48    8.39 
   1   3   3   81.81    8.51 
   3   1   3   73.65    9.09 
   3  -1   3   79.28    9.67 
   1   3   3   76.73    7.70 
  -3   1   3   78.34    9.61 
   3   1   3   66.57    8.48 
   1  -3   3   67.21    7.95 
  -1   3   3   71.53    8.15 
   3  -1   3   74.89    8.90 
  -3  -1   3   62.97    9.54 
  -1  -3   3   63.19    8.28 
  -3  -1   3   81.66   10.08 
   1  -3   3   53.64   10.63 
  -1  -3   3   74.81    8.20 
  -1  -3   3   58.29    9.83 
   1   3   3   60.00    7.94 
   3   2   3  855.21   70.71 
   2  -3   3  931.22   68.60 
  -3   2   3  821.13   73.25 
   3  -2   3  837.63   74.61 
   2  -3   3  996.34   70.80 
  -2  -3   3  921.53   72.91 
   2   3   3  941.74   71.11 
  -2  -3   3  932.76   71.99 
  -3  -2   3  886.35   72.86 
   2   3   3  929.62   68.94 
  -2   3   3  946.25   68.75 
   2  -3   3  904.88   73.31 
   2  -3   3  924.34   75.47 
  -2  -3   3  942.91   72.54 
  -2   3   3  885.44   72.71 
   3  -2   3  866.29   73.20 
   3   2   3  848.27   69.14 
  -3  -2   3  819.41   69.68 
  -3   2   3  815.74   69.06 
   2   3   3  967.80   71.47 
   3   2   3  882.94   69.99 
   3  -2   3  849.74   70.55 
  -2  -3   3  949.66   69.58 
   3  -2   3  898.47   68.93 
   3   2   3  842.28   71.82 
   3   3   3  573.62   44.30 
  -3   3   3  554.43   47.21 
  -3  -3   3  561.84   45.40 
   3  -3   3  582.99   43.92 
  -3  -3   3  549.56   46.63 
  -3   3   3  594.97   44.36 
   3  -3   3  511.00   48.91 
   3   3   3  551.55   44.26 
   3  -3   3  540.73   47.16 
   3   3   3  528.89   45.37 
   3  -3   3  577.11   45.38 
  -3  -3   3  521.08   45.71 
   0   4   3    3.79    2.32 
   4   0   3    0.63    2.06 
   4   0   3    1.14    1.49 
   0   4   3   -1.21    1.56 
   4   0   3   -2.01    1.90 
   0  -4   3   -2.36    2.20 
   4   0   3   -2.90    1.82 
   0   4   3   -0.11    1.80 
   0  -4   3   -1.60    1.64 
  -4   0   3    1.05    2.18 
   0  -4   3    2.66    1.82 
   0  -4   3   -1.20    1.37 
  -1   4   3 1216.50   97.13 
  -1  -4   3 1174.98   98.24 
   1   4   3 1215.31   91.73 
  -1  -4   3 1221.23   92.21 
  -1  -4   3 1257.41   97.01 
   1  -4   3 1245.55   94.01 
   1  -4   3 1176.83   91.43 
  -1  -4   3 1201.08   96.89 
   1  -4   3 1144.09   99.14 
   1   4   3 1185.19   96.36 
  -1   4   3 1187.56   91.30 
   1  -4   3 1250.31   97.86 
   1   4   3 1302.03   95.51 
   2   4   3   45.63    6.79 
  -2  -4   3   54.43    7.89 
   2  -4   3   62.10    7.71 
   4  -2   3   47.88    7.31 
   4   2   3   54.19    8.26 
  -2  -4   3   47.53    6.65 
   4  -2   3   47.64    8.26 
   4  -2   3   35.28    7.09 
   2  -4   3   38.98    7.59 
   4   2   3   50.94    7.27 
  -4  -2   3   34.67    7.52 
  -2  -4   3   38.77    7.91 
   2  -4   3   49.70    6.43 
   2   4   3   52.05    7.72 
  -2   4   3   58.74    6.84 
  -4   2   3   45.66    9.13 
   2  -4   3   62.47   10.95 
   4  -2   3   37.79    9.10 
   4   2   3   26.70    6.38 
   2   4   3   42.58    6.74 
  -2  -4   3   34.06    6.90 
   4   2   3   49.57    6.65 
  -2   4   3   44.98    7.84 
   3  -4   3 1614.44  128.16 
  -3   4   3 1715.01  118.81 
  -3   4   3 1633.38  126.19 
   3   4   3 1601.16  122.73 
   3  -4   3 1709.40  126.82 
   3  -4   3 1728.80  122.09 
  -3  -4   3 1648.70  125.66 
  -3  -4   3 1714.39  125.17 
   3   4   3 1666.69  120.25 
   4  -3   3 1150.72  121.13 
   4  -3   3 1196.67  117.98 
   3   4   3 1619.90  118.98 
   4  -4   3   19.38    5.94 
   4   4   3   25.73    6.00 
   4   4   3   30.62    5.14 
  -4   4   3   22.29    6.44 
   4  -4   3   32.31    8.97 
   4  -4   3   26.23    5.17 
   4   4   3   28.25    5.97 
   4  -4   3   21.06    5.45 
  -4  -4   3   24.29    6.04 
  -4  -4   3   22.06    4.84 
   0  -5   3 1703.88  127.63 
   0  -5   3 1771.04  123.08 
   0  -5   3 1733.69  129.77 
   0  -5   3 1691.78  120.22 
  -5   0   3 1226.07  128.25 
   0   5   3 1754.20  127.58 
   0   5   3 1693.79  119.74 
   5   0   3 1228.85  123.94 
   5  -1   3   34.84    7.11 
   5   1   3   52.67    8.02 
  -1  -5   3   38.31    6.66 
   5  -1   3   36.80    7.58 
   1   5   3   43.81    7.57 
   5   1   3   51.54    7.39 
  -1  -5   3   34.94    8.39 
   1  -5   3   25.84    7.94 
   5  -1   3   40.23    7.69 
   1   5   3   44.51    7.36 
  -1   5   3   48.69    8.20 
   5  -1   3   38.96    6.99 
  -1  -5   3   40.02    6.48 
   1  -5   3   48.01    6.92 
  -5   1   3   50.05    9.77 
   1   5   3   48.09    6.28 
   1  -5   3   38.61    7.52 
   5   1   3   51.86    8.04 
  -5  -1   3   39.75    8.39 
  -1   5   3   46.99    5.90 
   5   1   3   53.77    8.65 
   1  -5   3   44.64    5.92 
  -1  -5   3   48.29    8.00 
  -2   5   3  789.21   64.98 
   5   2   3  946.53   69.18 
   5  -2   3  979.99   71.59 
   2   5   3  790.83   69.25 
   5  -2   3  969.56   67.24 
   2  -5   3  767.75   64.92 
  -2   5   3  729.61   69.75 
   2  -5   3  811.97   67.39 
  -5  -2   3  982.60   72.34 
  -5   2   3 1056.62   73.91 
   5   2   3  977.90   68.22 
   2  -5   3  774.40   70.55 
   2  -5   3  799.41   72.63 
   5  -2   3  954.04   72.97 
   2   5   3  789.29   68.47 
  -2  -5   3  730.22   70.25 
  -2  -5   3  813.45   68.87 
  -2  -5   3  759.30   69.74 
   5  -2   3  971.49   69.38 
   5   2   3  998.71   68.60 
   2   5   3  799.66   65.54 
  -3  -5   3   53.33    8.94 
  -3   5   3   45.69    9.02 
  -5  -3   3   42.97    8.72 
   3  -5   3   43.79    8.82 
   5   3   3   36.03    7.84 
   5  -3   3   41.26    7.89 
   5   3   3   60.27    8.12 
   5  -3   3   49.43    8.99 
   5  -3   3   34.44    9.34 
   3  -5   3   47.91    7.78 
  -3  -5   3   44.15    8.50 
   3  -5   3   59.60    7.04 
   5   3   3   54.91    9.07 
   3   5   3   56.99    7.79 
   3  -5   3   32.06    9.41 
   3   5   3   56.42    8.29 
   5  -3   3   44.24    7.58 
  -3  -5   3   47.87    6.57 
  -5   3   3   42.36    9.52 
   3   5   3   50.32    8.41 
  -4  -5   3  812.49   73.32 
  -4  -5   3  826.96   71.99 
  -5  -4   3 1004.59   71.12 
   4  -5   3  839.11   74.18 
   5  -4   3  899.16   71.46 
   4  -5   3  788.75   75.36 
   4  -5   3  841.63   70.73 
   4   5   3  823.07   68.95 
   4  -5   3  875.04   68.08 
   5   4   3  963.69   70.36 
   5  -4   3  926.34   74.74 
   5  -4   3  960.36   68.93 
  -5   4   3  954.02   75.47 
  -4   5   3  829.40   73.94 
   5  -4   3  883.37   75.97 
   5   4   3  956.62   70.02 
   5   4   3  891.51   71.90 
   4   5   3  807.27   71.42 
  -5  -4   3  914.52   74.24 
   5  -5   3   13.21    6.47 
   5   5   3   19.91    5.95 
   5  -5   3   25.11    6.32 
  -5  -5   3   17.61    6.03 
  -5  -5   3   26.82    5.16 
  -5   5   3   28.43    7.33 
   5  -5   3   18.79    6.22 
   5  -5   3   22.51    5.02 
   5   5   3   17.67    5.38 
   0   6   3    0.63    1.75 
   0  -6   3   -1.13    2.81 
   0  -6   3    1.61    2.29 
   6   0   3    1.99    3.02 
   6   0   3   -0.88    2.90 
   6   0   3    1.63    2.39 
   0   6   3    0.66    2.08 
   0  -6   3    0.44    1.87 
   6   0   3    4.36    3.03 
  -6   0   3    1.21    2.95 
   6   1   3  703.93   64.22 
  -6  -1   3  722.93   67.78 
   6   1   3  667.75   63.43 
   6  -1   3  715.10   66.33 
   1  -6   3  876.27   63.37 
  -1   6   3  902.56   60.99 
   6   1   3  778.60   65.17 
   6  -1   3  760.92   65.07 
   1  -6   3  767.31   68.80 
  -6   1   3  766.60   68.39 
   1   6   3  878.02   61.42 
   1   6   3  845.61   66.13 
  -1  -6   3  838.07   65.78 
   1  -6   3  786.25   66.54 
   6   1   3  787.64   65.69 
   1  -6   3  841.25   61.25 
  -1   6   3  797.62   66.34 
   6  -1   3  741.09   63.35 
  -1  -6   3  846.54   68.24 
   1   6   3  853.92   65.36 
   2   6   3   62.46    9.39 
   2  -6   3   58.19    8.27 
   6  -2   3   62.54   10.14 
  -2   6   3   58.70   10.09 
   6   2   3   49.60    9.17 
   6  -2   3   74.01   11.14 
   6  -2   3   53.24    9.00 
   6   2   3   68.44    8.44 
   6   2   3   59.06   10.27 
  -2  -6   3   60.07    8.19 
   2   6   3   64.08    9.70 
   2  -6   3   48.41    9.39 
   6   2   3   58.58    9.18 
  -2  -6   3   57.00    9.70 
   2  -6   3   56.90    6.80 
  -6  -2   3   37.47    9.51 
  -6   2   3   65.85   12.28 
   2   6   3   69.01    8.01 
  -2  -6   3   55.56   10.41 
   2  -6   3   48.39   11.02 
   6   3   3  699.00   54.29 
   3   6   3  643.64   54.95 
  -3  -6   3  603.57   55.48 
   3  -6   3  593.97   56.04 
   3   6   3  604.76   53.90 
  -3  -6   3  607.74   53.20 
   3  -6   3  579.93   57.82 
  -6   3   3  729.02   58.79 
   3  -6   3  625.48   50.47 
  -6  -3   3  726.73   57.73 
   6  -3   3  764.17   59.05 
   6  -3   3  703.85   52.72 
   3  -6   3  581.43   52.61 
   6  -3   3  667.02   56.47 
   6  -3   3  746.63   55.21 
  -3  -6   3  635.95   55.62 
   6   3   3  691.54   54.74 
   3   6   3  623.15   51.38 
  -3   6   3  610.45   55.86 
   6   3   3  768.34   54.06 
   6  -4   3  196.10   23.23 
   6   4   3  175.14   17.02 
  -6   4   3  181.70   22.07 
   4   6   3  195.59   18.69 
   6  -4   3  174.23   18.29 
  -6  -4   3  191.85   20.52 
   6  -4   3  168.98   16.82 
  -4  -6   3  189.45   19.34 
   4  -6   3  194.49   16.10 
  -4   6   3  202.74   20.01 
   4  -6   3  137.21   19.87 
   6  -4   3  165.44   20.52 
  -4  -6   3  184.07   18.70 
   4  -6   3  134.66   21.93 
   4   6   3  176.91   17.12 
   4  -6   3  152.22   16.91 
   6   4   3  157.72   18.75 
   6   4   3  168.23   18.51 
   4   6   3  175.75   18.43 
   6  -5   3  452.54   44.88 
   6   5   3  488.04   42.13 
   6  -5   3  406.06   45.45 
   5   6   3  555.54   41.87 
   6  -5   3  429.53   39.88 
  -6  -5   3  452.17   44.53 
  -5  -6   3  552.87   45.48 
   5  -6   3  549.76   46.10 
   5   6   3  558.13   43.86 
   5  -6   3  535.10   47.61 
   6   5   3  452.67   42.82 
  -6   5   3  430.44   44.90 
   5  -6   3  511.82   42.28 
   5  -6   3  580.95   40.30 
   6  -5   3  427.57   41.99 
  -5   6   3  558.74   45.86 
   6  -6   3  373.52   37.15 
  -6  -6   3  345.76   36.11 
  -6   6   3  389.08   37.43 
   6  -6   3  376.61   34.28 
   6   6   3  384.28   33.90 
   6   6   3  421.31   35.64 
   6  -6   3  383.28   38.67 
   7   0   3 1271.92   94.79 
   0  -7   3  871.20   94.51 
   7   0   3 1249.05   92.75 
  -7   0   3 1310.30   99.06 
   7   0   3 1308.22   96.47 
   7   1   3  138.91   13.62 
   7  -1   3   94.84   14.16 
   7  -1   3  131.98   16.06 
   7   1   3   88.72   14.12 
   1  -7   3  124.83   11.87 
   1   7   3  111.00   14.34 
  -7   1   3  125.48   17.46 
  -1  -7   3  103.06   16.41 
  -1   7   3  135.06   15.45 
   1  -7   3  104.46   17.30 
   1   7   3  106.20   14.24 
   1  -7   3  114.82   14.53 
   7  -1   3  117.80   15.19 
   7   1   3  103.97   14.46 
   7   1   3  136.67   15.65 
  -1  -7   3   95.37   12.75 
  -7  -1   3  108.70   16.72 
   2  -7   3  803.88   64.78 
   7   2   3  577.61   57.50 
   2  -7   3  816.68   61.72 
   2  -7   3  870.15   57.75 
   2   7   3  822.65   59.83 
  -2  -7   3  794.88   62.37 
   7   2   3  590.54   58.89 
  -7  -2   3  567.15   61.16 
  -7   2   3  627.49   62.23 
   7   2   3  561.31   57.65 
  -2   7   3  841.71   62.01 
   2   7   3  810.25   60.55 
  -2  -7   3  831.00   61.84 
   7  -2   3  573.59   60.00 
   7  -2   3  560.68   58.46 
  -2  -7   3  835.58   59.27 
   7  -3   3  149.07   18.52 
   3   7   3  148.61   17.35 
  -7  -3   3  124.45   19.00 
   7  -3   3  144.79   16.52 
  -3  -7   3  169.97   18.85 
   3  -7   3  128.15   18.08 
   7   3   3  123.07   17.04 
   7   3   3  148.01   18.07 
   3   7   3  166.48   14.76 
   7   3   3  154.38   15.93 
   7  -3   3  154.46   19.80 
   7  -3   3  129.19   17.55 
  -3   7   3  156.27   18.69 
   3   7   3  156.47   16.74 
  -3  -7   3  144.05   18.48 
   3  -7   3  146.89   14.93 
  -7   3   3  152.25   20.84 
   3  -7   3  165.38   22.29 
   7   4   3  427.06   39.28 
   7  -4   3  382.59   39.95 
   4   7   3  528.64   41.71 
   4  -7   3  495.40   39.63 
   7  -4   3  463.24   39.01 
  -4   7   3  506.14   43.44 
   4  -7   3  513.61   46.28 
   7   4   3  460.00   41.47 
   7   4   3  414.29   40.16 
  -7   4   3  341.18   42.14 
  -4  -7   3  502.19   42.22 
   4   7   3  567.89   39.15 
   4  -7   3  490.20   43.45 
  -4  -7   3  518.57   42.91 
   7  -4   3  417.73   42.92 
  -7  -4   3  428.17   43.07 
   4   7   3  539.38   42.22 
   7  -4   3  388.22   42.03 
   5  -7   3  131.00   15.43 
   7  -5   3  110.91   16.18 
   7  -5   3  130.60   20.12 
  -7   5   3  143.55   20.16 
   7   5   3  133.62   17.20 
   5   7   3  138.46   15.61 
  -7  -5   3  113.26   18.09 
   7   5   3  141.06   17.83 
   5  -7   3  146.18   21.73 
   5  -7   3  118.15   18.22 
   7  -5   3  137.65   14.08 
   7  -5   3  134.90   19.03 
  -5  -7   3  118.03   17.39 
  -5   7   3  158.78   19.63 
   5   7   3  130.25   17.15 
   7   6   3  448.59   39.22 
   7  -6   3  436.69   38.00 
   7   6   3  460.51   38.15 
   6  -7   3  392.65   36.79 
  -7  -6   3  562.52   42.77 
   6   7   3  415.20   36.63 
   7  -6   3  464.09   41.52 
  -7   6   3  486.69   42.21 
  -6  -7   3  369.57   39.10 
   7  -6   3  437.67   42.14 
   6   7   3  377.39   38.04 
  -6   7   3  391.97   40.03 
   6  -7   3  374.68   41.29 
   6  -7   3  334.77   39.27 
  -7  -7   3   58.61   12.38 
  -7   7   3   59.39   12.52 
   7  -7   3   43.62    9.34 
   7  -7   3   54.22   13.00 
   7   7   3   54.86   10.70 
   7  -7   3   59.66   13.15 
   7   7   3   62.53   11.75 
  -8   0   3   -3.85    2.96 
   0  -8   3    2.03    4.41 
   8   0   3    0.88    3.09 
   0   8   3    1.38    3.14 
   8   0   3    4.13    4.26 
   0  -8   3    1.14    2.86 
   8   0   3    3.53    3.75 
   8  -1   3  465.13   47.21 
   8  -1   3  522.37   48.41 
   8  -1   3  444.63   45.82 
   1   8   3  656.16   47.99 
  -1   8   3  610.29   49.21 
   8   1   3  462.38   46.05 
  -8  -1   3  458.67   49.35 
   1   8   3  608.33   48.88 
  -1  -8   3  656.98   47.80 
   1  -8   3  616.44   48.87 
  -8   1   3  518.81   50.47 
  -1  -8   3  639.69   51.49 
   8   1   3  466.92   46.82 
   1  -8   3  596.91   51.84 
   8  -2   3  169.28   20.82 
   2  -8   3  157.80   19.76 
  -8   2   3  161.03   22.30 
   2  -8   3  143.59   22.64 
   8   2   3  169.34   19.58 
  -2   8   3  185.69   21.15 
   2   8   3  168.67   18.47 
   8   2   3  151.59   19.74 
   2   8   3  191.26   18.61 
   8  -2   3  177.85   20.61 
   8  -2   3  184.68   18.69 
  -2  -8   3  158.33   21.33 
  -8  -2   3  174.27   22.54 
   8  -3   3  673.87   49.71 
  -8  -3   3  736.30   55.87 
  -3  -8   3  505.04   51.27 
   8  -3   3  644.01   52.99 
   3  -8   3  475.37   51.12 
  -3  -8   3  530.69   51.73 
   3  -8   3  504.37   47.46 
   3   8   3  540.35   49.88 
   8   3   3  649.61   51.01 
   8  -3   3  685.26   52.24 
   8   3   3  755.70   53.04 
   3   8   3  525.62   50.55 
  -8   3   3  704.59   55.78 
  -3   8   3  527.48   51.62 
   8   3   3  655.63   50.37 
   3  -8   3  483.73   53.51 
  -8  -4   3   26.03    8.96 
  -8   4   3   45.85   11.29 
   8  -4   3   39.75    9.77 
   8  -4   3   30.12    8.12 
  -4   8   3   55.22   11.24 
   4   8   3   40.10    9.17 
   4   8   3   47.49    9.40 
  -4  -8   3   39.67    9.54 
  -4  -8   3   31.93    9.11 
   4  -8   3   28.83    9.87 
   8  -4   3   61.91   12.06 
   4  -8   3   40.45    7.71 
   4  -8   3   29.41    8.78 
   8   4   3   46.43    9.47 
   8  -4   3   47.76    8.71 
   8   4   3   49.96    9.05 
   8   4   3   52.01   10.58 
  -5  -8   3  329.16   36.05 
   5   8   3  363.33   35.92 
   8  -5   3  352.94   34.97 
   5   8   3  361.29   35.25 
   5  -8   3  336.34   33.31 
   8   5   3  437.08   37.72 
   8   5   3  446.42   36.79 
  -8   5   3  428.18   39.75 
   8  -5   3  429.88   34.00 
  -5   8   3  356.68   37.04 
   5  -8   3  315.19   36.48 
   8  -5   3  446.07   39.01 
  -8  -5   3  384.52   38.09 
   5  -8   3  374.00   39.76 
   8  -5   3  453.74   39.00 
  -6   8   3    2.91    5.23 
   8   6   3    4.76    5.27 
   6   8   3    5.30    4.17 
   8  -6   3    6.59    5.36 
  -8   6   3    5.39    5.11 
   6  -8   3    6.16    6.47 
   6   8   3    0.48    3.46 
   8   6   3    0.04    3.96 
   8  -6   3    6.97    5.95 
   8  -6   3   -5.04    4.08 
  -6  -8   3    3.81    4.18 
  -8  -6   3    1.23    5.11 
   6  -8   3    8.76    4.03 
   6  -8   3    7.11    5.95 
   8  -7   3  270.57   29.36 
   7  -8   3  341.38   34.97 
   8  -7   3  277.27   32.10 
   8  -7   3  286.34   32.45 
  -8  -7   3  272.78   32.05 
   7   8   3  321.00   30.98 
   7  -8   3  329.30   29.69 
   8   7   3  308.15   31.02 
   8   7   3  306.21   29.84 
  -8   7   3  293.29   32.57 
   7  -8   3  282.68   32.15 
  -7  -8   3  296.14   31.92 
  -7   8   3  373.05   34.52 
   8   8   3    2.84    5.12 
  -8  -8   3    6.40    6.46 
   8  -8   3   -3.06    5.52 
  -8   8   3    7.46    5.22 
   8  -8   3   -1.52    4.08 
   8  -8   3    4.52    5.60 
  -9   0   3  481.09   41.50 
   0   9   3  346.46   37.22 
   9   0   3  429.41   38.62 
   0  -9   3  386.40   37.04 
   9   0   3  470.88   38.29 
   0  -9   3  388.48   40.09 
  -9   1   3    3.22    4.44 
   1  -9   3   14.76    5.89 
   9  -1   3   12.75    6.12 
   1   9   3    1.37    3.52 
   9   1   3   12.87    6.66 
  -1   9   3   11.27    5.01 
  -9  -1   3   12.67    6.54 
  -1  -9   3   10.72    5.35 
   9  -1   3   16.27    6.10 
   9  -1   3   10.31    5.51 
  -1  -9   3    5.42    3.28 
   9   1   3    8.48    5.02 
   1  -9   3   22.76    7.38 
   9  -2   3  499.60   43.77 
   9   2   3  517.34   43.17 
  -9  -2   3  519.60   46.39 
   2  -9   3  415.30   45.62 
  -9   2   3  533.23   46.42 
   9   2   3  500.23   42.95 
  -2  -9   3  412.71   44.06 
   2   9   3  423.45   41.69 
   2   9   3  430.90   42.48 
   9  -2   3  512.80   42.23 
   2  -9   3  427.47   42.93 
  -2   9   3  457.63   43.87 
   9  -2   3  567.78   45.17 
   9   3   3   27.47    8.64 
   3   9   3   39.93    8.97 
  -9  -3   3   39.14   10.75 
   3  -9   3   36.23    9.06 
  -3  -9   3   41.67    9.79 
   9  -3   3   37.56    9.48 
   3   9   3   35.74    8.36 
   9  -3   3   39.06    8.68 
  -3   9   3   50.47   10.55 
  -9   3   3   54.31   12.36 
   9  -3   3   34.28    9.14 
   9   3   3   32.55    8.53 
   3  -9   3   39.03   11.78 
   4  -9   3  406.50   40.22 
  -4   9   3  512.37   40.06 
   9  -4   3  360.36   36.74 
   4  -9   3  430.02   38.17 
   9  -4   3  302.31   32.73 
   9   4   3  310.85   33.41 
   4   9   3  456.92   36.18 
   9   4   3  279.45   33.89 
   4   9   3  454.46   37.13 
  -9  -4   3  303.27   36.89 
  -9   4   3  340.97   37.96 
   9  -4   3  302.68   34.54 
  -4  -9   3  469.28   38.21 
  -4  -9   3  478.97   38.76 
   9   5   3   13.12    7.13 
  -5   9   3   23.11    7.92 
   9  -5   3   23.00    8.85 
  -5  -9   3   14.29    6.25 
   5   9   3   17.84    6.41 
   5  -9   3   28.75   10.33 
   5   9   3   21.21    6.95 
  -9   5   3    8.15    7.56 
   5  -9   3    8.10    6.87 
   9  -5   3   11.70    4.88 
  -9  -5   3   13.43    7.33 
   9  -5   3   32.71    9.42 
   9  -5   3   22.60    7.85 
  -6  -9   3  383.72   34.82 
  -9   6   3  321.51   35.03 
   9  -6   3  282.93   33.03 
   6  -9   3  327.50   35.99 
  -6   9   3  417.78   36.45 
   6   9   3  370.92   33.12 
  -9  -6   3  272.65   35.08 
   9   6   3  271.30   30.99 
   6   9   3  402.46   34.20 
   9  -6   3  252.05   33.87 
   6  -9   3  340.39   34.43 
   9  -6   3  273.62   30.89 
   7  -9   3   10.10    8.35 
   9   7   3    3.40    6.00 
   7   9   3   21.75    7.31 
   7  -9   3   25.10    6.99 
   9  -7   3   17.68    8.80 
   9  -7   3   25.19    7.97 
  -9   7   3   21.28    9.37 
  -7   9   3   24.63    8.54 
   7   9   3    9.97    5.79 
  -9  -7   3   25.66    9.31 
   7  -9   3    2.83    6.72 
  -7  -9   3   29.53    9.25 
   9  -7   3   21.92    8.10 
   8   9   3  192.08   26.56 
   8  -9   3  178.44   29.09 
  -8   9   3  181.75   28.55 
   8  -9   3  193.80   24.07 
  -8  -9   3  193.94   28.32 
   8  -9   3  163.27   27.07 
   9  -8   3  297.35   32.47 
   9  -8   3  308.97   26.54 
  -9  -8   3  267.80   31.27 
   9  -8   3  292.15   31.22 
  -9   8   3  283.33   31.91 
  -9  -9   3   13.96    8.05 
  -9   9   3   20.54    8.92 
   9  -9   3   12.10    5.92 
   9  -9   3    3.89    6.27 
   9  -9   3   27.49    9.70 
 -10   0   3    3.73    4.98 
   0  10   3   -1.43    3.07 
  10   0   3    3.69    5.29 
   0 -10   3    2.15    3.28 
  10   0   3   -0.48    3.58 
   0 -10   3    4.89    5.12 
  10  -1   3  312.25   33.08 
  10   1   3  313.07   32.15 
  10  -1   3  333.24   32.51 
   1  10   3  386.82   33.97 
   1 -10   3  370.83   36.44 
 -10   1   3  298.79   33.87 
  -1  10   3  360.88   33.56 
  10   1   3  315.53   32.86 
   1 -10   3  363.23   32.94 
  -1 -10   3  307.63   34.26 
 -10  -1   3  300.09   33.97 
   2 -10   3  138.86   23.35 
  10  -2   3  201.61   22.53 
  -2 -10   3  162.56   22.94 
   2  10   3  176.43   21.29 
 -10  -2   3  155.69   23.04 
  10   2   3  161.73   21.62 
 -10   2   3  170.82   23.97 
  10   2   3  146.71   20.62 
  10  -2   3  161.95   22.20 
  10  -2   3  155.32   20.15 
   2  10   3  181.41   20.27 
   2 -10   3  134.79   19.80 
  -2  10   3  176.73   22.12 
  -3 -10   3  427.80   35.96 
  10   3   3  245.26   32.04 
   3  10   3  382.53   33.32 
   3 -10   3  327.75   36.13 
 -10  -3   3  303.24   34.08 
  10  -3   3  291.49   30.47 
   3  10   3  376.94   32.60 
  10  -3   3  333.52   33.37 
   3 -10   3  312.78   32.72 
 -10   3   3  273.13   33.28 
  10  -3   3  319.58   32.72 
  10   3   3  316.06   31.52 
  -3  10   3  350.49   33.69 
   4 -10   3    0.35    5.16 
 -10  -4   3    1.34    5.18 
   4  10   3   11.26    4.85 
   4 -10   3   -4.21    4.23 
  10  -4   3   -4.65    5.03 
  10  -4   3    7.27    5.69 
   4  10   3   -5.80    3.41 
  -4 -10   3   -0.84    4.14 
  10   4   3    6.09    6.14 
 -10   4   3    6.47    5.47 
  -4  10   3    9.83    5.36 
  10  -4   3    3.92    4.10 
   5 -10   3  214.26   29.04 
  -5 -10   3  220.49   29.48 
 -10   5   3  350.07   32.69 
   5 -10   3  203.84   31.83 
  10  -5   3  341.16   30.98 
  -5  10   3  198.76   28.57 
   5  10   3  233.49   26.93 
   5  10   3  208.75   25.37 
 -10  -5   3  377.19   33.30 
  10  -5   3  316.56   28.76 
 -10  -6   3   45.02   12.64 
   6  10   3   61.88   12.35 
  -6 -10   3   49.32   11.88 
  -6  10   3   43.40   11.73 
   6 -10   3   57.18   14.02 
   6 -10   3   47.70   12.42 
  10  -6   3   45.89   12.85 
  10  -6   3   48.23   11.28 
 -10   6   3   67.22   15.52 
  10   6   3   56.30   12.94 
   6  10   3   67.58   12.76 
   7  10   3  188.15   24.45 
  -7 -10   3  251.58   29.08 
   7 -10   3  156.09   25.33 
   7 -10   3  196.59   29.35 
  -7  10   3  234.09   28.39 
  10  -7   3  201.02   27.12 
 -10  -7   3  196.53   28.55 
 -10   7   3  208.57   29.29 
  10   7   3  180.04   24.93 
  10  -7   3  171.26   24.01 
   7  10   3  229.21   26.36 
   8 -10   3   -3.52    5.93 
 -10   8   3    1.90    7.30 
  -8  10   3   19.26    7.57 
  10  -8   3    6.88    6.34 
  -8 -10   3    6.06    7.47 
  10  -8   3    0.11    5.16 
   8  10   3    5.90    5.79 
   8 -10   3   -4.38    6.49 
 -10  -8   3    7.77    6.70 
   8  10   3   10.96    4.62 
   9 -10   3  161.49   24.30 
  10  -9   3  122.16   19.56 
  10  -9   3  106.61   20.54 
   9 -10   3  129.48   21.80 
  10 -10   3   25.42   10.02 
  11   0   3  230.04   27.59 
  11   0   3  209.61   27.49 
 -11   0   3  192.34   27.90 
   0 -11   3  258.55   31.04 
   0  11   3  284.41   27.09 
  -1  11   3  126.13   18.81 
  11  -1   3  129.53   19.08 
   1 -11   3  130.07   22.05 
  11  -1   3  130.54   20.26 
   1  11   3  139.19   19.26 
 -11   1   3  140.02   21.16 
 -11  -1   3  106.92   19.37 
  11   1   3  136.20   20.11 
  -1 -11   3  109.64   20.19 
   1 -11   3  137.21   18.41 
  11   1   3  126.63   19.44 
   2 -11   3  198.72   29.40 
   2 -11   3  227.66   24.68 
   2  11   3  203.97   25.52 
  11  -2   3  189.90   24.63 
  11   2   3  246.53   27.66 
 -11   2   3  219.25   27.96 
  11   2   3  216.64   26.06 
  -2  11   3  232.05   24.99 
  -2 -11   3  240.17   29.06 
 -11  -2   3  182.43   27.01 
  11  -2   3  216.29   27.01 
 -11   3   3   24.64    9.44 
   3  11   3   25.72    7.44 
  11  -3   3   22.29    7.06 
  11   3   3   29.14    9.77 
   3  11   3   19.85    7.02 
   3 -11   3   19.43    9.24 
  11  -3   3   20.03    7.88 
  -3 -11   3   15.87    7.43 
   3 -11   3   24.26    8.81 
 -11  -3   3   18.32    8.44 
  -3  11   3   35.79    9.52 
  11   3   3   26.27    8.54 
  11  -3   3   25.66    8.81 
  11  -4   3  205.23   26.29 
   4 -11   3  233.99   31.28 
   4  11   3  172.67   24.50 
  11  -4   3  259.44   24.27 
   4 -11   3  172.64   24.92 
 -11  -4   3  212.94   29.01 
  11  -4   3  225.66   27.07 
  11   4   3  208.97   27.26 
 -11   4   3  236.16   29.13 
   4  11   3  202.88   24.41 
  -4  11   3  202.97   27.17 
 -11  -5   3    7.87    7.63 
  11  -5   3   25.68    8.73 
  11  -5   3   23.43    9.46 
   5 -11   3    9.68    8.15 
  -5  11   3   17.21    6.67 
 -11   5   3    3.04    6.63 
   5 -11   3   24.56    8.68 
   5  11   3   22.06    6.58 
  11   5   3   30.61   10.07 
   5  11   3   26.52    7.55 
  11  -6   3  164.48   24.81 
   6  11   3  175.92   23.56 
   6 -11   3  143.63   23.49 
   6  11   3  207.31   23.87 
  -6  11   3  158.42   24.78 
 -11   6   3  192.23   27.41 
  11   6   3  195.19   25.70 
 -11  -6   3  158.13   26.10 
   6 -11   3  186.53   28.37 
  11  -6   3  162.75   23.25 
   7  11   3   17.94    6.84 
  11  -7   3   26.21    9.98 
  11   7   3   21.38   10.04 
  -7  11   3   25.64    8.82 
 -11   7   3   17.75    9.61 
  -7 -11   3   12.88    8.18 
 -11  -7   3   21.32    9.89 
  11  -7   3   17.18    8.30 
   7 -11   3   13.94    8.50 
   7 -11   3   31.87   11.87 
   7  11   3   34.51    9.58 
   8 -11   3  122.65   20.37 
  11  -8   3   72.83   16.77 
  11  -8   3  140.86   21.04 
  11  -9   3   15.06    7.44 
  11  -9   3    6.83    7.42 
   9 -11   3    3.15    7.53 
 -12   0   3    1.36    5.04 
  12   0   3    5.59    5.13 
   0  12   3   -0.61    4.39 
  12   0   3   -0.08    5.79 
   0 -12   3    5.22    5.94 
  12   1   3  261.86   28.81 
  12   1   3  281.19   29.81 
  -1  12   3  144.05   24.96 
   1  12   3  204.40   26.54 
   1 -12   3  160.57   28.44 
  -1 -12   3  208.40   29.48 
 -12   1   3  237.49   29.07 
 -12  -1   3  251.93   29.56 
  12  -1   3  263.67   27.92 
  12  -1   3  245.12   28.72 
   2  12   3   11.57    5.62 
  12  -2   3   -2.92    4.30 
 -12   2   3    4.68    6.29 
   2 -12   3   13.86    6.55 
  -2 -12   3   -3.12    4.82 
  12  -2   3    6.48    5.38 
  12   2   3   10.25    7.54 
  -2  12   3   15.04    6.62 
 -12  -2   3   19.02    8.32 
  12   2   3   21.84    8.48 
   2 -12   3    4.65    7.02 
  12   3   3  197.55   26.23 
 -12   3   3  181.05   25.73 
  -3  12   3  168.69   23.83 
  12   3   3  180.52   23.82 
  12  -3   3  215.58   24.26 
 -12  -3   3  152.48   24.68 
   3 -12   3  175.03   23.26 
   3  12   3  185.51   24.37 
  -3 -12   3  191.06   26.03 
  12  -3   3  137.94   23.02 
   3 -12   3  154.11   26.40 
  -4  12   3   -2.90    3.92 
   4  12   3   -5.69    4.44 
 -12  -4   3    5.17    6.27 
   4  12   3   -3.04    3.92 
  12  -4   3    7.53    6.00 
 -12   4   3   -0.56    6.09 
  12   4   3    8.37    7.19 
  12  -4   3    8.80    5.71 
   4 -12   3    4.36    7.47 
   4 -12   3    5.39    5.97 
  12   5   3  171.49   26.18 
  -5  12   3  252.79   29.04 
 -12  -5   3  169.35   27.16 
  12  -5   3  164.86   24.94 
   5  12   3  213.59   26.05 
   5 -12   3  255.01   28.38 
 -12   5   3  167.75   26.73 
   5 -12   3  213.62   31.34 
   5  12   3  238.74   25.86 
  12  -5   3  143.47   24.47 
  12  -6   3   13.47    7.61 
   6  12   3    4.32    5.30 
  12  -6   3   15.87    8.33 
   6 -12   3   12.17    7.28 
   6  12   3    3.27    4.97 
   7 -12   3  138.77   22.89 
  12  -7   3  132.93   22.14 
  12  -7   3  141.96   21.88 
  12  -8   3    3.34    6.72 
   8 -12   3    6.10    8.43 
  12  -8   3   -4.08    5.47 
  13   0   3  111.00   19.35 
   0 -13   3  181.96   26.70 
   0  13   3  246.27   25.61 
 -13   0   3  126.38   21.72 
  13   0   3  105.93   19.99 
  13  -1   3   25.89    8.70 
  13  -1   3   11.15    8.27 
   1 -13   3    7.29    7.11 
   1  13   3    9.90    6.15 
 -13   1   3   25.42    9.21 
 -13  -1   3   25.29    9.10 
  13   1   3    8.86    6.33 
  13   1   3   28.65    9.61 
  -1 -13   3   11.97    8.31 
  -1  13   3   15.23    7.36 
 -13  -2   3  147.96   23.35 
   2 -13   3  146.24   24.85 
  -2 -13   3  153.69   24.28 
  -2  13   3  163.82   23.59 
  13   2   3  170.48   23.77 
  13  -2   3  185.08   23.07 
 -13   2   3  134.07   22.29 
   2  13   3  139.63   21.72 
  13  -2   3  102.43   20.13 
  13  -3   3   11.48    6.07 
  13  -3   3    6.88    6.58 
   3 -13   3    4.26    6.06 
   3  13   3    2.14    4.54 
  -3 -13   3    1.25    5.95 
  13   3   3   -1.06    6.16 
   4 -13   3  108.71   19.95 
  13  -4   3  184.46   24.35 
   5 -13   3    2.90    6.09 
  13  -5   3    2.49    5.96 
   6 -13   3  105.99   19.80 
  13  -6   3  100.24   18.66 
  13  -6   3  103.02   19.72 
  14   0   3    3.41    6.33 
  14   1   3  170.42   24.20 
  14  -1   3  109.63   20.49 
  14   2   3   23.77   10.10 
  14  -2   3   27.77   10.08 
  14  -3   3  100.07   19.27 
  14  -4   3   -1.69    6.06 
   4 -14   3    3.83    6.39 
   0   0   4 9711.27  743.32 
   0   0   4 9022.65  705.01 
   0   0   4 9996.30  738.99 
   0  -1   4   -0.54    0.91 
   1   0   4    0.52    2.18 
   0  -1   4    1.55    1.97 
  -1   0   4    1.97    1.49 
   1   0   4   -2.77    1.66 
   0   1   4    0.18    1.34 
  -1   0   4    0.04    1.97 
   1   0   4   -2.33    1.32 
   0  -1   4   -1.41    1.62 
  -1   0   4    0.84    2.10 
   0   1   4    0.12    2.00 
  -1   1   4 2033.15  155.60 
  -1  -1   4 2064.17  162.00 
  -1  -1   4 2183.14  163.95 
   1   1   4 1995.51  163.83 
  -1  -1   4 2027.19  155.76 
   1  -1   4 2234.86  159.26 
   1  -1   4 2011.27  155.55 
   1  -1   4 2172.75  164.26 
  -1   1   4 1962.19  162.82 
   1   1   4 2112.27  155.82 
   1   1   4 2058.60  158.65 
   0   2   4 1831.36  142.22 
   2   0   4 1931.11  150.22 
   0  -2   4 1937.25  147.96 
  -2   0   4 1905.50  143.02 
   0   2   4 1906.11  148.21 
  -2   0   4 1892.08  149.39 
   2   0   4 1857.51  142.46 
   2   0   4 1936.08  145.37 
   0  -2   4 1950.53  150.23 
   0  -2   4 1794.57  142.22 
   2  -1   4   42.31    7.86 
   1   2   4   56.45    5.70 
  -2  -1   4   70.62    9.08 
  -1   2   4   56.84    7.68 
  -2   1   4   40.35    7.51 
   1  -2   4   53.75    9.96 
   2   1   4   54.90    7.77 
   1   2   4   56.95    8.04 
  -1  -2   4   48.17    7.70 
  -2  -1   4   58.20    7.67 
   2  -1   4   44.29    7.56 
   2  -1   4   54.48    7.99 
   1  -2   4   61.06    8.17 
   2   1   4   64.93    7.67 
  -1  -2   4   46.43    7.74 
  -2   1   4   64.95    8.92 
  -2  -1   4   60.80    8.10 
   1  -2   4   51.54    8.35 
   2   1   4   50.06    7.93 
   2   1   4   66.50    8.54 
  -1  -2   4   59.98    6.66 
  -1   2   4   56.14    7.83 
   1   2   4   58.53    7.70 
   1  -2   4   47.40    7.53 
   2   2   4 3475.91  273.47 
  -2  -2   4 3890.65  287.05 
   2  -2   4 3609.45  273.54 
  -2  -2   4 3887.36  288.18 
  -2  -2   4 3561.12  274.08 
   2   2   4 3779.56  279.23 
   2  -2   4 4033.84  289.19 
  -2   2   4 3397.12  287.46 
  -2   2   4 3437.05  273.53 
   2   2   4 3944.62  281.42 
   2   2   4 3639.45  285.04 
   2   2   4 3454.31  288.02 
   2  -2   4 3827.00  279.80 
   0   3   4   -0.24    2.22 
   3   0   4    6.06    3.19 
   0  -3   4    2.88    3.12 
   0  -3   4    2.76    2.43 
   0  -3   4    1.25    2.23 
   3   0   4   -0.86    1.97 
   0   3   4    0.65    1.62 
  -3   0   4   -2.33    2.25 
   0  -3   4   -2.18    1.21 
  -3   0   4   -0.58    2.78 
   3   0   4    4.57    2.83 
   3  -1   4 3738.28  271.65 
  -1   3   4 3281.82  256.37 
  -3   1   4 3274.67  257.43 
   3   1   4 3440.40  257.34 
  -3   1   4 3277.27  270.85 
  -1  -3   4 3376.02  257.01 
  -1   3   4 3204.71  269.07 
  -1  -3   4 3668.67  270.77 
  -1  -3   4 3673.24  269.17 
   3   1   4 3329.90  270.42 
   1   3   4 3572.64  264.38 
   3  -1   4 3543.07  262.93 
   1  -3   4 3333.49  256.43 
   3   1   4 3500.88  263.77 
  -1  -3   4 3764.38  270.34 
   3  -1   4 3368.09  257.11 
   1   3   4 3304.53  256.65 
   1   3   4 3177.60  268.08 
   1  -3   4 3753.00  271.38 
   1  -3   4 3526.12  262.65 
   1  -3   4 3670.93  271.81 
  -3  -1   4 3322.10  257.73 
  -3  -1   4 3410.97  270.09 
   3   1   4 3557.59  262.63 
  -2  -3   4    2.99    2.28 
   3   2   4    7.21    3.26 
  -2   3   4    2.94    2.65 
   2   3   4    4.58    2.69 
   2   3   4    3.46    2.96 
   3   2   4    7.23    1.84 
   3  -2   4    3.39    2.61 
   2  -3   4    9.34    3.85 
  -3   2   4   10.54    4.26 
   3   2   4   13.82    3.79 
   2  -3   4   14.78    5.70 
   3  -2   4    9.78    4.04 
  -2  -3   4    7.04    3.30 
  -2   3   4    8.77    3.22 
  -2  -3   4    5.19    2.88 
  -3   2   4    3.82    2.97 
   3   2   4    6.76    3.52 
  -3  -2   4    5.22    3.34 
   2   3   4    6.76    2.20 
   3   2   4   -0.37    1.63 
  -3  -2   4    2.21    2.36 
  -2  -3   4    2.65    2.46 
   2  -3   4    1.25    2.14 
   2  -3   4    6.06    2.58 
   2   3   4    4.47    2.57 
   3  -2   4    3.95    2.55 
   3  -3   4  857.86   73.93 
   3  -3   4  830.92   75.96 
   3   3   4  905.59   71.20 
   3   3   4  925.04   69.98 
  -3   3   4  908.55   69.80 
   3   3   4  897.24   70.36 
  -3  -3   4  915.86   72.62 
   3  -3   4  904.26   69.48 
   3  -3   4  916.43   71.48 
   3   3   4  924.54   71.65 
  -3  -3   4  860.33   72.95 
  -3   3   4  924.64   74.27 
  -3  -3   4  861.20   70.41 
  -3  -3   4  889.82   72.32 
   0  -4   4 3054.06  223.94 
   4   0   4 3056.28  216.82 
  -4   0   4 2670.66  222.72 
   4   0   4 2848.47  211.74 
   0  -4   4 2712.03  210.50 
   0  -4   4 2977.30  222.69 
   4   0   4 2793.06  222.51 
   0   4   4 2803.87  220.89 
  -4   0   4 2673.52  212.10 
   0   4   4 2708.85  210.15 
   4   0   4 2838.42  216.06 
  -4  -1   4  782.98   63.15 
  -1  -4   4  752.59   61.42 
  -1   4   4  738.44   61.48 
   4   1   4  741.12   61.89 
   1   4   4  860.21   61.44 
  -1  -4   4  707.15   63.31 
  -1   4   4  737.23   58.24 
   4  -1   4  739.56   62.70 
   4   1   4  774.35   59.80 
  -1  -4   4  743.25   61.82 
   4   1   4  762.62   60.42 
   1   4   4  800.42   58.75 
   1  -4   4  759.45   58.42 
   1   4   4  766.39   60.87 
  -4   1   4  763.23   63.62 
  -4  -1   4  738.40   60.40 
   4   1   4  789.73   60.56 
   1  -4   4  751.56   60.06 
   4  -1   4  722.74   59.32 
  -1  -4   4  699.09   58.62 
   4  -1   4  763.18   60.91 
   1  -4   4  716.43   64.62 
   1  -4   4  707.99   62.26 
  -4   1   4  707.78   59.85 
  -4  -2   4 3013.93  235.98 
   2  -4   4 2979.05  223.17 
   2   4   4 2909.13  233.58 
  -2  -4   4 3113.93  224.30 
  -2   4   4 2778.86  234.91 
   4   2   4 2964.14  230.10 
   4  -2   4 3061.79  229.57 
  -2  -4   4 3126.56  235.09 
   4   2   4 2935.23  224.32 
   4  -2   4 3026.94  224.02 
   4  -2   4 3185.54  237.07 
  -2  -4   4 3260.27  235.61 
   2  -4   4 3049.65  228.72 
  -2   4   4 2943.86  223.13 
  -4   2   4 2946.90  224.55 
  -4   2   4 2896.57  236.85 
  -2  -4   4 3035.64  235.12 
   2  -4   4 3041.74  236.60 
   4   2   4 2988.69  228.47 
   4   2   4 2990.41  235.40 
   2  -4   4 3117.79  238.01 
   2   4   4 2877.47  230.12 
   2   4   4 2809.32  223.19 
  -4   3   4   41.92    8.23 
  -4   3   4   45.07    9.36 
   4   3   4   49.26    7.91 
   4   3   4   60.93    9.19 
  -3  -4   4   57.74    7.82 
  -3   4   4   38.26    8.20 
   3  -4   4   35.81    8.29 
   3   4   4   48.38    8.28 
   3   4   4   57.74    7.56 
   3   4   4   52.55    8.43 
  -3  -4   4   56.12    9.16 
   4   3   4   57.14    8.89 
   4   3   4   90.32    9.34 
  -3  -4   4   62.57    9.48 
   3  -4   4   44.58    8.17 
  -4  -3   4   33.98    7.67 
   4  -3   4   44.66    9.13 
   4  -3   4   71.19   12.88 
  -3  -4   4   56.57    8.86 
  -3   4   4   66.53    8.68 
   3   4   4   54.36    7.32 
   3  -4   4   43.41   10.59 
   4  -3   4   50.54    8.12 
   4  -3   4   60.27    9.49 
   3  -4   4   50.43    7.82 
   4  -4   4 3198.74  248.75 
  -4   4   4 2989.65  246.69 
   4  -4   4 3032.29  232.80 
   4   4   4 2944.77  233.54 
  -4  -4   4 3437.15  243.58 
   4  -4   4 3129.27  239.12 
   4   4   4 3044.72  240.48 
   4  -4   4 3350.24  247.96 
   4   4   4 3110.72  237.40 
  -4  -4   4 3042.81  245.72 
   0  -5   4    0.75    2.17 
   0   5   4    0.10    2.05 
   5   0   4    5.25    3.39 
   0   5   4    0.03    2.08 
   0  -5   4   -1.80    1.96 
   5   0   4    0.68    2.67 
   5   0   4    0.05    2.55 
   0  -5   4   -5.68    2.43 
  -5   0   4   -1.06    2.27 
   1  -5   4 2180.81  175.88 
   1  -5   4 2280.28  168.36 
  -1   5   4 2098.14  173.01 
   1   5   4 2120.81  172.49 
   5   1   4 2187.37  166.08 
  -5   1   4 2156.49  175.40 
  -1   5   4 2125.41  163.66 
   5  -1   4 2198.04  174.56 
   5   1   4 2293.07  170.10 
   1  -5   4 2107.49  163.83 
  -5  -1   4 2185.21  175.06 
  -1  -5   4 2191.44  174.76 
  -1  -5   4 2179.34  164.63 
   5  -1   4 2129.79  165.52 
   5   1   4 2144.41  173.53 
  -1  -5   4 2323.89  173.38 
   1   5   4 2188.14  164.07 
   1  -5   4 2192.10  174.21 
   5   1   4 2199.75  168.98 
   1   5   4 2253.44  170.30 
   5  -1   4 2227.86  169.61 
  -1  -5   4 2301.59  173.53 
  -2   5   4   46.85    6.85 
   5   2   4   32.80    6.99 
  -2  -5   4   36.87    7.34 
   2  -5   4   32.42    6.03 
   5  -2   4   46.20    8.67 
   5   2   4   41.52    7.74 
   5  -2   4   44.41    7.96 
  -5  -2   4   40.08    8.67 
  -2   5   4   60.48    9.42 
  -2  -5   4   35.36    6.73 
   2   5   4   43.39    7.04 
   5   2   4   38.08    8.17 
  -2  -5   4   35.73    7.14 
   2  -5   4   41.67    7.26 
   2  -5   4   19.33    8.16 
   5   2   4   48.11    7.62 
  -5   2   4   61.65   11.44 
  -2  -5   4   34.90    8.12 
   2  -5   4   40.20    8.38 
   2   5   4   38.34    7.49 
   2   5   4   46.78    7.16 
   5  -2   4   48.86    8.81 
   3   5   4 2204.21  173.44 
  -3   5   4 2252.45  167.34 
  -3  -5   4 2171.13  176.92 
   5  -3   4 2194.53  179.77 
  -3   5   4 2047.03  177.06 
   3  -5   4 2327.00  172.11 
   3  -5   4 2202.35  180.33 
   5   3   4 2277.90  176.41 
   5  -3   4 2189.01  168.10 
   3  -5   4 2278.32  167.32 
   5  -3   4 2219.64  178.62 
  -5  -3   4 2157.92  177.64 
  -5   3   4 2223.45  179.13 
   5   3   4 2202.00  171.46 
  -3  -5   4 2354.63  176.98 
   5  -3   4 2243.90  172.89 
   5   3   4 2318.64  173.56 
   3  -5   4 2346.64  178.88 
   3   5   4 2262.27  175.69 
   5   3   4 2191.71  169.09 
  -3  -5   4 2252.38  175.92 
   3   5   4 2197.39  167.79 
   5  -4   4    6.24    3.28 
   4   5   4   -0.96    2.99 
   4  -5   4    2.39    2.69 
   4  -5   4   -1.16    2.18 
   5   4   4    2.44    2.79 
  -4  -5   4    0.69    2.67 
  -4  -5   4   -1.81    1.83 
   5   4   4    4.65    3.00 
   4  -5   4   -1.27    3.33 
  -5  -4   4    0.70    2.80 
   5   4   4   -2.25    2.58 
  -4  -5   4    3.15    3.25 
   5  -4   4    3.83    4.62 
   4   5   4    1.43    2.18 
   5  -4   4    0.96    2.35 
  -4   5   4    1.33    2.73 
   4   5   4    2.17    2.84 
   5  -4   4    2.70    3.26 
  -5   4   4    6.50    3.87 
   4  -5   4    6.03    5.10 
   5   5   4  707.72   59.66 
   5  -5   4  673.56   61.90 
  -5  -5   4  736.80   61.62 
   5  -5   4  733.82   56.74 
   5  -5   4  713.14   64.42 
   5   5   4  718.73   58.00 
   5  -5   4  736.41   59.31 
  -5   5   4  688.26   62.14 
   0   6   4 2012.22  150.44 
   0   6   4 2050.77  159.80 
   6   0   4 1952.46  156.22 
   0  -6   4 2018.65  162.47 
  -6   0   4 2003.46  162.22 
   6   0   4 2017.27  160.70 
   0  -6   4 2048.00  160.36 
   0  -6   4 1981.85  151.08 
   6   0   4 2030.61  153.42 
   6   1   4  127.83   14.56 
   1  -6   4  113.03   14.66 
   6  -1   4  134.18   15.77 
  -6  -1   4  105.58   16.40 
  -1   6   4  119.84   11.64 
   6   1   4  123.58   15.48 
   6  -1   4  127.69   15.41 
   6   1   4  120.91   14.98 
   1   6   4  123.88   12.18 
  -1  -6   4  114.71   13.09 
  -1  -6   4  113.50   16.95 
   1   6   4  122.58   14.69 
  -6   1   4  149.90   18.19 
  -1   6   4  119.33   14.59 
   1  -6   4  113.26   12.56 
   1   6   4  123.91   13.40 
  -1  -6   4  112.61   13.79 
   1  -6   4  101.68   17.35 
   6  -1   4  139.13   16.22 
   1  -6   4  119.82   11.90 
  -2  -6   4 1790.64  142.68 
   6  -2   4 1718.88  135.82 
   6   2   4 1756.89  141.85 
   2  -6   4 1797.68  143.86 
  -6  -2   4 1751.54  144.23 
  -2   6   4 1824.64  133.88 
   6  -2   4 1683.64  143.55 
   6  -2   4 1840.56  139.87 
   6   2   4 1726.51  136.67 
   6   2   4 1995.90  140.90 
  -6   2   4 1817.87  145.49 
  -2  -6   4 1800.71  143.78 
  -2   6   4 1766.99  142.89 
   2  -6   4 1829.23  137.97 
   6   2   4 1759.99  138.69 
  -2  -6   4 1875.15  142.00 
   2  -6   4 1761.76  133.90 
   2   6   4 1730.88  134.29 
   2  -6   4 1771.57  145.81 
   2   6   4 1713.49  139.53 
   2   6   4 1762.92  141.57 
   6  -3   4    8.60    4.39 
   6   3   4   18.58    5.94 
   6  -3   4    3.58    3.42 
  -3  -6   4    7.21    4.27 
  -3  -6   4   12.66    3.79 
  -3  -6   4   13.77    4.84 
   3  -6   4   11.69    6.17 
   3  -6   4   13.27    3.51 
   3  -6   4   13.06    5.68 
  -3   6   4   12.64    5.04 
   3   6   4    9.73    4.21 
   3   6   4   18.09    4.86 
   3   6   4   14.53    4.77 
   3  -6   4    8.14    3.82 
   6  -3   4   11.25    4.87 
  -6  -3   4    8.63    4.58 
  -6   3   4   13.45    5.70 
   6   3   4    5.56    3.71 
   6   3   4   16.07    4.90 
   4  -6   4 1165.78  107.92 
   4   6   4 1355.82  103.21 
   4  -6   4 1356.57   98.29 
   6  -4   4 1227.30  107.49 
  -4  -6   4 1286.83  105.30 
  -4  -6   4 1297.82  104.24 
   4   6   4 1305.70  103.85 
   4   6   4 1311.75   99.21 
   4  -6   4 1244.82  101.25 
   6  -4   4 1319.37  106.79 
  -6   4   4 1315.66  107.20 
   6   4   4 1293.27  103.08 
   4  -6   4 1251.03  106.29 
   6  -4   4 1187.68   98.72 
   6  -4   4 1323.05  102.88 
  -6  -4   4 1255.22  106.14 
   6   4   4 1347.28  101.16 
  -4   6   4 1249.69  105.71 
   6   4   4 1278.30  100.54 
   6   5   4   15.49    5.40 
   5   6   4   19.39    6.21 
   6   5   4   11.42    5.51 
   5  -6   4   30.75    5.76 
   6  -5   4   23.75    8.63 
   6  -5   4   17.48    5.10 
  -5  -6   4   15.44    6.18 
   5   6   4   18.43    5.52 
  -6   5   4   13.34    5.62 
  -6  -5   4   18.18    6.40 
   5  -6   4   15.76    7.15 
   6  -5   4   18.43    6.49 
   6  -5   4   12.33    5.19 
   5  -6   4   16.80    5.18 
   5   6   4   20.94    6.13 
  -5   6   4   11.32    5.42 
   5  -6   4   14.20    7.10 
   6  -6   4 1386.96  111.00 
   6  -6   4 1388.88  116.25 
   6  -6   4 1372.27  117.66 
  -6  -6   4 1420.32  115.63 
   6   6   4 1476.72  112.83 
  -6   6   4 1382.73  116.26 
   6   6   4 1344.41  108.56 
   0  -7   4    3.32    3.08 
   7   0   4    0.52    3.48 
   7   0   4    0.51    3.36 
   0  -7   4    3.05    4.09 
  -7   0   4    5.27    4.25 
   7   0   4   -5.70    1.77 
   0   7   4    4.83    3.37 
   1  -7   4 1034.09   87.10 
   7  -1   4 1024.84   85.49 
  -7  -1   4 1039.44   89.07 
   7   1   4 1082.41   84.37 
   1  -7   4  965.84   89.66 
  -1  -7   4 1056.67   89.30 
  -1  -7   4 1004.10   85.82 
   1   7   4 1068.00   86.54 
  -1   7   4 1033.90   87.00 
   1  -7   4 1076.07   83.02 
   1   7   4 1030.03   84.98 
   7  -1   4 1121.91   88.30 
   7  -1   4 1018.01   83.39 
   7   1   4 1076.92   86.71 
  -7   1   4 1157.95   90.42 
   7   1   4 1084.17   85.30 
   2   7   4   91.62   12.64 
  -2  -7   4  101.62   14.25 
   7  -2   4  108.64   15.39 
  -7  -2   4   89.07   15.26 
   7   2   4  112.45   14.17 
   7  -2   4  105.11   14.96 
   2  -7   4  100.85   17.70 
   7  -2   4  105.26   14.21 
   2  -7   4  107.27   12.30 
   2  -7   4   96.26   14.53 
  -2  -7   4   94.81   12.24 
   7   2   4   90.71   14.29 
  -2  -7   4   87.31   15.49 
  -7   2   4   88.41   15.33 
  -2   7   4  103.43   14.35 
   2   7   4   96.62   13.49 
  -3  -7   4 1366.17  106.63 
   7  -3   4 1316.68  103.85 
  -7  -3   4 1294.59  107.40 
   7   3   4 1323.27  102.37 
  -3   7   4 1378.21  106.83 
   3  -7   4 1203.41  108.44 
   3   7   4 1292.92   98.58 
   3  -7   4 1282.91  101.13 
   7   3   4 1221.00  101.35 
  -7   3   4 1274.67  108.20 
   3   7   4 1338.75  103.47 
   3   7   4 1266.03  104.19 
   3  -7   4 1292.86  106.87 
  -3  -7   4 1311.09  105.75 
   7  -3   4 1182.69  106.30 
   7  -3   4 1263.78  100.02 
  -4  -7   4   10.78    4.97 
  -4  -7   4    7.27    4.35 
   7  -4   4    6.83    4.08 
   4   7   4   16.81    5.59 
   7  -4   4   12.26    4.32 
   4   7   4   13.13    4.86 
  -7   4   4    1.29    5.03 
   7   4   4    9.19    4.42 
   7   4   4   10.54    5.40 
   4  -7   4    8.04    5.49 
   4   7   4    7.67    4.27 
  -7  -4   4   11.57    5.94 
   4  -7   4    1.28    4.78 
   7  -4   4   16.21    6.54 
   7  -4   4   12.44    5.84 
   4  -7   4    9.91    3.61 
  -4   7   4   18.82    5.97 
   5  -7   4 1329.40  115.54 
   5   7   4 1397.13  110.63 
   5  -7   4 1224.57  112.63 
  -5   7   4 1342.53  112.58 
   7  -5   4 1377.80  113.65 
  -7   5   4 1341.27  113.86 
  -5  -7   4 1355.34  112.22 
  -7  -5   4 1385.20  113.43 
   7  -5   4 1336.27  114.11 
   5   7   4 1448.90  110.20 
   5   7   4 1368.82  105.41 
   5  -7   4 1316.71  107.57 
   7  -5   4 1420.41  105.22 
   7   5   4 1342.52  106.90 
   7  -5   4 1388.02  109.14 
  -7  -6   4   13.43    5.57 
   6  -7   4   20.12    8.11 
   6   7   4   14.57    5.44 
   6  -7   4   12.42    7.22 
  -6   7   4   13.30    5.90 
   6   7   4   14.90    5.44 
   7   6   4   17.27    6.86 
  -7   6   4   34.03    8.96 
   7  -6   4    2.66    4.60 
   6   7   4   17.24    6.42 
   7  -6   4    5.95    6.61 
  -6  -7   4    7.27    5.45 
   6  -7   4   10.82    4.86 
   7  -6   4   22.40    9.10 
   7  -7   4  494.19   43.04 
  -7  -7   4  438.25   45.02 
  -7   7   4  519.01   47.02 
   7   7   4  433.27   41.65 
   7  -7   4  493.10   47.87 
   7  -7   4  504.93   46.76 
   0  -8   4 1485.70  117.13 
   8   0   4 1443.33  113.00 
  -8   0   4 1367.17  119.19 
   0  -8   4 1443.67  120.27 
   8   0   4 1446.57  117.63 
   0   8   4 1446.46  117.04 
   8   0   4 1423.42  114.92 
   1  -8   4    1.40    3.02 
   8  -1   4    4.58    5.03 
  -1  -8   4    8.62    5.25 
  -1  -8   4    3.63    3.25 
   8   1   4    4.90    4.09 
   1  -8   4    3.61    5.16 
   8   1   4    4.50    3.66 
  -8   1   4   -1.04    3.73 
  -8  -1   4    4.10    4.70 
   1   8   4    4.47    3.60 
   8  -1   4    8.54    4.55 
   8  -1   4    9.30    5.40 
  -1   8   4    2.68    3.13 
  -2   8   4 1533.48  123.70 
   8  -2   4 1444.36  123.84 
  -2  -8   4 1597.00  125.43 
   2  -8   4 1502.90  124.15 
   2  -8   4 1418.39  126.53 
   2   8   4 1548.73  121.05 
   8   2   4 1525.62  118.95 
   2   8   4 1580.01  122.93 
   8   2   4 1534.77  120.29 
   8  -2   4 1528.66  117.86 
  -8   2   4 1455.79  125.37 
  -8  -2   4 1372.85  124.72 
   8  -2   4 1527.44  121.16 
  -2  -8   4 1581.97  121.65 
   3  -8   4   17.35    6.71 
   8  -3   4   24.26    7.16 
   3   8   4    8.27    3.96 
  -8   3   4   -0.14    3.90 
   3  -8   4    5.72    3.68 
  -3   8   4   13.19    5.84 
   8  -3   4   18.48    5.88 
   8   3   4   18.47    6.03 
   8  -3   4   21.70    7.27 
  -3  -8   4   19.28    6.65 
   8   3   4   23.01    7.36 
  -3  -8   4   16.80    6.09 
  -8  -3   4   19.68    7.18 
   3   8   4   17.28    5.82 
   3  -8   4   14.92    7.56 
  -8   4   4  950.10   77.61 
   4  -8   4  808.56   69.77 
   8   4   4  854.05   71.56 
   4  -8   4  840.15   77.64 
   8  -4   4  824.30   72.46 
  -8  -4   4  914.00   76.59 
   8  -4   4  847.50   69.51 
  -4  -8   4  883.41   74.53 
   4  -8   4  850.39   75.15 
   8  -4   4  892.59   75.72 
  -4   8   4  849.66   74.65 
   4   8   4  855.68   72.80 
  -4  -8   4  887.15   74.35 
   4   8   4  867.74   72.20 
   8   4   4  899.21   71.19 
   5  -8   4   26.78    9.43 
   5  -8   4   29.99   10.90 
  -8  -5   4   59.99   12.58 
  -8   5   4   49.54   12.26 
   8  -5   4   31.29    8.86 
   5   8   4   49.37    9.77 
   8  -5   4   61.44   12.70 
   8   5   4   47.06   10.89 
   5  -8   4   54.40    9.06 
   8  -5   4   33.38    9.94 
   8  -5   4   46.96    8.83 
  -5  -8   4   39.47    9.75 
  -5   8   4   58.03   12.02 
   5   8   4   49.17   10.30 
   6   8   4  999.11   75.26 
   8  -6   4  842.64   76.90 
   6  -8   4  845.77   71.87 
   6  -8   4  805.52   78.57 
   8   6   4  908.18   72.71 
   6   8   4  846.46   74.03 
  -8  -6   4  910.59   77.63 
  -6   8   4  896.00   77.12 
   8  -6   4  804.12   72.97 
  -6  -8   4  896.54   76.50 
   6  -8   4  840.73   76.95 
   8  -6   4  902.91   77.95 
  -8   6   4  868.61   77.75 
   7  -8   4   10.73    5.10 
  -8   7   4    1.45    5.65 
   7  -8   4   11.71    7.07 
   8   7   4    7.47    5.34 
   7  -8   4    5.04    6.28 
  -8  -7   4    9.75    5.33 
  -7  -8   4   11.71    5.65 
  -7   8   4   -8.80    3.44 
   8  -7   4    5.44    6.00 
   8  -7   4   -0.62    4.62 
   8  -7   4    7.69    6.37 
   8  -8   4  348.09   36.96 
  -8   8   4  454.00   42.87 
   8  -8   4  442.12   43.48 
  -8  -8   4  401.64   41.40 
   8  -8   4  419.63   42.03 
  -9   0   4    6.35    5.00 
   0  -9   4   -2.50    4.49 
   0  -9   4    1.16    3.50 
   9   0   4    4.78    4.50 
   9   0   4    6.30    4.66 
   0   9   4   -5.16    2.60 
   9   1   4  968.90   82.60 
   9  -1   4 1008.91   84.38 
   9   1   4  984.78   83.78 
   1  -9   4  989.20   89.08 
  -1  -9   4 1050.44   84.28 
   9  -1   4  997.39   82.44 
   1  -9   4  974.70   85.05 
  -9   1   4 1058.70   88.13 
  -1  -9   4 1148.50   89.38 
   9  -1   4 1104.14   87.02 
  -1   9   4 1022.42   85.81 
   1   9   4  933.70   84.55 
  -2   9   4   -3.76    2.75 
   9   2   4   -2.66    4.08 
  -9  -2   4    2.49    4.99 
   9   2   4    6.99    4.71 
   9  -2   4   -2.12    2.81 
   2  -9   4    5.70    4.81 
  -9   2   4    3.75    4.95 
   2  -9   4    2.47    4.63 
  -2  -9   4    7.96    5.51 
   2   9   4    6.78    4.25 
   9  -2   4   -0.83    4.04 
   2   9   4    5.63    3.19 
   9  -2   4   -2.10    4.33 
   9  -3   4  901.99   74.55 
  -3  -9   4  908.69   76.93 
   3   9   4  871.55   74.37 
   9  -3   4  879.56   71.83 
   9   3   4  895.69   73.43 
   3   9   4  927.54   73.96 
   3  -9   4  787.86   75.60 
   9  -3   4  864.24   76.40 
  -9  -3   4  919.47   77.95 
  -3   9   4  874.99   76.10 
   9   3   4  908.61   73.29 
   3  -9   4  827.47   79.04 
  -9   3   4  854.16   77.53 
  -9  -4   4    6.69    5.64 
   4   9   4    2.30    3.63 
  -4  -9   4    4.67    4.33 
   4  -9   4   11.91    6.18 
   9  -4   4    2.87    4.61 
   9  -4   4    0.87    3.19 
   9  -4   4    3.34    5.36 
   9   4   4   14.66    5.72 
   9   4   4    9.23    6.09 
   4   9   4    2.09    3.40 
  -4   9   4    0.29    3.50 
   4  -9   4   -1.27    5.40 
  -9   4   4    1.96    5.66 
   9  -5   4  481.48   45.24 
   5  -9   4  436.54   46.38 
   5  -9   4  481.71   49.39 
   5   9   4  492.70   44.62 
  -5  -9   4  509.21   46.81 
  -9  -5   4  487.18   47.56 
   9  -5   4  412.09   46.16 
   9   5   4  502.63   45.28 
   5   9   4  523.18   45.36 
   9  -5   4  527.22   42.96 
  -5   9   4  534.73   47.80 
  -9   5   4  491.97   48.43 
   6   9   4   -2.32    3.52 
  -6   9   4    1.09    4.03 
  -9   6   4   -0.55    4.21 
   6  -9   4    5.64    4.55 
  -6  -9   4    1.03    4.23 
   6  -9   4    5.88    6.52 
  -9  -6   4    0.27    4.97 
   9  -6   4   -1.43    4.93 
   6  -9   4   -4.37    5.03 
   9   6   4   -3.46    4.99 
   9  -6   4   14.71    7.35 
   9  -6   4    7.43    5.15 
   7  -9   4  720.66   58.00 
   9  -7   4  631.45   62.02 
  -7   9   4  657.33   62.76 
   9  -7   4  597.91   61.49 
   9   7   4  716.35   59.16 
   9  -7   4  630.40   58.66 
  -9   7   4  696.86   63.93 
  -7  -9   4  662.54   61.77 
  -9  -7   4  719.33   63.83 
   7  -9   4  640.60   62.09 
   7  -9   4  736.39   65.84 
  -8  -9   4   27.29    8.99 
   8  -9   4   31.49   11.74 
  -9  -8   4   35.48   11.13 
  -8   9   4   19.71    9.37 
   8  -9   4   22.45    9.21 
   9  -8   4   24.27   10.16 
   8  -9   4   39.68    9.22 
   9  -8   4   19.66    7.98 
  -9   8   4   45.62   12.39 
   9  -8   4   38.31   11.00 
   9  -9   4  186.99   25.75 
  -9  -9   4  316.22   34.20 
   9  -9   4  254.53   31.57 
   9  -9   4  220.58   31.30 
  -9   9   4  227.78   31.65 
   0 -10   4  842.87   74.77 
  10   0   4  880.31   69.93 
   0  10   4  787.48   70.65 
   0 -10   4  802.65   70.32 
 -10   0   4  834.87   73.61 
  10   0   4  811.47   70.41 
 -10   1   4    1.41    4.66 
  10  -1   4    8.45    5.75 
  10   1   4    7.01    6.35 
   1 -10   4   -1.18    4.49 
  10  -1   4    4.82    4.71 
  -1  10   4   10.50    5.80 
 -10  -1   4    6.24    5.46 
   1  10   4   12.47    5.13 
  10   1   4    9.11    4.99 
  -1 -10   4    9.32    6.39 
   1 -10   4   13.33    7.18 
   2 -10   4  585.54   57.31 
   2  10   4  630.33   53.31 
  10  -2   4  598.66   51.27 
  10  -2   4  558.43   53.25 
  -2 -10   4  576.42   55.29 
   2 -10   4  600.72   53.71 
  -2  10   4  551.17   53.07 
  10   2   4  551.43   51.83 
 -10   2   4  631.39   56.20 
  10   2   4  593.90   52.58 
  10  -2   4  574.10   52.88 
 -10  -2   4  601.17   55.56 
 -10  -3   4    4.06    5.00 
  10  -3   4   -3.43    4.82 
   3  10   4   -5.16    3.18 
  -3  10   4    3.66    4.34 
   3 -10   4    1.54    5.98 
  -3 -10   4    2.81    5.62 
   3 -10   4    5.38    5.75 
  10  -3   4    2.76    3.99 
  10  -3   4    7.34    5.96 
  10   3   4    4.38    4.68 
 -10   3   4   11.86    6.25 
  10   3   4   -5.35    4.10 
   3  10   4    1.81    3.79 
  -4  10   4  740.36   66.56 
   4  10   4  774.24   64.89 
  10  -4   4  761.96   67.22 
   4  10   4  792.91   64.40 
 -10  -4   4  715.74   67.77 
   4 -10   4  711.50   66.31 
 -10   4   4  755.30   68.06 
  10   4   4  697.93   63.57 
   4 -10   4  679.34   68.71 
  10  -4   4  800.57   62.48 
  10  -4   4  672.20   63.96 
   5 -10   4    5.04    7.23 
  10   5   4    6.56    6.54 
  -5  10   4    6.46    4.82 
   5  10   4    9.14    5.87 
  10  -5   4   16.01    7.15 
  10  -5   4    3.58    6.20 
 -10   5   4   19.29    7.51 
 -10  -5   4   18.51    7.56 
   5 -10   4   16.85    8.81 
  -5 -10   4    9.10    6.12 
  10  -6   4  327.94   34.83 
 -10   6   4  335.25   38.05 
   6 -10   4  388.58   40.82 
  -6 -10   4  337.31   36.29 
   6 -10   4  348.21   37.36 
  10   6   4  382.21   36.09 
  -6  10   4  371.16   37.43 
  10  -6   4  340.58   37.33 
 -10  -6   4  342.69   37.64 
   7 -10   4   17.60    9.06 
 -10  -7   4   40.64   10.68 
  10  -7   4   20.77    9.40 
 -10   7   4    5.16    6.67 
  -7  10   4   26.75    9.82 
  -7 -10   4   19.30    7.03 
  10  -7   4   25.02    8.66 
  10   7   4    7.03    7.56 
   7 -10   4   10.48    9.57 
 -10   8   4  391.18   43.14 
   8 -10   4  374.20   42.20 
  -8  10   4  436.35   43.82 
  10  -8   4  412.70   39.76 
 -10  -8   4  364.45   42.40 
  -8 -10   4  405.06   42.40 
  10  -8   4  446.80   43.56 
   8 -10   4  435.43   45.08 
  10  -9   4    3.30    7.17 
   9 -10   4    8.03    8.34 
  10  -9   4    1.73    6.34 
  10 -10   4  327.87   39.50 
   0  11   4   -3.33    3.24 
 -11   0   4    9.44    4.52 
   0 -11   4   -2.66    4.67 
  11   0   4   -1.27    3.20 
  11   0   4   -0.49    4.55 
   1 -11   4  523.39   50.15 
 -11  -1   4  490.88   47.38 
  -1  11   4  473.02   45.52 
  11  -1   4  447.65   43.75 
   1 -11   4  473.27   44.35 
  11   1   4  470.68   45.17 
  -1 -11   4  526.34   49.02 
  11   1   4  448.78   44.23 
 -11   1   4  430.08   46.11 
  11  -1   4  496.74   45.88 
   1  11   4  504.65   45.32 
 -11   2   4    5.01    5.33 
 -11  -2   4    1.03    5.15 
  11   2   4    1.16    5.55 
  -2  11   4    5.53    5.13 
  11  -2   4    5.12    4.70 
   2 -11   4   15.89    6.85 
  11  -2   4   10.11    6.93 
  -2 -11   4   13.85    7.32 
   2  11   4    6.98    4.73 
   2 -11   4    4.27    6.52 
  11   2   4    3.90    5.68 
 -11   3   4  447.05   45.07 
  11  -3   4  445.02   43.41 
  -3 -11   4  436.77   44.00 
   3  11   4  425.53   41.81 
  11  -3   4  466.82   43.28 
   3 -11   4  373.38   45.00 
  11   3   4  505.01   42.79 
   3 -11   4  415.78   42.60 
  11   3   4  444.95   42.53 
 -11  -3   4  434.84   44.29 
  -3  11   4  428.97   42.88 
  11  -3   4  432.44   40.62 
 -11  -4   4   -0.36    5.21 
   4 -11   4    0.97    5.52 
   4  11   4    6.17    4.61 
   4 -11   4   -3.60    5.69 
  -4  11   4    4.67    4.65 
  11   4   4   -0.05    5.46 
  11  -4   4    4.72    4.17 
  11  -4   4   -4.01    5.27 
 -11   4   4    4.93    5.57 
  11  -4   4    8.33    6.71 
   5  11   4  651.52   53.94 
  11  -5   4  626.40   56.36 
  -5  11   4  535.24   54.42 
   5 -11   4  547.88   54.62 
 -11  -5   4  538.15   55.38 
  11   5   4  588.89   53.68 
 -11   5   4  554.32   55.49 
   5 -11   4  538.18   57.34 
  11  -5   4  589.23   53.67 
  -6  11   4   39.87   10.65 
  11  -6   4   28.70    9.86 
 -11  -6   4   40.90   12.67 
   6 -11   4   32.94   11.22 
 -11   6   4   47.96   12.64 
  11  -6   4   41.70   12.07 
  11   6   4   26.32   10.16 
   6 -11   4   47.26   14.49 
   7 -11   4  241.83   32.59 
  11   7   4  288.24   32.76 
  11  -7   4  240.42   32.96 
  11  -7   4  288.23   30.04 
  11  -8   4    5.64    7.05 
  11  -8   4    5.68    6.44 
   8 -11   4   -0.16    6.87 
   9 -11   4  204.98   29.22 
  11  -9   4  177.44   25.10 
  11  -9   4  179.80   28.02 
   0  12   4  384.40   37.34 
   0 -12   4  338.65   41.53 
 -12   0   4  334.92   37.69 
  12   0   4  357.86   37.19 
  12   0   4  379.23   36.86 
   1  12   4    8.85    5.45 
  12  -1   4    8.77    7.35 
   1 -12   4   12.64    9.09 
 -12  -1   4   15.07    8.82 
 -12   1   4    3.04    5.40 
  12   1   4    8.43    7.21 
  -1  12   4    8.11    5.55 
  12   1   4   11.87    6.68 
  -1 -12   4   11.54    7.37 
  12  -1   4    3.15    5.89 
  -2  12   4  527.20   50.54 
   2  12   4  569.90   50.80 
  12  -2   4  511.70   50.42 
 -12   2   4  532.67   52.24 
   2 -12   4  558.72   55.34 
   2 -12   4  496.45   49.58 
  12   2   4  578.91   51.28 
  12   2   4  502.92   49.88 
 -12  -2   4  543.42   52.78 
  12  -2   4  563.36   49.38 
  -2 -12   4  506.57   52.42 
 -12   3   4    0.51    4.83 
   3 -12   4    6.38    6.65 
   3 -12   4   10.86    6.39 
   3  12   4   -0.54    4.67 
  12   3   4    0.41    6.51 
  12   3   4    0.16    5.56 
  -3  12   4   -2.29    4.24 
  12  -3   4    1.45    5.86 
 -12  -3   4    4.22    7.15 
  12  -3   4    5.86    5.20 
  -4  12   4  319.88   33.94 
 -12   4   4  286.35   36.81 
  12  -4   4  336.29   32.02 
   4  12   4  300.00   32.39 
  12   4   4  331.64   36.40 
 -12  -4   4  289.97   36.93 
   4 -12   4  232.34   37.03 
  12  -4   4  314.34   33.65 
   4 -12   4  312.21   33.69 
  12  -5   4   13.17    7.99 
  12  -5   4   10.09    6.87 
   5 -12   4    8.02    7.15 
  12  -6   4  326.18   35.16 
   6 -12   4  297.49   37.32 
  12  -6   4  373.69   38.06 
  12  -7   4    5.89    7.08 
  12  -7   4    8.07    6.97 
   7 -12   4    4.44    7.00 
   0 -13   4    1.49    6.76 
  13   0   4   -8.10    5.61 
   0  13   4    6.98    5.35 
  -1 -13   4  437.08   45.05 
  -1  13   4  420.54   41.53 
   1  13   4  405.78   41.05 
  13  -1   4  391.38   41.81 
  13   1   4  401.11   41.64 
  13   2   4    0.71    6.79 
  13  -2   4   -1.98    6.10 
  -2 -13   4   -1.57    6.82 
   2  13   4    0.00    4.21 
   3  13   4  341.94   34.72 
   3 -13   4  300.92   33.64 
  13  -3   4  328.84   37.75 
   4 -13   4    4.06    7.27 
  13  -4   4    3.59    7.34 
   5 -13   4  174.88   24.83 
  13  -5   4  139.62   23.38 
  13  -6   4   -0.26    7.14 
   6 -13   4    2.40    6.76 
  13  -6   4   11.11    7.43 
  14   0   4  295.76   36.13 
  14  -1   4    8.90    8.01 
  14   1   4    6.47    7.45 
  14   2   4  152.56   24.53 
  14  -2   4  195.77   27.74 
  14  -3   4   12.86    8.03 
   0   0   5   -0.29    2.16 
   0   0   5   -2.39    2.02 
   0   0   5    4.20    1.30 
  -1   0   5 1899.91  132.41 
   0   1   5 1517.59  131.40 
   1   0   5 1942.00  132.45 
   1   0   5 1973.55  134.97 
   0  -1   5 1427.78  131.14 
  -1   0   5 1847.38  139.13 
  -1   0   5 1923.96  136.69 
   0   1   5 1609.48  135.85 
   1   0   5 1932.05  139.41 
   0  -1   5 1684.57  135.65 
   0  -1   5 1492.91  138.34 
   1  -1   5   53.97    8.66 
  -1  -1   5   58.90    6.90 
  -1   1   5   67.00    9.40 
   1  -1   5   66.83    9.66 
  -1  -1   5   81.00   10.02 
   1  -1   5   48.46    8.50 
   1   1   5   66.13    9.69 
  -1   1   5   71.67    7.60 
  -1  -1   5   64.16    9.66 
   1   1   5   54.68    8.86 
   2   0   5   -4.18    2.00 
   2   0   5   -2.49    2.21 
  -2   0   5    0.72    2.25 
   0  -2   5   -4.33    1.58 
   0   2   5    0.43    1.83 
   2   0   5   -0.84    2.37 
   0  -2   5   -2.85    2.22 
   0  -2   5   -1.44    1.22 
  -2   0   5   -0.37    2.85 
   0   2   5   -0.19    2.72 
   2  -1   5 1345.79  108.23 
   1   2   5 1500.42  108.49 
  -1   2   5 1492.61  112.87 
   2   1   5 1408.23  110.28 
   1  -2   5 1437.95  114.33 
   2   1   5 1355.89  108.26 
  -1  -2   5 1543.47  112.02 
   2   1   5 1320.88  113.64 
   2  -1   5 1279.16  113.88 
  -2  -1   5 1334.10  113.65 
  -2   1   5 1285.04  112.85 
  -2  -1   5 1384.56  108.75 
  -1  -2   5 1389.43  108.42 
  -2  -1   5 1346.49  112.28 
  -1   2   5 1481.70  108.40 
   1  -2   5 1498.64  108.46 
   2  -1   5 1305.02  110.09 
  -1  -2   5 1471.52  114.07 
   1   2   5 1620.69  111.12 
   1  -2   5 1550.15  110.87 
  -2   1   5 1381.77  108.52 
  -2   2   5 1276.99   95.29 
  -2  -2   5 1164.06   99.47 
   2   2   5 1307.44   97.06 
  -2  -2   5 1244.99   95.52 
  -2   2   5 1269.11   99.79 
  -2  -2   5 1190.48   98.44 
   2  -2   5 1224.09   94.96 
   2  -2   5 1178.81   96.75 
   2   2   5 1253.69   96.48 
   2   2   5 1166.69   99.76 
   2  -2   5 1191.28  100.28 
   2   2   5 1377.80   96.27 
   2   2   5 1172.57   94.84 
   0  -3   5 1686.72  125.00 
   0  -3   5 1653.52  117.47 
  -3   0   5 1304.75  122.45 
  -3   0   5 1343.79  117.51 
   0  -3   5 1723.75  121.54 
   3   0   5 1348.97  119.19 
   0  -3   5 1787.33  124.34 
   0   3   5 1722.65  121.76 
   3   0   5 1287.68  116.79 
   3   0   5 1372.53  123.24 
   0   3   5 1751.58  117.57 
   1   3   5  713.14   51.85 
  -1  -3   5  667.72   51.83 
   3  -1   5  612.16   53.63 
   1  -3   5  638.88   51.61 
  -1   3   5  689.22   52.39 
  -1  -3   5  607.50   52.91 
   1  -3   5  626.56   53.49 
   3   1   5  615.26   53.11 
   1   3   5  648.37   50.57 
  -3   1   5  627.34   51.24 
   3  -1   5  627.76   51.58 
   3   1   5  599.52   50.70 
  -3   1   5  647.34   53.49 
  -3  -1   5  613.26   52.62 
  -3  -1   5  617.56   51.37 
   1   3   5  673.47   50.85 
   3   1   5  608.43   51.18 
   1  -3   5  632.29   50.42 
   1  -3   5  580.35   54.80 
   3  -1   5  542.16   50.19 
  -1  -3   5  590.02   50.42 
  -1   3   5  644.43   50.43 
   3  -2   5 1074.24   79.54 
   2   3   5 1016.81   80.41 
  -3   2   5 1041.52   79.86 
  -2  -3   5 1000.26   79.72 
   2  -3   5  934.69   80.62 
   2   3   5 1066.85   81.27 
   3   2   5 1047.36   80.46 
   3  -2   5 1075.74   81.24 
   2  -3   5  950.38   83.87 
   2  -3   5  994.63   79.01 
   3   2   5 1135.38   81.46 
  -3   2   5 1131.91   84.45 
  -2   3   5 1051.54   79.38 
   3   2   5 1019.81   83.32 
  -2  -3   5  956.11   82.91 
  -3  -2   5 1051.74   82.73 
   3  -2   5 1021.66   84.23 
   2   3   5  954.22   78.96 
  -2  -3   5  954.90   81.98 
   2  -3   5  915.41   85.24 
  -2   3   5 1017.57   83.04 
   3   2   5 1037.72   79.62 
  -3  -2   5 1031.55   80.31 
  -3   3   5  135.63   15.04 
   3  -3   5  128.54   13.88 
   3   3   5  130.44   14.90 
   3   3   5  144.91   12.29 
   3   3   5  151.96   14.52 
  -3   3   5  136.99   15.08 
  -3  -3   5  127.81   15.53 
   3  -3   5  141.63   15.51 
   3  -3   5  129.81   14.38 
  -3  -3   5  121.23   13.96 
   3   3   5  129.98   13.84 
  -3  -3   5  111.14   14.30 
   0  -4   5    1.01    2.36 
   0   4   5    2.10    2.22 
  -4   0   5   -0.56    2.37 
   4   0   5   -4.08    2.21 
   0  -4   5    0.39    2.16 
  -4   0   5    1.17    2.56 
   0   4   5   -2.10    2.21 
   4   0   5    2.50    2.94 
   0  -4   5   -2.24    2.38 
   4   0   5    0.99    2.65 
   4   1   5 1511.09   98.40 
   4   1   5 1420.88  102.35 
  -1  -4   5 1175.07  102.40 
   1   4   5 1103.87   95.85 
  -1  -4   5 1115.90   96.22 
   1  -4   5 1050.13  102.88 
  -4  -1   5 1463.70   99.02 
  -4  -1   5 1499.75  102.84 
   4  -1   5 1359.57   97.43 
  -4   1   5 1448.76   98.48 
  -4   1   5 1402.34  103.15 
  -1   4   5 1115.27   95.69 
  -1  -4   5 1135.15  101.20 
   1   4   5 1156.64   99.43 
   4  -1   5 1510.43  103.48 
   1  -4   5 1156.25   95.98 
   1  -4   5 1098.62   98.08 
  -1   4   5 1089.91  100.11 
   4  -1   5 1476.58  100.02 
   1  -4   5 1115.23  101.73 
   4   1   5 1433.48   99.27 
  -1  -4   5 1147.81  100.13 
  -2  -4   5    5.55    3.22 
  -4   2   5   -0.71    2.70 
   4  -2   5    5.84    3.58 
   2  -4   5    2.41    2.92 
   2   4   5    4.73    3.32 
  -4  -2   5    5.81    4.04 
  -2  -4   5    2.98    2.66 
   4   2   5    1.77    2.87 
  -2   4   5   -0.88    2.73 
  -2   4   5    2.14    2.34 
  -2  -4   5    9.15    4.25 
   2  -4   5    2.70    2.80 
  -4  -2   5   -3.29    1.91 
   2   4   5    5.43    2.33 
  -2  -4   5   -3.77    2.02 
   4   2   5    5.17    3.24 
   2  -4   5   -2.16    3.41 
   4  -2   5   -3.37    2.03 
   2  -4   5    3.88    2.83 
   4  -2   5    4.46    3.84 
  -4   2   5    5.53    3.87 
   4   2   5   -2.32    2.42 
   2   4   5    6.37    3.86 
   3   4   5 1088.65   83.96 
   3  -4   5 1120.03   82.09 
   3  -4   5 1053.21   90.02 
   3   4   5 1157.44   84.82 
   3  -4   5 1042.91   83.88 
  -4   3   5 1010.23   82.38 
   4   3   5 1054.09   83.21 
  -4   3   5  987.37   87.40 
   4  -3   5  993.75   81.76 
   3  -4   5 1072.29   87.57 
  -4  -3   5 1010.40   83.38 
  -3  -4   5 1085.09   85.96 
   3   4   5 1061.67   82.12 
   4  -3   5  940.41   83.90 
  -3  -4   5 1126.78   83.37 
   3   4   5 1103.84   82.95 
  -4  -3   5 1006.36   86.34 
  -3   4   5 1100.21   87.16 
  -3  -4   5 1070.29   86.12 
  -3  -4   5 1109.31   85.97 
  -3   4   5 1058.97   81.95 
   4   3   5 1049.27   82.75 
   4  -3   5  940.32   87.01 
  -4  -4   5    7.95    4.46 
  -4   4   5   13.16    4.88 
   4  -4   5    7.94    3.85 
   4  -4   5   10.49    3.84 
   4  -4   5   20.86    8.09 
   4   4   5   11.21    4.88 
   4  -4   5    8.02    4.73 
   4   4   5   28.26    5.75 
  -4   4   5   11.54    4.99 
   0   5   5 1311.16   94.95 
   0  -5   5 1228.29   95.97 
   0   5   5 1340.41   90.72 
   5   0   5 1105.99   93.22 
  -5   0   5 1019.41   96.12 
   5   0   5 1020.14   95.70 
   0  -5   5 1263.87   90.77 
   5   0   5  994.51   91.12 
   0  -5   5 1314.47   99.11 
   1  -5   5  481.70   38.42 
   1   5   5  443.57   38.49 
  -5  -1   5  441.49   40.49 
   5   1   5  436.23   38.45 
   1   5   5  463.65   37.14 
   5  -1   5  503.06   39.83 
   1  -5   5  433.79   42.63 
   1   5   5  520.99   38.74 
  -1  -5   5  440.18   37.40 
   5  -1   5  433.55   40.38 
   5   1   5  382.86   38.75 
  -1  -5   5  420.30   38.61 
   1  -5   5  464.13   37.10 
  -1  -5   5  388.51   40.66 
   1  -5   5  438.55   39.81 
  -1   5   5  470.30   36.95 
  -5   1   5  450.36   41.20 
   5   1   5  463.65   38.93 
   5  -1   5  424.44   38.00 
  -1  -5   5  440.77   39.25 
  -1   5   5  469.40   39.25 
   2   5   5 1156.50   78.83 
   5   2   5  821.89   75.87 
   5  -2   5  842.27   77.52 
   5   2   5  839.98   76.61 
  -5  -2   5  790.93   79.38 
   2  -5   5 1006.41   80.64 
  -2  -5   5 1038.94   79.16 
   2  -5   5 1007.81   83.76 
  -2   5   5  987.07   79.47 
   2  -5   5 1103.07   75.48 
   2  -5   5 1049.10   77.38 
  -2   5   5 1041.32   75.13 
   5   2   5  888.81   79.07 
   5  -2   5  840.31   75.38 
   5  -2   5  764.18   79.56 
  -5   2   5  819.27   80.37 
  -2  -5   5 1078.92   81.30 
  -2  -5   5 1082.41   79.55 
  -2  -5   5 1030.70   76.15 
   2   5   5 1043.58   75.53 
   2   5   5 1066.19   78.13 
   5  -3   5   69.20   10.88 
   5   3   5   71.00   10.78 
  -3  -5   5   81.28   12.23 
   3  -5   5   82.24   10.78 
   3  -5   5   88.20   11.95 
  -3   5   5   93.10   12.65 
   3   5   5   84.27   11.25 
   5   3   5   99.34   12.38 
  -5   3   5   74.18   13.26 
  -5  -3   5   83.28   12.89 
   3  -5   5   93.61   16.73 
  -3  -5   5   94.12   11.48 
   3   5   5   80.15    9.93 
   5  -3   5   68.26   12.52 
   5   3   5   87.06   12.95 
  -3   5   5   88.54   11.23 
   5  -3   5   74.91   12.27 
  -3  -5   5   91.54   12.53 
   3   5   5   92.36   12.32 
   3  -5   5   81.96   13.39 
  -3  -5   5   70.24   11.44 
  -4  -5   5  977.35   88.01 
   4   5   5  972.11   83.54 
  -4  -5   5 1085.16   87.08 
   4  -5   5  905.00   88.74 
  -4   5   5 1053.92   89.27 
   4  -5   5 1030.48   91.78 
  -4  -5   5 1122.34   87.46 
  -4   5   5 1029.95   83.28 
   4  -5   5 1005.88   83.00 
   4  -5   5 1032.10   85.85 
   5  -4   5 1382.93   84.81 
   5  -4   5 1448.70   95.45 
  -5  -5   5   62.42   11.49 
   5  -5   5   71.21   11.78 
   5  -5   5   86.86   11.30 
   5  -5   5   72.78   15.14 
   5   5   5   83.78   12.44 
   5  -5   5   67.72   12.77 
  -5   5   5   86.95   14.04 
   0   6   5    3.11    2.76 
   0   6   5   -3.65    2.22 
   6   0   5   -0.25    3.02 
   0  -6   5   -1.57    4.47 
   0  -6   5   -0.30    2.64 
   6   0   5   12.00    5.05 
   0  -6   5    1.27    2.64 
  -6   0   5   -2.38    3.45 
   6   0   5    4.14    3.68 
   1  -6   5  784.02   69.05 
   6   1   5  854.37   64.11 
   6  -1   5  844.91   67.09 
   1   6   5  747.34   64.13 
  -6  -1   5  854.17   67.65 
  -1   6   5  729.25   60.63 
   6   1   5  878.27   64.80 
   6  -1   5  924.05   64.28 
   1  -6   5  731.49   62.76 
   6  -1   5  898.86   65.70 
  -1   6   5  709.38   64.64 
   1  -6   5  671.92   65.12 
  -1  -6   5  677.08   66.77 
  -1  -6   5  724.35   61.47 
   1  -6   5  713.41   60.86 
  -6   1   5  898.59   68.84 
  -1  -6   5  679.91   64.45 
   1   6   5  753.10   61.06 
   6   1   5  924.36   66.57 
  -2   6   5  608.54   47.21 
   6   2   5  621.53   50.05 
   2   6   5  577.86   47.52 
  -2  -6   5  552.40   49.90 
   2   6   5  630.15   50.61 
   2   6   5  627.53   49.93 
  -2   6   5  611.55   51.12 
  -2  -6   5  565.38   50.61 
   6   2   5  616.77   50.83 
   6  -2   5  568.44   50.54 
  -6   2   5  573.13   52.84 
   2  -6   5  598.31   49.09 
   6  -2   5  565.10   51.93 
   2  -6   5  583.77   47.29 
   2  -6   5  547.97   54.23 
   2  -6   5  562.00   51.68 
  -2  -6   5  577.50   52.41 
  -6  -2   5  600.15   52.48 
   6  -2   5  598.35   49.15 
   6   2   5  575.31   49.57 
  -2  -6   5  590.64   48.47 
   3  -6   5  943.56   63.57 
  -6   3   5  691.75   68.69 
   6  -3   5  654.46   67.78 
   3  -6   5  883.22   72.37 
   6  -3   5  641.54   63.10 
   6   3   5  639.57   63.97 
   6   3   5  642.94   64.15 
   3   6   5  967.43   66.45 
  -3   6   5  904.37   68.60 
  -3  -6   5  930.04   66.69 
   3  -6   5  868.34   65.24 
   3  -6   5  815.54   68.61 
   6  -3   5  662.44   65.55 
  -3  -6   5  922.07   68.72 
   3   6   5  899.50   63.96 
  -6  -3   5  671.71   67.36 
  -3  -6   5  880.46   67.81 
   4  -6   5   36.43    7.87 
  -6  -4   5   36.64    9.11 
   4  -6   5   34.78   10.66 
   4  -6   5   54.17    8.42 
   6   4   5   47.21    9.83 
  -4  -6   5   48.61    9.72 
  -4  -6   5   63.57   10.22 
   6  -4   5   41.64    8.10 
   6  -4   5   52.27   10.32 
   4   6   5   50.47    9.11 
   6   4   5   53.89    9.01 
   6  -4   5   35.67    9.42 
  -4   6   5   35.72    8.69 
   4  -6   5   49.51   10.58 
  -6   4   5   43.68   10.47 
   6  -5   5  518.45   44.88 
   6   5   5  553.05   46.95 
   5   6   5  602.17   46.63 
  -6   5   5  543.45   50.17 
  -5   6   5  549.06   50.07 
   5  -6   5  554.95   52.68 
   6  -5   5  493.81   49.34 
   5  -6   5  525.60   49.82 
   5  -6   5  589.10   45.25 
  -6  -5   5  537.59   49.22 
   5  -6   5  530.52   46.95 
   6  -5   5  512.43   47.29 
   6  -5   5  614.91   53.22 
  -5  -6   5  529.70   48.82 
   6  -6   5   32.82   10.08 
  -6   6   5   53.92   10.99 
   6  -6   5   35.65    8.25 
   6   6   5   34.29    8.62 
   6  -6   5   22.56    8.77 
  -6  -6   5   31.96    8.99 
   0  -7   5  604.57   48.86 
  -7   0   5  621.56   54.94 
   7   0   5  528.15   52.58 
   0  -7   5  639.40   56.32 
   0   7   5  686.18   53.04 
   7   0   5  579.40   51.99 
   0  -7   5  629.67   52.78 
   7   0   5  577.32   51.26 
  -7   1   5   87.78   15.21 
   7   1   5   89.23   13.07 
  -1  -7   5  102.64   16.31 
   7  -1   5   86.14   14.13 
   1  -7   5  108.29   17.80 
   1   7   5   59.40   11.02 
   7   1   5   83.18   13.73 
   7  -1   5  102.42   14.81 
  -1   7   5   90.62   12.77 
   7  -1   5   85.79   13.27 
   1  -7   5   88.99   11.50 
  -7  -1   5   76.39   14.19 
  -1  -7   5   71.23   10.94 
   7   1   5   92.54   13.85 
  -1  -7   5   69.85   11.58 
   1  -7   5   78.30   12.88 
   7   2   5  787.26   58.68 
   2  -7   5  613.67   62.23 
   7  -2   5  778.64   59.60 
   7  -2   5  783.97   57.67 
  -7   2   5  767.89   61.94 
  -2  -7   5  629.04   58.58 
   2  -7   5  603.32   59.23 
  -2  -7   5  591.20   59.88 
  -7  -2   5  745.19   61.39 
   2  -7   5  646.77   56.20 
  -2  -7   5  606.99   57.37 
  -2   7   5  648.27   59.06 
   7   2   5  759.31   58.25 
   7  -2   5  775.99   61.18 
   2   7   5  659.52   57.72 
   3   7   5   50.89    8.70 
   7  -3   5   26.03    7.18 
   7  -3   5   31.51    9.02 
   7   3   5   26.82    8.71 
   7   3   5   54.90    9.77 
  -7  -3   5   28.90    8.78 
   3   7   5   41.40    7.83 
   3  -7   5   33.89    8.88 
   3  -7   5   31.33   10.27 
  -7   3   5   35.13    9.71 
  -3   7   5   38.00    8.89 
  -3  -7   5   64.13   11.60 
  -3  -7   5   42.62    8.95 
   7  -3   5   41.22    9.55 
   3  -7   5   38.11    7.73 
   4  -7   5  561.68   43.86 
   7  -4   5  472.10   42.48 
   7  -4   5  432.23   45.94 
  -4   7   5  597.38   47.28 
   4   7   5  575.33   42.92 
   4  -7   5  564.39   50.67 
   4  -7   5  546.98   47.37 
  -7  -4   5  450.63   46.38 
   7  -4   5  414.44   44.00 
   7   4   5  418.75   43.46 
  -4  -7   5  657.42   47.56 
   7   4   5  499.96   43.52 
  -7   4   5  420.85   46.46 
   7  -5   5   14.95    6.30 
  -7   5   5   15.24    6.24 
  -5   7   5   15.27    6.06 
   7  -5   5   17.78    7.18 
   5   7   5    6.00    4.22 
   5  -7   5    5.28    3.88 
   5  -7   5   -2.01    4.81 
   5  -7   5   -0.03    5.68 
   7  -5   5    9.07    4.22 
  -5  -7   5    5.14    4.74 
   7   5   5    4.16    4.71 
   7  -5   5    0.62    5.12 
  -7  -5   5   12.52    6.02 
   6  -7   5  422.68   38.78 
  -7  -6   5  317.79   35.85 
  -6  -7   5  416.97   37.21 
   6   7   5  489.12   35.61 
   7  -6   5  308.08   37.31 
   6  -7   5  442.70   41.17 
  -6   7   5  413.93   38.13 
   7  -6   5  280.82   35.80 
   6  -7   5  401.80   34.70 
  -7   6   5  351.25   37.12 
   7   6   5  336.92   34.07 
   7  -6   5  299.34   33.81 
  -7   7   5   74.70   14.93 
   7  -7   5   86.85   16.48 
   7   7   5  108.06   15.61 
   7  -7   5  104.66   18.70 
  -7  -7   5   79.06   15.24 
   7  -7   5   68.47   13.15 
   0  -8   5    1.73    4.21 
   0  -8   5   -0.06    3.78 
   0   8   5   -0.87    3.05 
   8   0   5    8.61    4.54 
   8   0   5   14.75    6.32 
   8   0   5    0.85    3.96 
  -8   0   5    2.29    4.25 
  -8   1   5  556.35   55.02 
  -8  -1   5  497.74   54.30 
   1  -8   5  707.38   54.81 
  -1   8   5  707.03   54.48 
   8   1   5  553.43   52.12 
  -1  -8   5  698.16   57.52 
  -1  -8   5  668.95   53.05 
   1   8   5  722.34   53.94 
   1  -8   5  737.66   59.36 
   8  -1   5  569.27   54.19 
   8   1   5  520.05   51.98 
   8  -1   5  528.19   52.75 
   8  -1   5  523.63   51.29 
   8  -2   5    3.39    5.41 
   8  -2   5   16.61    6.82 
  -2  -8   5   10.04    3.88 
  -2   8   5   13.00    5.73 
   2   8   5    3.78    3.88 
   2  -8   5    7.70    7.17 
  -8   2   5   10.23    6.62 
   8   2   5    9.12    4.99 
  -2  -8   5    2.69    5.05 
   2  -8   5   11.59    3.75 
   8   2   5    9.73    5.81 
   8  -2   5   15.28    5.43 
   2  -8   5    2.59    4.28 
  -8  -2   5    8.12    5.53 
   8  -3   5  519.22   46.45 
  -3  -8   5  426.50   44.76 
   3  -8   5  374.75   46.69 
   8  -3   5  553.13   45.61 
   8  -3   5  566.75   43.54 
   3   8   5  465.40   43.17 
  -8  -3   5  524.23   46.90 
  -3   8   5  413.66   43.95 
  -8   3   5  571.68   48.16 
   3  -8   5  470.81   41.65 
   8   3   5  605.03   44.67 
   8   3   5  647.74   46.43 
   3  -8   5  401.53   44.42 
  -3  -8   5  414.70   43.73 
   8  -4   5   57.80   12.25 
   4  -8   5   82.83   14.64 
   4  -8   5   71.88   15.70 
  -8  -4   5   76.50   14.55 
   8   4   5   69.89   13.05 
  -8   4   5   68.51   14.11 
  -4   8   5   80.02   14.01 
   4  -8   5   65.16   10.70 
   8  -4   5   53.38   12.62 
   8   4   5   86.07   12.74 
   8  -4   5   63.43   11.15 
  -4  -8   5   32.98    9.85 
   5  -8   5  412.82   37.18 
  -8   5   5  572.36   44.83 
   5  -8   5  365.93   42.33 
   5  -8   5  390.03   41.23 
  -5  -8   5  416.81   40.11 
  -5   8   5  384.72   40.01 
   8  -6   5   34.35    9.76 
   6  -8   5   15.20    8.39 
   6  -8   5   45.04    9.62 
   8  -6   5   34.74   10.21 
  -8   6   5   48.26   11.71 
   8   6   5   51.71   11.06 
  -8  -6   5   27.87    9.79 
  -6   8   5   39.28   11.33 
  -6  -8   5   51.31   11.34 
   6  -8   5   59.66   13.72 
   8  -6   5   32.29   10.62 
   7  -8   5  373.60   39.30 
  -8  -7   5  333.18   36.71 
  -7  -8   5  406.82   37.58 
  -8   7   5  292.01   36.00 
  -7   8   5  452.45   39.21 
   7  -8   5  400.81   34.62 
   8  -7   5  313.99   33.79 
   8   7   5  326.07   33.80 
   8  -7   5  286.90   37.68 
   7  -8   5  444.72   39.82 
   8  -7   5  308.75   36.80 
   8  -8   5   -1.66    4.31 
  -8   8   5   12.73    6.10 
   8  -8   5   -3.27    4.51 
  -8  -8   5   -1.02    4.84 
   8  -8   5    6.74    6.87 
   0   9   5  584.39   50.79 
   0  -9   5  553.18   53.98 
   0  -9   5  553.52   50.00 
   9  -1   5   51.01   10.96 
   9   1   5   69.38   12.54 
  -1   9   5   59.75   11.27 
  -1  -9   5   60.18   13.96 
   9  -1   5   74.26   13.35 
   9   1   5   58.42   12.00 
  -9   1   5   45.12   11.42 
  -9  -1   5   45.73   11.10 
   1  -9   5   43.54   10.37 
   1  -9   5   36.92   11.47 
   9  -1   5   67.44   13.18 
   1   9   5   52.12   10.54 
  -1  -9   5   49.58    9.72 
  -9  -2   5  336.13   40.18 
   2   9   5  497.10   39.92 
   9   2   5  457.74   40.02 
  -9   2   5  384.76   41.59 
  -2   9   5  476.18   41.04 
   9   2   5  365.49   39.02 
   9  -2   5  397.18   40.03 
   2  -9   5  445.35   44.46 
   2  -9   5  426.28   40.57 
   9  -2   5  469.39   41.93 
  -2  -9   5  403.76   41.78 
   9  -2   5  409.63   38.56 
   9   3   5    7.31    5.13 
  -3  -9   5    5.58    6.23 
   9  -3   5    7.81    5.95 
  -9   3   5   -1.45    4.00 
   9  -3   5   -3.72    4.68 
   3   9   5    5.15    4.18 
  -9  -3   5    3.64    4.14 
   3  -9   5    2.01    5.13 
   9  -3   5    2.64    4.12 
   3  -9   5   -0.55    4.15 
   9   3   5    8.45    5.43 
  -3   9   5   -3.49    3.35 
   9  -4   5  339.80   36.22 
  -9   4   5  354.20   37.94 
   9  -4   5  351.77   34.00 
  -9  -4   5  389.60   38.88 
   4  -9   5  502.32   44.49 
   9  -4   5  366.58   37.86 
   9   4   5  361.82   36.14 
   9  -5   5   22.87    8.03 
  -5   9   5   18.67    6.64 
  -9  -5   5    4.19    4.95 
   9   5   5   17.68    7.45 
   9  -5   5   13.97    7.24 
   5  -9   5   13.51    5.18 
   5  -9   5   11.45    8.16 
   9  -5   5   16.12    5.27 
   5  -9   5   13.59    8.35 
  -5  -9   5    8.25    5.14 
  -9   5   5   13.50    6.37 
  -6   9   5  302.76   30.96 
   9   6   5  263.31   30.01 
   9  -6   5  241.99   29.28 
   9  -6   5  234.53   31.28 
   6  -9   5  281.65   32.68 
   6  -9   5  286.71   35.68 
  -6  -9   5  246.39   29.97 
   6  -9   5  248.14   26.27 
  -9  -6   5  284.06   32.70 
  -9   6   5  257.14   32.39 
  -9   7   5    1.96    4.28 
   9  -7   5    3.70    5.63 
  -7  -9   5    6.58    5.51 
   9   7   5    1.53    5.42 
   9  -7   5    5.18    5.71 
   7  -9   5    8.11    5.82 
   7  -9   5    6.45    6.74 
   7  -9   5    4.10    6.85 
  -7   9   5    3.75    5.40 
  -9  -7   5    6.03    5.90 
   9  -7   5   12.53    8.61 
  -8  -9   5  117.48   22.75 
   8  -9   5  150.27   26.61 
   9  -8   5  288.60   31.09 
  -9   8   5  244.04   29.81 
   9  -8   5  261.09   29.91 
  -9  -8   5  244.60   29.11 
  -8   9   5  142.95   25.04 
   8  -9   5  160.28   26.19 
   8  -9   5  132.16   21.01 
   9  -8   5  213.01   24.44 
   9  -9   5   -3.45    6.48 
   9  -9   5   15.34    8.63 
   9  -9   5   -0.44    4.70 
   0 -10   5    6.10    4.78 
  10   0   5   -3.51    4.60 
  10   0   5   -1.11    3.93 
   0  10   5    0.22    4.06 
 -10   0   5    3.63    4.86 
   0 -10   5    5.66    6.29 
   1 -10   5  372.79   33.80 
  10  -1   5  273.33   34.20 
  10   1   5  285.64   32.55 
  10   1   5  277.86   33.74 
  -1  10   5  415.90   34.74 
  -1 -10   5  399.23   37.57 
  10  -1   5  309.20   32.36 
   1 -10   5  403.16   38.72 
 -10   1   5  262.91   34.73 
   1  10   5  379.73   33.16 
 -10  -1   5  257.43   34.84 
  10  -2   5   44.76   11.52 
  -2  10   5   51.81   11.11 
  10  -2   5   59.45   12.53 
  10   2   5   42.06   11.27 
  -2 -10   5   41.68   11.68 
   2 -10   5   46.91   11.54 
 -10  -2   5   56.16   12.91 
   2  10   5   46.22   10.01 
  10   2   5   44.73   11.78 
 -10   2   5   39.36   11.26 
  10  -2   5   53.08   10.92 
   2 -10   5   57.64   14.21 
 -10  -3   5  375.48   36.86 
 -10   3   5  357.21   36.59 
  10  -3   5  359.67   35.43 
  10   3   5  423.97   36.66 
   3 -10   5  222.71   33.32 
  10  -3   5  410.04   37.22 
  -3  10   5  300.89   33.83 
  10   3   5  395.82   34.75 
  10  -3   5  390.40   33.61 
   3 -10   5  244.70   37.90 
  -3 -10   5  282.19   34.22 
  10  -4   5   11.51    7.64 
  10   4   5   18.97    8.90 
  10  -4   5   22.07    7.17 
  10  -4   5   25.75    9.38 
 -10   4   5   28.26    9.34 
   4 -10   5   17.80    9.35 
  -4  10   5   25.91    8.08 
   4 -10   5    9.07    7.02 
 -10  -4   5   16.47    7.10 
  10  -5   5  190.39   28.28 
  10  -5   5  265.73   29.12 
 -10   5   5  258.27   30.64 
 -10  -5   5  216.07   29.41 
  -5 -10   5  264.82   29.61 
  -5  10   5  219.58   28.08 
   5 -10   5  187.14   27.82 
  10   5   5  222.66   28.10 
   5 -10   5  241.15   33.83 
  -6 -10   5   40.20   10.68 
   6 -10   5   45.41   13.25 
  10  -6   5   34.87   10.72 
 -10   6   5   37.87   11.26 
  10   6   5   44.19   12.06 
   6 -10   5   32.68   12.17 
  10  -6   5   39.52   11.37 
 -10  -6   5   28.32    9.50 
  -6  10   5   54.36   11.96 
 -10   7   5  162.90   26.82 
  10  -7   5  204.76   25.21 
 -10  -7   5  186.16   27.52 
  -7  10   5  187.56   26.94 
   7 -10   5  186.01   29.62 
  10   7   5  201.10   25.65 
   7 -10   5  154.45   25.62 
  -7 -10   5  167.11   25.47 
  10  -7   5  143.05   24.69 
   8 -10   5    8.48    8.21 
  10  -8   5    7.88    8.01 
  10  -8   5    5.70    6.37 
  10  -9   5  111.82   18.88 
   9 -10   5  162.84   24.93 
  10  -9   5  133.35   23.24 
 -11   0   5  190.03   28.29 
  11   0   5  180.20   27.62 
   0 -11   5  288.15   34.01 
   0  11   5  316.56   28.27 
  11   0   5  222.62   28.37 
  -1 -11   5    1.55    5.07 
 -11   1   5   -5.27    3.33 
  -1  11   5   -3.34    3.79 
  11   1   5   -0.97    5.96 
   1 -11   5    3.29    5.53 
  11  -1   5    8.06    5.37 
  11   1   5   12.00    6.42 
   1  11   5   -1.87    3.63 
 -11  -1   5    4.58    4.63 
   1 -11   5   -1.71    6.39 
  11  -1   5   -0.71    5.78 
   2 -11   5  235.00   27.19 
 -11   2   5  185.98   27.05 
  -2 -11   5  265.86   31.25 
  11   2   5  184.12   27.08 
  11  -2   5  202.12   27.94 
   2 -11   5  189.66   30.51 
  11  -2   5  245.18   27.25 
  11   2   5  188.58   26.08 
   2  11   5  233.13   24.19 
 -11  -2   5  190.86   28.02 
  -2  11   5  255.48   26.28 
  11  -3   5   82.00   14.38 
  11  -3   5   62.58   14.62 
  11   3   5   69.37   14.25 
   3 -11   5   44.21   13.75 
 -11  -3   5   67.16   15.37 
  11   3   5   68.89   15.33 
  -3  11   5   77.93   14.66 
 -11   3   5   75.57   15.30 
   3 -11   5   58.46   13.85 
 -11  -4   5  205.54   28.27 
   4 -11   5  157.51   28.32 
  11  -4   5  217.98   27.31 
 -11   4   5  262.39   30.00 
  11  -4   5  227.22   24.60 
  11  -4   5  219.83   27.69 
   4 -11   5  111.70   22.34 
  -4  11   5  152.39   24.08 
  11   4   5  226.63   28.03 
  11  -5   5   -4.79    6.26 
   5 -11   5   16.94    7.78 
 -11   5   5   12.14    7.07 
  11  -5   5    8.35    6.27 
 -11  -5   5   13.86    7.91 
  -5  11   5   18.39    6.90 
   5 -11   5   10.94    9.56 
  11   5   5    6.24    6.86 
  11  -6   5  173.67   26.06 
   6 -11   5  175.14   25.90 
  11   6   5  169.69   24.78 
  -6  11   5  145.98   23.74 
  11  -6   5  175.54   24.75 
   7 -11   5   18.75    9.46 
  11  -7   5   44.56   12.73 
  11  -7   5   42.42   11.37 
   8 -11   5  127.49   22.02 
  11  -8   5  108.78   18.83 
  11  -8   5  118.79   22.29 
 -12   0   5   -0.01    5.07 
  12   0   5    0.12    5.04 
   0 -12   5    4.44    5.31 
   0  12   5   -3.43    3.83 
  12   0   5    1.28    6.35 
   1  12   5  175.75   26.50 
  12   1   5  292.70   31.93 
  -1  12   5  183.80   27.12 
 -12  -1   5  284.73   32.52 
 -12   1   5  304.49   33.05 
  -1 -12   5  159.01   29.38 
   1 -12   5  187.63   31.64 
  12  -1   5  309.23   29.17 
  12   1   5  317.56   30.60 
  12  -1   5  275.54   31.94 
  -2  12   5   13.20    6.79 
   2 -12   5   18.32    9.47 
 -12  -2   5    5.51    6.38 
  12   2   5   17.50    8.31 
  12   2   5   15.20    8.76 
  -2 -12   5   18.84    7.74 
  12  -2   5    8.84    6.64 
   2 -12   5   19.46    7.91 
  12  -2   5    8.33    7.92 
 -12   2   5    8.76    5.47 
  12  -3   5  206.86   26.33 
   3 -12   5  221.59   27.63 
 -12   3   5  183.91   27.74 
  12  -3   5  193.10   28.23 
   3 -12   5  200.90   31.78 
  -3  12   5  281.03   28.08 
  12   3   5  192.46   28.43 
  12  -4   5    2.21    4.61 
  -4  12   5    0.28    4.89 
   4 -12   5   -4.87    5.44 
  12  -4   5   -7.45    4.91 
   5 -12   5  153.12   23.55 
  12  -5   5  144.96   24.02 
  12  -5   5  143.00   23.12 
  12  -6   5    5.41    6.72 
  12  -6   5   14.88    8.75 
   6 -12   5    3.37    7.26 
   7 -12   5   73.84   17.90 
  12  -7   5  120.76   20.03 
  12  -7   5  131.77   22.19 
  13   0   5  129.94   22.43 
  13  -1   5   -6.02    6.22 
  13   1   5    2.22    6.55 
  13   2   5  141.12   22.96 
  13  -2   5  149.98   24.85 
  13  -3   5   15.57    9.33 
   3 -13   5   -1.23    7.03 
   4 -13   5  142.32   23.01 
  13  -4   5  177.33   25.89 
   5 -13   5   13.48    7.37 
  13  -5   5   -5.19    5.64 
   0   0   6  547.79   42.39 
   0   0   6  454.51   43.68 
   0   0   6  510.55   40.18 
   0  -1   6   -1.67    1.88 
  -1   0   6    2.05    2.88 
   0   1   6   -0.20    1.21 
   1   0   6   -1.40    2.08 
   0   1   6    0.06    2.59 
  -1   0   6   -0.16    1.42 
   1   0   6   -0.73    2.85 
   0  -1   6   -0.53    1.01 
   0  -1   6   -0.78    2.05 
  -1   1   6 2803.55  221.56 
  -1   1   6 2756.71  213.30 
  -1  -1   6 2977.88  221.29 
   1   1   6 2833.91  224.92 
   1  -1   6 2731.07  213.16 
   1  -1   6 2864.92  224.90 
   1   1   6 2841.10  213.53 
  -1  -1   6 2933.62  224.89 
  -1  -1   6 2823.08  213.55 
   2   0   6 3372.54  249.33 
   0  -2   6 3589.50  253.35 
   2   0   6 3175.41  244.13 
   2   0   6 3291.67  257.40 
   0  -2   6 3230.50  257.10 
   0  -2   6 3168.33  244.00 
   0   2   6 3240.84  244.04 
   0   2   6 3045.32  253.49 
  -2   0   6 3173.06  244.46 
  -2   0   6 3303.12  254.56 
   1  -2   6   36.67    7.51 
   2  -1   6   48.06    9.00 
  -1   2   6   49.21    7.38 
   2   1   6   40.56    8.81 
  -1  -2   6   55.85    6.98 
   2  -1   6   52.05    8.92 
  -1  -2   6   39.91    8.03 
   2  -1   6   45.24    8.48 
   1   2   6   54.46    9.15 
   1  -2   6   41.20    8.56 
  -2  -1   6   33.25    7.88 
  -2   1   6   48.29    7.62 
   2   1   6   45.00    8.63 
  -1   2   6   50.79    8.66 
   1  -2   6   40.93    7.89 
  -2  -1   6   52.70    7.26 
   2   1   6   42.96    8.23 
  -1  -2   6   48.19    8.72 
  -2   1   6   56.92    9.49 
  -2  -2   6 1072.57   85.44 
  -2  -2   6 1091.19   89.38 
   2   2   6 1093.43   85.22 
  -2  -2   6 1100.72   87.32 
  -2   2   6 1072.78   88.39 
   2   2   6 1116.83   89.83 
  -2   2   6 1046.20   84.97 
   2  -2   6 1117.48   90.10 
   2  -2   6 1093.02   85.00 
   2  -2   6 1090.08   86.83 
   3   0   6    0.63    2.74 
   0   3   6    2.33    1.94 
   3   0   6    3.06    3.20 
   0   3   6   -4.57    2.16 
   3   0   6   -0.66    2.95 
   0  -3   6   -4.30    2.56 
  -3   0   6    0.47    3.08 
   0  -3   6   -0.43    1.42 
   0  -3   6   -0.17    2.82 
  -3   0   6   -0.12    2.09 
  -3  -1   6  609.99   52.11 
   1  -3   6  632.56   51.29 
  -1   3   6  682.13   52.77 
   3  -1   6  648.51   52.50 
  -1  -3   6  599.85   51.26 
  -3   1   6  641.36   52.15 
   1  -3   6  627.99   54.33 
  -1  -3   6  647.88   51.89 
   3   1   6  627.21   54.12 
   1  -3   6  605.01   52.07 
  -1   3   6  614.76   51.13 
  -3  -1   6  640.92   52.88 
   3  -1   6  613.17   54.48 
  -1  -3   6  642.52   54.11 
   3   1   6  611.54   52.05 
   3  -1   6  552.02   51.02 
   3   1   6  638.52   51.74 
  -3   1   6  621.23   53.42 
   1   3   6  735.70   52.22 
   3   2   6  329.42   29.35 
  -3   2   6  346.99   29.88 
   3  -2   6  351.52   31.63 
  -3   2   6  308.97   30.04 
  -2  -3   6  343.22   29.69 
   2  -3   6  307.63   29.39 
   3  -2   6  317.43   29.47 
   2   3   6  321.51   29.04 
  -2  -3   6  326.77   30.30 
  -2  -3   6  337.61   29.12 
  -3  -2   6  319.82   29.37 
   2  -3   6  326.91   31.19 
  -2   3   6  319.70   29.04 
   2  -3   6  324.62   29.00 
  -2   3   6  350.00   30.27 
   3  -2   6  313.28   29.00 
   3   2   6  323.84   30.73 
   3   2   6  331.83   29.45 
  -3  -2   6  339.49   30.13 
  -3  -3   6 2758.60  208.69 
  -3  -3   6 2975.69  217.49 
  -3   3   6 2761.53  208.04 
   3  -3   6 2748.06  212.50 
   3   3   6 2618.75  207.62 
  -3   3   6 2664.15  218.27 
   3   3   6 2804.61  211.63 
   3  -3   6 2529.40  207.27 
   3  -3   6 2842.30  219.94 
  -3  -3   6 2919.07  218.74 
   4   0   6 3238.24  248.23 
   0   4   6 3236.02  253.16 
  -4   0   6 3161.44  255.20 
   4   0   6 3144.35  243.26 
   0   4   6 3318.21  242.77 
   0  -4   6 3451.19  256.55 
   0  -4   6 3256.53  243.02 
   4   0   6 3288.06  256.40 
  -4   0   6 3113.18  243.99 
   4  -1   6  138.03   16.26 
  -4   1   6  139.90   16.67 
   1  -4   6  144.04   14.71 
   1  -4   6  125.09   19.00 
   1  -4   6  119.62   16.30 
   4   1   6  116.33   15.26 
   4  -1   6  136.42   17.17 
   4   1   6  130.67   16.38 
   1  -4   6  136.86   15.69 
  -1  -4   6  151.57   15.84 
   1   4   6  147.06   14.77 
  -1  -4   6  126.88   15.56 
  -1  -4   6  114.98   13.39 
   4   1   6  144.85   16.45 
  -4  -1   6  138.36   16.01 
  -4   1   6  141.88   16.92 
   4  -1   6  138.11   16.04 
  -4  -1   6  148.78   17.43 
  -1   4   6  135.29   14.19 
  -1   4   6  130.43   15.02 
   4  -2   6 2205.05  173.27 
  -4   2   6 2122.63  164.04 
  -2  -4   6 2289.24  170.61 
  -4  -2   6 2251.07  171.35 
  -2  -4   6 2028.66  163.52 
   4   2   6 2164.03  166.45 
   4   2   6 2158.75  172.31 
   2  -4   6 2075.48  172.53 
   2  -4   6 2294.30  167.48 
  -4  -2   6 2046.50  164.42 
   4   2   6 2137.90  163.88 
   2   4   6 2116.51  163.19 
   4  -2   6 2119.24  163.47 
  -2  -4   6 2294.11  172.20 
  -4   2   6 2055.40  171.97 
  -2   4   6 2164.72  171.03 
   4  -2   6 2117.57  167.16 
   2  -4   6 2174.59  163.11 
  -2   4   6 2133.40  163.15 
   4   3   6    1.86    3.48 
   3   4   6    3.14    3.87 
  -4  -3   6    4.05    3.34 
   3  -4   6    8.07    3.81 
  -4  -3   6    5.02    3.16 
  -3   4   6    9.94    4.62 
  -3  -4   6    5.87    3.80 
  -4   3   6    0.53    3.25 
   4  -3   6    4.34    3.89 
  -4   3   6   10.45    4.20 
  -3  -4   6    2.08    3.36 
  -3  -4   6    1.85    2.59 
   4   3   6    3.92    3.83 
   3  -4   6    2.14    3.05 
   4  -3   6    7.36    3.56 
   4  -3   6    6.95    4.50 
   3  -4   6    3.32    2.58 
  -3   4   6    7.39    3.76 
  -4  -4   6  561.95   46.16 
  -4   4   6  573.12   44.99 
   4  -4   6  479.16   47.49 
   4   4   6  510.30   44.63 
  -4   4   6  498.66   47.34 
   4  -4   6  483.34   45.29 
  -4  -4   6  536.99   46.61 
   4  -4   6  567.68   44.80 
   4   4   6  583.66   45.06 
   5   0   6    2.71    3.91 
   0   5   6    4.51    2.56 
  -5   0   6    9.22    4.50 
   0   5   6    0.10    3.14 
   5   0   6    2.60    3.61 
   0  -5   6   -4.99    2.49 
   0  -5   6   -0.54    2.66 
   0  -5   6    6.37    5.18 
   5   0   6   -0.25    2.81 
  -5   0   6   -1.17    2.86 
   5  -1   6 1175.79   91.99 
   5   1   6 1133.91   91.07 
  -1  -5   6 1140.18   93.63 
  -1  -5   6 1193.28   92.61 
  -1   5   6 1117.07   92.52 
   5   1   6 1178.57   90.46 
   1  -5   6 1125.22   88.67 
  -5  -1   6 1145.50   94.25 
   1  -5   6 1114.00   90.74 
  -1   5   6 1139.74   88.55 
  -5  -1   6 1104.37   90.87 
  -1  -5   6 1181.96   89.28 
  -5   1   6 1089.11   94.29 
  -1  -5   6 1196.41   95.64 
   5   1   6 1197.49   94.48 
   5  -1   6 1103.55   89.60 
   1  -5   6 1077.31   94.02 
   1   5   6 1205.25   89.00 
   1  -5   6 1108.73   96.52 
   5  -1   6 1175.67   95.21 
  -5   1   6 1076.99   90.30 
   5   2   6   10.06    4.82 
  -2  -5   6    3.10    3.11 
   2  -5   6    6.94    4.89 
  -2  -5   6    3.54    3.74 
   5  -2   6   22.73    5.73 
  -2   5   6    3.09    3.56 
   5  -2   6   10.47    4.80 
   2  -5   6   45.30   10.96 
   2  -5   6    1.77    3.00 
  -5   2   6    9.10    4.91 
   5  -2   6   14.92    5.94 
   5   2   6    4.74    3.96 
  -2  -5   6   14.71    4.22 
   2   5   6    6.54    4.14 
  -2   5   6    7.00    4.28 
   2  -5   6    3.97    3.19 
  -5   2   6    3.89    3.88 
   5   2   6    7.19    4.18 
  -2  -5   6    5.31    3.56 
  -5  -2   6   11.68    4.88 
   5   3   6 1194.52   95.66 
  -5   3   6 1175.07  100.74 
  -5   3   6 1213.82   95.63 
   5  -3   6 1171.86  101.06 
   5   3   6 1328.21  100.39 
   3  -5   6 1184.70  103.32 
  -3  -5   6 1306.76   99.35 
  -3  -5   6 1217.32   95.50 
   3  -5   6 1242.84   96.83 
  -3   5   6 1236.93   94.38 
   3  -5   6 1319.48   94.72 
   3  -5   6 1149.40  100.47 
   5  -3   6 1181.56   97.53 
  -3  -5   6 1267.45   99.24 
  -5  -3   6 1223.60   99.98 
   5   3   6 1245.04   96.53 
  -3   5   6 1097.10   99.23 
   5  -3   6 1143.91   94.57 
   3   5   6 1156.76   94.35 
   4  -5   6   19.81    6.30 
   4   5   6   19.92    6.00 
  -4  -5   6   27.34    7.22 
   5   4   6   27.18    7.01 
   5  -4   6   22.87    7.83 
  -5  -4   6   23.59    6.73 
   4  -5   6   25.29    9.32 
   5   4   6   32.61    8.32 
  -4   5   6   20.31    5.89 
  -4   5   6   31.39    7.83 
   5  -4   6   16.40    5.91 
  -5   4   6   30.53    8.28 
  -4  -5   6   31.50    7.03 
   5  -4   6   25.55    6.42 
   4  -5   6   15.87    5.19 
   4  -5   6   29.33    8.62 
   5  -5   6 1477.00  124.95 
   5  -5   6 1476.51  114.46 
  -5  -5   6 1501.97  121.35 
  -5   5   6 1482.61  122.17 
   5   5   6 1519.16  115.60 
   5  -5   6 1498.34  123.03 
   5  -5   6 1432.32  117.69 
   6   0   6  963.27   80.10 
   0  -6   6  949.12   78.24 
   0   6   6 1094.34   82.30 
  -6   0   6  982.73   84.16 
   0  -6   6  986.06   83.24 
   6   0   6  963.02   83.81 
   0   6   6 1044.42   78.21 
   0  -6   6  952.25   85.26 
   6   0   6 1036.68   81.79 
  -1  -6   6  138.40   16.62 
   1   6   6  158.64   14.96 
  -6  -1   6  131.97   17.92 
   1  -6   6  110.32   16.52 
  -1  -6   6  131.44   15.74 
   6   1   6  121.33   16.81 
   6  -1   6  140.13   17.98 
  -1   6   6  124.93   15.60 
  -6   1   6  143.34   18.37 
  -1  -6   6  136.89   19.24 
   1  -6   6  145.75   14.79 
  -1   6   6  151.16   14.65 
   6  -1   6  130.68   17.89 
   1  -6   6  103.10   18.83 
   6   1   6  103.11   16.14 
   6   1   6  154.99   18.48 
   6  -1   6  152.86   17.85 
   6  -2   6 1432.27  111.29 
   2  -6   6 1432.16  109.83 
   2  -6   6 1330.82  113.94 
   6   2   6 1344.87  109.76 
  -2  -6   6 1446.24  114.36 
   6  -2   6 1387.20  108.09 
   2   6   6 1388.35  106.85 
  -2   6   6 1335.03  112.51 
  -2  -6   6 1384.78  112.53 
  -2  -6   6 1369.92  112.49 
   6  -2   6 1440.46  115.13 
   2  -6   6 1399.26  106.77 
  -6  -2   6 1428.52  114.27 
  -2   6   6 1368.87  106.30 
   6   2   6 1423.47  109.30 
  -6   2   6 1349.81  114.37 
   2  -6   6 1242.31  115.55 
   6   2   6 1461.30  113.68 
  -2  -6   6 1374.84  107.51 
   3  -6   6   -3.29    2.18 
   3  -6   6    8.44    5.06 
  -3   6   6    1.33    3.24 
   3  -6   6    7.67    4.44 
   6  -3   6   -2.22    2.36 
  -3  -6   6   -1.62    2.66 
   6  -3   6    2.72    4.08 
   6   3   6    1.69    4.10 
   3   6   6    2.78    3.56 
  -3  -6   6   -1.19    3.30 
   3  -6   6    1.66    2.60 
   6  -3   6   -4.82    2.17 
   6   3   6   -1.67    3.16 
  -6  -3   6   -0.65    3.60 
  -3  -6   6    8.49    4.65 
  -6   3   6    6.05    3.92 
   6   4   6 1160.45   92.97 
  -6  -4   6 1161.46   97.03 
  -4  -6   6 1142.06   96.26 
   6  -4   6 1176.60   98.51 
   4  -6   6 1191.73   91.07 
   4   6   6 1173.66   91.61 
  -4   6   6 1278.66   98.04 
   4  -6   6 1148.86  100.73 
   6  -4   6 1151.57   94.85 
  -6   4   6 1124.71   98.18 
   4  -6   6 1106.66   93.23 
   6  -4   6 1155.57   91.47 
   6   4   6 1215.30   93.23 
   4  -6   6 1124.69   98.02 
  -6  -5   6    4.56    4.15 
   6  -5   6    8.94    4.23 
   5  -6   6    5.57    4.50 
   6  -5   6    3.51    5.70 
  -5   6   6    3.90    3.90 
   5  -6   6   -0.52    3.16 
   5   6   6    8.85    4.65 
   5  -6   6    3.16    5.37 
  -5  -6   6   -2.34    2.49 
   6  -5   6    0.70    4.39 
   5  -6   6    1.45    4.54 
   6   5   6   -1.02    4.37 
  -6   5   6    5.29    3.84 
   6  -6   6  742.37   65.78 
   6  -6   6  776.00   69.92 
  -6   6   6  837.40   69.69 
  -6  -6   6  787.92   68.37 
   6  -6   6  749.32   71.24 
   6   6   6  786.04   64.83 
   7   0   6    4.27    4.76 
   0  -7   6    0.44    2.72 
   0  -7   6    5.08    4.99 
   7   0   6    0.12    3.30 
   7   0   6   -0.77    3.23 
   0   7   6   -2.14    2.36 
  -7   0   6    7.21    4.27 
   0  -7   6   -1.36    3.15 
   7  -1   6 1110.06   90.15 
   7   1   6 1118.61   88.81 
  -1  -7   6 1057.83   90.65 
   7   1   6 1134.87   91.91 
   1  -7   6 1110.99   95.30 
  -1  -7   6 1083.25   93.65 
  -7  -1   6 1074.07   92.62 
   7   1   6 1120.65   89.48 
  -1   7   6 1051.42   90.62 
  -7   1   6 1134.74   93.23 
   7  -1   6 1109.91   92.81 
   7  -1   6 1091.96   87.98 
  -1  -7   6 1141.52   86.28 
   1  -7   6 1043.29   91.62 
   2  -7   6  100.11   13.85 
  -2  -7   6   88.21   13.32 
  -2   7   6  121.92   15.47 
  -2  -7   6  110.27   15.16 
  -2  -7   6  106.55   14.19 
   7  -2   6  107.06   17.01 
  -2  -7   6  124.66   18.24 
   2  -7   6  101.63   15.77 
   7  -2   6  136.50   16.56 
  -7   2   6  110.59   17.39 
   7  -2   6   77.69   15.10 
   2  -7   6   93.76   17.94 
   7   2   6   81.70   14.19 
  -7  -2   6  103.44   16.62 
   7   2   6   99.02   16.09 
  -3   7   6  751.38   66.05 
   3  -7   6  732.07   63.43 
  -7  -3   6  799.62   67.75 
   3   7   6  794.70   62.17 
   3  -7   6  795.19   70.99 
   7  -3   6  772.30   67.89 
  -7   3   6  760.53   68.00 
  -3  -7   6  807.07   67.00 
  -3  -7   6  769.48   66.16 
   7  -3   6  715.68   62.76 
   7   3   6  781.79   64.27 
  -3  -7   6  772.81   64.99 
   7   3   6  766.07   64.70 
   7  -3   6  789.16   66.03 
   3  -7   6  751.37   67.37 
   4  -7   6    8.14    6.24 
   4   7   6    6.47    4.33 
   4  -7   6    3.11    5.35 
   7   4   6   -0.32    3.95 
  -4  -7   6    5.29    3.76 
  -4   7   6    3.77    3.75 
  -7   4   6    5.16    4.19 
   7   4   6    9.00    5.18 
   4  -7   6    4.89    3.99 
   7  -4   6    1.76    5.11 
   7  -4   6    0.94    4.70 
   7  -4   6    8.58    4.36 
  -7  -4   6   18.13    6.72 
   5   7   6  500.71   41.24 
   7  -5   6  450.30   40.43 
   5  -7   6  474.23   47.76 
  -5   7   6  517.74   45.41 
  -5  -7   6  477.31   43.89 
  -7  -5   6  387.15   43.35 
   7  -5   6  492.02   43.61 
   5  -7   6  484.25   41.99 
  -7   5   6  481.99   45.47 
   5  -7   6  451.46   45.56 
   7   5   6  491.49   42.97 
   7  -5   6  428.95   45.08 
  -6   7   6   80.62   14.92 
   6  -7   6   61.34   12.46 
   6   7   6   71.90   12.91 
  -7  -6   6   91.66   15.39 
   7   6   6   87.40   14.97 
   7  -6   6   85.02   14.74 
   6  -7   6   77.64   16.82 
   6  -7   6   80.22   16.02 
  -6  -7   6   85.31   14.84 
  -7   6   6   79.33   15.76 
   7  -6   6   79.76   15.93 
  -7   7   6  900.20   81.46 
   7  -7   6  860.89   81.56 
   7  -7   6  937.70   83.93 
   7  -7   6  956.08   77.86 
   7   7   6 1013.20   77.06 
  -7  -7   6  879.04   80.36 
   0  -8   6  699.74   67.07 
   8   0   6  812.70   66.15 
   0  -8   6  674.63   63.52 
   0   8   6  789.52   63.96 
   8   0   6  788.31   64.51 
   8   0   6  738.73   63.04 
  -8   0   6  703.08   65.87 
   8   1   6    0.48    4.32 
   8   1   6    4.31    5.20 
   8  -1   6   -4.60    4.24 
   8  -1   6   -0.27    3.99 
  -8   1   6    8.83    5.36 
   1  -8   6   -3.23    2.84 
  -1  -8   6    7.98    4.36 
  -1  -8   6   -0.88    4.79 
   1  -8   6    7.78    5.73 
  -1   8   6   -1.42    3.48 
   8  -1   6   -0.67    4.80 
  -8  -1   6    3.48    4.91 
   8  -2   6  919.66   74.51 
   8   2   6  820.87   70.09 
  -8   2   6  826.56   73.81 
  -2  -8   6  811.07   70.39 
  -2  -8   6  903.73   74.39 
   2  -8   6  814.39   75.82 
   8  -2   6  780.32   68.78 
   8  -2   6  780.32   71.12 
   2  -8   6  881.11   68.78 
  -2   8   6  881.51   72.19 
   8   2   6  814.16   70.21 
  -8  -2   6  809.51   73.38 
   2  -8   6  845.82   72.96 
  -3  -8   6   62.81   11.79 
   3  -8   6   47.52   13.36 
   3  -8   6   56.01   12.37 
   8   3   6   41.80   10.65 
  -3  -8   6   60.36   12.37 
   8  -3   6   37.11   11.01 
   8   3   6   57.75   10.97 
   8  -3   6   34.58   10.53 
   8  -3   6   34.03    8.55 
  -8   3   6   57.83   12.28 
   3  -8   6   38.86    8.66 
  -3   8   6   49.36   10.55 
  -8  -3   6   45.31   10.81 
  -8   4   6 1165.65   99.89 
   8  -4   6 1139.64   99.94 
  -4   8   6 1153.88   98.54 
   4  -8   6 1196.54  100.27 
  -4  -8   6 1228.90   98.65 
   4  -8   6 1135.74  102.51 
   8   4   6 1217.59   95.50 
   8  -4   6 1125.50   92.66 
   4  -8   6 1110.79   93.74 
  -8  -4   6 1246.53  100.48 
   8  -4   6 1164.59   96.91 
   5  -8   6   29.76   10.98 
   8  -5   6   33.78   10.97 
   8  -5   6   37.11    8.08 
  -5   8   6   51.49   10.97 
   5  -8   6   33.57   11.42 
  -5  -8   6   42.18    9.78 
  -8  -5   6   53.80   11.72 
  -8   5   6   50.03   11.64 
   8  -5   6   23.15    8.61 
   5  -8   6   47.00    9.75 
   8   5   6   44.34   10.70 
   8  -6   6  550.02   53.45 
   6  -8   6  556.46   55.17 
  -6   8   6  535.80   51.96 
  -6  -8   6  557.25   51.26 
  -8  -6   6  560.11   52.29 
  -8   6   6  550.48   52.59 
   6  -8   6  536.87   53.00 
   6  -8   6  516.53   48.11 
   8  -6   6  580.33   50.52 
   8   6   6  565.79   49.75 
  -7   8   6   16.42    6.22 
  -7  -8   6    2.06    5.06 
  -8  -7   6   -5.51    4.24 
   7  -8   6    1.84    6.25 
  -8   7   6   11.78    6.35 
   8   7   6    0.82    5.37 
   8  -7   6    4.80    7.35 
   8  -7   6   -1.14    4.56 
   7  -8   6   -1.11    4.21 
   7  -8   6    6.38    6.65 
   8  -8   6  387.47   37.36 
  -8  -8   6  410.47   40.24 
  -8   8   6  392.61   41.00 
   8  -8   6  368.41   40.45 
   8  -8   6  341.40   42.78 
   0  -9   6    2.52    6.00 
   0  -9   6  -10.50    3.53 
   9   0   6   -7.35    3.30 
   9   0   6    0.59    4.94 
  -9   0   6    1.18    4.17 
   0   9   6    4.78    3.71 
   9   1   6  931.66   81.47 
   9  -1   6 1026.45   84.83 
   1  -9   6 1063.89   88.08 
   9  -1   6  934.57   80.07 
   9   1   6 1001.74   81.32 
  -1  -9   6  959.29   81.78 
   9  -1   6  987.92   82.44 
  -9  -1   6  986.37   84.86 
  -1  -9   6  948.44   85.64 
   1  -9   6  969.59   83.12 
  -9   1   6  952.69   84.47 
  -1   9   6  929.86   82.37 
  -9   2   6   13.53    6.65 
  -2   9   6   11.39    5.97 
   9  -2   6   11.67    7.10 
   2  -9   6   16.86    7.07 
   9   2   6    8.14    6.23 
   2  -9   6   16.12    8.24 
  -9  -2   6   14.94    6.27 
   9  -2   6    1.61    4.95 
  -2  -9   6   13.25    7.10 
   9   2   6   17.29    7.40 
   9  -2   6    9.57    5.42 
  -3   9   6  466.76   45.60 
   3  -9   6  434.68   45.87 
   9   3   6  514.03   46.02 
  -3  -9   6  453.03   45.85 
   9   3   6  527.19   44.92 
   9  -3   6  500.66   43.79 
   9  -3   6  472.10   45.55 
   3  -9   6  489.12   49.78 
  -9  -3   6  465.98   46.70 
   9  -3   6  479.13   46.78 
  -9   3   6  542.03   48.44 
   4  -9   6   -3.45    5.21 
   9  -4   6   19.24    8.06 
   9   4   6    6.59    6.56 
   9  -4   6   -0.86    3.75 
  -9  -4   6    1.59    4.94 
   4  -9   6    2.09    6.82 
  -4  -9   6    2.96    4.67 
  -9   4   6   -5.15    4.18 
   9  -4   6   -3.07    4.79 
  -4   9   6    1.76    4.37 
  -9   5   6  456.71   46.45 
   5  -9   6  441.73   41.90 
   9  -5   6  499.94   47.79 
   9   5   6  465.84   44.62 
   5  -9   6  424.52   48.81 
  -9  -5   6  481.37   46.93 
   9  -5   6  476.76   45.34 
  -5  -9   6  489.34   45.83 
   9  -5   6  491.79   42.19 
  -5   9   6  538.53   47.38 
   5  -9   6  455.25   46.88 
   9  -6   6   12.34    7.15 
   6  -9   6    2.25    4.37 
  -6   9   6    9.94    5.14 
   9   6   6    7.58    6.40 
  -9  -6   6    0.72    4.71 
   6  -9   6    2.46    7.01 
  -6  -9   6    7.25    5.78 
   9  -6   6   -0.95    5.85 
   6  -9   6    3.67    6.36 
  -9   6   6   13.29    6.50 
   9  -7   6  266.59   30.27 
  -9  -7   6  308.31   35.60 
   7  -9   6  302.53   29.61 
  -7   9   6  344.20   34.35 
  -7  -9   6  313.16   32.64 
   9  -7   6  265.68   34.85 
   9   7   6  296.78   31.07 
  -9   7   6  254.83   34.49 
   7  -9   6  246.63   34.18 
   7  -9   6  325.10   38.76 
   9  -8   6   10.65    7.21 
   8  -9   6   12.63    6.62 
  -8   9   6   17.68    7.92 
   9  -8   6   19.10    9.00 
   8  -9   6   15.02    8.29 
   8  -9   6   24.13    9.49 
   9  -9   6  386.23   38.05 
   9  -9   6  390.71   42.41 
  10   0   6  445.90   45.26 
  10   0   6  516.19   45.78 
   0 -10   6  467.69   48.91 
   0 -10   6  491.90   44.76 
  -1 -10   6   18.90    8.39 
   1 -10   6   -5.14    4.90 
 -10   1   6   16.78    7.17 
  10  -1   6    6.23    5.23 
  -1  10   6    7.63    5.51 
  10  -1   6    5.38    6.87 
  10   1   6    7.03    6.75 
 -10  -1   6   13.77    6.66 
  10   1   6    4.74    5.47 
   1 -10   6   13.34    7.19 
   2 -10   6  591.56   60.79 
  -2  10   6  639.69   57.14 
  10  -2   6  631.34   57.57 
  10  -2   6  698.14   59.61 
  10   2   6  644.04   56.45 
 -10  -2   6  575.66   57.93 
   2 -10   6  552.17   56.42 
  -2 -10   6  646.70   59.59 
  10   2   6  611.55   56.16 
  10  -2   6  698.27   55.99 
 -10   2   6  596.88   57.82 
   3 -10   6   83.90   18.26 
   3 -10   6   80.06   15.33 
 -10   3   6   66.32   14.83 
  10  -3   6   83.05   14.07 
  10  -3   6   61.03   14.45 
  10   3   6   57.77   13.83 
  10   3   6   72.59   14.09 
 -10  -3   6   65.16   14.60 
  10  -3   6   81.31   15.99 
  -3  10   6   79.45   14.47 
 -10   4   6  418.23   43.28 
 -10  -4   6  431.81   43.78 
   4 -10   6  446.98   43.75 
  10   4   6  494.83   43.40 
   4 -10   6  397.05   45.72 
  10  -4   6  385.37   42.61 
  10  -4   6  459.30   40.17 
  10  -4   6  435.98   42.34 
  -4  10   6  383.44   41.29 
  10  -5   6   -0.87    6.08 
  -5  10   6    7.02    6.53 
 -10  -5   6   15.12    7.36 
  10  -5   6    7.52    6.51 
   5 -10   6   -3.80    6.25 
  10   5   6    5.77    7.26 
 -10   5   6   -0.52    5.05 
   5 -10   6    6.43    7.73 
  10  -6   6  502.46   52.70 
  -6  10   6  586.13   53.33 
   6 -10   6  537.12   53.01 
 -10  -6   6  561.98   53.37 
   6 -10   6  600.81   56.67 
  10   6   6  597.87   51.42 
  -6 -10   6  548.07   51.67 
  10  -6   6  456.52   49.06 
 -10   6   6  463.05   51.19 
  10   7   6    9.31    7.72 
  10  -7   6    7.97    6.86 
  10  -7   6   10.23    8.82 
   7 -10   6   10.45    7.93 
  10  -8   6  216.08   27.50 
  10  -8   6  224.16   31.47 
   8 -10   6  219.07   31.01 
  10  -9   6    4.04    9.61 
   9 -10   6   40.74   12.17 
   0 -11   6   -1.51    6.07 
  11   0   6    8.81    5.33 
 -11   0   6    1.28    4.68 
  11   0   6   -3.82    5.50 
  11   1   6  375.81   36.20 
  11   1   6  367.67   36.00 
  11  -1   6  330.89   34.64 
   1 -11   6  266.10   39.24 
  -1 -11   6  350.71   38.44 
 -11   1   6  333.73   36.04 
  11  -1   6  399.78   37.72 
  -1  11   6  321.54   34.34 
 -11  -1   6  341.63   36.44 
   1 -11   6  315.27   34.23 
  11   2   6   17.10    8.83 
   2 -11   6   22.43    9.13 
   2 -11   6   21.57    9.73 
 -11  -2   6   36.20   11.25 
  11   2   6   17.93    9.26 
  11  -2   6   42.35   12.13 
  -2 -11   6   31.29   10.37 
  11  -2   6   33.48    9.56 
 -11   2   6   23.64    9.01 
  -2  11   6   39.28   10.04 
  11  -3   6  520.80   46.18 
   3 -11   6  521.73   52.85 
  -3  11   6  536.33   48.49 
  11   3   6  488.04   46.73 
 -11  -3   6  455.18   48.38 
  11   3   6  519.86   48.19 
  11  -3   6  430.76   47.26 
 -11   3   6  506.20   49.10 
   3 -11   6  485.84   48.19 
  11   4   6    0.62    6.40 
  -4  11   6   -0.71    4.71 
  11  -4   6   -7.74    6.03 
   4 -11   6   -5.70    5.48 
 -11  -4   6   10.61    7.35 
  11  -4   6   -5.31    6.07 
   4 -11   6    1.15    5.36 
  11  -4   6   -3.02    5.10 
 -11   4   6    6.33    6.29 
  11  -5   6  334.95   36.38 
  11  -5   6  318.61   34.59 
  -5  11   6  329.86   35.11 
   5 -11   6  298.26   37.06 
   6 -11   6   21.25   10.52 
  11  -6   6   17.40    9.96 
  11  -6   6   14.03    7.73 
   7 -11   6  320.52   38.93 
  11  -7   6  335.09   39.67 
  11  -7   6  311.13   34.14 
  12   0   6  605.29   56.05 
   0 -12   6  566.22   58.68 
  -1 -12   6   14.21    7.61 
  12  -1   6   -1.52    6.99 
  12   1   6   -0.22    6.44 
  12   2   6  312.16   35.33 
  12  -2   6  296.63   35.97 
  -2  12   6  273.50   31.60 
   2 -12   6  319.21   32.92 
  -3  12   6    8.47    5.97 
   3 -12   6    7.27    7.18 
  12  -3   6    5.55    7.05 
   4 -12   6  297.28   33.84 
  12  -4   6  320.98   36.96 
   5 -12   6   13.89    8.74 
  12  -5   6   -2.43    6.23 
  12  -5   6    2.04    6.56 
  12  -6   6  196.95   29.86 
  12  -6   6  213.22   29.23 
   6 -12   6  226.04   30.42 
  13   0   6   -0.03    7.22 
  13  -1   6  219.86   31.67 
  13   1   6  263.00   32.27 
  13  -2   6    8.27    8.98 
  13   2   6    8.07    7.78 
   3 -13   6  236.42   29.71 
  13  -3   6  246.30   32.68 
   0   0   7   -4.17    2.42 
   0   0   7    2.72    3.73 
   0  -1   7  595.49   60.02 
   0   1   7  660.56   57.49 
   1   0   7  783.48   61.46 
  -1   0   7  790.03   58.56 
   0  -1   7  668.63   57.56 
   1   0   7  782.05   58.32 
   1  -1   7   35.78    8.19 
  -1  -1   7   32.68    8.00 
  -1   1   7   31.60    7.34 
   1   1   7   25.41    7.23 
   1  -1   7   32.37    7.27 
   1   1   7   17.50    6.03 
  -1  -1   7   36.46    7.89 
  -2   0   7   -1.11    1.83 
   2   0   7    3.41    3.66 
  -2   0   7    0.08    2.87 
   2   0   7   -0.12    2.42 
   2   0   7    2.76    2.94 
   0  -2   7   -0.75    2.79 
   0   2   7    1.30    2.98 
   0  -2   7    2.65    3.00 
  -1   2   7  602.99   47.32 
   1  -2   7  586.53   47.26 
  -2   1   7  489.02   46.64 
   2  -1   7  567.90   47.26 
   2  -1   7  520.08   47.34 
   2  -1   7  500.14   49.06 
  -2   1   7  568.64   46.92 
   1  -2   7  500.76   48.88 
   1   2   7  597.25   47.25 
   2   1   7  533.06   49.38 
  -1  -2   7  602.20   49.84 
  -1  -2   7  632.57   47.90 
   2   1   7  564.11   47.17 
  -2  -1   7  563.37   46.57 
  -2  -1   7  619.14   48.14 
  -2  -2   7    7.23    2.58 
  -2   2   7   13.98    4.93 
  -2   2   7   11.48    3.65 
  -2  -2   7    9.86    4.67 
   2  -2   7   -0.23    2.79 
   2  -2   7    2.14    3.20 
   2  -2   7    3.02    3.86 
  -2  -2   7    5.11    4.12 
   2   2   7    3.29    3.68 
  -3   0   7  608.18   53.26 
   0  -3   7  747.63   56.30 
   3   0   7  506.24   54.52 
  -3   0   7  568.55   52.73 
   0  -3   7  779.04   53.74 
   0   3   7  815.12   54.10 
   3   0   7  589.27   53.15 
   3   0   7  569.39   52.33 
   1  -3   7   23.53    6.82 
  -1   3   7   25.02    6.66 
  -3  -1   7   28.06    7.46 
   3  -1   7   18.10    6.71 
   1   3   7   27.43    6.88 
  -3  -1   7   27.76    6.07 
  -3   1   7   35.84    8.15 
   3   1   7   28.38    7.04 
   1  -3   7   22.27    6.85 
   3  -1   7   27.26    6.91 
  -1  -3   7   18.92    5.88 
  -3   1   7   24.48    5.62 
   3   1   7   36.26    8.42 
   3  -1   7   24.29    6.73 
   3   1   7   27.90    7.21 
  -1  -3   7   27.40    6.74 
   2  -3   7  565.91   44.66 
   2  -3   7  527.38   47.23 
  -2  -3   7  562.31   45.15 
  -3   2   7  474.08   44.26 
  -2  -3   7  541.15   46.68 
  -2  -3   7  542.55   44.45 
   2  -3   7  543.66   45.41 
  -3  -2   7  518.15   45.12 
  -3  -2   7  504.43   44.58 
   2   3   7  515.47   44.33 
   3  -2   7  509.96   45.22 
  -2   3   7  529.69   44.62 
   3   2   7  530.31   44.73 
   3   2   7  513.91   44.62 
   3  -2   7  519.79   44.43 
  -2   3   7  527.09   45.20 
   3   2   7  521.32   46.90 
   3  -2   7  517.64   47.38 
  -3   2   7  506.30   45.42 
   3  -3   7  152.92   20.03 
  -3  -3   7  169.18   17.03 
   3  -3   7  151.86   18.69 
  -3  -3   7  173.27   19.71 
   3  -3   7  143.53   17.88 
   3   3   7  157.34   18.47 
  -3   3   7  157.73   18.62 
  -3   3   7  182.39   18.12 
   4   0   7   -5.22    2.51 
   4   0   7    7.91    4.72 
  -4   0   7   -2.46    2.89 
   0  -4   7    4.54    3.46 
  -4   0   7   -1.60    2.54 
   4   0   7    3.48    3.46 
   0  -4   7    8.79    3.84 
   0   4   7   -1.01    3.14 
   4  -1   7  826.62   58.42 
   4   1   7  815.38   61.12 
   4  -1   7  776.92   60.96 
  -4   1   7  779.09   59.62 
   1  -4   7  547.14   55.51 
  -1  -4   7  577.63   56.06 
   1  -4   7  543.53   58.84 
   4   1   7  777.00   58.03 
  -4  -1   7  859.97   59.82 
   4   1   7  802.03   58.59 
  -4   1   7  825.33   59.05 
  -1  -4   7  560.04   58.64 
  -1  -4   7  629.41   56.89 
   1   4   7  546.63   55.38 
  -1   4   7  591.78   55.76 
   4  -1   7  749.60   58.41 
  -4  -1   7  848.46   59.51 
  -2   4   7   23.09    6.64 
   4   2   7    9.23    5.23 
  -4  -2   7   12.43    5.49 
   4   2   7   13.18    5.41 
   4   2   7   16.67    5.85 
  -2   4   7   26.38    6.24 
   4  -2   7   11.90    5.07 
   2  -4   7   14.87    5.43 
   2  -4   7   12.21    5.42 
  -2  -4   7   13.25    5.35 
   2  -4   7    9.74    4.58 
  -4  -2   7   13.47    5.51 
  -4   2   7   22.08    6.30 
  -2  -4   7   17.09    4.72 
   4  -2   7   21.62    7.13 
  -4   2   7   19.10    6.16 
  -2  -4   7   15.58    5.72 
   2   4   7    6.32    4.50 
   4  -2   7   13.39    5.53 
  -4  -3   7  441.08   39.40 
  -4   3   7  461.29   40.55 
  -4   3   7  427.07   38.84 
   4   3   7  438.44   38.66 
   4  -3   7  457.11   39.66 
   4  -3   7  452.71   38.67 
   4   3   7  387.96   38.14 
  -4  -3   7  476.31   40.17 
   4  -3   7  447.12   41.76 
   4  -4   7    9.60    4.49 
   4  -4   7    3.10    4.30 
  -4  -4   7   10.39    4.80 
   4  -4   7   10.44    4.44 
   4   4   7    1.17    3.67 
  -4   4   7    3.86    4.39 
  -4   4   7    2.43    3.90 
  -4  -4   7   -0.47    2.73 
  -5   0   7  476.17   42.16 
  -5   0   7  434.98   41.78 
   5   0   7  454.40   43.01 
   5   0   7  492.79   41.59 
   5   0   7  483.87   41.33 
   5   1   7    6.78    4.70 
   5  -1   7   11.83    6.06 
  -5  -1   7   15.91    5.80 
  -5   1   7   19.61    6.99 
   5   1   7   10.21    5.32 
   5  -1   7    9.23    5.23 
   1   5   7   15.75    5.57 
  -5  -1   7   16.38    6.85 
  -5   1   7   24.66    6.71 
   1  -5   7   22.37    5.98 
   5  -1   7   16.24    5.54 
  -1  -5   7   17.06    5.84 
  -1  -5   7   17.94    5.90 
   1  -5   7   12.81    5.98 
   5   1   7   13.67    6.07 
  -1   5   7   32.41    7.26 
   2  -5   7  425.87   40.36 
  -5  -2   7  546.79   43.52 
  -2   5   7  444.43   40.41 
   5  -2   7  532.66   43.05 
  -2   5   7  442.63   41.67 
  -2  -5   7  407.35   40.61 
   5  -2   7  520.46   45.20 
   5   2   7  530.45   42.29 
  -2  -5   7  405.61   42.11 
  -5   2   7  580.93   45.08 
   5   2   7  571.73   44.82 
  -2  -5   7  453.55   41.31 
   2   5   7  407.54   40.02 
  -5   2   7  580.66   43.65 
   2  -5   7  392.21   42.88 
   5   2   7  512.67   42.33 
  -5  -2   7  543.66   43.78 
   2  -5   7  397.95   41.08 
   5  -2   7  535.18   42.14 
   3  -5   7   11.53    5.73 
   3   5   7   17.09    5.81 
   5  -3   7   16.66    6.13 
   5   3   7    8.22    4.95 
   3  -5   7   25.61    6.47 
   5  -3   7   20.11    7.11 
   5   3   7   16.46    5.95 
  -3  -5   7   15.14    5.82 
   5  -3   7   14.47    5.34 
  -5   3   7   28.82    7.50 
  -3  -5   7    3.27    4.23 
  -3  -5   7   12.17    4.74 
  -5  -3   7   21.89    6.16 
  -5   3   7   19.79    6.70 
  -3   5   7   15.68    5.47 
  -3   5   7   20.22    6.03 
   3  -5   7   13.67    5.44 
  -4   5   7  509.68   43.92 
   4  -5   7  411.42   41.12 
   5  -4   7  497.53   44.91 
   4  -5   7  509.99   41.13 
  -4  -5   7  439.47   41.95 
  -5   4   7  515.70   44.35 
   5  -4   7  425.03   41.47 
   5   4   7  479.99   41.16 
   5  -4   7  486.91   41.04 
  -5   4   7  526.87   42.13 
   5   4   7  478.32   41.67 
  -4   5   7  443.11   40.33 
   4  -5   7  435.47   44.08 
   4   5   7  449.86   40.88 
  -5  -4   7  478.56   42.77 
   5  -5   7   31.69    7.31 
   5   5   7   27.60    7.68 
  -5  -5   7   44.29    9.25 
   5  -5   7   18.70    7.92 
   5  -5   7   22.37    7.35 
  -5   5   7   24.57    7.82 
   0  -6   7    0.85    2.97 
   0  -6   7    3.08    2.99 
   6   0   7    1.20    4.03 
   6   0   7    2.11    3.55 
   0   6   7   -2.05    3.19 
  -6   0   7   -2.39    2.73 
   6   0   7    2.00    4.05 
   0  -6   7    6.96    6.03 
   6  -1   7  352.12   37.12 
   1   6   7  488.03   36.97 
   6   1   7  381.89   37.13 
   1  -6   7  425.69   41.86 
   6   1   7  383.58   37.34 
   6   1   7  369.19   38.59 
  -1   6   7  467.77   36.39 
  -1  -6   7  468.35   37.24 
   6  -1   7  382.32   39.23 
  -6   1   7  397.50   38.72 
   1  -6   7  458.41   39.68 
   1  -6   7  453.63   36.54 
  -6  -1   7  397.96   38.48 
   6  -1   7  361.96   36.64 
  -1  -6   7  403.60   38.02 
  -1  -6   7  452.73   40.79 
   2  -6   7    4.20    3.69 
  -6   2   7   -2.62    3.48 
  -2  -6   7    9.16    4.63 
   6  -2   7    7.62    6.55 
  -2  -6   7   11.31    4.71 
   2   6   7    2.20    3.97 
   2  -6   7    8.43    5.94 
   6  -2   7    7.44    5.70 
   2  -6   7    5.08    3.87 
  -6  -2   7    9.49    5.19 
   6   2   7    5.42    4.92 
  -2   6   7    1.69    3.40 
   6   2   7    9.93    5.60 
   6   2   7   17.85    6.48 
  -2  -6   7    5.36    3.64 
   2  -6   7    4.57    4.40 
   6  -2   7    8.04    4.69 
   3  -6   7  393.04   34.50 
  -3  -6   7  327.54   34.99 
   3  -6   7  338.58   39.34 
   6   3   7  447.03   37.07 
  -6   3   7  420.39   37.89 
  -3  -6   7  351.76   34.78 
   3   6   7  405.23   34.81 
   6   3   7  445.63   36.12 
   6  -3   7  413.51   35.42 
  -3  -6   7  329.93   35.19 
  -3   6   7  372.75   36.17 
   6  -3   7  428.10   39.08 
   6  -3   7  393.21   36.76 
   3  -6   7  371.46   37.71 
   3  -6   7  355.35   35.06 
  -6  -3   7  457.95   38.24 
  -4  -6   7   62.69   11.27 
  -4   6   7   80.19   13.43 
  -4  -6   7   81.75   12.99 
   4  -6   7   74.32   11.77 
   6   4   7   82.49   13.77 
  -6  -4   7   76.94   13.24 
   6  -4   7   55.59   12.25 
   6  -4   7   80.21   15.12 
   4   6   7   68.69   11.99 
   4  -6   7   63.19   14.32 
   6  -4   7   77.01   12.21 
  -6   4   7   59.08   12.58 
   4  -6   7   60.73   13.39 
   6   4   7   59.41   11.32 
   4  -6   7   70.41   12.37 
   6   5   7  270.33   29.01 
  -5  -6   7  334.21   31.01 
  -5   6   7  383.05   32.92 
   5   6   7  357.53   30.20 
  -6  -5   7  278.82   30.03 
   5  -6   7  374.07   29.65 
   6  -5   7  281.55   28.21 
   6  -5   7  243.92   29.12 
   5  -6   7  298.38   32.31 
   6  -5   7  256.82   31.18 
  -6   5   7  284.73   31.18 
   5  -6   7  305.93   30.07 
  -6   6   7  162.85   21.10 
  -6  -6   7  116.27   17.94 
   6  -6   7  105.63   19.33 
   6   6   7  134.47   17.92 
   6  -6   7  117.23   17.99 
   0  -7   7  412.30   44.20 
  -7   0   7  655.79   50.97 
   7   0   7  707.55   49.95 
   7   0   7  655.68   51.20 
   7   0   7  643.25   49.44 
   0  -7   7  474.11   50.23 
   0  -7   7  410.08   47.00 
   1  -7   7   28.53    8.63 
  -1  -7   7   21.24    7.22 
  -1  -7   7   33.82   10.12 
   1  -7   7   28.05   10.47 
   7  -1   7   33.78    9.64 
  -1  -7   7   23.06    6.71 
   7   1   7   32.80    9.13 
  -7   1   7   30.48    8.33 
   7   1   7   41.02    9.87 
  -7  -1   7   24.79    8.22 
   7  -1   7   27.53    8.61 
   7   1   7   43.89   10.57 
   7  -1   7   31.96    8.07 
   7  -2   7  344.10   36.16 
  -7   2   7  286.70   34.15 
   2  -7   7  476.66   41.28 
   7  -2   7  307.00   32.62 
  -7  -2   7  280.03   33.78 
  -2  -7   7  445.76   35.16 
  -2  -7   7  463.51   37.78 
   2  -7   7  463.83   37.25 
   7   2   7  326.09   33.36 
   7  -2   7  344.93   34.95 
   7   2   7  335.48   34.36 
   7  -3   7   37.27   10.05 
   7   3   7   41.49   10.05 
   3  -7   7   53.24   10.03 
  -3  -7   7   53.50   10.49 
  -7   3   7   45.58   10.78 
   3  -7   7   33.64    9.79 
  -3   7   7   62.07   11.24 
  -7  -3   7   49.60   11.15 
   3  -7   7   29.84   10.74 
   7   3   7   38.72    9.23 
   7  -3   7   22.28    7.57 
   7  -3   7   21.89    8.68 
  -3  -7   7   40.24    8.69 
  -3  -7   7   21.77    7.95 
   4  -7   7  293.93   35.03 
   4  -7   7  275.98   30.07 
   7  -4   7  325.88   29.80 
   4   7   7  268.24   26.23 
  -4  -7   7  289.20   27.90 
  -4   7   7  320.83   29.54 
  -7  -4   7  274.30   28.54 
   7   4   7  287.49   26.91 
   7  -4   7  250.57   31.11 
   7   4   7  258.31   27.85 
   4  -7   7  228.70   26.21 
  -7   4   7  229.11   29.45 
   7  -4   7  243.08   25.94 
  -7   5   7   35.08    9.17 
   5  -7   7   33.79    8.96 
   5   7   7   35.66    8.93 
   7   5   7   36.88    9.56 
  -7  -5   7   34.04    9.45 
   5  -7   7   46.87   12.88 
   7  -5   7   46.01    9.40 
   7  -5   7   37.51   10.43 
   7  -5   7   38.64   11.17 
   5  -7   7   37.63   10.92 
  -5   7   7   42.04   10.17 
  -5  -7   7   25.88    8.21 
  -7  -6   7  319.94   30.70 
  -6   7   7  267.32   30.12 
   7  -6   7  305.50   29.74 
  -6  -7   7  284.21   29.63 
   7   6   7  272.32   28.53 
  -7   6   7  305.07   31.20 
   7  -6   7  278.13   33.15 
   6  -7   7  237.19   32.21 
   6   7   7  244.11   27.45 
   6  -7   7  273.87   28.23 
   7  -7   7    8.21    6.70 
  -7   7   7    8.41    6.17 
   7   7   7   11.64    6.03 
  -7  -7   7   11.75    5.92 
   7  -7   7    9.72    6.19 
   8   0   7   -5.55    3.94 
   8   0   7    5.20    5.07 
   8   0   7    5.23    5.84 
  -8   0   7   -1.89    3.65 
   0  -8   7    0.24    4.00 
   0  -8   7   -1.74    4.88 
   8   1   7  368.27   33.03 
   1  -8   7  325.51   32.35 
   1  -8   7  317.13   34.64 
   8  -1   7  282.83   31.53 
  -8  -1   7  282.48   31.71 
  -8   1   7  295.47   32.15 
  -1  -8   7  332.24   34.23 
   8  -1   7  331.65   33.80 
   8   1   7  270.99   30.79 
  -1  -8   7  354.03   31.80 
   8  -1   7  310.37   31.15 
  -8  -2   7   57.86   12.45 
   2  -8   7   81.02   14.57 
   2  -8   7   84.69   17.46 
  -2  -8   7   63.63   12.00 
   8  -2   7   78.94   13.40 
   8  -2   7   64.72   13.90 
  -2  -8   7   78.35   14.40 
   8   2   7   71.43   13.60 
   8   2   7   65.25   13.49 
   8  -2   7   75.71   15.05 
  -8   2   7   72.39   13.86 
   8  -3   7  364.92   34.16 
   3  -8   7  312.46   33.01 
   8   3   7  371.67   35.00 
   8  -3   7  419.18   38.58 
  -8  -3   7  393.31   37.45 
   3  -8   7  307.61   40.31 
   8  -3   7  439.89   37.96 
  -8   3   7  358.15   36.94 
   3  -8   7  323.54   36.52 
   8   3   7  386.49   36.36 
  -3   8   7  342.88   35.17 
   4  -8   7   14.12    7.85 
   4  -8   7   18.41    8.95 
  -8  -4   7   11.14    6.14 
   8  -4   7   23.65    6.75 
   8   4   7   13.10    6.48 
   8  -4   7   23.62    8.58 
  -8   4   7   22.31    7.74 
   8  -4   7   17.84    8.45 
  -4  -8   7   35.32    8.19 
   4  -8   7   23.07    7.59 
  -4   8   7   17.16    6.06 
   8  -5   7  244.24   30.68 
  -8   5   7  291.90   29.23 
   8  -5   7  274.34   25.52 
   8   5   7  261.98   29.36 
  -5   8   7  270.90   28.23 
   8  -5   7  227.86   28.85 
  -5  -8   7  242.40   26.76 
   5  -8   7  249.81   33.68 
  -8  -5   7  256.30   27.98 
   5  -8   7  210.99   29.76 
   5  -8   7  217.57   25.06 
   8   6   7   -3.49    5.07 
   8  -6   7    5.01    6.46 
  -6   8   7    0.24    4.17 
   8  -6   7    5.48    5.62 
  -6  -8   7    8.53    5.39 
   6  -8   7    5.33    5.09 
   6  -8   7   -9.54    5.15 
  -8  -6   7    5.17    5.14 
  -8   6   7    6.28    5.27 
   6  -8   7   10.65    7.79 
  -8  -7   7  182.09   24.60 
   8   7   7  190.48   23.60 
   8  -7   7  163.56   25.58 
   7  -8   7  146.72   20.78 
   7  -8   7  152.44   24.47 
  -7   8   7  161.22   24.58 
  -7  -8   7  140.92   22.70 
   8  -7   7  162.24   22.69 
  -8   7   7  202.21   26.30 
  -8  -8   7    6.00    5.08 
   8  -8   7   12.94    8.19 
  -8   8   7    3.56    5.36 
   8  -8   7   -5.93    4.66 
   0  -9   7  224.00   30.67 
   9   0   7  242.40   28.43 
  -9   0   7  219.46   27.94 
   9   0   7  259.24   28.89 
   0  -9   7  238.94   26.03 
   1  -9   7    9.08    7.15 
   9  -1   7   19.46    8.28 
  -1  -9   7    1.82    5.63 
   9  -1   7   17.24    7.00 
  -1  -9   7   35.33   10.33 
  -9   1   7    7.03    5.26 
   9   1   7    0.05    5.07 
   9   1   7   14.56    6.99 
  -9  -1   7   13.64    6.86 
   1  -9   7   23.43    8.12 
   9  -1   7   16.65    8.00 
  -2  -9   7  281.56   33.78 
   9   2   7  331.68   31.73 
   9  -2   7  313.05   33.30 
  -9  -2   7  308.60   32.52 
   2  -9   7  189.93   33.47 
   9   2   7  331.46   32.62 
   9  -2   7  317.56   32.51 
   9  -2   7  329.92   31.20 
  -9   2   7  358.83   33.37 
   2  -9   7  246.02   31.89 
  -9  -3   7    5.45    5.80 
   9  -3   7    4.14    6.55 
   9  -3   7   13.16    6.07 
   3  -9   7   -1.48    5.41 
  -9   3   7   21.30    5.77 
   9  -3   7   16.71    7.89 
   3  -9   7    0.87    6.15 
   9   3   7   10.33    6.66 
   9   3   7    7.10    5.96 
   4  -9   7  238.34   32.82 
   4  -9   7  209.51   28.16 
  -9  -4   7  224.66   28.19 
   9  -4   7  191.07   27.28 
   9   4   7  222.66   28.05 
  -4   9   7  305.34   28.30 
  -9   4   7  200.89   27.79 
   9  -4   7  186.63   28.23 
   9  -4   7  203.13   24.44 
   4  -9   7  242.58   23.94 
  -9  -5   7   -1.02    5.55 
   5  -9   7   16.08    8.82 
   9   5   7    9.94    7.15 
   9  -5   7    7.29    7.34 
  -9   5   7   22.80    8.64 
   9  -5   7   12.96    7.13 
  -5  -9   7   15.87    6.93 
   5  -9   7    1.58    5.14 
  -5   9   7    7.62    6.20 
   9  -5   7   11.56    5.06 
   5  -9   7   12.15    7.82 
   9   6   7  183.21   26.24 
   6  -9   7  232.42   23.55 
   6  -9   7  231.94   32.14 
   6  -9   7  217.21   29.37 
  -6   9   7  223.92   28.45 
   9  -6   7  162.22   27.27 
  -6  -9   7  270.10   28.72 
  -9   6   7  176.00   26.31 
  -9  -6   7  186.20   27.01 
  -9  -7   7    9.20    5.82 
   9  -7   7    7.45    7.54 
   9  -7   7   22.30    7.85 
   9   7   7    7.54    7.27 
  -7  -9   7   17.43    7.12 
  -7   9   7   18.23    8.29 
   7  -9   7   12.83    6.79 
   7  -9   7   15.80    9.22 
  -9   7   7   25.95    8.91 
   8  -9   7  141.10   20.05 
   9  -8   7  146.63   21.42 
   8  -9   7  115.08   22.27 
   9  -8   7  133.48   23.63 
   9  -9   7   -1.94    5.06 
   9  -9   7   16.14    8.78 
   0 -10   7   -0.49    5.50 
 -10   0   7   -4.90    3.91 
  10   0   7   -7.19    5.13 
   0 -10   7    7.75    7.14 
  10   0   7   -1.26    4.87 
  10  -1   7  233.01   29.43 
   1 -10   7  277.02   34.18 
  10   1   7  211.68   28.05 
 -10  -1   7  247.11   30.09 
  10  -1   7  231.49   28.39 
   1 -10   7  223.95   27.75 
 -10   1   7  218.86   29.02 
  -1 -10   7  261.69   32.38 
  10   1   7  245.49   29.66 
  10   2   7   55.53   13.03 
  10   2   7   51.52   13.45 
 -10   2   7   53.18   12.68 
  10  -2   7   47.87   12.99 
 -10  -2   7   55.59   12.78 
   2 -10   7   83.63   17.26 
  -2 -10   7   51.33   12.89 
   2 -10   7   56.42   13.48 
  10  -2   7   71.66   13.28 
  10  -3   7  163.48   22.69 
  10   3   7  224.27   27.66 
   3 -10   7  191.46   25.78 
  10  -3   7  190.80   26.50 
 -10  -3   7  201.16   26.79 
   3 -10   7  204.71   30.24 
 -10   3   7  185.53   25.47 
  10   3   7  153.35   22.74 
  10  -3   7  168.26   25.26 
  10  -4   7   15.06    8.66 
 -10  -4   7   12.58    5.60 
  10  -4   7    9.02    6.76 
 -10   4   7   -0.92    4.26 
  10   4   7    3.05    5.99 
  -4  10   7   17.45    7.12 
   4 -10   7   -6.72    5.51 
  10  -4   7    7.10    4.77 
   4 -10   7   -5.80    5.31 
  10  -5   7  202.89   27.90 
   5 -10   7  171.49   27.62 
 -10  -5   7  228.40   29.34 
 -10   5   7  237.00   29.32 
  -5  10   7  157.52   25.68 
  10  -5   7  226.66   30.32 
  10   5   7  301.51   31.33 
  10  -6   7   14.15    7.96 
   6 -10   7   10.75    8.45 
  10  -6   7   14.86    9.80 
  -6  10   7    0.29    6.34 
   7 -10   7  132.29   23.63 
  10  -7   7  132.52   21.26 
  10  -7   7  138.75   23.83 
  10  -8   7   -1.38    6.72 
   8 -10   7    4.71    8.70 
  10  -8   7   -1.52    5.91 
 -11   0   7  151.04   23.19 
  11   0   7  144.74   22.31 
   0 -11   7  180.22   27.11 
  11   0   7  133.47   22.64 
  11  -1   7   55.73   13.44 
  11   1   7   69.30   14.54 
   1 -11   7   81.82   18.08 
  -1 -11   7   71.08   15.34 
 -11   1   7   57.89   13.52 
  11  -1   7   71.52   15.28 
   1 -11   7   57.94   13.45 
 -11  -1   7   68.68   14.87 
  11   1   7   57.63   14.57 
 -11   2   7  160.94   23.73 
   2 -11   7  181.15   28.54 
  11   2   7  130.90   22.41 
  11  -2   7  176.59   23.73 
   2 -11   7  186.02   23.96 
  11  -2   7  145.94   24.34 
 -11  -2   7  163.95   24.38 
   3 -11   7   -5.53    6.37 
  11  -3   7    4.91    5.38 
  11  -3   7    0.17    5.48 
   4 -11   7  153.27   24.58 
  11  -4   7  166.40   22.11 
  11  -4   7  126.92   22.64 
  11  -4   7  212.52   27.81 
   5 -11   7    0.62    7.01 
  11  -5   7    5.24    6.81 
  11  -5   7   21.31    9.89 
  11  -6   7   87.20   19.68 
   6 -11   7  112.83   20.86 
  11  -6   7  111.32   19.86 
  12   0   7   -0.43    7.40 
  12   1   7  205.11   28.45 
  12  -1   7  199.77   28.57 
  12   2   7    7.00    6.72 
  12  -2   7    7.91    8.51 
   2 -12   7   15.13    7.81 
  12  -3   7   99.76   19.45 
   3 -12   7  114.77   20.37 
   4 -12   7    4.09    7.65 
  12  -4   7    0.26    5.76 
   0   0   8 2259.95  184.78 
   0   0   8 2338.07  175.63 
   0  -1   8    0.27    3.28 
   1   0   8    0.55    3.65 
   1   0   8   -4.22    2.77 
   0  -1   8   -0.94    3.15 
   0   1   8   -1.80    2.80 
  -1   0   8   -1.96    3.70 
   1   1   8 1574.10  122.70 
  -1  -1   8 1563.67  122.91 
  -1   1   8 1645.30  123.22 
   1  -1   8 1560.20  122.58 
  -1  -1   8 1623.77  129.49 
   1  -1   8 1514.84  129.22 
   0   2   8  844.94   64.60 
   2   0   8  736.49   63.73 
   0  -2   8  752.66   63.84 
   0  -2   8  790.63   67.58 
   2   0   8  736.37   67.28 
  -2   0   8  831.23   65.09 
   1  -2   8  354.20   30.68 
   2  -1   8  297.33   29.41 
  -1  -2   8  314.76   31.35 
  -2  -1   8  348.77   30.99 
  -1   2   8  335.35   30.29 
   2   1   8  340.79   31.97 
   1  -2   8  282.27   31.09 
   1   2   8  338.08   30.16 
  -2   1   8  294.54   30.02 
  -1  -2   8  313.62   29.87 
   2  -1   8  317.28   31.73 
   2   1   8  300.93   29.71 
  -2   2   8 1786.50  140.30 
   2  -2   8 1861.26  148.06 
  -2  -2   8 1852.43  140.69 
   2  -2   8 1814.04  140.13 
   2   2   8 1766.29  139.98 
   0  -3   8    1.31    3.92 
   3   0   8    0.76    3.24 
   0  -3   8    3.11    4.13 
   3   0   8    1.31    3.92 
   3   0   8   -1.40    3.26 
   0   3   8    1.58    3.52 
  -3   0   8    6.52    4.89 
   1  -3   8 1006.42   89.94 
  -1  -3   8 1106.52   86.23 
  -3  -1   8 1083.54   86.63 
  -3   1   8 1126.41   86.66 
   3   1   8 1030.37   90.34 
  -1   3   8 1085.33   85.83 
  -1  -3   8 1070.52   90.35 
   3   1   8 1112.90   86.26 
   3  -1   8 1037.44   85.54 
   1   3   8  993.48   85.13 
   1  -3   8 1142.77   86.20 
   3  -1   8 1087.68   87.37 
   3  -1   8 1108.19   91.13 
   2  -3   8   83.88   14.68 
  -2  -3   8   91.24   14.56 
  -2  -3   8   87.52   13.92 
  -2   3   8   86.18   13.91 
   3  -2   8   87.94   13.86 
  -3   2   8  116.72   15.63 
   3  -2   8   83.01   13.55 
   3  -2   8  110.40   16.31 
   3   2   8   99.17   14.60 
   2   3   8   89.34   14.01 
  -3  -2   8  100.67   15.13 
   2  -3   8   85.22   13.74 
  -3   3   8  709.38   62.48 
   3  -3   8  812.92   63.00 
   3  -3   8  760.40   66.43 
   3  -3   8  716.71   63.47 
   3   3   8  758.42   62.87 
  -3  -3   8  810.05   63.96 
   0  -4   8 2238.64  181.23 
   4   0   8 2307.41  175.75 
   0  -4   8 2339.84  172.22 
   4   0   8 2342.53  182.33 
   0   4   8 2283.64  171.85 
   4   0   8 2241.94  172.43 
  -4   0   8 1997.30  172.18 
   4  -1   8  111.70   15.55 
  -4  -1   8   92.96   15.16 
   1   4   8  100.09   14.58 
   4   1   8   72.73   13.56 
  -1  -4   8  121.64   16.15 
   4  -1   8  104.43   16.46 
  -1   4   8   91.90   14.31 
   1  -4   8   84.09   14.90 
   1  -4   8  114.39   15.21 
  -1  -4   8  105.61   15.31 
   4   1   8  117.47   16.87 
   4  -1   8   89.97   14.82 
   4   1   8   90.18   14.31 
  -4   1   8  113.07   16.46 
   2   4   8 1248.93  101.66 
   4  -2   8 1277.81  108.04 
  -4   2   8 1297.40  102.84 
  -2   4   8 1313.76  102.14 
   2  -4   8 1398.35  102.45 
  -4  -2   8 1242.09  102.84 
   2  -4   8 1230.40  107.42 
   4   2   8 1313.20  102.63 
  -2  -4   8 1454.64  107.94 
   4  -2   8 1259.07  104.24 
   4   2   8 1238.68  103.35 
   4  -2   8 1276.34  102.09 
   4   2   8 1294.81  107.92 
  -2  -4   8 1293.63  102.54 
  -3   4   8   26.12    7.85 
   3  -4   8   31.35    8.23 
   3  -4   8   24.94    8.56 
   4  -3   8   38.35   10.00 
   4  -3   8   20.29    6.51 
  -3  -4   8   14.93    6.54 
   3  -4   8   27.25    7.16 
  -3  -4   8   21.40    6.68 
   3   4   8   19.80    6.91 
   4  -3   8   24.35    7.96 
  -4  -3   8   24.46    7.55 
  -4   3   8   28.69    8.39 
   4   3   8   28.52    7.65 
  -4  -3   8   35.73    7.08 
  -4  -4   8  736.55   57.39 
   4  -4   8  661.87   59.77 
  -4  -4   8  617.37   56.12 
   4  -4   8  675.35   55.56 
   4   4   8  666.21   55.86 
   4  -4   8  601.07   56.50 
  -4   4   8  645.88   55.55 
   5   0   8    3.21    4.72 
  -5   0   8   -5.56    3.49 
   0   5   8    2.99    4.15 
   0  -5   8    0.18    3.32 
   5   0   8   -0.85    3.86 
   5   0   8   -1.26    2.92 
  -5   0   8    0.20    2.69 
   0  -5   8    3.88    4.23 
   1  -5   8  436.65   45.36 
   5  -1   8  484.06   44.22 
  -1  -5   8  530.43   44.17 
  -5  -1   8  550.66   45.52 
  -1   5   8  493.61   43.41 
   5   1   8  482.35   46.61 
   5  -1   8  490.65   47.06 
   5   1   8  512.02   44.95 
   1   5   8  560.82   44.11 
  -5  -1   8  426.35   44.37 
  -1  -5   8  521.11   46.28 
   1  -5   8  551.70   44.41 
  -5   1   8  523.67   45.48 
   5   1   8  547.69   45.37 
  -5   1   8  484.74   44.92 
   5  -1   8  464.43   44.57 
   5  -2   8   82.73   15.30 
   5  -2   8  110.31   15.97 
  -2  -5   8  110.33   16.15 
   5   2   8  121.28   16.39 
   5   2   8  129.13   17.99 
  -2   5   8  114.70   15.82 
  -5   2   8  104.66   16.46 
   5  -2   8  111.54   17.69 
  -5  -2   8  103.90   16.64 
  -5   2   8  108.44   15.63 
   2  -5   8   95.15   16.49 
   5   2   8  117.62   17.14 
   2  -5   8  117.34   15.86 
  -5  -2   8  109.21   15.15 
   2   5   8  107.59   15.57 
  -2  -5   8  153.68   17.71 
   3   5   8 1412.78  117.17 
  -3   5   8 1532.90  117.62 
  -5  -3   8 1637.40  123.24 
   5   3   8 1538.60  118.84 
   5  -3   8 1496.93  117.86 
  -5   3   8 1557.52  123.69 
  -5  -3   8 1580.36  119.96 
   5  -3   8 1522.56  125.59 
   3  -5   8 1611.02  117.95 
  -3  -5   8 1574.36  123.97 
   5   3   8 1455.64  119.51 
   3  -5   8 1519.01  125.29 
   5  -3   8 1453.79  120.51 
  -3  -5   8 1461.93  118.15 
  -5   3   8 1394.70  118.09 
   3  -5   8 1378.70  119.83 
  -4   5   8    3.81    4.17 
   5   4   8    4.99    3.99 
  -5   4   8    6.36    4.55 
  -4  -5   8   -0.82    3.76 
   4  -5   8    0.68    4.42 
  -4  -5   8   -2.71    2.84 
   4  -5   8    4.71    4.83 
   5  -4   8   -2.16    4.61 
   5  -4   8    2.74    4.83 
   4  -5   8    1.99    3.64 
  -5  -4   8    6.50    4.73 
   4   5   8    0.68    3.85 
   5  -4   8   -0.05    3.64 
   5  -5   8  855.14   72.61 
   5   5   8  899.77   73.78 
   5  -5   8  894.61   75.32 
  -5   5   8  909.62   73.39 
   5  -5   8  892.00   78.80 
  -5  -5   8  918.43   76.44 
   0   6   8 1332.54  104.85 
   6   0   8 1377.24  112.67 
   0  -6   8 1347.27  105.53 
   6   0   8 1319.48  108.28 
   6   0   8 1367.73  106.98 
   0  -6   8 1293.04  110.99 
  -6   0   8 1357.64  110.73 
   6  -1   8   14.21    6.87 
  -1  -6   8   17.79    5.88 
  -6  -1   8    7.47    4.91 
   6   1   8   12.80    6.15 
  -6   1   8    4.25    4.43 
   6  -1   8    6.44    4.38 
   1  -6   8    4.55    5.81 
   1   6   8   14.34    5.83 
   6   1   8    9.33    5.57 
   1  -6   8   14.06    5.18 
  -1  -6   8    0.27    4.98 
  -1   6   8    2.22    4.14 
   6   1   8   18.18    7.51 
   6  -1   8   17.61    6.74 
  -2  -6   8  856.23   74.14 
   2   6   8  888.10   73.67 
   2  -6   8  882.29   78.96 
  -2  -6   8  929.10   77.93 
  -2   6   8  928.20   73.71 
   6  -2   8  906.46   80.00 
   6  -2   8  893.13   76.79 
   6  -2   8  903.65   74.95 
   2  -6   8  940.67   74.16 
   6   2   8  917.98   76.09 
  -6   2   8  920.85   77.93 
   6   2   8  918.68   75.96 
   6   2   8  968.79   79.84 
  -6  -2   8  953.11   78.07 
   3  -6   8   70.98   13.37 
  -6  -3   8   80.92   14.08 
  -6   3   8   79.27   14.16 
   6   3   8  102.85   16.27 
   6  -3   8   76.03   14.76 
   6  -3   8   81.65   13.71 
  -3  -6   8   92.29   14.58 
   3  -6   8  104.42   17.24 
   6  -3   8   67.54   14.69 
   3  -6   8  107.65   14.79 
  -3  -6   8   91.90   14.81 
   6   3   8  107.91   15.58 
   3   6   8   95.42   14.28 
   6   4   8  533.93   48.40 
   4  -6   8  557.02   49.58 
  -6  -4   8  543.52   50.25 
   6  -4   8  533.36   47.82 
   6  -4   8  506.72   49.69 
   4   6   8  546.56   48.03 
   6  -4   8  584.54   53.19 
   4  -6   8  623.79   48.57 
  -4  -6   8  608.97   50.17 
   6   4   8  559.79   49.48 
   4  -6   8  546.37   52.29 
  -6   4   8  534.12   50.44 
   5  -6   8   96.64   14.03 
  -5  -6   8   59.63   12.82 
   6   5   8   78.87   14.27 
  -6  -5   8   93.96   15.38 
   5  -6   8   97.58   15.62 
   6  -5   8   80.26   13.31 
   5   6   8   94.53   14.79 
   5  -6   8   77.61   15.98 
  -6   5   8   81.45   14.22 
   6  -5   8  110.85   18.56 
   6  -5   8   80.67   14.66 
   6   6   8  636.00   57.07 
  -6   6   8  675.47   60.62 
  -6  -6   8  708.63   59.96 
   6  -6   8  653.85   61.61 
   6  -6   8  646.16   58.09 
  -7   0   8    2.17    4.06 
   0  -7   8   -0.32    3.36 
   7   0   8    2.03    3.51 
   7   0   8    4.96    5.50 
   0  -7   8    1.92    4.87 
   7   0   8   -0.14    5.18 
   7  -1   8  872.72   75.05 
  -1  -7   8  858.80   73.19 
   7   1   8  829.36   71.64 
   7  -1   8  868.90   71.16 
   7  -1   8  752.44   71.10 
   7   1   8  835.12   71.08 
  -7  -1   8  867.48   73.61 
   7   1   8  921.07   75.31 
  -7   1   8  810.53   73.08 
  -1  -7   8  847.09   69.33 
   1  -7   8  867.06   73.95 
   7   2   8   30.82    8.89 
   7   2   8   22.00    7.97 
  -7   2   8   36.38    8.63 
   7  -2   8   22.33    7.42 
  -7  -2   8   26.15    7.76 
   7  -2   8   23.42    8.71 
  -2  -7   8   40.43    9.93 
   7  -2   8   24.01    8.47 
   2  -7   8   37.68   10.86 
  -2  -7   8   25.66    7.64 
   7  -3   8  514.56   47.90 
   7  -3   8  524.36   46.33 
   7   3   8  477.38   46.45 
  -7  -3   8  544.48   48.87 
  -7   3   8  545.79   48.82 
   7   3   8  474.13   46.35 
   7  -3   8  506.00   50.11 
   3  -7   8  503.71   49.43 
  -3  -7   8  599.44   48.58 
   3  -7   8  532.50   46.62 
  -7   4   8   -5.09    3.58 
   7  -4   8    3.62    5.96 
   4  -7   8    3.47    4.93 
   7  -4   8    2.16    4.82 
   7   4   8    9.72    6.16 
   4  -7   8    3.19    6.55 
  -7  -4   8    4.83    4.72 
   7  -4   8   10.80    5.18 
   7  -5   8  537.50   47.34 
   5  -7   8  507.31   51.76 
  -5  -7   8  602.70   50.58 
   7  -5   8  511.36   52.05 
   5   7   8  586.99   48.40 
   7   5   8  569.73   49.55 
   5  -7   8  541.63   49.09 
  -7  -5   8  583.27   51.18 
   7  -5   8  433.60   48.14 
  -7   5   8  576.02   51.42 
   6  -7   8   19.44    7.50 
   6  -7   8   21.53    9.94 
  -6  -7   8   42.45    9.67 
   6   7   8   27.99    8.68 
  -7   6   8   37.10    9.42 
   7  -6   8   35.95   11.27 
  -7  -6   8   28.52    8.00 
   7  -6   8   30.25    9.36 
   7   6   8   39.77   10.53 
  -7   7   8  334.49   38.25 
  -7  -7   8  415.79   39.21 
   7  -7   8  403.27   38.18 
   7  -7   8  367.39   40.79 
   7   7   8  402.01   37.53 
   8   0   8  319.67   31.79 
   0  -8   8  361.17   35.45 
   0  -8   8  358.89   32.82 
   8   0   8  251.42   32.10 
  -8   0   8  271.84   31.24 
   8   0   8  316.93   33.56 
   1  -8   8   14.90    7.53 
  -1  -8   8    3.39    6.49 
   8   1   8   14.49    7.08 
  -8  -1   8   18.37    6.40 
   8   1   8   12.48    6.46 
   8  -1   8   10.93    7.09 
   1  -8   8    9.12    6.41 
  -1  -8   8   12.59    6.77 
  -8   1   8   18.90    6.72 
   8  -1   8   12.60    6.08 
   8  -1   8   10.60    7.83 
   8   2   8  698.94   61.46 
   8  -2   8  747.22   60.83 
   2  -8   8  666.74   63.09 
  -8   2   8  695.65   62.63 
   8  -2   8  680.70   64.30 
  -8  -2   8  747.98   63.29 
   2  -8   8  689.64   65.82 
  -2  -8   8  710.41   61.92 
   8   2   8  638.08   60.38 
   8  -2   8  723.06   62.28 
   3  -8   8    0.29    5.40 
   3  -8   8   16.45    8.66 
  -8   3   8    5.43    4.76 
   8  -3   8    0.24    4.37 
   8  -3   8    2.65    4.11 
   8   3   8    0.00    5.09 
   8  -3   8   -4.65    5.31 
   8   3   8    3.08    5.46 
  -8  -3   8    2.16    5.32 
   8  -4   8  990.15   80.25 
   8  -4   8  931.14   86.18 
  -8  -4   8  978.21   84.81 
   8   4   8  981.34   82.02 
   4  -8   8  993.26   86.36 
  -8   4   8 1018.95   85.40 
   4  -8   8  961.03   81.17 
   8  -4   8  959.77   83.18 
  -8   5   8   -4.32    4.33 
   8  -5   8    3.25    5.67 
   8  -5   8   13.88    8.23 
   8  -5   8   14.92    5.36 
   5  -8   8    1.33    6.83 
   8   5   8    3.01    6.22 
  -8  -5   8    3.87    4.57 
  -5  -8   8    1.87    4.17 
   5  -8   8    4.50    4.90 
   8  -6   8  561.11   52.74 
  -6  -8   8  592.67   53.77 
   8  -6   8  528.39   55.70 
  -8   6   8  611.79   55.09 
  -8  -6   8  567.87   54.60 
   6  -8   8  629.35   57.79 
   8   6   8  585.25   52.73 
   6  -8   8  571.14   52.02 
   7  -8   8   30.60   10.69 
   7  -8   8   17.20    7.29 
  -7  -8   8   26.94    8.48 
  -8  -7   8   16.15    6.24 
   8  -7   8   33.72    9.30 
  -8   7   8   27.00    8.22 
   8   7   8    9.62    6.64 
   8  -7   8   17.53    9.24 
   8  -8   8  116.76   21.77 
   8  -8   8  109.01   17.82 
   0  -9   8    6.12    5.82 
   9   0   8   -2.36    5.47 
   9   0   8    6.22    6.02 
  -9   0   8    1.16    5.10 
   0  -9   8    2.20    5.24 
   9  -1   8  875.28   76.99 
   9  -1   8  913.73   75.77 
   1  -9   8  869.52   78.03 
  -9   1   8  853.87   77.85 
   9   1   8  881.01   76.46 
   9   1   8  921.46   76.60 
   1  -9   8  809.17   80.18 
  -9  -1   8  907.92   78.74 
  -1  -9   8  877.60   77.07 
   9  -1   8  952.31   80.25 
  -1  -9   8  975.13   80.97 
   9   2   8   21.02    8.28 
   9  -2   8   16.90    8.46 
   9  -2   8   18.90    7.32 
   9  -2   8   15.14    8.07 
  -9  -2   8   30.27    9.41 
   9   2   8   14.97    8.25 
   2  -9   8   10.42    8.27 
   2  -9   8   19.91    8.75 
  -9   2   8   13.74    6.88 
   3  -9   8  302.56   33.77 
   9   3   8  303.35   34.63 
   9  -3   8  274.12   30.47 
  -9   3   8  333.34   32.98 
   9   3   8  292.59   31.48 
   9  -3   8  274.67   35.42 
   9  -3   8  328.99   33.49 
   3  -9   8  336.42   39.61 
  -9  -3   8  331.11   34.07 
   9  -4   8   -3.66    4.97 
  -9  -4   8   -9.40    4.37 
   9   4   8    5.29    6.67 
   4  -9   8    6.28    4.95 
   4  -9   8    0.91    5.91 
   4  -9   8    6.12    7.99 
   9  -4   8   -2.16    6.91 
  -9   4   8   -0.70    4.65 
   9  -4   8    3.84    4.50 
   9   5   8  200.64   25.12 
   9  -5   8  138.84   23.64 
  -5  -9   8  164.66   22.79 
   5  -9   8  135.87   19.74 
  -9   5   8  158.91   23.12 
  -9  -5   8  163.12   23.66 
   9  -5   8  151.55   23.06 
   5  -9   8  139.73   24.09 
  -6  -9   8   16.02    7.05 
   6  -9   8   10.54    6.85 
   9  -6   8    8.62    7.30 
   6  -9   8   12.41    8.28 
   9  -6   8    8.30    8.14 
  -9   6   8    1.96    5.36 
   7  -9   8  577.93   54.66 
   9  -7   8  528.19   53.62 
   7  -9   8  499.13   47.84 
   9  -7   8  512.07   49.03 
   9  -8   8    9.84    6.77 
   8  -9   8   16.04    7.09 
   8  -9   8   14.48    9.62 
   9  -8   8    5.55    8.21 
   0 -10   8  336.31   42.78 
  10   0   8  410.59   40.03 
 -10   0   8  407.74   40.18 
  10   0   8  461.50   40.93 
   0 -10   8  347.85   38.24 
  10  -1   8   17.15    8.81 
  -1 -10   8   28.34   10.79 
   1 -10   8   42.88   11.30 
  10   1   8   22.11    9.66 
 -10   1   8   33.32    9.85 
  10   1   8   56.15   12.30 
 -10  -1   8   35.51   10.43 
  10  -1   8   35.03    9.61 
   1 -10   8   28.38   11.27 
 -10  -2   8  347.31   35.94 
   2 -10   8  332.52   41.31 
  10  -2   8  332.12   36.11 
  10   2   8  356.23   36.31 
 -10   2   8  312.37   35.08 
  10  -2   8  354.22   34.75 
  10   2   8  309.78   34.47 
   2 -10   8  383.18   37.21 
  10  -3   8    9.46    8.87 
 -10   3   8   24.70    7.77 
  10  -3   8   20.90    7.39 
   3 -10   8   21.08    9.64 
  10  -3   8    4.09    7.19 
 -10  -3   8   24.37    9.25 
  10  -4   8  633.62   57.53 
  10  -4   8  546.83   54.05 
 -10   4   8  569.02   54.50 
  10  -4   8  574.91   51.80 
   4 -10   8  578.03   55.89 
  10  -5   8    4.72    8.37 
   5 -10   8    2.66    7.42 
  10  -5   8    5.42    6.23 
   6 -10   8  236.35   33.16 
  10  -6   8  242.31   30.44 
  10  -6   8  237.56   32.14 
  11   0   8   -2.53    6.13 
  11   1   8  288.90   32.83 
   1 -11   8  295.88   30.31 
  11  -1   8  196.73   30.32 
   2 -11   8    5.44    8.15 
  11   2   8   38.98   11.15 
  11  -2   8   20.06    9.24 
  11  -3   8  342.14   35.78 
   3 -11   8  289.74   35.76 
  11  -4   8   -7.25    5.39 
  11  -4   8   17.43    9.07 
   4 -11   8    3.56    6.72 
  11  -5   8  389.26   40.99 
   5 -11   8  340.50   39.15 
  12   0   8  364.07   38.91 
  12   1   8    1.52    6.98 
  12  -1   8    5.84    7.93 
   0   0   9    5.37    5.12 
  -1   0   9  631.42   55.14 
   0  -1   9  634.84   54.90 
   1   0   9  644.29   55.22 
   1   0   9  647.15   58.05 
   0   1   9  680.54   55.45 
   0  -1   9  635.57   57.97 
  -1  -1   9    8.98    5.63 
  -1   1   9   12.82    5.95 
   1  -1   9    5.79    5.90 
   1   1   9    7.27    5.37 
   1  -1   9    1.73    4.34 
  -2   0   9    0.07    3.91 
   0  -2   9    1.95    3.59 
   0  -2   9    5.24    5.29 
   0   2   9    0.43    4.14 
   2   0   9   -1.68    3.21 
   2   0   9   -7.72    3.62 
   2  -1   9  640.11   58.39 
  -1  -2   9  666.66   55.41 
  -1  -2   9  636.75   57.79 
  -2  -1   9  630.93   55.31 
   2   1   9  585.16   54.50 
  -2   1   9  630.21   55.39 
  -1   2   9  717.24   55.97 
   1  -2   9  673.65   58.56 
   1   2   9  675.00   55.33 
   1  -2   9  667.43   55.21 
   2  -1   9  576.64   54.25 
  -2  -2   9   30.01    8.01 
   2  -2   9   29.61    9.24 
   2  -2   9   25.29    7.57 
   2   2   9   21.73    7.15 
  -2   2   9   30.36    8.45 
   3   0   9  595.40   55.50 
   0   3   9  646.53   52.76 
   0  -3   9  658.80   53.23 
  -3   0   9  578.50   52.94 
   0  -3   9  567.05   55.03 
   3   0   9  617.29   52.74 
  -1   3   9   39.18    9.31 
   3   1   9   45.38   10.28 
   1  -3   9   53.72   11.97 
   1   3   9   48.52   10.23 
   1  -3   9   42.97    9.71 
  -3   1   9   32.12    8.99 
  -1  -3   9   38.13   10.37 
  -1  -3   9   23.47    8.28 
   3   1   9   41.38   10.49 
   3  -1   9   35.30    8.69 
  -3  -1   9   38.97    9.92 
   3  -1   9   27.87    9.03 
   2  -3   9  474.20   45.83 
   2   3   9  483.48   43.07 
   3   2   9  499.16   43.53 
  -3  -2   9  410.30   42.61 
   2  -3   9  467.76   42.82 
   3  -2   9  476.73   46.05 
   3  -2   9  527.62   43.68 
  -2  -3   9  465.03   43.19 
  -2   3   9  500.26   43.67 
  -2  -3   9  450.50   44.95 
  -3   2   9  591.60   45.24 
  -3  -3   9    6.25    4.64 
   3  -3   9    0.80    3.91 
   3  -3   9   -4.31    3.78 
   3   3   9    3.15    4.15 
  -3   3   9   -2.58    3.12 
   4   0   9   -0.64    4.55 
  -4   0   9    0.30    3.74 
   4   0   9   -0.49    3.88 
   4   0   9    6.00    4.19 
   0  -4   9    3.80    3.53 
   0   4   9   -0.57    4.01 
   0  -4   9   -3.58    4.41 
   4  -1   9  520.52   45.75 
  -4  -1   9  475.44   46.04 
   4  -1   9  497.97   46.16 
   4  -1   9  482.09   48.60 
  -1   4   9  527.82   45.63 
  -4   1   9  541.99   47.00 
   4   1   9  491.41   48.42 
   1  -4   9  530.27   48.65 
  -1  -4   9  553.18   46.35 
  -1  -4   9  520.60   48.25 
   1  -4   9  536.59   45.81 
   1   4   9  544.95   45.87 
   4   1   9  494.78   45.74 
  -4  -2   9   -0.28    4.13 
   2  -4   9   -0.28    3.54 
   2   4   9    2.80    4.28 
  -2  -4   9    0.59    4.72 
  -2   4   9    6.40    4.90 
   4  -2   9    4.16    5.35 
  -4   2   9    5.71    5.28 
   4  -2   9   10.18    4.82 
   4   2   9    2.80    4.30 
  -2  -4   9   16.43    6.01 
   4  -2   9    5.54    5.19 
   2  -4   9    1.11    5.40 
   4   3   9  654.35   50.27 
  -3   4   9  521.55   48.41 
   3   4   9  508.73   48.10 
  -4   3   9  624.19   50.11 
   3  -4   9  480.02   47.43 
   3  -4   9  494.60   51.01 
   4  -3   9  613.47   53.03 
   4  -3   9  595.98   48.97 
   4  -3   9  607.66   50.38 
  -3  -4   9  489.08   48.38 
  -4  -3   9  586.27   49.99 
   4  -4   9    8.50    5.84 
   4   4   9    7.83    5.24 
  -4   4   9    5.11    4.96 
  -4  -4   9    9.67    4.41 
   4  -4   9    1.33    5.06 
   4  -4   9   13.07    5.71 
   5   0   9  542.69   48.74 
   0  -5   9  470.76   44.64 
  -5   0   9  578.40   47.46 
   0  -5   9  492.26   47.31 
   5   0   9  465.18   45.31 
   5   0   9  526.22   45.82 
   0   5   9  497.00   44.33 
  -5   1   9   69.62   13.22 
  -5  -1   9   40.21   10.61 
   1  -5   9   51.01   10.68 
   1   5   9   31.97    9.26 
  -1  -5   9   58.16   11.91 
   5  -1   9   51.16   11.51 
   1  -5   9   44.29   11.29 
   5   1   9   44.90   11.42 
   5  -1   9   47.52   10.40 
   5  -1   9   54.36   12.80 
   5   1   9   62.02   11.96 
   5   1   9   48.25   11.02 
  -1  -5   9   55.81   11.06 
  -1   5   9   57.37   11.21 
  -5   2   9  463.74   41.76 
  -2   5   9  546.83   41.58 
   5  -2   9  395.61   39.78 
   5   2   9  356.20   39.59 
   2  -5   9  493.94   43.80 
   2  -5   9  581.64   42.13 
   5   2   9  375.01   39.65 
  -2  -5   9  479.46   42.79 
   5  -2   9  415.71   43.37 
  -2  -5   9  509.46   41.69 
   2   5   9  521.18   41.14 
   5  -2   9  368.39   40.49 
   5   2   9  367.73   42.12 
  -5  -2   9  432.70   41.69 
   5  -3   9   -4.64    3.50 
  -5   3   9   -1.30    4.14 
   5  -3   9    7.74    4.44 
  -3   5   9    7.76    5.14 
   3  -5   9    3.30    5.84 
   3   5   9    5.56    4.75 
  -5  -3   9    1.28    3.96 
  -3  -5   9   -2.93    3.31 
  -3  -5   9   -8.61    3.65 
   5   3   9   -1.11    4.49 
   5  -3   9    7.41    5.72 
   3  -5   9    1.27    4.07 
   5  -4   9  336.94   37.13 
   4  -5   9  339.91   33.59 
  -5   4   9  391.60   35.40 
   4   5   9  349.62   34.16 
   4  -5   9  319.90   34.61 
   5  -4   9  426.25   35.29 
   4  -5   9  306.54   36.21 
   5  -4   9  419.05   36.91 
   5   4   9  388.37   35.28 
  -4  -5   9  356.37   35.11 
  -4   5   9  352.90   34.02 
  -5   5   9   -2.38    4.40 
   5  -5   9    9.53    5.79 
   5  -5   9   -1.33    4.48 
   5   5   9   -0.77    4.21 
   5  -5   9    0.65    3.71 
   0  -6   9    7.55    5.95 
   0   6   9   -4.47    4.02 
   6   0   9   -5.84    4.51 
   6   0   9    5.27    4.39 
   6   0   9   -5.83    4.79 
   0  -6   9    7.72    4.73 
   1   6   9  362.34   35.48 
   6  -1   9  402.33   37.26 
   6   1   9  418.91   38.22 
   6  -1   9  402.93   37.96 
  -1  -6   9  422.24   36.82 
   6   1   9  379.64   37.14 
   1  -6   9  347.80   37.77 
   6   1   9  425.13   40.22 
  -1  -6   9  396.92   38.26 
  -1   6   9  351.05   35.16 
   6  -1   9  403.34   40.09 
   1  -6   9  378.27   36.03 
   6   2   9   17.08    8.23 
  -2  -6   9   22.76    7.87 
   6   2   9   18.49    8.06 
   6  -2   9   19.76    8.23 
   2  -6   9   10.10    5.97 
   6   2   9   17.76    6.84 
  -2  -6   9   17.52    6.41 
   2   6   9   20.05    7.06 
   6  -2   9   16.29    8.17 
   6  -2   9    9.19    5.58 
   2  -6   9    8.13    5.06 
   6  -3   9  334.55   34.56 
   6   3   9  337.60   35.75 
  -3  -6   9  392.34   36.08 
  -3  -6   9  476.44   38.52 
   3  -6   9  503.52   37.11 
   6   3   9  311.85   34.73 
   3   6   9  413.06   35.50 
   6  -3   9  308.58   35.56 
   6  -3   9  294.37   36.95 
   3  -6   9  431.97   39.69 
   6  -4   9   17.25    8.39 
   6  -4   9   19.27    6.95 
   4   6   9   26.85    8.15 
   4  -6   9   23.72    7.31 
   6  -4   9   31.75   10.19 
   4  -6   9   18.04    7.92 
   4  -6   9   26.78    9.78 
   6   4   9   29.12    8.82 
   5   6   9  326.70   31.88 
   6  -5   9  306.51   34.52 
   5  -6   9  284.99   31.49 
   6  -5   9  331.60   31.25 
   6   5   9  343.78   32.67 
   6  -5   9  303.46   32.39 
   5  -6   9  325.59   34.91 
   6  -6   9   15.83    8.63 
   6   6   9   15.19    7.58 
   6  -6   9   10.29    7.24 
   0  -7   9  373.55   34.05 
   7   0   9  274.62   31.51 
   7   0   9  326.53   32.63 
   7   0   9  300.10   35.90 
  -1  -7   9   -0.55    5.15 
   7  -1   9    7.78    6.97 
   7   1   9   -5.74    5.02 
   1  -7   9    0.55    5.03 
   7  -1   9   10.32    6.17 
  -1  -7   9    9.03    4.01 
   7   1   9    4.26    5.53 
   7   1   9   -2.53    3.95 
   7  -1   9    0.02    4.56 
  -2  -7   9  331.84   33.61 
  -2  -7   9  315.13   35.08 
   7  -2   9  420.15   36.15 
   7   2   9  407.58   37.06 
   7  -2   9  380.72   38.51 
   7   2   9  366.72   35.76 
   2  -7   9  315.93   36.09 
   7  -2   9  379.84   36.52 
  -3  -7   9   -5.10    3.59 
   7  -3   9   11.24    7.11 
   7   3   9   24.31    8.01 
  -3  -7   9   22.17    8.35 
   3  -7   9    8.20    6.35 
   7  -3   9    3.00    3.94 
   7   3   9    8.55    6.99 
   7  -3   9   10.08    6.73 
   4  -7   9  252.03   27.42 
   7  -4   9  227.66   29.69 
   4  -7   9  274.28   32.50 
   7  -4   9  255.16   32.33 
   7  -4   9  261.86   27.01 
   7   4   9  313.18   30.20 
   7  -5   9    6.12    4.74 
   7  -5   9    2.67    5.66 
   5  -7   9    6.84    7.74 
   5  -7   9    5.99    5.55 
   7   5   9    4.77    6.81 
   7  -5   9    9.91    7.16 
   7   6   9  185.85   24.75 
   6  -7   9  180.42   23.99 
   6  -7   9  277.36   30.69 
   7  -6   9  159.34   23.72 
   7  -6   9  141.11   25.01 
   7  -7   9   -5.04    5.49 
   7  -7   9    5.41    5.28 
   0  -8   9    2.27    6.09 
   8   0   9   -4.39    3.89 
   8   0   9    5.31    6.92 
   8   0   9   -4.82    6.03 
   8  -1   9  349.98   34.68 
  -1  -8   9  242.76   29.79 
   8  -1   9  297.04   31.65 
   8  -1   9  311.83   31.32 
   8   1   9  322.96   32.50 
   1  -8   9  277.07   30.96 
   8   1   9  285.43   30.69 
   2  -8   9   16.47    8.80 
   8  -2   9   22.53    7.56 
   8   2   9   11.51    7.96 
   8   2   9   11.33    7.64 
   8  -2   9   16.61    8.80 
   8  -2   9   23.31    9.02 
  -2  -8   9   13.55    7.09 
   8  -3   9  240.85   29.95 
   3  -8   9  231.27   29.93 
   8  -3   9  239.58   27.59 
   8  -3   9  224.18   30.74 
   8   3   9  244.76   29.91 
   8   3   9  262.31   29.04 
   8  -4   9   22.23    9.24 
   8   4   9   22.87    9.50 
   4  -8   9   13.23    9.47 
   8  -4   9    9.77    5.98 
   8  -4   9   25.39    9.08 
   8  -5   9  173.97   25.73 
   8   5   9  276.84   29.19 
   8  -5   9  226.70   30.20 
   5  -8   9  206.09   29.56 
   8  -5   9  217.46   24.84 
   5  -8   9  175.98   24.17 
   8  -6   9   19.90    8.88 
   8  -6   9    0.31    4.92 
   6  -8   9   -2.38    6.63 
   6  -8   9    6.62    5.56 
   8  -7   9  121.22   23.45 
   7  -8   9  180.69   27.31 
   7  -8   9  180.84   23.69 
   8  -7   9  161.40   23.05 
   9   0   9  259.19   29.95 
  -9   0   9  292.28   27.74 
   9   0   9  254.28   29.89 
   0  -9   9  154.05   25.83 
   1  -9   9    1.59    6.11 
   9   1   9    0.37    4.64 
   9  -1   9   -0.67    4.25 
   9  -1   9    7.64    7.06 
  -9  -1   9   12.02    5.57 
   9   1   9   11.08    7.21 
  -1  -9   9    7.72    6.83 
   2  -9   9  235.49   28.14 
  -9  -2   9  211.85   26.43 
   9  -2   9  207.83   28.59 
   9  -2   9  234.00   26.99 
   9   2   9  185.65   25.61 
   9  -2   9  150.32   25.29 
   9  -3   9    0.09    6.52 
   9   3   9   15.77    7.51 
   3  -9   9    3.52    6.82 
  -9  -3   9    9.32    6.18 
   9  -3   9    5.38    7.38 
   9  -3   9   17.59    5.98 
  -9  -4   9  220.26   27.61 
   9  -4   9  199.26   27.83 
   4  -9   9  233.79   29.97 
   9  -4   9  191.84   28.79 
   9  -4   9  192.20   24.77 
   9  -5   9    2.59    6.78 
   5  -9   9   14.27    8.45 
   9  -5   9    7.10    6.44 
   6  -9   9  138.46   24.43 
   9  -6   9  165.21   24.08 
   9  -6   9  170.43   26.75 
   6  -9   9  154.87   21.66 
 -10   0   9    0.15    4.95 
  10   0   9  -11.55    5.07 
   0 -10   9   -0.34    5.38 
  10   1   9  148.99   23.92 
  10  -1   9  162.25   25.03 
   1 -10   9  210.85   25.34 
  10  -2   9    7.13    7.41 
  10   2   9   -1.54    5.46 
   2 -10   9   -6.01    6.24 
  10  -3   9  179.37   27.12 
  10  -3   9  160.20   24.89 
   3 -10   9  170.27   25.73 
  10  -4   9  -10.87    6.52 
   4 -10   9   12.20    7.84 
  10  -4   9   14.46    8.41 
  10  -5   9  125.20   21.18 
   5 -10   9  159.01   25.04 
  10  -5   9  124.01   22.45 
  11   0   9  157.13   24.79 
   1 -11   9   11.40    7.69 
  11   1   9   18.88    9.55 
  11  -1   9   11.72    7.71 
   2 -11   9  127.61   21.41 
  11  -2   9  124.94   21.91 
  11   2   9  132.29   21.73 
   0   0  10  135.12   19.61 
   0  -1  10   -1.80    3.62 
   1   0  10   -0.22    3.64 
   0   1  10   -0.64    4.04 
  -1   0  10    4.06    4.49 
  -1   1  10 1504.69  116.89 
   1  -1  10 1428.79  122.90 
   1   1  10 1445.50  116.56 
  -1  -1  10 1434.88  116.78 
   1  -1  10 1530.28  116.96 
   2   0  10 1511.09  124.59 
   0  -2  10 1423.50  123.77 
   2   0  10 1526.72  117.94 
   0   2  10 1505.60  117.69 
  -2   0  10 1469.27  118.14 
   0  -2  10 1463.49  117.77 
  -2  -1  10   11.55    5.28 
   1  -2  10   10.77    5.00 
   2   1  10    6.00    4.28 
   2  -1  10    0.53    3.88 
   1  -2  10    1.64    6.20 
  -1  -2  10   14.82    5.75 
  -2   1  10    8.43    5.21 
  -1   2  10   11.68    6.02 
   1   2  10    3.17    4.93 
   2  -1  10    5.52    6.19 
   2   2  10  685.30   61.68 
   2  -2  10  814.02   63.22 
  -2   2  10  804.49   63.62 
  -2  -2  10  706.90   62.38 
   2  -2  10  658.88   65.47 
   0  -3  10   -0.52    3.79 
   0   3  10    5.15    4.78 
   3   0  10   -6.25    4.43 
   3   0  10    6.33    4.46 
   0  -3  10    1.29    5.46 
  -3   0  10    0.77    4.71 
  -3  -1  10  436.81   38.41 
   3   1  10  385.09   36.63 
   1   3  10  390.22   36.60 
   3  -1  10  366.64   38.77 
  -3   1  10  395.64   37.47 
  -1  -3  10  336.95   37.59 
   1  -3  10  399.68   36.78 
   3  -1  10  404.35   36.80 
  -1  -3  10  416.09   37.45 
   1  -3  10  357.76   38.54 
  -1   3  10  350.52   35.88 
   3  -2  10  141.81   21.48 
   2  -3  10  145.15   21.30 
   2   3  10  134.31   19.07 
  -2  -3  10  150.82   20.38 
   2  -3  10  149.59   20.10 
  -2   3  10  153.78   20.36 
  -3  -2  10  118.62   19.00 
  -3   2  10   98.05   17.98 
   3  -2  10  139.67   19.35 
   3   2  10  172.87   20.99 
   3  -3  10 1377.08  110.63 
  -3   3  10 1461.42  111.80 
  -3  -3  10 1408.61  111.84 
   3   3  10 1358.22  110.45 
   3  -3  10 1342.27  117.39 
   0  -4  10 1772.91  132.95 
   0   4  10 1697.35  132.06 
   4   0  10 1720.40  140.51 
  -4   0  10 1662.25  133.17 
   4   0  10 1564.55  131.83 
   0  -4  10 1663.34  139.35 
  -4  -1  10   74.80   14.42 
   4   1  10   60.17   13.70 
  -1  -4  10   61.66   12.46 
   4  -1  10   61.51   12.54 
   1  -4  10   66.78   14.09 
   4   1  10   57.93   12.57 
  -4   1  10   81.81   14.89 
   1   4  10   81.00   14.07 
   4  -1  10   64.30   14.18 
  -1   4  10   65.60   12.83 
   1  -4  10   74.14   13.51 
  -1  -4  10   72.31   14.87 
   4  -2  10 1017.38   86.22 
   2  -4  10  996.94   80.25 
   2  -4  10  966.49   85.15 
  -2  -4  10 1055.68   81.42 
   4   2  10 1021.81   81.07 
  -4  -2  10  904.03   80.64 
   4  -2  10  944.28   79.85 
  -2   4  10  935.44   79.95 
  -4   2  10  958.71   80.97 
   2   4  10  936.03   79.66 
  -3   4  10    0.28    4.99 
   4  -3  10   -4.14    4.66 
  -4   3  10    6.45    6.05 
   4   3  10    2.14    4.41 
   3   4  10    7.64    6.02 
   3  -4  10    3.86    4.52 
  -3  -4  10   10.00    6.01 
   4  -3  10   -2.96    2.94 
   3  -4  10    1.26    5.30 
  -4  -3  10    1.11    4.38 
   4  -4  10  207.99   25.66 
  -4   4  10  222.75   26.73 
   4  -4  10  234.14   29.52 
   4   4  10  242.98   27.32 
  -4  -4  10  251.27   28.22 
  -5   0  10    5.20    5.28 
   5   0  10    2.02    4.69 
   5   0  10    2.24    3.92 
   5   0  10   -2.89    5.46 
   0  -5  10   -3.87    3.83 
   0  -5  10   -4.16    5.06 
   0   5  10   -0.66    4.49 
  -5   1  10  477.34   44.12 
   1   5  10  470.73   42.27 
  -5  -1  10  496.46   44.55 
   5  -1  10  433.99   42.77 
   1  -5  10  502.22   43.02 
   5  -1  10  472.53   43.25 
   5  -1  10  455.49   45.94 
   1  -5  10  463.18   45.44 
  -1   5  10  445.81   42.11 
   5   1  10  565.59   47.83 
   5   1  10  444.78   42.91 
  -1  -5  10  372.46   43.23 
   2   5  10    3.97    5.07 
   5   2  10    4.60    5.41 
  -2   5  10   12.53    6.41 
  -2  -5  10   11.15    7.36 
   5  -2  10   35.55    9.24 
   5  -2  10   15.69    7.98 
  -5  -2  10    6.29    6.26 
  -2  -5  10    1.18    3.76 
   5  -2  10    0.41    6.63 
   2  -5  10   21.15    6.65 
  -5   2  10    9.44    5.92 
   2  -5  10    4.21    6.19 
   5  -3  10  694.96   62.96 
  -3  -5  10  718.03   62.12 
   5  -3  10  719.85   61.44 
  -5   3  10  724.42   62.46 
   3  -5  10  762.07   61.75 
  -3   5  10  743.47   61.90 
   3   5  10  767.73   61.96 
   5   3  10  678.47   61.78 
   5  -3  10  678.86   65.60 
  -5  -3  10  731.42   63.27 
   3  -5  10  673.20   65.37 
   4  -5  10   15.65    7.89 
   5   4  10    5.26    5.13 
   4  -5  10   -0.33    4.64 
  -4  -5  10    7.01    4.57 
   5  -4  10    4.00    5.18 
   5  -4  10    4.29    4.34 
  -5   4  10    6.98    5.96 
   4   5  10    9.98    5.93 
  -4   5  10    3.84    5.36 
   5  -4  10    0.32    6.25 
   5  -5  10  918.08   75.40 
   5  -5  10  865.64   77.21 
   5   5  10  981.60   77.01 
   5  -5  10  868.21   80.68 
   0  -6  10  697.70   64.16 
   0   6  10  701.03   60.44 
   6   0  10  695.39   61.79 
   6   0  10  645.24   61.78 
   6   0  10  727.90   66.52 
   0  -6  10  812.84   62.17 
   6  -1  10   65.89   15.73 
   1  -6  10   93.75   15.07 
  -1  -6  10   66.82   14.23 
   1   6  10   70.30   13.32 
   6   1  10   88.88   16.25 
  -1  -6  10   87.44   15.07 
   6   1  10   87.44   17.31 
   6  -1  10   68.92   14.70 
   6   1  10   75.09   14.57 
   1  -6  10   98.99   17.28 
   6  -1  10   88.06   15.46 
   2   6  10  718.32   59.96 
   2  -6  10  649.84   63.17 
  -2  -6  10  688.00   60.17 
   2  -6  10  798.09   60.82 
   6  -2  10  656.33   61.49 
   6   2  10  739.42   61.86 
  -2  -6  10  669.29   62.75 
   6  -2  10  699.78   60.27 
   6  -2  10  649.21   64.41 
   6   3  10   17.35    7.90 
   3   6  10   19.45    7.69 
   6  -3  10   15.59    8.45 
   6  -3  10   23.31    7.47 
  -3  -6  10   28.12    8.91 
   3  -6  10   36.41    8.33 
   6  -3  10    5.31    6.82 
   3  -6  10   15.50    8.41 
   6   4  10  586.82   51.15 
   4   6  10  610.41   50.10 
   6  -4  10  568.36   54.25 
   6  -4  10  527.32   51.03 
   4  -6  10  542.44   53.12 
   6  -4  10  495.77   48.43 
   5   6  10    6.90    6.57 
   6  -5  10   -2.90    4.20 
   5  -6  10   -9.47    4.31 
   6  -5  10   14.19    7.58 
   5  -6  10    6.27    6.84 
   6  -5  10   -1.31    6.02 
   6   5  10    1.50    6.39 
   6  -6  10  375.02   38.98 
   6   6  10  417.45   39.02 
   6  -6  10  394.30   41.94 
   7   0  10    9.27    5.81 
   7   0  10    0.50    5.27 
   0  -7  10   -7.78    4.74 
   7   0  10    5.44    7.34 
   7  -1  10  652.02   62.13 
   7   1  10  687.19   62.57 
   7   1  10  627.42   58.46 
  -1  -7  10  640.50   59.54 
   1  -7  10  682.63   60.67 
   7   1  10  681.39   58.80 
   7  -1  10  594.30   58.40 
   7  -1  10  656.22   58.08 
   7  -2  10  106.12   19.56 
   7  -2  10   79.50   16.28 
   7   2  10  109.70   17.85 
   7  -2  10   86.39   15.55 
   2  -7  10   72.02   16.28 
  -2  -7  10   90.56   14.83 
  -2  -7  10   92.34   16.51 
   7   2  10   91.22   17.11 
   7   3  10  389.32   39.46 
  -3  -7  10  437.67   39.95 
   7  -3  10  367.37   42.48 
   3  -7  10  405.20   42.17 
   7  -3  10  456.24   42.38 
   7  -3  10  431.70   39.81 
   7   3  10  431.59   41.32 
  -3  -7  10  397.56   40.43 
   4  -7  10   -6.58    6.05 
   7  -4  10  -12.98    4.91 
   7  -4  10   -2.37    5.58 
   7   4  10    4.24    5.82 
   7  -4  10   -6.18    3.93 
   5  -7  10  276.40   34.66 
   7  -5  10  298.14   28.84 
   7  -5  10  238.03   31.54 
   7  -5  10  267.19   34.23 
   7  -6  10   39.59   10.30 
   6  -7  10   39.87   12.90 
   6  -7  10   44.67   11.60 
   7  -6  10   38.83   12.86 
   7  -7  10  491.82   47.46 
   7  -7  10  503.26   51.32 
   0  -8  10  270.67   33.63 
   8   0  10  315.96   33.55 
   8   0  10  345.56   36.57 
   8  -1  10    3.25    6.59 
  -1  -8  10   -1.07    5.49 
   1  -8  10    6.09    6.68 
   8   1  10   -5.60    5.20 
   8  -1  10    0.94    6.42 
   8  -2  10  397.37   42.60 
  -2  -8  10  458.21   41.07 
   8   2  10  348.55   38.64 
   2  -8  10  420.21   41.71 
   8  -2  10  383.63   40.43 
   8  -3  10   22.49    9.21 
   3  -8  10   12.61    8.92 
   8  -3  10   31.46   11.17 
   8   3  10    7.65    7.87 
   8  -4  10  708.24   67.95 
   4  -8  10  788.56   71.25 
   8  -4  10  794.27   71.50 
   8  -5  10   43.90   12.44 
   5  -8  10   21.02   10.63 
   8  -5  10   13.13    8.16 
   6  -8  10  347.80   34.25 
   6  -8  10  351.88   40.49 
   8  -6  10  322.87   35.26 
   8  -6  10  287.40   38.51 
   0  -9  10   -8.16    5.03 
   9   0  10   -3.23    5.54 
   1  -9  10  596.41   55.03 
   9  -1  10  561.10   54.11 
  -1  -9  10  561.69   53.65 
   9  -2  10    4.87    6.97 
   9   2  10    6.69    7.03 
   2  -9  10    6.82    7.91 
   9  -2  10   19.77    8.48 
   9  -3  10  219.09   30.62 
   9  -3  10  215.66   29.53 
   3  -9  10  211.77   28.97 
   9  -4  10   24.78    9.62 
   9  -4  10    4.90    6.67 
   4  -9  10    3.00    7.06 
   0 -10  10  311.61   33.16 
  10   0  10  278.79   35.15 
  10  -1  10   10.94    7.75 
  10   1  10   15.16    9.06 
   1 -10  10   10.70    8.34 
   0   0  11    2.10    5.08 
   1   0  11  280.25   32.48 
   0   1  11  412.61   35.79 
  -1   0  11  278.36   34.47 
   0  -1  11  391.48   34.80 
  -1   1  11   12.48    6.70 
   1   1  11    9.94    6.61 
  -1  -1  11    9.24    6.51 
   1  -1  11   29.02    7.72 
   0   2  11    3.30    5.33 
   2   0  11    8.96    5.81 
  -2   0  11   -1.64    4.67 
   0  -2  11   -2.73    4.16 
   2  -1  11  252.38   29.19 
   1   2  11  266.28   29.65 
  -1  -2  11  276.56   28.45 
   1  -2  11  230.41   28.85 
   2   1  11  263.62   29.60 
  -2  -1  11  255.08   29.71 
   1  -2  11  271.14   31.84 
  -2   1  11  234.75   29.24 
   2  -1  11  237.10   31.01 
  -1   2  11  282.56   30.53 
   2   2  11  143.68   20.94 
   2  -2  11  125.62   21.59 
  -2   2  11  129.74   20.64 
  -2  -2  11  162.85   22.37 
   2  -2  11  143.13   20.35 
  -3   0  11  347.18   31.78 
   0  -3  11  209.03   30.59 
   0   3  11  239.92   29.61 
   0  -3  11  269.02   30.64 
   3   0  11  312.11   29.93 
   1  -3  11   69.60   15.91 
  -3  -1  11   95.01   16.95 
   3  -1  11   64.90   13.76 
   1   3  11  112.33   17.08 
   3   1  11  108.05   17.03 
  -3   1  11  113.97   17.93 
   3  -1  11   54.87   15.17 
   1  -3  11   88.76   15.81 
  -1   3  11  119.46   17.98 
  -1  -3  11   80.66   15.36 
   2  -3  11  267.44   28.83 
   2  -3  11  245.92   32.43 
   3   2  11  292.73   29.92 
   2   3  11  301.40   29.91 
  -3   2  11  292.08   32.03 
   3  -2  11  298.27   29.82 
   3  -2  11  255.57   32.87 
  -2   3  11  286.44   29.80 
  -3  -2  11  265.03   31.49 
  -2  -3  11  270.08   31.23 
   3  -3  11    5.81    6.48 
  -3  -3  11   20.52    7.46 
  -3   3  11    6.02    6.22 
   3  -3  11    4.28    4.54 
   3   3  11    9.87    6.38 
   0   4  11   -7.70    4.21 
  -4   0  11    1.87    5.12 
   0  -4  11   -3.74    5.30 
   0  -4  11   -5.57    4.10 
   4   0  11  -10.79    4.42 
   4   0  11    0.47    4.09 
  -1  -4  11  328.06   31.32 
   4  -1  11  256.48   31.02 
  -4  -1  11  229.92   31.63 
   1  -4  11  296.65   32.61 
  -4   1  11  261.74   32.45 
  -1   4  11  385.15   33.16 
   4   1  11  227.20   30.87 
   1   4  11  307.35   30.71 
   4  -1  11  235.49   33.44 
   1  -4  11  344.38   31.54 
  -1  -4  11  357.08   34.02 
  -2   4  11    5.22    6.04 
   2  -4  11    4.91    4.64 
   4   2  11    4.99    5.27 
   4  -2  11   -4.36    5.22 
  -4  -2  11    3.86    4.66 
  -2  -4  11    0.05    4.38 
   2  -4  11    9.93    6.86 
   2   4  11    0.60    4.69 
   4  -2  11    1.72    4.16 
  -4   2  11    2.21    5.56 
   4   3  11  221.54   26.71 
  -4   3  11  223.00   26.96 
  -4  -3  11  241.53   28.05 
   4  -3  11  208.55   28.25 
  -3   4  11  190.33   25.54 
   3  -4  11  211.67   25.45 
   4  -3  11  193.96   25.27 
   3   4  11  169.75   24.51 
  -3  -4  11  225.39   27.08 
   3  -4  11  193.18   27.51 
  -4   4  11    5.58    6.75 
   4  -4  11   -3.08    4.96 
  -4  -4  11   -2.14    4.34 
   4   4  11    4.90    6.10 
   4  -4  11   -2.05    4.54 
   0  -5  11  213.73   26.19 
   0  -5  11  182.33   27.05 
   5   0  11  233.41   30.12 
  -5   0  11  291.31   30.58 
   0   5  11  164.76   24.40 
   5   0  11  260.29   28.29 
  -5   1  11   41.40   11.44 
   1  -5  11   33.33   11.43 
   1  -5  11   39.03   10.21 
   1   5  11   35.29    9.74 
   5  -1  11   34.03   11.24 
   5  -1  11   47.51   11.13 
  -1   5  11   33.71   10.12 
  -1  -5  11   49.58   12.40 
   5   1  11   36.72   10.59 
  -5  -1  11   48.77   12.94 
  -1  -5  11   32.93   10.05 
   2   5  11  232.48   27.56 
   5   2  11  275.82   29.99 
   5  -2  11  229.41   30.69 
   2  -5  11  184.02   26.09 
  -5   2  11  291.31   30.94 
   5  -2  11  265.69   28.93 
  -2   5  11  238.58   27.90 
   2  -5  11  171.90   28.03 
  -5  -2  11  297.45   31.52 
  -5   3  11   -2.99    5.02 
   5   3  11   22.68    8.28 
   3  -5  11    2.06    5.33 
   3   5  11   14.80    7.38 
  -5  -3  11    2.14    4.64 
  -3   5  11   19.44    8.01 
  -3  -5  11   -3.22    5.28 
   5  -3  11    9.90    6.06 
   5  -3  11    3.38    6.21 
   3  -5  11   -1.81    5.71 
  -5   4  11  232.27   31.87 
   5  -4  11  210.19   33.51 
  -4  -5  11  428.56   35.20 
   5  -4  11  227.53   30.47 
   4  -5  11  370.84   32.26 
   4  -5  11  345.13   35.28 
   4   5  11  332.40   32.01 
   5  -5  11   32.86   11.09 
   0  -6  11    1.81    6.32 
   6   0  11   -5.67    6.59 
   0  -6  11    3.76    5.05 
  -1  -6  11  241.41   28.98 
   6  -1  11  205.96   30.16 
   1  -6  11  296.45   29.19 
   1  -6  11  261.72   28.05 
   6  -1  11  146.52   24.99 
  -2  -6  11  111.34   17.38 
  -2  -6  11   78.94   16.14 
   6  -2  11  108.65   18.03 
   6  -2  11   54.80   15.54 
   2   6  11   84.49   15.17 
   2  -6  11   88.57   15.19 
   2  -6  11   72.12   16.40 
   3   6  11  224.71   25.71 
   6  -3  11  196.59   26.24 
  -3  -6  11  173.21   24.91 
   6  -3  11  247.14   30.72 
   3  -6  11  168.30   27.07 
   6  -4  11    7.50    6.20 
   6  -4  11    1.31    6.03 
   4  -6  11   11.41    8.84 
   6  -5  11  137.36   23.96 
   5  -6  11  155.96   24.76 
   6  -6  11    0.53    6.95 
   0  -7  11  168.87   26.49 
   7   0  11  237.77   28.14 
   7   0  11  244.51   31.88 
  -1  -7  11   14.83    8.17 
   1  -7  11   13.65    8.47 
   7  -1  11   12.23    9.16 
   7   1  11   18.66    9.07 
   7  -1  11   -0.94    5.60 
   7  -2  11  154.76   26.54 
   2  -7  11  209.32   27.77 
   7  -2  11  174.43   25.88 
  -2  -7  11  215.72   26.33 
   7  -3  11    5.20    7.28 
   7  -3  11   15.24    8.41 
   3  -7  11    4.95    7.38 
   4  -7  11  123.15   23.97 
   7  -4  11  188.01   25.74 
   7  -4  11  186.87   26.74 
   5  -7  11    6.19    8.27 
   7  -5  11   -6.03    6.47 
   7  -5  11    0.93    5.60 
   0  -8  11   -5.13    5.60 
   8   0  11   -4.57    5.61 
   1  -8  11  149.71   25.45 
   8  -1  11  195.98   27.09 
  -1  -8  11  145.63   24.28 
   8   1  11  250.71   28.11 
   8  -1  11  267.86   32.23 
   8  -2  11   -1.02    5.95 
  -2  -8  11    8.70    7.13 
   2  -8  11    8.75    8.10 
   8  -2  11    0.05    8.59 
   8  -3  11  158.25   25.85 
   8  -3  11  114.17   21.79 
   3  -8  11  195.88   26.42 
   0   0  12  883.72   75.79 
   1   0  12   -1.97    4.89 
  -1   0  12    0.39    6.16 
   0   1  12   -4.15    4.07 
   0  -1  12   13.67    5.84 
  -1   1  12  516.95   50.36 
  -1  -1  12  581.22   51.17 
   1   1  12  529.13   50.29 
   1  -1  12  543.63   50.22 
   0   2  12  386.81   37.53 
  -2   0  12  372.41   37.83 
   0  -2  12  365.24   37.16 
   2   0  12  343.25   36.44 
  -2   1  12   55.41   13.11 
   2  -1  12   38.81   10.70 
  -1  -2  12   31.21    9.75 
  -2  -1  12   37.35   11.05 
  -1   2  12   38.14   11.36 
   1   2  12   28.84   10.81 
   2   1  12   34.61    9.79 
   1  -2  12   52.31   12.16 
  -2   2  12  735.27   63.42 
   2  -2  12  732.19   62.99 
   2   2  12  684.85   62.42 
  -2  -2  12  710.19   63.36 
   2  -2  12  702.66   66.93 
   0   3  12   -2.01    5.15 
   0  -3  12    3.83    5.30 
   1   3  12  504.90   47.63 
  -1   3  12  489.96   47.55 
   1  -3  12  509.75   50.67 
   1  -3  12  523.99   47.54 
  -2   3  12   -2.03    4.16 
   2  -3  12   -6.06    5.12 
   3  -2  12    5.04    7.20 
   3  -3  12  328.79   38.81 
   0  -4  12  557.16   54.47 
   1  -4  12   18.84    9.59 
   4  -1  12   13.42    8.62 
   2  -4  12  443.92   48.05 
   4  -2  12  527.42   50.45 
   3  -4  12   -2.85    6.27 
   4  -3  12    1.01    6.16 
   4  -4  12  402.15   43.01 
   0  -5  12   -1.59    6.06 
   5  -1  12  325.88   37.74 
   1  -5  12  267.19   34.70 
   2  -5  12    6.55    7.86 
   5  -2  12   13.57    8.01 
   3  -5  12  434.21   46.96 
   5  -3  12  489.51   48.90 
   5  -4  12   10.23    7.86 
   4  -5  12   11.42    8.02 
   0  -6  12  531.12   52.21 
   1  -6  12    8.17    7.51 
  -1  -6  12    0.25    6.12 
   6  -1  12   13.07    9.35 
   2  -6  12  377.31   41.73 
   6  -2  12  402.57   43.14 
   3  -6  12   11.43    8.83 
   6  -3  12   26.10   10.13 
   0   0   0    0.00    0.00 
;
_shelx_hkl_checksum              63792
loop_
_space_group_symop_operation_xyz
'x, y, z'
'-x, -y, z'
'y, -x, -z'
'-y, x, -z'
'x+1/2, -y+1/2, z+1/2'
'-x+1/2, y+1/2, z+1/2'
'y+1/2, x+1/2, -z+1/2'
'-y+1/2, -x+1/2, -z+1/2'
loop_
_atom_site_label
_atom_site_type_symbol
_atom_site_fract_x
_atom_site_fract_y
_atom_site_fract_z
_atom_site_U_iso_or_equiv
_atom_site_adp_type
_atom_site_occupancy
_atom_site_site_symmetry_order
_atom_site_calc_flag
_atom_site_refinement_flags_posn
_atom_site_refinement_flags_adp
_atom_site_refinement_flags_occupancy
U1 U 0.0000 0.0000 0.0000 0.01384(12) Uani 1 4 d S T P
Ca1 Ca 0.0000 0.0000 0.5000 0.0107(3) Uani 1 4 d S T P
K1 K 0.65676(13) 0.15676(13) 0.2500 0.0440(6) Uani 1 2 d S T P
K2 K 0.21078(13) 0.28922(13) 0.2500 0.0331(4) Uani 1 2 d S T P
Si1 Si 0.11799(19) 0.61887(19) 0.05681(13) 0.0155(2) Uani 1 1 d . . .
O1 O 0.0000 0.0000 0.2167(8) 0.048(3) Uani 1 2 d S T P
O2 O 0.2677(7) 0.5863(11) -0.0181(12) 0.065(3) Uani 1 1 d . . .
O3 O 0.0570(10) 0.7698(6) -0.0035(14) 0.058(2) Uani 1 1 d . . .
O4 O 0.0000 0.5000 0.0065(16) 0.056(3) Uani 1 2 d S T P
O5 O 0.1178(5) 0.6178(5) 0.2500 0.057(2) Uani 1 2 d S T P
loop_
_atom_site_aniso_label
_atom_site_aniso_U_11
_atom_site_aniso_U_22
_atom_site_aniso_U_33
_atom_site_aniso_U_23
_atom_site_aniso_U_13
_atom_site_aniso_U_12
U1 0.01627(14) 0.01627(14) 0.00898(15) 0.000 0.000 0.000
Ca1 0.0131(4) 0.0131(4) 0.0057(5) 0.000 0.000 0.000
K1 0.0533(8) 0.0533(8) 0.0253(8) -0.0117(11) 0.0117(11) -0.0350(10)
K2 0.0383(6) 0.0383(6) 0.0229(7) -0.0058(8) -0.0058(8) 0.0157(7)
Si1 0.0172(8) 0.0187(8) 0.0107(4) 0.0018(5) 0.0009(5) 0.0021(4)
O1 0.040(8) 0.093(13) 0.011(2) 0.000 0.000 0.017(4)
O2 0.031(3) 0.112(7) 0.051(5) 0.038(5) 0.019(3) 0.030(4)
O3 0.081(5) 0.022(2) 0.069(5) 0.017(4) 0.028(6) 0.020(3)
O4 0.089(7) 0.061(5) 0.017(3) 0.000 0.000 -0.055(4)
O5 0.081(4) 0.081(4) 0.010(2) -0.003(4) 0.003(4) -0.054(5)
loop_
_atom_type_symbol
_atom_type_description
_atom_type_scat_dispersion_real
_atom_type_scat_dispersion_imag
_atom_type_scat_source
O O 0.0106 0.0060 'International Tables Vol C Tables 4.2.6.8 and 6.1.1.4'
Si Si 0.0817 0.0704 'International Tables Vol C Tables 4.2.6.8 and 6.1.1.4'
K K 0.2009 0.2494 'International Tables Vol C Tables 4.2.6.8 and 6.1.1.4'
Ca Ca 0.2262 0.3064 'International Tables Vol C Tables 4.2.6.8 and 6.1.1.4'
U U -9.6767 9.6646 'International Tables Vol C Tables 4.2.6.8 and 6.1.1.4'
loop_
_geom_angle_atom_site_label_1
_geom_angle_atom_site_label_2
_geom_angle_atom_site_label_3
_geom_angle
_geom_angle_site_symmetry_1
_geom_angle_site_symmetry_3
O1 U1 O1 180.0 3 .
O1 U1 O3 90.8(3) 3 4_655
O1 U1 O3 89.2(3) . 4_655
O1 U1 O3 90.8(3) 3 3_455
O1 U1 O3 89.2(3) . 3_455
O3 U1 O3 178.5(6) 4_655 3_455
O1 U1 O3 89.2(3) 3 1_545
O1 U1 O3 90.8(3) . 1_545
O3 U1 O3 90.010(9) 4_655 1_545
O3 U1 O3 90.010(8) 3_455 1_545
O1 U1 O3 89.2(3) 3 2_565
O1 U1 O3 90.8(3) . 2_565
O3 U1 O3 90.010(8) 4_655 2_565
O3 U1 O3 90.010(9) 3_455 2_565
O3 U1 O3 178.5(6) 1_545 2_565
O1 U1 K2 122.226(3) 3 .
O1 U1 K2 57.774(2) . .
O3 U1 K2 49.1(2) 4_655 .
O3 U1 K2 129.9(3) 3_455 .
O3 U1 K2 123.4(3) 1_545 .
O3 U1 K2 57.5(2) 2_565 .
O1 U1 K2 57.774(2) 3 4
O1 U1 K2 122.226(2) . 4
O3 U1 K2 123.4(3) 4_655 4
O3 U1 K2 57.5(2) 3_455 4
O3 U1 K2 129.9(3) 1_545 4
O3 U1 K2 49.1(2) 2_565 4
K2 U1 K2 106.521(2) . 4
O1 U1 K2 122.226(2) 3 2
O1 U1 K2 57.774(2) . 2
O3 U1 K2 129.9(3) 4_655 2
O3 U1 K2 49.1(2) 3_455 2
O3 U1 K2 57.5(2) 1_545 2
O3 U1 K2 123.4(3) 2_565 2
K2 U1 K2 115.548(5) . 2
K2 U1 K2 106.521(2) 4 2
O1 U1 K2 57.774(2) 3 3
O1 U1 K2 122.226(2) . 3
O3 U1 K2 57.5(2) 4_655 3
O3 U1 K2 123.4(3) 3_455 3
O3 U1 K2 49.1(2) 1_545 3
O3 U1 K2 129.9(3) 2_565 3
K2 U1 K2 106.521(2) . 3
K2 U1 K2 115.548(5) 4 3
K2 U1 K2 106.521(2) 2 3
O1 U1 K1 59.127(5) 3 4_545
O1 U1 K1 120.873(5) . 4_545
O3 U1 K1 122.7(2) 4_655 4_545
O3 U1 K1 58.2(3) 3_455 4_545
O3 U1 K1 47.2(3) 1_545 4_545
O3 U1 K1 131.7(2) 2_565 4_545
K2 U1 K1 170.08(3) . 4_545
K2 U1 K1 82.62(3) 4 4_545
K2 U1 K1 64.037(7) 2 4_545
K2 U1 K1 65.24(3) 3 4_545
O1 U1 K1 120.873(5) 3 2_655
O1 U1 K1 59.127(5) . 2_655
O3 U1 K1 47.2(3) 4_655 2_655
O3 U1 K1 131.7(2) 3_455 2_655
O3 U1 K1 58.2(3) 1_545 2_655
O3 U1 K1 122.7(2) 2_565 2_655
K2 U1 K1 65.24(3) . 2_655
K2 U1 K1 170.08(3) 4 2_655
K2 U1 K1 82.62(3) 2 2_655
K2 U1 K1 64.037(7) 3 2_655
K1 U1 K1 105.266(4) 4_545 2_655
O2 Ca1 O2 172.4(5) 5_455 6_545
O2 Ca1 O2 90.25(3) 5_455 8
O2 Ca1 O2 90.25(3) 6_545 8
O2 Ca1 O2 90.25(3) 5_455 7_445
O2 Ca1 O2 90.25(3) 6_545 7_445
O2 Ca1 O2 172.4(5) 8 7_445
O2 Ca1 O1 86.2(2) 5_455 .
O2 Ca1 O1 86.2(2) 6_545 .
O2 Ca1 O1 93.8(2) 8 .
O2 Ca1 O1 93.8(2) 7_445 .
O2 Ca1 O1 93.8(2) 5_455 3_556
O2 Ca1 O1 93.8(2) 6_545 3_556
O2 Ca1 O1 86.2(2) 8 3_556
O2 Ca1 O1 86.2(2) 7_445 3_556
O1 Ca1 O1 180.0 . 3_556
O2 Ca1 K2 42.4(2) 5_455 2
O2 Ca1 K2 132.0(3) 6_545 2
O2 Ca1 K2 120.1(3) 8 2
O2 Ca1 K2 64.5(2) 7_445 2
O1 Ca1 K2 57.774(3) . 2
O1 Ca1 K2 122.226(2) 3_556 2
O2 Ca1 K2 132.0(3) 5_455 .
O2 Ca1 K2 42.4(2) 6_545 .
O2 Ca1 K2 64.5(2) 8 .
O2 Ca1 K2 120.1(3) 7_445 .
O1 Ca1 K2 57.774(3) . .
O1 Ca1 K2 122.226(3) 3_556 .
K2 Ca1 K2 115.548(5) 2 .
O2 Ca1 K2 120.1(3) 5_455 3_556
O2 Ca1 K2 64.5(2) 6_545 3_556
O2 Ca1 K2 132.0(3) 8 3_556
O2 Ca1 K2 42.4(2) 7_445 3_556
O1 Ca1 K2 122.226(2) . 3_556
O1 Ca1 K2 57.774(3) 3_556 3_556
K2 Ca1 K2 106.521(3) 2 3_556
K2 Ca1 K2 106.521(2) . 3_556
O2 Ca1 K2 64.5(2) 5_455 4_556
O2 Ca1 K2 120.1(3) 6_545 4_556
O2 Ca1 K2 42.4(2) 8 4_556
O2 Ca1 K2 132.0(3) 7_445 4_556
O1 Ca1 K2 122.226(3) . 4_556
O1 Ca1 K2 57.774(2) 3_556 4_556
K2 Ca1 K2 106.521(2) 2 4_556
K2 Ca1 K2 106.521(2) . 4_556
K2 Ca1 K2 115.548(5) 3_556 4_556
O2 Ca1 K1 129.7(2) 5_455 3_566
O2 Ca1 K1 55.2(3) 6_545 3_566
O2 Ca1 K1 50.2(3) 8 3_566
O2 Ca1 K1 124.9(2) 7_445 3_566
O1 Ca1 K1 120.873(5) . 3_566
O1 Ca1 K1 59.127(5) 3_556 3_566
K2 Ca1 K1 170.08(3) 2 3_566
K2 Ca1 K1 64.037(7) . 3_566
K2 Ca1 K1 82.62(3) 3_556 3_566
K2 Ca1 K1 65.24(3) 4_556 3_566
O2 Ca1 K1 50.2(3) 5_455 1_455
O2 Ca1 K1 124.9(2) 6_545 1_455
O2 Ca1 K1 55.2(3) 8 1_455
O2 Ca1 K1 129.7(2) 7_445 1_455
O1 Ca1 K1 59.127(5) . 1_455
O1 Ca1 K1 120.873(5) 3_556 1_455
K2 Ca1 K1 65.24(3) 2 1_455
K2 Ca1 K1 82.62(3) . 1_455
K2 Ca1 K1 170.08(3) 3_556 1_455
K2 Ca1 K1 64.037(7) 4_556 1_455
K1 Ca1 K1 105.266(4) 3_566 1_455
O5 K1 O4 133.76(17) 2_665 3
O5 K1 O4 133.76(17) 2_665 5
O4 K1 O4 92.5(3) 3 5
O5 K1 O3 102.53(12) 2_665 3
O4 K1 O3 50.28(14) 3 3
O4 K1 O3 109.81(19) 5 3
O5 K1 O3 102.53(12) 2_665 6_545
O4 K1 O3 109.81(19) 3 6_545
O4 K1 O3 50.28(14) 5 6_545
O3 K1 O3 154.9(2) 3 6_545
O5 K1 O2 105.98(12) 2_665 4_655
O4 K1 O2 50.53(13) 3 4_655
O4 K1 O2 104.76(18) 5 4_655
O3 K1 O2 92.39(16) 3 4_655
O3 K1 O2 80.73(18) 6_545 4_655
O5 K1 O2 105.98(12) 2_665 5
O4 K1 O2 104.76(18) 3 5
O4 K1 O2 50.53(13) 5 5
O3 K1 O2 80.73(18) 3 5
O3 K1 O2 92.39(16) 6_545 5
O2 K1 O2 148.0(2) 4_655 5
O5 K1 O2 49.36(12) 2_665 8_655
O4 K1 O2 159.18(11) 3 8_655
O4 K1 O2 88.1(2) 5 8_655
O3 K1 O2 110.20(17) 3 8_655
O3 K1 O2 86.4(2) 6_545 8_655
O2 K1 O2 148.73(5) 4_655 8_655
O2 K1 O2 60.26(19) 5 8_655
O5 K1 O2 49.36(12) 2_665 2_665
O4 K1 O2 88.1(2) 3 2_665
O4 K1 O2 159.18(11) 5 2_665
O3 K1 O2 86.4(2) 3 2_665
O3 K1 O2 110.20(17) 6_545 2_665
O2 K1 O2 60.26(19) 4_655 2_665
O2 K1 O2 148.73(5) 5 2_665
O2 K1 O2 98.7(2) 8_655 2_665
O5 K1 Si1 28.74(2) 2_665 8_655
O4 K1 Si1 162.50(18) 3 8_655
O4 K1 Si1 105.02(17) 5 8_655
O3 K1 Si1 121.12(12) 3 8_655
O3 K1 Si1 82.15(14) 6_545 8_655
O2 K1 Si1 122.45(12) 4_655 8_655
O2 K1 Si1 86.92(13) 5 8_655
O2 K1 Si1 26.77(11) 8_655 8_655
O2 K1 Si1 75.56(13) 2_665 8_655
O5 K1 Si1 28.74(2) 2_665 2_665
O4 K1 Si1 105.02(17) 3 2_665
O4 K1 Si1 162.50(18) 5 2_665
O3 K1 Si1 82.15(14) 3 2_665
O3 K1 Si1 121.12(12) 6_545 2_665
O2 K1 Si1 86.92(13) 4_655 2_665
O2 K1 Si1 122.45(12) 5 2_665
O2 K1 Si1 75.56(13) 8_655 2_665
O2 K1 Si1 26.77(11) 2_665 2_665
Si1 K1 Si1 57.47(5) 8_655 2_665
O5 K1 Si1 124.34(4) 2_665 3
O4 K1 Si1 25.79(4) 3 3
O4 K1 Si1 96.89(16) 5 3
O3 K1 Si1 25.68(11) 3 3
O3 K1 Si1 131.04(14) 6_545 3
O2 K1 Si1 74.00(12) 4_655 3
O2 K1 Si1 87.99(14) 5 3
O2 K1 Si1 133.57(12) 8_655 3
O2 K1 Si1 92.62(14) 2_665 3
Si1 K1 Si1 146.62(3) 8_655 3
Si1 K1 Si1 98.87(5) 2_665 3
O2 K2 O2 114.2(5) 6_545 4_655
O2 K2 O3 53.89(15) 6_545 6_545
O2 K2 O3 89.4(3) 4_655 6_545
O2 K2 O3 89.4(3) 6_545 4_655
O2 K2 O3 53.89(15) 4_655 4_655
O3 K2 O3 112.9(4) 6_545 4_655
O2 K2 O5 105.06(18) 6_545 2_565
O2 K2 O5 133.5(3) 4_655 2_565
O3 K2 O5 135.2(2) 6_545 2_565
O3 K2 O5 104.73(15) 4_655 2_565
O2 K2 O5 133.5(3) 6_545 .
O2 K2 O5 105.06(18) 4_655 .
O3 K2 O5 104.73(15) 6_545 .
O3 K2 O5 135.2(2) 4_655 .
O5 K2 O5 58.4(2) 2_565 .
O2 K2 O3 92.9(4) 6_545 7_455
O2 K2 O3 113.5(2) 4_655 7_455
O3 K2 O3 58.93(17) 6_545 7_455
O3 K2 O3 166.62(11) 4_655 7_455
O5 K2 O3 87.41(13) 2_565 7_455
O5 K2 O3 47.41(17) . 7_455
O2 K2 O3 113.5(2) 6_545 2_565
O2 K2 O3 92.9(4) 4_655 2_565
O3 K2 O3 166.62(11) 6_545 2_565
O3 K2 O3 58.93(17) 4_655 2_565
O5 K2 O3 47.41(17) 2_565 2_565
O5 K2 O3 87.41(13) . 2_565
O3 K2 O3 131.2(2) 7_455 2_565
O2 K2 O1 62.87(19) 6_545 .
O2 K2 O1 106.76(17) 4_655 .
O3 K2 O1 115.60(14) 6_545 .
O3 K2 O1 52.94(17) 4_655 .
O5 K2 O1 69.78(10) 2_565 .
O5 K2 O1 127.97(11) . .
O3 K2 O1 139.0(2) 7_455 .
O3 K2 O1 51.19(17) 2_565 .
O2 K2 O1 106.76(17) 6_545 7
O2 K2 O1 62.87(19) 4_655 7
O3 K2 O1 52.94(17) 6_545 7
O3 K2 O1 115.60(14) 4_655 7
O5 K2 O1 127.97(11) 2_565 7
O5 K2 O1 69.78(10) . 7
O3 K2 O1 51.19(17) 7_455 7
O3 K2 O1 139.0(2) 2_565 7
O1 K2 O1 162.23(6) . 7
O2 K2 Si1 26.40(14) 6_545 6_545
O2 K2 Si1 100.5(3) 4_655 6_545
O3 K2 Si1 27.84(13) 6_545 6_545
O3 K2 Si1 99.1(2) 4_655 6_545
O5 K2 Si1 125.07(5) 2_565 6_545
O5 K2 Si1 124.96(5) . 6_545
O3 K2 Si1 77.77(17) 7_455 6_545
O3 K2 Si1 139.07(16) 2_565 6_545
O1 K2 Si1 87.88(10) . 6_545
O1 K2 Si1 80.43(10) 7 6_545
O2 K2 Si1 100.5(3) 6_545 4_655
O2 K2 Si1 26.40(14) 4_655 4_655
O3 K2 Si1 99.1(2) 6_545 4_655
O3 K2 Si1 27.84(13) 4_655 4_655
O5 K2 Si1 124.96(5) 2_565 4_655
O5 K2 Si1 125.07(5) . 4_655
O3 K2 Si1 139.07(16) 7_455 4_655
O3 K2 Si1 77.77(17) 2_565 4_655
O1 K2 Si1 80.44(10) . 4_655
O1 K2 Si1 87.88(10) 7 4_655
Si1 K2 Si1 97.80(6) 6_545 4_655
O2 Si1 O3 111.1(4) . .
O2 Si1 O4 111.7(5) . .
O3 Si1 O4 106.1(4) . .
O2 Si1 O5 113.8(4) . .
O3 Si1 O5 108.8(4) . .
O4 Si1 O5 104.9(5) . .
O2 Si1 K1 76.1(5) . 2_665
O3 Si1 K1 80.1(4) . 2_665
O4 Si1 K1 166.4(5) . 2_665
O5 Si1 K1 61.5(2) . 2_665
O2 Si1 K2 50.9(3) . 3_565
O3 Si1 K2 61.2(3) . 3_565
O4 Si1 K2 115.9(4) . 3_565
O5 Si1 K2 139.2(2) . 3_565
K1 Si1 K2 77.63(4) 2_665 3_565
O2 Si1 K2 175.6(5) . 2_565
O3 Si1 K2 68.2(3) . 2_565
O4 Si1 K2 72.5(3) . 2_565
O5 Si1 K2 62.99(12) . 2_565
K1 Si1 K2 99.54(4) 2_665 2_565
K2 Si1 K2 129.14(6) 3_565 2_565
O2 Si1 K1 111.1(4) . 4
O3 Si1 K1 56.1(4) . 4
O4 Si1 K1 53.5(3) . 4
O5 Si1 K1 134.94(16) . 4
K1 Si1 K1 135.67(5) 2_665 4
K2 Si1 K1 75.50(3) 3_565 4
K2 Si1 K1 72.35(4) 2_565 4
O2 Si1 K1 59.4(5) . 3_565
O3 Si1 K1 115.4(4) . 3_565
O4 Si1 K1 53.3(3) . 3_565
O5 Si1 K1 134.52(16) . 3_565
K1 Si1 K1 135.41(6) 2_665 3_565
K2 Si1 K1 75.41(3) 3_565 3_565
K2 Si1 K1 125.01(4) 2_565 3_565
K1 Si1 K1 68.83(5) 4 3_565
U1 O1 Ca1 180.0 . .
U1 O1 K2 94.79(12) . .
Ca1 O1 K2 85.21(12) . .
U1 O1 K2 94.79(12) . 2
Ca1 O1 K2 85.21(12) . 2
K2 O1 K2 170.4(2) . 2
Si1 O2 Ca1 151.3(5) . 5_554
Si1 O2 K2 102.7(3) . 3_565
Ca1 O2 K2 102.7(3) 5_554 3_565
Si1 O2 K1 95.5(5) . 3_565
Ca1 O2 K1 95.6(3) 5_554 3_565
K2 O2 K1 94.6(3) 3_565 3_565
Si1 O2 K1 77.2(4) . 2_665
Ca1 O2 K1 90.4(3) 5_554 2_665
K2 O2 K1 88.3(3) 3_565 2_665
K1 O2 K1 172.6(2) 3_565 2_665
Si1 O3 U1 159.2(8) . 1_565
Si1 O3 K2 90.9(3) . 3_565
U1 O3 K2 97.1(3) 1_565 3_565
Si1 O3 K1 98.2(4) . 4
U1 O3 K1 100.7(4) 1_565 4
K2 O3 K1 91.3(3) 3_565 4
Si1 O3 K2 85.3(3) . 2_565
U1 O3 K2 88.4(2) 1_565 2_565
K2 O3 K2 173.1(3) 3_565 2_565
K1 O3 K2 83.6(2) 4 2_565
Si1 O4 Si1 149.7(9) . 2_565
Si1 O4 K1 101.0(3) . 3_565
Si1 O4 K1 100.7(3) 2_565 3_565
Si1 O4 K1 100.7(3) . 4
Si1 O4 K1 101.0(3) 2_565 4
K1 O4 K1 87.5(3) 3_565 4
Si1 O5 Si1 179.4(5) 7_455 .
Si1 O5 K1 89.7(2) 7_455 2_665
Si1 O5 K1 89.7(2) . 2_665
Si1 O5 K2 89.96(13) 7_455 .
Si1 O5 K2 90.31(13) . .
K1 O5 K2 119.21(10) 2_665 .
Si1 O5 K2 90.31(13) 7_455 2_565
Si1 O5 K2 89.96(13) . 2_565
K1 O5 K2 119.21(10) 2_665 2_565
K2 O5 K2 121.6(2) . 2_565
loop_
_geom_bond_atom_site_label_1
_geom_bond_atom_site_label_2
_geom_bond_distance
_geom_bond_site_symmetry_2
U1 O1 1.816(7) 3
U1 O1 1.816(7) .
U1 O3 2.203(6) 4_655
U1 O3 2.203(6) 3_455
U1 O3 2.203(6) 1_545
U1 O3 2.203(6) 2_565
U1 K2 3.9285(2) .
U1 K2 3.9285(2) 4
U1 K2 3.9285(2) 2
U1 K2 3.9285(2) 3
U1 K1 4.0826(5) 4_545
U1 K1 4.0826(5) 2_655
Ca1 O2 2.306(6) 5_455
Ca1 O2 2.306(6) 6_545
Ca1 O2 2.306(6) 8
Ca1 O2 2.306(6) 7_445
Ca1 O1 2.374(7) .
Ca1 O1 2.374(7) 3_556
Ca1 K2 3.9285(2) 2
Ca1 K2 3.9285(2) .
Ca1 K2 3.9285(2) 3_556
Ca1 K2 3.9285(2) 4_556
Ca1 K1 4.0826(5) 3_566
Ca1 K1 4.0826(5) 1_455
K1 O5 2.960(7) 2_665
K1 O4 2.976(9) 3
K1 O4 2.976(9) 5
K1 O3 3.051(12) 3
K1 O3 3.051(12) 6_545
K1 O2 3.151(12) 4_655
K1 O2 3.151(12) 5
K1 O2 3.352(12) 8_655
K1 O2 3.352(12) 2_665
K1 Si1 3.367(2) 8_655
K1 Si1 3.367(2) 2_665
K1 Si1 3.6391(18) 3
K2 O2 2.714(8) 6_545
K2 O2 2.714(8) 4_655
K2 O3 2.992(9) 6_545
K2 O3 2.992(9) 4_655
K2 O5 3.171(3) 2_565
K2 O5 3.171(3) .
K2 O3 3.316(8) 7_455
K2 O3 3.316(8) 2_565
K2 O1 3.3350(6) .
K2 O1 3.3350(6) 7
K2 Si1 3.4118(16) 6_545
K2 Si1 3.4118(16) 4_655
Si1 O2 1.555(7) .
Si1 O3 1.594(7) .
Si1 O4 1.611(4) .
Si1 O5 1.6189(11) .
Si1 K1 3.367(2) 2_665
Si1 K2 3.4118(16) 3_565
Si1 K2 3.560(2) 2_565
Si1 K1 3.6391(18) 4
Si1 K1 3.6456(19) 3_565
O1 K2 3.3350(6) 2
O2 Ca1 2.306(6) 5_554
O2 K2 2.714(8) 3_565
O2 K1 3.151(12) 3_565
O2 K1 3.352(12) 2_665
O3 U1 2.203(6) 1_565
O3 K2 2.992(9) 3_565
O3 K1 3.051(12) 4
O3 K2 3.316(8) 2_565
O4 Si1 1.611(4) 2_565
O4 K1 2.976(9) 3_565
O4 K1 2.976(9) 4
O5 Si1 1.6189(11) 7_455
O5 K1 2.960(7) 2_665
O5 K2 3.171(3) 2_565
