#------------------------------------------------------------------------------
#$Date: 2021-05-16 00:31:18 +0300 (Sun, 16 May 2021) $
#$Revision: 265250 $
#$URL: file:///home/coder/svn-repositories/cod/cif/7/22/22/7222296.cif $
#------------------------------------------------------------------------------
#
# This file is available in the Crystallography Open Database (COD),
# http://www.crystallography.net/
#
# All data on this site have been placed in the public domain by the
# contributors.
#
data_7222296
loop_
_publ_author_name
'Cunha, F. S.'
'Sczancoski, J. C.'
'Nogueira, I. C.'
'de Oliveira, V. G.'
'Lustosa, S. M. C.'
'Longo, E.'
'Cavalcante, L. S.'
_publ_section_title
;
 Structural, morphological and optical investigation of
 \b-Ag2MoO4 microcrystals obtained with different polar solvents
;
_journal_issue                   43
_journal_name_full               CrystEngComm
_journal_page_first              8207
_journal_paper_doi               10.1039/C5CE01662B
_journal_volume                  17
_journal_year                    2015
_chemical_formula_sum            'Ag2 Mo O4'
_chemical_formula_weight         375.67
_chemical_name_common            'silver molybdate'
_chemical_name_systematic        'disilver dioxido(dioxo)molybdenum'
_space_group_IT_number           227
_symmetry_cell_setting           cubic
_symmetry_space_group_name_Hall  '-F 4vw 2vw 3'
_symmetry_space_group_name_H-M   'F d -3 m :2'
_audit_creation_date             2015-07-31T18:51
_audit_creation_method           'from EXP file using GSAS2CIF'
_audit_update_record
;
2015-09-08 deposited with the CCDC.
2015-09-25 downloaded from the CCDC.
;
_cell_angle_alpha                90.0
_cell_angle_beta                 90.0
_cell_angle_gamma                90.0
_cell_formula_units_Z            8
_cell_length_a                   9.3177(4)
_cell_length_b                   9.3177(4)
_cell_length_c                   9.3177(4)
_cell_measurement_temperature    298
_cell_volume                     808.96(6)
_computing_data_collection       Jade
_computing_data_reduction        Jade
_computing_structure_refinement  GSAS
_diffrn_ambient_temperature      298
_diffrn_detector                 scintillation
_diffrn_detector_type            scintillation
_diffrn_measurement_device_type  'Rigaku AFC-7R'
_diffrn_radiation_monochromator  Jade
_diffrn_radiation_polarisn_ratio 0.5
_diffrn_radiation_probe          x-ray
_diffrn_source                   Cu
_diffrn_source_target            Cu
_diffrn_source_type              Copper
_exptl_absorpt_correction_T_max  1.00000
_exptl_absorpt_correction_T_min  1.00000
_exptl_absorpt_process_details
;   GSAS Absorption/surface roughness correction: function number 0
 No correction is applied.
;
_exptl_crystal_density_diffrn    6.169
_exptl_crystal_density_meas      6.169
_pd_block_id                     2015-07-31T18:51|AG2MOO4_C4H10|Icamira|Rigaku
_pd_calc_method                  'Rietveld Refinement'
_pd_char_colour                  brown
_pd_char_particle_morphology     'oval rods'
_pd_instr_location               ' ?'
_pd_meas_2theta_range_inc        0.02
_pd_meas_2theta_range_max        110.0
_pd_meas_2theta_range_min        10.0
_pd_meas_number_of_points        5001
_pd_meas_scan_method             disp
_pd_phase_name
'from D:/Trabalhos de Parceria/Em andamento/Laecio/Ag2MoO4-solvente'
_pd_prep_cool_rate               1
_pd_prep_pressure                1
_pd_prep_temperature             333
_pd_proc_2theta_range_inc        0.02
_pd_proc_2theta_range_max        110.0
_pd_proc_2theta_range_min        10.0
_pd_proc_info_data_reduction     Jade
_pd_proc_info_datetime           2015-07-31T18:51:51
_pd_proc_info_excluded_regions   ' ?'
_pd_proc_ls_background_function
;   GSAS Background function number 1 with  9 terms.
 Shifted Chebyshev function of 1st kind
      1:    28.5031     2:    10.8927     3:   -1.07917     4:    1.68410    
      5:    4.90954     6:  -0.324328     7:    2.41679     8:   0.381408    
      9:   0.391313    
;
_pd_proc_ls_peak_cutoff          0.00000
_pd_proc_ls_profile_function
;
 CW Profile function number 4 with  14 terms
 Pseudovoigt profile coefficients as parameterized in
 P. Thompson, D.E. Cox & J.B. Hastings (1987). J. Appl. Cryst.,20,79-83.
 Asymmetry correction of L.W. Finger, D.E. Cox & A. P. Jephcoat (1994).
 J. Appl. Cryst.,27,892-900.
 Microstrain broadening by P.W. Stephens,  (1999). J. Appl. Cryst.,32,281-289.
 Peak tails are ignored  where the intensity is below 0.0000 times the peak
   Aniso. broadening axis   0.0   0.0   1.0
;
_pd_proc_number_of_points        5001
_pd_spec_mounting                ' ?'
_refine_ls_goodness_of_fit_all   1.38
_refine_ls_goodness_of_fit_ref   1.38
_refine_ls_matrix_type           full
_refine_ls_number_parameters     11
_refine_ls_number_restraints     0
_refine_ls_R_factor_all          0.0854
_refine_ls_R_factor_gt           0.0922
_refine_ls_R_Fsqd_factor         0.04395
_refine_ls_shift/su_max          0.01
_refine_ls_shift/su_mean         0.00
_refine_ls_wR_factor_gt          0.1273
_reflns_d_resolution_high        0.951
_reflns_d_resolution_low         5.380
_reflns_limit_h_max              11
_reflns_limit_h_min              1
_reflns_limit_k_max              8
_reflns_limit_k_min              0
_reflns_limit_l_max              6
_reflns_limit_l_min              0
_reflns_number_total             72
_cod_data_source_file            c5ce01662b2.cif
_cod_data_source_block           AG2MOO4_C4H10_publ
_cod_depositor_comments
;
The following automatic conversions were performed:

'_geom_bond_publ_flag' value 'N' changed to 'n' according to
/usr/data/users/saulius/crontab/automatic-downloads/rss-feeds/RSC/lib/dictionaries/cif_core.dic
dictionary named 'cif_core.dic' version 2.4.2 from 2011-04-26 (14
times).

'_geom_angle_publ_flag' value 'N' changed to 'n' according to
/usr/data/users/saulius/crontab/automatic-downloads/rss-feeds/RSC/lib/dictionaries/cif_core.dic
dictionary named 'cif_core.dic' version 2.4.2 from 2011-04-26 (6
times).

Automatic conversion script
Id: cif_fix_values 3271 2015-04-21 07:52:19Z andrius 

 Adding full bibliography for 7222296.cif.

 Removed the _chemical_name_systematic data item since
 it had an incorrect value 'xxx'.

 Antanas Vaitkus,
 2021-04-26

 Added the correct _chemical_name_systematic data item value.

 Antanas Vaitkus,
 2021-05-16
;
_cod_original_cell_volume        808.96(1)
_cod_original_sg_symbol_H-M      'F d -3 m Z'
_cod_database_code               7222296
#BEGIN Tags that were not found in dictionaries:
_gsas_exptl_extinct_corr_t_min   1.00000
_gsas_exptl_extinct_corr_t_max   1.00000
#END Tags that were not found in dictionaries
loop_
_symmetry_equiv_pos_site_id
_symmetry_equiv_pos_as_xyz
1 +x,+y,+z
2 +z,+x,+y
3 +y,+z,+x
4 +x+1/4,+y+1/4,-z
5 -z,+x+1/4,+y+1/4
6 +y+1/4,-z,+x+1/4
7 -z+1/4,+x+1/2,-y+3/4
8 -y+3/4,-z+1/4,+x+1/2
9 +y+1/2,-z+1/4,-x+3/4
10 -x+3/4,+y+1/2,-z+1/4
11 -z+1/4,-x+3/4,+y+1/2
12 +x+1/2,-y+3/4,-z+1/4
13 +y,+x,+z
14 +z,+y,+x
15 +x,+z,+y
16 +y+1/4,+x+1/4,-z
17 -z,+y+1/4,+x+1/4
18 +x+1/4,-z,+y+1/4
19 -z+1/4,+y+1/2,-x+3/4
20 -x+3/4,-z+1/4,+y+1/2
21 +x+1/2,-z+1/4,-y+3/4
22 -y+3/4,+x+1/2,-z+1/4
23 -z+1/4,-y+3/4,+x+1/2
24 +y+1/2,-x+3/4,-z+1/4
-1 -x,-y,-z
-2 -z,-x,-y
-3 -y,-z,-x
-4 -x+3/4,-y+3/4,+z
-5 +z,-x+3/4,-y+3/4
-6 -y+3/4,+z,-x+3/4
-7 +z+3/4,-x+1/2,+y+1/4
-8 +y+1/4,+z+3/4,-x+1/2
-9 -y+1/2,+z+3/4,+x+1/4
-10 +x+1/4,-y+1/2,+z+3/4
-11 +z+3/4,+x+1/4,-y+1/2
-12 -x+1/2,+y+1/4,+z+3/4
-13 -y,-x,-z
-14 -z,-y,-x
-15 -x,-z,-y
-16 -y+3/4,-x+3/4,+z
-17 +z,-y+3/4,-x+3/4
-18 -x+3/4,+z,-y+3/4
-19 +z+3/4,-y+1/2,+x+1/4
-20 +x+1/4,+z+3/4,-y+1/2
-21 -x+1/2,+z+3/4,+y+1/4
-22 +y+1/4,-x+1/2,+z+3/4
-23 +z+3/4,+y+1/4,-x+1/2
-24 -y+1/2,+x+1/4,+z+3/4
101 +x,+y+1/2,+z+1/2
102 +z,+x+1/2,+y+1/2
103 +y,+z+1/2,+x+1/2
104 +x+1/4,+y+3/4,-z+1/2
105 -z,+x+3/4,+y+3/4
106 +y+1/4,-z+1/2,+x+3/4
107 -z+1/4,+x,-y+1/4
108 -y+3/4,-z+3/4,+x
109 +y+1/2,-z+3/4,-x+1/4
110 -x+3/4,+y,-z+3/4
111 -z+1/4,-x+1/4,+y
112 +x+1/2,-y+1/4,-z+3/4
113 +y,+x+1/2,+z+1/2
114 +z,+y+1/2,+x+1/2
115 +x,+z+1/2,+y+1/2
116 +y+1/4,+x+3/4,-z+1/2
117 -z,+y+3/4,+x+3/4
118 +x+1/4,-z+1/2,+y+3/4
119 -z+1/4,+y,-x+1/4
120 -x+3/4,-z+3/4,+y
121 +x+1/2,-z+3/4,-y+1/4
122 -y+3/4,+x,-z+3/4
123 -z+1/4,-y+1/4,+x
124 +y+1/2,-x+1/4,-z+3/4
-101 -x,-y+1/2,-z+1/2
-102 -z,-x+1/2,-y+1/2
-103 -y,-z+1/2,-x+1/2
-104 -x+3/4,-y+1/4,+z+1/2
-105 +z,-x+1/4,-y+1/4
-106 -y+3/4,+z+1/2,-x+1/4
-107 +z+3/4,-x,+y+3/4
-108 +y+1/4,+z+1/4,-x
-109 -y+1/2,+z+1/4,+x+3/4
-110 +x+1/4,-y,+z+1/4
-111 +z+3/4,+x+3/4,-y
-112 -x+1/2,+y+3/4,+z+1/4
-113 -y,-x+1/2,-z+1/2
-114 -z,-y+1/2,-x+1/2
-115 -x,-z+1/2,-y+1/2
-116 -y+3/4,-x+1/4,+z+1/2
-117 +z,-y+1/4,-x+1/4
-118 -x+3/4,+z+1/2,-y+1/4
-119 +z+3/4,-y,+x+3/4
-120 +x+1/4,+z+1/4,-y
-121 -x+1/2,+z+1/4,+y+3/4
-122 +y+1/4,-x,+z+1/4
-123 +z+3/4,+y+3/4,-x
-124 -y+1/2,+x+3/4,+z+1/4
201 +x+1/2,+y,+z+1/2
202 +z+1/2,+x,+y+1/2
203 +y+1/2,+z,+x+1/2
204 +x+3/4,+y+1/4,-z+1/2
205 -z+1/2,+x+1/4,+y+3/4
206 +y+3/4,-z,+x+3/4
207 -z+3/4,+x+1/2,-y+1/4
208 -y+1/4,-z+1/4,+x
209 +y,-z+1/4,-x+1/4
210 -x+1/4,+y+1/2,-z+3/4
211 -z+3/4,-x+3/4,+y
212 +x,-y+3/4,-z+3/4
213 +y+1/2,+x,+z+1/2
214 +z+1/2,+y,+x+1/2
215 +x+1/2,+z,+y+1/2
216 +y+3/4,+x+1/4,-z+1/2
217 -z+1/2,+y+1/4,+x+3/4
218 +x+3/4,-z,+y+3/4
219 -z+3/4,+y+1/2,-x+1/4
220 -x+1/4,-z+1/4,+y
221 +x,-z+1/4,-y+1/4
222 -y+1/4,+x+1/2,-z+3/4
223 -z+3/4,-y+3/4,+x
224 +y,-x+3/4,-z+3/4
-201 -x+1/2,-y,-z+1/2
-202 -z+1/2,-x,-y+1/2
-203 -y+1/2,-z,-x+1/2
-204 -x+1/4,-y+3/4,+z+1/2
-205 +z+1/2,-x+3/4,-y+1/4
-206 -y+1/4,+z,-x+1/4
-207 +z+1/4,-x+1/2,+y+3/4
-208 +y+3/4,+z+3/4,-x
-209 -y,+z+3/4,+x+3/4
-210 +x+3/4,-y+1/2,+z+1/4
-211 +z+1/4,+x+1/4,-y
-212 -x,+y+1/4,+z+1/4
-213 -y+1/2,-x,-z+1/2
-214 -z+1/2,-y,-x+1/2
-215 -x+1/2,-z,-y+1/2
-216 -y+1/4,-x+3/4,+z+1/2
-217 +z+1/2,-y+3/4,-x+1/4
-218 -x+1/4,+z,-y+1/4
-219 +z+1/4,-y+1/2,+x+3/4
-220 +x+3/4,+z+3/4,-y
-221 -x,+z+3/4,+y+3/4
-222 +y+3/4,-x+1/2,+z+1/4
-223 +z+1/4,+y+1/4,-x
-224 -y,+x+1/4,+z+1/4
301 +x+1/2,+y+1/2,+z
302 +z+1/2,+x+1/2,+y
303 +y+1/2,+z+1/2,+x
304 +x+3/4,+y+3/4,-z
305 -z+1/2,+x+3/4,+y+1/4
306 +y+3/4,-z+1/2,+x+1/4
307 -z+3/4,+x,-y+3/4
308 -y+1/4,-z+3/4,+x+1/2
309 +y,-z+3/4,-x+3/4
310 -x+1/4,+y,-z+1/4
311 -z+3/4,-x+1/4,+y+1/2
312 +x,-y+1/4,-z+1/4
313 +y+1/2,+x+1/2,+z
314 +z+1/2,+y+1/2,+x
315 +x+1/2,+z+1/2,+y
316 +y+3/4,+x+3/4,-z
317 -z+1/2,+y+3/4,+x+1/4
318 +x+3/4,-z+1/2,+y+1/4
319 -z+3/4,+y,-x+3/4
320 -x+1/4,-z+3/4,+y+1/2
321 +x,-z+3/4,-y+3/4
322 -y+1/4,+x,-z+1/4
323 -z+3/4,-y+1/4,+x+1/2
324 +y,-x+1/4,-z+1/4
-301 -x+1/2,-y+1/2,-z
-302 -z+1/2,-x+1/2,-y
-303 -y+1/2,-z+1/2,-x
-304 -x+1/4,-y+1/4,+z
-305 +z+1/2,-x+1/4,-y+3/4
-306 -y+1/4,+z+1/2,-x+3/4
-307 +z+1/4,-x,+y+1/4
-308 +y+3/4,+z+1/4,-x+1/2
-309 -y,+z+1/4,+x+1/4
-310 +x+3/4,-y,+z+3/4
-311 +z+1/4,+x+3/4,-y+1/2
-312 -x,+y+3/4,+z+3/4
-313 -y+1/2,-x+1/2,-z
-314 -z+1/2,-y+1/2,-x
-315 -x+1/2,-z+1/2,-y
-316 -y+1/4,-x+1/4,+z
-317 +z+1/2,-y+1/4,-x+3/4
-318 -x+1/4,+z+1/2,-y+3/4
-319 +z+1/4,-y,+x+1/4
-320 +x+3/4,+z+1/4,-y+1/2
-321 -x,+z+1/4,+y+1/4
-322 +y+3/4,-x,+z+3/4
-323 +z+1/4,+y+3/4,-x+1/2
-324 -y,+x+3/4,+z+3/4
loop_
_atom_site_type_symbol
_atom_site_label
_atom_site_fract_x
_atom_site_fract_y
_atom_site_fract_z
_atom_site_occupancy
_atom_site_thermal_displace_type
_atom_site_U_iso_or_equiv
_atom_site_symmetry_multiplicity
Ag Ag1 0.5 0.5 0.5 1.0 Uiso 0.02098 16
Mo Mo1 0.125 0.125 0.125 1.0 Uiso 0.01138 8
O O1 0.23064 0.23064 0.23064 1.0 Uiso 0.01946 32
loop_
_atom_type_symbol
_atom_type_number_in_cell
_atom_type_scat_dispersion_real
_atom_type_scat_dispersion_imag
_atom_type_scat_Cromer_Mann_a1
_atom_type_scat_Cromer_Mann_a2
_atom_type_scat_Cromer_Mann_a3
_atom_type_scat_Cromer_Mann_a4
_atom_type_scat_Cromer_Mann_b1
_atom_type_scat_Cromer_Mann_b2
_atom_type_scat_Cromer_Mann_b3
_atom_type_scat_Cromer_Mann_b4
_atom_type_scat_Cromer_Mann_c
_atom_type_scat_source
Ag 16.0 0.000 0.000 19.1812 0.64618 15.9719 7.19123 5.27475 21.7326 0.35753
66.1147 5.21572 International_Tables_Vol_C
Mo 8.0 0.000 0.000 17.8871 1.03649 11.1750 8.48061 6.57891 0.05888 0.0000
0.0000 0.34494 International_Tables_Vol_C
O 32.0 0.000 0.000 3.76936 15.0797 2.53342 6.30430 1.91579 40.3445 1.55094
0.31291 0.22789 International_Tables_Vol_C
loop_
_diffrn_radiation_wavelength
_diffrn_radiation_wavelength_wt
_diffrn_radiation_type
_diffrn_radiation_wavelength_id
1.540500 1.000 CuK\a 1
1.544300 0.500 CuK\a 2
loop_
_geom_angle_atom_site_label_1
_geom_angle_atom_site_label_2
_geom_angle_atom_site_label_3
_geom_angle
_geom_angle_site_symmetry_1
_geom_angle_site_symmetry_3
_geom_angle_publ_flag
O1 Mo1 O1 109.47120(10) 1_555 107_443 n
O1 Mo1 O1 109.47120(30) 1_555 111_443 n
O1 Mo1 O1 109.47120(10) 1_555 -105_454 n
O1 Mo1 O1 109.47120(10) 107_443 111_443 n
O1 Mo1 O1 109.47120(30) 107_443 -105_454 n
O1 Mo1 O1 109.47120(10) 111_443 -105_454 n
loop_
_geom_bond_atom_site_label_1
_geom_bond_atom_site_label_2
_geom_bond_distance
_geom_bond_site_symmetry_2
_geom_bond_publ_flag
Ag1 O1 2.522770(10) 4_556 n
Ag1 O1 2.522770(10) 5_655 n
Ag1 O1 2.522770(10) 6_565 n
Ag1 O1 2.522770(10) -4_555 n
Ag1 O1 2.522770(10) -5_555 n
Ag1 O1 2.522770(10) -6_555 n
Mo1 O1 1.70489 1_555 n
Mo1 O1 1.70489 107_555 n
Mo1 O1 1.70489 111_555 n
Mo1 O1 1.70489 -105_544 n
O1 Ag1 2.522770(10) -4_555 n
O1 Ag1 2.522770(10) -5_555 n
O1 Ag1 2.522770(10) -6_555 n
O1 Mo1 1.70489 1_555 n
loop_
_pd_meas_counts_total
_pd_proc_ls_weight
_pd_proc_intensity_bkg_calc
_pd_calc_intensity_total
30.0 0.03333 22.50769 22.54852
29.0 0.03448 22.44795 22.48896
27.0 0.0370 22.38847 22.42967
32.0 0.03125 22.32926 22.37064
14.0 0.0714 22.27031 22.31188
18.0 0.0556 22.21162 22.25338
32.0 0.03125 22.15319 22.19514
26.0 0.0385 22.09503 22.13717
28.0 0.0357 22.03712 22.07945
17.0 0.0588 21.97947 22.02200
27.0 0.0370 21.92208 21.96481
16.0 0.0625 21.86495 21.90788
34.0 0.02941 21.80807 21.88106
20.0 0.0500 21.75146 21.82470
18.0 0.0556 21.69509 21.76859
19.0 0.0526 21.63898 21.71275
21.0 0.0476 21.58313 21.67201
18.0 0.0556 21.52753 21.61671
29.0 0.03448 21.47219 21.56165
17.0 0.0588 21.41709 21.50686
20.0 0.0500 21.36224 21.45231
31.0 0.03226 21.30765 21.39802
25.0 0.0400 21.25331 21.34398
28.0 0.0357 21.19921 21.29020
22.0 0.0455 21.14537 21.23666
24.0 0.0417 21.09177 21.18338
17.0 0.0588 21.03842 21.13034
28.0 0.0357 20.98532 21.07755
16.0 0.0625 20.93246 21.02501
17.0 0.0588 20.87985 20.97273
24.0 0.0417 20.82748 20.92068
20.0 0.0500 20.77535 20.86889
28.0 0.0357 20.72347 20.81733
19.0 0.0526 20.67184 20.76603
22.0 0.0455 20.62044 20.71497
21.0 0.0476 20.56929 20.66415
18.0 0.0556 20.51837 20.61357
11.0 0.0909 20.46770 20.56324
18.0 0.0556 20.41726 20.51315
30.0 0.03333 20.36707 20.46330
25.0 0.0400 20.31710 20.41369
22.0 0.0455 20.26739 20.36432
16.0 0.0625 20.21790 20.31520
18.0 0.0556 20.16865 20.26631
28.0 0.0357 20.11963 20.21765
16.0 0.0625 20.07086 20.16924
19.0 0.0526 20.02231 20.12106
23.0 0.0435 19.97400 20.07312
13.0 0.0769 19.92592 20.02541
20.0 0.0500 19.87807 19.97794
25.0 0.0400 19.83045 19.93071
18.0 0.0556 19.78306 19.88370
21.0 0.0476 19.73591 19.83694
27.0 0.0370 19.68898 19.79040
19.0 0.0526 19.64228 19.74409
20.0 0.0500 19.59581 19.69802
19.0 0.0526 19.54957 19.65218
21.0 0.0476 19.50355 19.60656
15.0 0.0667 19.45776 19.56119
21.0 0.0476 19.41220 19.51603
12.0 0.0833 19.36686 19.47110
20.0 0.0500 19.32174 19.42641
20.0 0.0500 19.27685 19.38194
21.0 0.0476 19.23218 19.33770
22.0 0.0455 19.18774 19.29368
14.0 0.0714 19.14351 19.24989
19.0 0.0526 19.09950 19.20632
10.0 0.1000 19.05572 19.16298
24.0 0.0417 19.01216 19.11987
10.0 0.1000 18.96881 19.07697
19.0 0.0526 18.92569 19.03430
18.0 0.0556 18.88278 18.99185
17.0 0.0588 18.84009 18.94962
20.0 0.0500 18.79761 18.90762
20.0 0.0500 18.75536 18.86583
14.0 0.0714 18.71331 18.82426
26.0 0.0385 18.67149 18.78291
19.0 0.0526 18.62987 18.74179
16.0 0.0625 18.58847 18.70087
29.0 0.03448 18.54729 18.66019
20.0 0.0500 18.50631 18.61971
23.0 0.0435 18.46555 18.57945
25.0 0.0400 18.42500 18.53941
27.0 0.0370 18.38466 18.49959
26.0 0.0385 18.34452 18.45998
22.0 0.0455 18.30461 18.42059
22.0 0.0455 18.26489 18.38140
22.0 0.0455 18.22539 18.34243
20.0 0.0500 18.18609 18.30368
10.0 0.1000 18.14700 18.26514
21.0 0.0476 18.10812 18.22681
28.0 0.0357 18.06944 18.18869
20.0 0.0500 18.03097 18.15078
23.0 0.0435 17.99270 18.11309
22.0 0.0455 17.95464 18.07560
16.0 0.0625 17.91678 18.03833
12.0 0.0833 17.87912 18.00126
24.0 0.0417 17.84166 17.96440
15.0 0.0667 17.80441 17.92775
18.0 0.0556 17.76736 17.89131
24.0 0.0417 17.73050 17.85508
30.0 0.03333 17.69385 17.81904
17.0 0.0588 17.65740 17.78322
26.0 0.0385 17.62115 17.74761
18.0 0.0556 17.58509 17.71220
17.0 0.0588 17.54923 17.67699
25.0 0.0400 17.51357 17.64199
25.0 0.0400 17.47811 17.60719
15.0 0.0667 17.44284 17.57260
22.0 0.0455 17.40777 17.53822
17.0 0.0588 17.37288 17.50403
15.0 0.0667 17.33820 17.47005
17.0 0.0588 17.30371 17.43626
15.0 0.0667 17.26941 17.40268
18.0 0.0556 17.23531 17.36930
19.0 0.0526 17.20139 17.33613
24.0 0.0417 17.16767 17.30315
22.0 0.0455 17.13414 17.27037
21.0 0.0476 17.10080 17.23779
22.0 0.0455 17.06765 17.20541
18.0 0.0556 17.03469 17.17323
20.0 0.0500 17.00191 17.14125
20.0 0.0500 16.96933 17.10947
20.0 0.0500 16.93693 17.07788
22.0 0.0455 16.90472 17.04650
19.0 0.0526 16.87270 17.01531
15.0 0.0667 16.84086 16.98432
17.0 0.0588 16.80920 16.95352
16.0 0.0625 16.77773 16.92292
12.0 0.0833 16.74645 16.89251
17.0 0.0588 16.71535 16.86230
15.0 0.0667 16.68443 16.83229
12.0 0.0833 16.65369 16.80247
18.0 0.0556 16.62315 16.77286
23.0 0.0435 16.59277 16.74342
24.0 0.0417 16.56258 16.71419
18.0 0.0556 16.53257 16.69156
17.0 0.0588 16.50274 16.66273
20.0 0.0500 16.47309 16.63409
11.0 0.0909 16.44361 16.60564
16.0 0.0625 16.41432 16.58057
24.0 0.0417 16.38521 16.55252
22.0 0.0455 16.35626 16.52466
15.0 0.0667 16.32751 16.49699
17.0 0.0588 16.29891 16.46951
12.0 0.0833 16.27051 16.44223
22.0 0.0455 16.24227 16.41513
16.0 0.0625 16.21421 16.38824
19.0 0.0526 16.18633 16.36153
21.0 0.0476 16.15861 16.33501
15.0 0.0667 16.13107 16.30869
20.0 0.0500 16.10370 16.28255
20.0 0.0500 16.07650 16.25661
16.0 0.0625 16.04948 16.23086
16.0 0.0625 16.02263 16.20530
16.0 0.0625 15.99595 16.17994
20.0 0.0500 15.96943 16.15476
24.0 0.0417 15.94309 16.12978
27.0 0.0370 15.91691 16.10499
11.0 0.0909 15.89091 16.08038
20.0 0.0500 15.86507 16.05598
23.0 0.0435 15.83940 16.03176
17.0 0.0588 15.81389 16.00773
24.0 0.0417 15.78856 15.98391
16.0 0.0625 15.76339 15.96026
22.0 0.0455 15.73838 15.93682
14.0 0.0714 15.71354 15.91356
16.0 0.0625 15.68886 15.89050
15.0 0.0667 15.66435 15.86763
22.0 0.0455 15.64000 15.84495
29.0 0.03448 15.61581 15.82247
7.0 0.1429 15.59178 15.80018
13.0 0.0769 15.56792 15.77809
15.0 0.0667 15.54422 15.75619
12.0 0.0833 15.52068 15.73449
15.0 0.0667 15.49730 15.71298
22.0 0.0455 15.47408 15.69167
12.0 0.0833 15.45102 15.67056
13.0 0.0769 15.42811 15.64965
25.0 0.0400 15.40537 15.62893
13.0 0.0769 15.38279 15.60841
12.0 0.0833 15.36036 15.58809
14.0 0.0714 15.33809 15.56797
20.0 0.0500 15.31598 15.54805
17.0 0.0588 15.29402 15.52834
20.0 0.0500 15.27221 15.50883
20.0 0.0500 15.25057 15.48952
19.0 0.0526 15.22907 15.47042
17.0 0.0588 15.20773 15.45152
10.0 0.1000 15.18655 15.43283
21.0 0.0476 15.16552 15.41435
24.0 0.0417 15.14464 15.39608
16.0 0.0625 15.12391 15.37802
13.0 0.0769 15.10334 15.36018
20.0 0.0500 15.08291 15.34254
16.0 0.0625 15.06264 15.32513
16.0 0.0625 15.04252 15.30794
25.0 0.0400 15.02254 15.29096
15.0 0.0667 15.00272 15.27420
21.0 0.0476 14.98305 15.25767
15.0 0.0667 14.96352 15.24137
13.0 0.0769 14.94414 15.22529
16.0 0.0625 14.92491 15.20944
23.0 0.0435 14.90583 15.19383
21.0 0.0476 14.88689 15.17845
14.0 0.0714 14.86810 15.16331
23.0 0.0435 14.84946 15.14842
17.0 0.0588 14.83096 15.13376
15.0 0.0667 14.81261 15.11936
17.0 0.0588 14.79440 15.10521
16.0 0.0625 14.77633 15.09131
15.0 0.0667 14.75841 15.07767
10.0 0.1000 14.74063 15.06430
20.0 0.0500 14.72299 15.05120
15.0 0.0667 14.70550 15.03836
11.0 0.0909 14.68814 15.02581
16.0 0.0625 14.67094 15.01353
12.0 0.0833 14.65386 15.00155
21.0 0.0476 14.63693 14.98986
14.0 0.0714 14.62014 14.97847
13.0 0.0769 14.60349 14.96739
20.0 0.0500 14.58698 14.95662
14.0 0.0714 14.57060 14.94617
16.0 0.0625 14.55437 14.93605
13.0 0.0769 14.53828 14.92626
9.0 0.1111 14.52232 14.91683
12.0 0.0833 14.50649 14.90775
16.0 0.0625 14.49080 14.89903
19.0 0.0526 14.47525 14.89069
15.0 0.0667 14.45984 14.88273
27.0 0.0370 14.44456 14.87518
20.0 0.0500 14.42941 14.86804
22.0 0.0455 14.41440 14.86132
18.0 0.0556 14.39953 14.85504
17.0 0.0588 14.38478 14.84922
13.0 0.0769 14.37017 14.84387
24.0 0.0417 14.35569 14.83901
19.0 0.0526 14.34134 14.83465
8.0 0.1250 14.32713 14.83083
13.0 0.0769 14.31305 14.82756
16.0 0.0625 14.29910 14.82487
8.0 0.1250 14.28528 14.82277
14.0 0.0714 14.27158 14.82130
15.0 0.0667 14.25802 14.82050
20.0 0.0500 14.24459 14.82038
23.0 0.0435 14.23129 14.82098
15.0 0.0667 14.21811 14.82234
22.0 0.0455 14.20506 14.82451
12.0 0.0833 14.19214 14.82753
21.0 0.0476 14.17935 14.83144
15.0 0.0667 14.16668 14.83629
26.0 0.0385 14.15414 14.84214
24.0 0.0417 14.14173 14.84907
12.0 0.0833 14.12944 14.85713
17.0 0.0588 14.11728 14.86639
8.0 0.1250 14.10524 14.87695
20.0 0.0500 14.09332 14.88890
12.0 0.0833 14.08153 14.90232
17.0 0.0588 14.06987 14.91735
19.0 0.0526 14.05832 14.93410
18.0 0.0556 14.04690 14.95271
14.0 0.0714 14.03560 14.97333
16.0 0.0625 14.02443 14.99615
15.0 0.0667 14.01337 15.02136
11.0 0.0909 14.00244 15.04920
18.0 0.0556 13.99162 15.07990
17.0 0.0588 13.98093 15.11378
17.0 0.0588 13.97035 15.15116
18.0 0.0556 13.95990 15.19244
14.0 0.0714 13.94957 15.23810
19.0 0.0526 13.93935 15.28865
12.0 0.0833 13.92925 15.34477
15.0 0.0667 13.91927 15.40723
20.0 0.0500 13.90941 15.47697
14.0 0.0714 13.89966 15.55518
15.0 0.0667 13.89003 15.64336
22.0 0.0455 13.88052 15.74343
19.0 0.0526 13.87113 15.85791
20.0 0.0500 13.86185 15.99029
22.0 0.0455 13.85268 16.14553
15.0 0.0667 13.84363 16.33117
16.0 0.0625 13.83469 16.56054
24.0 0.0417 13.82587 16.86582
24.0 0.0417 13.81717 17.33452
21.0 0.0476 13.80857 18.14451
26.0 0.0385 13.80009 19.47967
33.0 0.03030 13.79172 21.40260
21.0 0.0476 13.78346 23.85534
23.0 0.0435 13.77532 26.75857
29.0 0.03448 13.76729 29.93603
27.0 0.0370 13.75936 33.35473
30.0 0.03333 13.75155 37.02189
41.0 0.02439 13.74385 40.85280
44.0 0.02273 13.73626 44.88867
49.0 0.02041 13.72878 49.21149
48.0 0.02083 13.72140 53.75739
51.0 0.01961 13.71414 58.52385
61.0 0.01639 13.70698 63.62662
57.0 0.01754 13.69994 69.07980
64.0 0.01563 13.69300 74.83417
68.0 0.01471 13.68616 80.95376
79.0 0.01266 13.67944 87.55277
108.0 0.00926 13.67282 94.66660
86.0 0.01163 13.66631 102.28989
111.0 0.00901 13.65990 110.48851
118.0 0.00847 13.65360 119.40240
128.0 0.00781 13.64741 129.16833
152.0 0.00658 13.64132 139.88991
149.0 0.00671 13.63533 151.68686
173.0 0.00578 13.62945 164.74741
173.0 0.00578 13.62367 179.33910
193.0 0.00518 13.61800 195.80522
208.0 0.00481 13.61243 214.58420
236.0 0.00424 13.60696 236.26230
302.0 0.003311 13.60159 261.66037
306.0 0.003268 13.59633 291.97690
330.0 0.003030 13.59117 329.06345
416.0 0.002404 13.58611 376.04355
430.0 0.002326 13.58114 438.75232
496.0 0.002016 13.57629 526.86914
581.0 0.001721 13.57153 641.93842
606.0 0.001650 13.56687 734.42926
612.0 0.001634 13.56231 689.76324
529.0 0.001890 13.55785 521.91614
340.0 0.002941 13.55349 346.70734
226.0 0.00442 13.54923 192.50000
142.0 0.00704 13.54506 103.15218
70.0 0.01429 13.54100 64.65572
51.0 0.01961 13.53703 48.44588
29.0 0.03448 13.53315 39.82467
19.0 0.0526 13.52938 34.26190
26.0 0.0385 13.52570 30.36794
13.0 0.0769 13.52212 27.51875
20.0 0.0500 13.51864 25.36400
19.0 0.0526 13.51524 23.69057
18.0 0.0556 13.51195 22.36222
18.0 0.0556 13.50875 21.28832
22.0 0.0455 13.50564 20.40651
16.0 0.0625 13.50264 19.67267
12.0 0.0833 13.49972 19.05481
12.0 0.0833 13.49689 18.52926
20.0 0.0500 13.49416 18.07818
18.0 0.0556 13.49152 17.68786
21.0 0.0476 13.48898 17.34767
15.0 0.0667 13.48653 17.04925
18.0 0.0556 13.48417 16.78589
16.0 0.0625 13.48190 16.55224
9.0 0.1111 13.47972 16.34392
18.0 0.0556 13.47763 16.15735
9.0 0.1111 13.47564 15.98956
14.0 0.0714 13.47373 15.83809
18.0 0.0556 13.47192 15.70085
25.0 0.0400 13.47019 15.58084
11.0 0.0909 13.46855 15.46713
16.0 0.0625 13.46700 15.36316
12.0 0.0833 13.46554 15.26785
16.0 0.0625 13.46417 15.18026
15.0 0.0667 13.46289 15.10195
12.0 0.0833 13.46170 15.02749
15.0 0.0667 13.46059 14.95862
16.0 0.0625 13.45957 14.89482
13.0 0.0769 13.45863 14.83558
13.0 0.0769 13.45779 14.78051
17.0 0.0588 13.45703 14.72923
18.0 0.0556 13.45635 14.68140
16.0 0.0625 13.45576 14.63674
14.0 0.0714 13.45526 14.59499
9.0 0.1111 13.45484 14.55591
12.0 0.0833 13.45451 14.51929
23.0 0.0435 13.45426 14.48493
12.0 0.0833 13.45409 14.45268
21.0 0.0476 13.45401 14.42237
14.0 0.0714 13.45401 14.39387
18.0 0.0556 13.45410 14.36705
20.0 0.0500 13.45426 14.34179
13.0 0.0769 13.45452 14.31798
14.0 0.0714 13.45485 14.29554
19.0 0.0526 13.45526 14.27438
14.0 0.0714 13.45576 14.25441
13.0 0.0769 13.45634 14.23556
23.0 0.0435 13.45699 14.21776
15.0 0.0667 13.45774 14.20096
21.0 0.0476 13.45856 14.18508
19.0 0.0526 13.45945 14.17009
19.0 0.0526 13.46043 14.15593
8.0 0.1250 13.46149 14.14256
10.0 0.1000 13.46263 14.12993
11.0 0.0909 13.46385 14.11800
14.0 0.0714 13.46515 14.10676
20.0 0.0500 13.46652 14.09614
10.0 0.1000 13.46797 14.08613
10.0 0.1000 13.46951 14.07669
11.0 0.0909 13.47111 14.06781
13.0 0.0769 13.47280 14.05944
12.0 0.0833 13.47456 14.05159
19.0 0.0526 13.47640 14.04420
18.0 0.0556 13.47832 14.03728
15.0 0.0667 13.48031 14.03079
22.0 0.0455 13.48238 14.02472
12.0 0.0833 13.48452 14.01906
14.0 0.0714 13.48674 14.01378
11.0 0.0909 13.48903 14.00888
20.0 0.0500 13.49140 14.00432
20.0 0.0500 13.49384 14.00012
15.0 0.0667 13.49636 13.99625
22.0 0.0455 13.49895 13.99270
16.0 0.0625 13.50161 13.98945
16.0 0.0625 13.50435 13.98650
15.0 0.0667 13.50716 13.98384
12.0 0.0833 13.51004 13.98146
17.0 0.0588 13.51300 13.97935
11.0 0.0909 13.51603 13.97750
8.0 0.1250 13.51913 13.97590
13.0 0.0769 13.52230 13.97455
13.0 0.0769 13.52554 13.97343
9.0 0.1111 13.52886 13.97254
20.0 0.0500 13.53224 13.97188
12.0 0.0833 13.53570 13.97144
15.0 0.0667 13.53922 13.97121
21.0 0.0476 13.54282 13.97118
18.0 0.0556 13.54648 13.97136
8.0 0.1250 13.55022 13.97173
13.0 0.0769 13.55402 13.97229
14.0 0.0714 13.55789 13.97304
13.0 0.0769 13.56184 13.97397
14.0 0.0714 13.56585 13.97508
15.0 0.0667 13.56993 13.97636
17.0 0.0588 13.57407 13.97781
15.0 0.0667 13.57829 13.97942
15.0 0.0667 13.58257 13.98120
15.0 0.0667 13.58692 13.98314
13.0 0.0769 13.59133 13.98523
13.0 0.0769 13.59582 13.98747
15.0 0.0667 13.60037 13.98987
15.0 0.0667 13.60498 13.99240
15.0 0.0667 13.60966 13.99509
13.0 0.0769 13.61441 13.99791
12.0 0.0833 13.61922 14.00087
21.0 0.0476 13.62409 14.00397
19.0 0.0526 13.62904 14.00720
8.0 0.1250 13.63404 14.01056
12.0 0.0833 13.63911 14.01405
16.0 0.0625 13.64424 14.01767
13.0 0.0769 13.64944 14.02140
12.0 0.0833 13.65470 14.02527
14.0 0.0714 13.66003 14.02926
16.0 0.0625 13.66541 14.03336
11.0 0.0909 13.67086 14.03758
13.0 0.0769 13.67638 14.04191
8.0 0.1250 13.68195 14.04636
10.0 0.1000 13.68759 14.05093
13.0 0.0769 13.69329 14.05560
16.0 0.0625 13.69905 14.06038
10.0 0.1000 13.70487 14.06527
13.0 0.0769 13.71076 14.07026
16.0 0.0625 13.71670 14.07536
12.0 0.0833 13.72270 14.08056
12.0 0.0833 13.72877 14.08587
15.0 0.0667 13.73489 14.09128
13.0 0.0769 13.74108 14.09678
19.0 0.0526 13.74732 14.10239
17.0 0.0588 13.75362 14.10809
12.0 0.0833 13.75999 14.11389
20.0 0.0500 13.76641 14.11979
25.0 0.0400 13.77289 14.12578
15.0 0.0667 13.77943 14.13186
20.0 0.0500 13.78602 14.13803
18.0 0.0556 13.79268 14.14430
14.0 0.0714 13.79939 14.15065
21.0 0.0476 13.80616 14.15710
18.0 0.0556 13.81299 14.16364
16.0 0.0625 13.81987 14.17026
16.0 0.0625 13.82681 14.17697
19.0 0.0526 13.83381 14.18377
14.0 0.0714 13.84086 14.19065
19.0 0.0526 13.84797 14.19762
9.0 0.1111 13.85513 14.20467
22.0 0.0455 13.86236 14.21181
11.0 0.0909 13.86963 14.21902
19.0 0.0526 13.87696 14.22632
18.0 0.0556 13.88435 14.23510
15.0 0.0667 13.89179 14.24257
12.0 0.0833 13.89929 14.25011
15.0 0.0667 13.90684 14.25773
18.0 0.0556 13.91444 14.26543
10.0 0.1000 13.92210 14.27321
14.0 0.0714 13.92980 14.28177
17.0 0.0588 13.93757 14.28970
15.0 0.0667 13.94539 14.29772
20.0 0.0500 13.95326 14.30581
10.0 0.1000 13.96118 14.31397
7.0 0.1429 13.96915 14.32221
11.0 0.0909 13.97718 14.33053
13.0 0.0769 13.98526 14.33892
24.0 0.0417 13.99339 14.34738
15.0 0.0667 14.00158 14.35591
9.0 0.1111 14.00981 14.36452
18.0 0.0556 14.01810 14.37320
12.0 0.0833 14.02643 14.38195
14.0 0.0714 14.03482 14.39078
17.0 0.0588 14.04325 14.39967
8.0 0.1250 14.05174 14.40863
7.0 0.1429 14.06028 14.41767
16.0 0.0625 14.06886 14.42677
12.0 0.0833 14.07750 14.43595
16.0 0.0625 14.08619 14.44519
18.0 0.0556 14.09492 14.45450
18.0 0.0556 14.10371 14.46388
18.0 0.0556 14.11254 14.47332
11.0 0.0909 14.12142 14.48284
20.0 0.0500 14.13035 14.49242
15.0 0.0667 14.13933 14.50207
16.0 0.0625 14.14835 14.51179
16.0 0.0625 14.15742 14.52157
12.0 0.0833 14.16655 14.53142
11.0 0.0909 14.17572 14.54133
12.0 0.0833 14.18493 14.55131
6.0 0.1667 14.19419 14.56135
15.0 0.0667 14.20350 14.57146
17.0 0.0588 14.21285 14.58163
15.0 0.0667 14.22226 14.59187
17.0 0.0588 14.23170 14.60217
21.0 0.0476 14.24120 14.61254
16.0 0.0625 14.25074 14.62297
14.0 0.0714 14.26032 14.63346
9.0 0.1111 14.26995 14.64402
16.0 0.0625 14.27962 14.65463
20.0 0.0500 14.28934 14.66531
20.0 0.0500 14.29911 14.67606
16.0 0.0625 14.30891 14.68686
16.0 0.0625 14.31876 14.69773
16.0 0.0625 14.32866 14.70866
14.0 0.0714 14.33860 14.71965
13.0 0.0769 14.34859 14.73070
16.0 0.0625 14.35861 14.74181
27.0 0.0370 14.36869 14.75299
18.0 0.0556 14.37880 14.76422
21.0 0.0476 14.38895 14.77552
15.0 0.0667 14.39915 14.78687
17.0 0.0588 14.40939 14.79829
14.0 0.0714 14.41968 14.80976
16.0 0.0625 14.43001 14.82130
16.0 0.0625 14.44037 14.83290
18.0 0.0556 14.45078 14.84455
8.0 0.1250 14.46123 14.85626
17.0 0.0588 14.47172 14.86804
9.0 0.1111 14.48225 14.87987
19.0 0.0526 14.49283 14.89177
14.0 0.0714 14.50344 14.90372
12.0 0.0833 14.51410 14.91573
18.0 0.0556 14.52479 14.92780
15.0 0.0667 14.53553 14.93992
14.0 0.0714 14.54630 14.95211
12.0 0.0833 14.55712 14.96436
20.0 0.0500 14.56797 14.97666
20.0 0.0500 14.57887 14.98902
15.0 0.0667 14.58980 15.00144
21.0 0.0476 14.60077 15.01392
18.0 0.0556 14.61179 15.02645
14.0 0.0714 14.62283 15.03905
16.0 0.0625 14.63392 15.05170
17.0 0.0588 14.64505 15.06440
13.0 0.0769 14.65622 15.07717
10.0 0.1000 14.66742 15.09000
20.0 0.0500 14.67866 15.10288
12.0 0.0833 14.68994 15.11582
19.0 0.0526 14.70125 15.12881
15.0 0.0667 14.71260 15.14187
18.0 0.0556 14.72399 15.15498
15.0 0.0667 14.73542 15.16815
5.0 0.2000 14.74688 15.18138
18.0 0.0556 14.75838 15.19466
16.0 0.0625 14.76992 15.20801
12.0 0.0833 14.78149 15.22141
14.0 0.0714 14.79310 15.23486
21.0 0.0476 14.80474 15.24837
18.0 0.0556 14.81642 15.26195
20.0 0.0500 14.82814 15.27558
15.0 0.0667 14.83989 15.28927
15.0 0.0667 14.85167 15.30301
19.0 0.0526 14.86349 15.31682
9.0 0.1111 14.87535 15.33068
16.0 0.0625 14.88724 15.34459
12.0 0.0833 14.89916 15.35857
25.0 0.0400 14.91112 15.37260
22.0 0.0455 14.92311 15.38669
15.0 0.0667 14.93514 15.40084
14.0 0.0714 14.94720 15.41505
9.0 0.1111 14.95929 15.42931
17.0 0.0588 14.97141 15.44364
15.0 0.0667 14.98357 15.45802
11.0 0.0909 14.99577 15.47246
21.0 0.0476 15.00799 15.48696
13.0 0.0769 15.02025 15.50152
11.0 0.0909 15.03254 15.51613
11.0 0.0909 15.04486 15.53081
25.0 0.0400 15.05722 15.54554
16.0 0.0625 15.06961 15.56033
12.0 0.0833 15.08202 15.57518
16.0 0.0625 15.09447 15.59009
14.0 0.0714 15.10696 15.60507
19.0 0.0526 15.11947 15.62010
18.0 0.0556 15.13202 15.63519
21.0 0.0476 15.14460 15.65034
13.0 0.0769 15.15720 15.66556
19.0 0.0526 15.16984 15.68083
16.0 0.0625 15.18251 15.69616
20.0 0.0500 15.19521 15.71156
14.0 0.0714 15.20793 15.72701
15.0 0.0667 15.22069 15.74253
27.0 0.0370 15.23348 15.75811
17.0 0.0588 15.24630 15.77376
23.0 0.0435 15.25914 15.78946
15.0 0.0667 15.27203 15.80522
16.0 0.0625 15.28493 15.82105
20.0 0.0500 15.29787 15.83694
20.0 0.0500 15.31083 15.85290
17.0 0.0588 15.32382 15.86892
24.0 0.0417 15.33685 15.88501
22.0 0.0455 15.34990 15.90116
16.0 0.0625 15.36298 15.91737
7.0 0.1429 15.37609 15.93365
21.0 0.0476 15.38922 15.94999
17.0 0.0588 15.40239 15.96641
11.0 0.0909 15.41558 15.98289
18.0 0.0556 15.42879 15.99943
14.0 0.0714 15.44204 16.01604
14.0 0.0714 15.45532 16.03272
17.0 0.0588 15.46861 16.04947
18.0 0.0556 15.48194 16.06629
19.0 0.0526 15.49530 16.08318
26.0 0.0385 15.50868 16.10014
13.0 0.0769 15.52209 16.11716
18.0 0.0556 15.53552 16.13426
15.0 0.0667 15.54898 16.15143
17.0 0.0588 15.56247 16.16867
18.0 0.0556 15.57598 16.18599
19.0 0.0526 15.58952 16.20337
17.0 0.0588 15.60308 16.22083
12.0 0.0833 15.61667 16.23837
28.0 0.0357 15.63028 16.25598
28.0 0.0357 15.64392 16.27367
19.0 0.0526 15.65759 16.29144
13.0 0.0769 15.67128 16.30928
14.0 0.0714 15.68499 16.32719
25.0 0.0400 15.69873 16.34519
15.0 0.0667 15.71250 16.36327
20.0 0.0500 15.72629 16.38143
18.0 0.0556 15.74010 16.39967
14.0 0.0714 15.75393 16.41799
18.0 0.0556 15.76779 16.43639
26.0 0.0385 15.78168 16.45489
24.0 0.0417 15.79558 16.47346
20.0 0.0500 15.80951 16.49212
20.0 0.0500 15.82347 16.51087
16.0 0.0625 15.83745 16.52970
22.0 0.0455 15.85145 16.54863
22.0 0.0455 15.86547 16.56764
29.0 0.03448 15.87952 16.58674
17.0 0.0588 15.89359 16.60594
20.0 0.0500 15.90768 16.62524
15.0 0.0667 15.92179 16.64462
19.0 0.0526 15.93593 16.66411
14.0 0.0714 15.95009 16.68369
19.0 0.0526 15.96427 16.70337
13.0 0.0769 15.97847 16.72315
19.0 0.0526 15.99270 16.74303
13.0 0.0769 16.00694 16.76302
15.0 0.0667 16.02121 16.78310
17.0 0.0588 16.03550 16.80329
12.0 0.0833 16.04980 16.82360
19.0 0.0526 16.06414 16.84401
22.0 0.0455 16.07849 16.86454
20.0 0.0500 16.09286 16.88517
22.0 0.0455 16.10725 16.90593
23.0 0.0435 16.12167 16.92679
12.0 0.0833 16.13610 16.94778
16.0 0.0625 16.15055 16.96889
11.0 0.0909 16.16503 16.99011
20.0 0.0500 16.17952 17.01147
23.0 0.0435 16.19404 17.03295
22.0 0.0455 16.20857 17.05456
28.0 0.0357 16.22312 17.07630
22.0 0.0455 16.23770 17.09818
11.0 0.0909 16.25229 17.12018
16.0 0.0625 16.26690 17.14233
26.0 0.0385 16.28153 17.16462
20.0 0.0500 16.29618 17.18707
11.0 0.0909 16.31084 17.20964
17.0 0.0588 16.32553 17.23238
17.0 0.0588 16.34024 17.25526
18.0 0.0556 16.35496 17.27830
25.0 0.0400 16.36971 17.30151
25.0 0.0400 16.38447 17.32486
21.0 0.0476 16.39924 17.34838
24.0 0.0417 16.41404 17.37209
9.0 0.1111 16.42886 17.39595
24.0 0.0417 16.44369 17.42000
17.0 0.0588 16.45853 17.44422
22.0 0.0455 16.47341 17.46864
18.0 0.0556 16.48829 17.49323
19.0 0.0526 16.50319 17.51803
17.0 0.0588 16.51811 17.54301
18.0 0.0556 16.53304 17.56821
20.0 0.0500 16.54800 17.59360
14.0 0.0714 16.56297 17.61921
16.0 0.0625 16.57796 17.64503
21.0 0.0476 16.59295 17.67108
19.0 0.0526 16.60798 17.69735
19.0 0.0526 16.62301 17.72386
16.0 0.0625 16.63807 17.75061
17.0 0.0588 16.65313 17.77760
22.0 0.0455 16.66821 17.80485
9.0 0.1111 16.68331 17.83234
14.0 0.0714 16.69843 17.86011
24.0 0.0417 16.71355 17.88814
23.0 0.0435 16.72870 17.91646
13.0 0.0769 16.74386 17.94507
15.0 0.0667 16.75904 17.97396
21.0 0.0476 16.77423 18.00316
29.0 0.03448 16.78944 18.03267
25.0 0.0400 16.80466 18.06251
26.0 0.0385 16.81990 18.09267
25.0 0.0400 16.83515 18.12317
23.0 0.0435 16.85041 18.15401
23.0 0.0435 16.86569 18.18522
19.0 0.0526 16.88099 18.21681
19.0 0.0526 16.89630 18.24876
16.0 0.0625 16.91161 18.28112
15.0 0.0667 16.92695 18.31388
22.0 0.0455 16.94231 18.34706
16.0 0.0625 16.95767 18.38067
23.0 0.0435 16.97305 18.41473
21.0 0.0476 16.98844 18.44925
26.0 0.0385 17.00384 18.48424
26.0 0.0385 17.01926 18.51972
22.0 0.0455 17.03469 18.55572
21.0 0.0476 17.05013 18.59224
19.0 0.0526 17.06559 18.62930
17.0 0.0588 17.08106 18.66692
22.0 0.0455 17.09655 18.70513
27.0 0.0370 17.11204 18.74394
25.0 0.0400 17.12755 18.78338
25.0 0.0400 17.14307 18.82346
30.0 0.03333 17.15860 18.86422
27.0 0.0370 17.17415 18.90568
15.0 0.0667 17.18970 18.94786
25.0 0.0400 17.20527 18.99078
24.0 0.0417 17.22085 19.03449
13.0 0.0769 17.23645 19.07901
22.0 0.0455 17.25205 19.12438
14.0 0.0714 17.26767 19.17062
15.0 0.0667 17.28330 19.21778
20.0 0.0500 17.29894 19.26588
11.0 0.0909 17.31459 19.31497
35.0 0.02857 17.33025 19.36510
21.0 0.0476 17.34592 19.41631
25.0 0.0400 17.36161 19.46863
20.0 0.0500 17.37730 19.52213
24.0 0.0417 17.39300 19.57686
22.0 0.0455 17.40872 19.63286
21.0 0.0476 17.42445 19.69020
31.0 0.03226 17.44018 19.74893
22.0 0.0455 17.45593 19.80914
25.0 0.0400 17.47169 19.87088
15.0 0.0667 17.48746 19.93422
31.0 0.03226 17.50324 19.99926
23.0 0.0435 17.51903 20.06605
22.0 0.0455 17.53482 20.13471
20.0 0.0500 17.55063 20.20532
23.0 0.0435 17.56645 20.27799
17.0 0.0588 17.58228 20.35280
30.0 0.03333 17.59812 20.42991
27.0 0.0370 17.61396 20.50940
23.0 0.0435 17.62982 20.59142
23.0 0.0435 17.64568 20.67611
24.0 0.0417 17.66155 20.76361
23.0 0.0435 17.67744 20.85410
19.0 0.0526 17.69333 20.94773
17.0 0.0588 17.70923 21.04471
29.0 0.03448 17.72514 21.14522
20.0 0.0500 17.74106 21.24949
31.0 0.03226 17.75698 21.35774
23.0 0.0435 17.77292 21.47023
25.0 0.0400 17.78886 21.58722
18.0 0.0556 17.80481 21.70903
32.0 0.03125 17.82077 21.83595
25.0 0.0400 17.83674 21.96834
32.0 0.03125 17.85271 22.10658
21.0 0.0476 17.86870 22.25107
31.0 0.03226 17.88469 22.40227
23.0 0.0435 17.90069 22.56067
20.0 0.0500 17.91670 22.72678
20.0 0.0500 17.93271 22.90122
25.0 0.0400 17.94874 23.08461
25.0 0.0400 17.96477 23.27768
27.0 0.0370 17.98080 23.48120
25.0 0.0400 17.99685 23.69604
22.0 0.0455 18.01290 23.92317
18.0 0.0556 18.02896 24.16364
21.0 0.0476 18.04502 24.41864
33.0 0.03030 18.06109 24.68951
23.0 0.0435 18.07717 24.97771
37.0 0.02703 18.09325 25.28491
38.0 0.02632 18.10934 25.61300
22.0 0.0455 18.12544 25.96410
31.0 0.03226 18.14155 26.34060
34.0 0.02941 18.15765 26.74524
27.0 0.0370 18.17377 27.18115
24.0 0.0417 18.18990 27.65194
37.0 0.02703 18.20603 28.16430
24.0 0.0417 18.22216 28.71791
31.0 0.03226 18.23830 29.32097
34.0 0.02941 18.25445 29.98003
25.0 0.0400 18.27060 30.70291
25.0 0.0400 18.28676 31.49886
29.0 0.03448 18.30292 32.38031
33.0 0.03030 18.31909 33.35823
38.0 0.02632 18.33526 34.45049
29.0 0.03448 18.35144 35.67771
38.0 0.02632 18.36763 37.06593
36.0 0.02778 18.38382 38.64857
43.0 0.02326 18.40001 40.46953
35.0 0.02857 18.41621 42.58850
57.0 0.01754 18.43242 45.09256
47.0 0.02128 18.44862 48.12870
69.0 0.01449 18.46484 51.99002
58.0 0.01724 18.48106 57.27390
82.0 0.01220 18.49728 65.02421
79.0 0.01266 18.51351 76.67195
118.0 0.00847 18.52974 93.50806
101.0 0.00990 18.54598 115.72741
131.0 0.00763 18.56222 144.49306
155.0 0.00645 18.57846 180.18202
207.0 0.00483 18.59471 220.52371
240.0 0.00417 18.61096 268.68253
323.0 0.003096 18.62722 321.69003
397.0 0.002519 18.64348 381.98474
418.0 0.002392 18.65974 449.07489
504.0 0.001984 18.67601 524.20184
625.0 0.001600 18.69228 609.43268
729.0 0.001372 18.70856 706.13977
867.0 0.001153 18.72484 817.97510
1072.0 0.000933 18.74112 948.92194
1214.0 0.000824 18.75740 1105.11365
1474.0 0.000678 18.77369 1298.46716
1805.0 0.000554 18.78998 1542.85840
2010.0 0.000498 18.80628 1858.79492
2610.0 0.000383 18.82257 2238.65674
2999.0 0.0003334 18.83887 2613.76001
3178.0 0.0003147 18.85518 2817.48901
3048.0 0.0003281 18.87148 2670.80957
2620.0 0.000382 18.88779 2258.00781
2017.0 0.000496 18.90410 1833.93677
1573.0 0.000636 18.92042 1435.12500
1174.0 0.000852 18.93673 1014.26788
699.0 0.001431 18.95305 647.96967
396.0 0.002525 18.96937 401.11435
241.0 0.00415 18.98569 260.95615
144.0 0.00694 19.00202 187.67784
95.0 0.01053 19.01835 147.66832
72.0 0.01389 19.03468 122.67493
54.0 0.01852 19.05100 105.08691
66.0 0.01515 19.06734 91.88538
56.0 0.01786 19.08367 81.63858
70.0 0.01429 19.10001 73.50552
37.0 0.02703 19.11635 66.93395
36.0 0.02778 19.13269 61.54337
55.0 0.01818 19.14903 57.06377
34.0 0.02941 19.16537 53.29893
47.0 0.02128 19.18172 50.10328
47.0 0.02128 19.19806 47.36692
26.0 0.0385 19.21441 45.00552
45.0 0.02222 19.23075 42.95345
36.0 0.02778 19.24710 41.15893
49.0 0.02041 19.26345 39.58074
33.0 0.03030 19.27981 38.18562
28.0 0.0357 19.29616 36.94655
38.0 0.02632 19.31251 35.84135
44.0 0.02273 19.32886 34.85169
53.0 0.01887 19.34521 33.96229
26.0 0.0385 19.36157 33.16034
32.0 0.03125 19.37793 32.43504
36.0 0.02778 19.39428 31.77721
36.0 0.02778 19.41064 31.17904
36.0 0.02778 19.42699 30.63378
28.0 0.0357 19.44335 30.13569
30.0 0.03333 19.45971 29.67973
34.0 0.02941 19.47606 29.26155
32.0 0.03125 19.49242 28.87737
32.0 0.03125 19.50878 28.52385
31.0 0.03226 19.52514 28.19806
39.0 0.02564 19.54149 27.89744
27.0 0.0370 19.55785 27.61969
26.0 0.0385 19.57420 27.36280
29.0 0.03448 19.59056 27.12497
40.0 0.02500 19.60692 26.90458
31.0 0.03226 19.62327 26.70020
31.0 0.03226 19.63963 26.51055
24.0 0.0417 19.65598 26.33446
32.0 0.03125 19.67234 26.17090
32.0 0.03125 19.68869 26.01891
33.0 0.03030 19.70504 25.87766
13.0 0.0769 19.72139 25.74636
29.0 0.03448 19.73774 25.62433
39.0 0.02564 19.75409 25.51092
22.0 0.0455 19.77044 25.40555
26.0 0.0385 19.78679 25.30769
25.0 0.0400 19.80313 25.21687
28.0 0.0357 19.81948 25.13263
28.0 0.0357 19.83582 25.05458
30.0 0.03333 19.85217 24.98234
26.0 0.0385 19.86851 24.92083
34.0 0.02941 19.88485 24.85922
28.0 0.0357 19.90119 24.80250
36.0 0.02778 19.91753 24.75037
39.0 0.02564 19.93386 24.70261
30.0 0.03333 19.95020 24.65898
44.0 0.02273 19.96652 24.61926
22.0 0.0455 19.98286 24.58589
33.0 0.03030 19.99919 24.55346
28.0 0.0357 20.01551 24.52442
30.0 0.03333 20.03184 24.49861
31.0 0.03226 20.04816 24.47589
40.0 0.02500 20.06448 24.45613
32.0 0.03125 20.08080 24.43920
28.0 0.0357 20.09712 24.42500
30.0 0.03333 20.11343 24.41342
30.0 0.03333 20.12974 24.40436
32.0 0.03125 20.14605 24.39773
29.0 0.03448 20.16236 24.39346
31.0 0.03226 20.17866 24.39145
25.0 0.0400 20.19496 24.39164
28.0 0.0357 20.21126 24.39397
29.0 0.03448 20.22756 24.39837
26.0 0.0385 20.24385 24.40479
24.0 0.0417 20.26014 24.41318
31.0 0.03226 20.27643 24.42349
30.0 0.03333 20.29272 24.43568
38.0 0.02632 20.30900 24.44970
29.0 0.03448 20.32528 24.46552
29.0 0.03448 20.34155 24.48312
26.0 0.0385 20.35783 24.50245
32.0 0.03125 20.37410 24.52350
30.0 0.03333 20.39037 24.54625
39.0 0.02564 20.40663 24.57066
26.0 0.0385 20.42289 24.59673
41.0 0.02439 20.43915 24.62444
37.0 0.02703 20.45540 24.65377
40.0 0.02500 20.47165 24.68473
29.0 0.03448 20.48790 24.71730
35.0 0.02857 20.50414 24.75148
26.0 0.0385 20.52038 24.78725
40.0 0.02500 20.53662 24.82464
31.0 0.03226 20.55285 24.86364
32.0 0.03125 20.56908 24.90425
34.0 0.02941 20.58530 24.94648
28.0 0.0357 20.60152 24.99033
21.0 0.0476 20.61774 25.03582
39.0 0.02564 20.63395 25.08297
35.0 0.02857 20.65017 25.13179
29.0 0.03448 20.66637 25.18229
35.0 0.02857 20.68257 25.23449
31.0 0.03226 20.69876 25.28843
34.0 0.02941 20.71496 25.34412
35.0 0.02857 20.73114 25.40479
37.0 0.02703 20.74733 25.46407
30.0 0.03333 20.76351 25.52520
37.0 0.02703 20.77969 25.58821
34.0 0.02941 20.79585 25.65313
34.0 0.02941 20.81202 25.72000
25.0 0.0400 20.82818 25.79045
34.0 0.02941 20.84434 25.86136
36.0 0.02778 20.86049 25.93436
26.0 0.0385 20.87664 26.00950
34.0 0.02941 20.89278 26.08683
46.0 0.02174 20.90891 26.16642
27.0 0.0370 20.92505 26.24831
30.0 0.03333 20.94117 26.33258
37.0 0.02703 20.95730 26.41930
29.0 0.03448 20.97342 26.50854
39.0 0.02564 20.98953 26.60037
31.0 0.03226 21.00564 26.69487
38.0 0.02632 21.02174 26.79214
40.0 0.02500 21.03784 26.89225
35.0 0.02857 21.05393 26.99531
33.0 0.03030 21.07002 27.10141
39.0 0.02564 21.08610 27.21067
46.0 0.02174 21.10218 27.32318
48.0 0.02083 21.11825 27.43908
33.0 0.03030 21.13432 27.55848
29.0 0.03448 21.15037 27.68150
41.0 0.02439 21.16643 27.80831
36.0 0.02778 21.18248 27.93904
40.0 0.02500 21.19852 28.07383
42.0 0.02381 21.21456 28.21287
43.0 0.02326 21.23059 28.35632
41.0 0.02439 21.24662 28.50437
38.0 0.02632 21.26264 28.65719
36.0 0.02778 21.27865 28.81503
32.0 0.03125 21.29466 28.97807
24.0 0.0417 21.31067 29.14654
33.0 0.03030 21.32666 29.32070
35.0 0.02857 21.34265 29.50080
28.0 0.0357 21.35863 29.68714
37.0 0.02703 21.37461 29.87997
44.0 0.02273 21.39059 30.07963
41.0 0.02439 21.40655 30.28644
35.0 0.02857 21.42251 30.50075
36.0 0.02778 21.43847 30.72294
37.0 0.02703 21.45441 30.95341
36.0 0.02778 21.47035 31.19259
38.0 0.02632 21.48629 31.44091
30.0 0.03333 21.50222 31.69888
36.0 0.02778 21.51814 31.96702
27.0 0.0370 21.53405 32.24587
47.0 0.02128 21.54996 32.53604
34.0 0.02941 21.56586 32.83816
40.0 0.02500 21.58176 33.15292
33.0 0.03030 21.59764 33.48105
36.0 0.02778 21.61352 33.82335
47.0 0.02128 21.62940 34.18068
40.0 0.02500 21.64527 34.55393
41.0 0.02439 21.66113 34.94413
46.0 0.02174 21.67698 35.35233
32.0 0.03125 21.69283 35.77969
32.0 0.03125 21.70867 36.22747
47.0 0.02128 21.72451 36.69705
32.0 0.03125 21.74033 37.18988
38.0 0.02632 21.75615 37.70758
48.0 0.02083 21.77196 38.25193
40.0 0.02500 21.78777 38.82482
41.0 0.02439 21.80357 39.42834
47.0 0.02128 21.81936 40.06480
54.0 0.01852 21.83514 40.73668
46.0 0.02174 21.85092 41.44678
40.0 0.02500 21.86668 42.19810
41.0 0.02439 21.88245 42.99401
46.0 0.02174 21.89820 43.83821
43.0 0.02326 21.91395 44.73479
38.0 0.02632 21.92969 45.68833
48.0 0.02083 21.94541 46.70386
48.0 0.02083 21.96113 47.78703
43.0 0.02326 21.97685 48.94418
39.0 0.02564 21.99256 50.18237
48.0 0.02083 22.00826 51.50961
47.0 0.02128 22.02395 52.93487
42.0 0.02381 22.03964 54.46836
45.0 0.02222 22.05532 56.13173
43.0 0.02326 22.07099 57.91800
47.0 0.02128 22.08665 59.85239
53.0 0.01887 22.10230 61.95223
47.0 0.02128 22.11794 64.23765
59.0 0.01695 22.13358 66.73192
60.0 0.01667 22.14921 69.46224
61.0 0.01639 22.16483 72.46564
63.0 0.01587 22.18045 75.76978
61.0 0.01639 22.19605 79.42463
71.0 0.01408 22.21165 83.48405
64.0 0.01563 22.22724 88.01330
70.0 0.01429 22.24282 93.09199
79.0 0.01266 22.25840 98.81856
101.0 0.00990 22.27396 105.31621
112.0 0.00893 22.28951 112.74135
116.0 0.00862 22.30506 121.29618
108.0 0.00926 22.32060 131.24835
109.0 0.00917 22.33613 142.96730
139.0 0.00719 22.35166 157.01477
193.0 0.00518 22.36717 174.40250
211.0 0.00474 22.38267 197.22316
265.0 0.00377 22.39817 229.71028
343.0 0.002915 22.41366 279.16339
442.0 0.002262 22.42914 355.53900
453.0 0.002208 22.44461 467.96542
617.0 0.001621 22.46007 620.93433
738.0 0.001355 22.47552 819.23059
977.0 0.001024 22.49097 1061.08484
1180.0 0.000847 22.50641 1353.35071
1590.0 0.000629 22.52183 1695.17859
1878.0 0.000532 22.53725 2097.96094
2331.0 0.000429 22.55266 2561.60913
2906.0 0.0003441 22.56806 3105.35083
3457.0 0.0002893 22.58345 3742.39087
4403.0 0.0002271 22.59884 4510.59717
5433.0 0.0001841 22.61421 5462.05469
6762.0 0.0001479 22.62958 6683.68652
8599.0 0.0001163 22.64493 8266.95508
10389.0 0.0000963 22.66028 10193.50781
12335.0 0.0000811 22.67561 12119.77148
13236.0 0.0000756 22.69094 13264.71582
12760.0 0.0000784 22.70626 12780.12793
11194.0 0.0000893 22.72157 10933.86816
8975.0 0.0001114 22.73687 9022.74707
7363.0 0.0001358 22.75216 7512.17822
5887.0 0.0001699 22.76745 5967.87061
4420.0 0.0002262 22.78272 4190.78467
2676.0 0.000374 22.79798 2624.79321
1547.0 0.000646 22.81324 1566.51477
813.0 0.001230 22.82848 974.80347
536.0 0.001866 22.84372 675.85437
399.0 0.002506 22.85894 519.07019
294.0 0.003401 22.87416 423.60980
246.0 0.00407 22.88937 356.84201
194.0 0.00515 22.90456 306.56470
156.0 0.00641 22.91975 267.33975
162.0 0.00617 22.93493 236.05782
128.0 0.00781 22.95009 210.68022
121.0 0.00826 22.96526 189.79442
96.0 0.01042 22.98040 172.39204
100.0 0.01000 22.99554 157.73653
94.0 0.01064 23.01067 145.27898
104.0 0.00962 23.02579 134.60329
93.0 0.01075 23.04090 125.38916
75.0 0.01333 23.05600 117.38652
96.0 0.01042 23.07109 110.39799
70.0 0.01429 23.08617 104.26597
67.0 0.01493 23.10124 98.86352
67.0 0.01493 23.11630 94.08739
66.0 0.01515 23.13135 89.85320
74.0 0.01351 23.14639 86.09145
67.0 0.01493 23.16143 82.74458
61.0 0.01639 23.17644 79.76485
49.0 0.02041 23.19146 77.11259
55.0 0.01818 23.20646 74.75474
64.0 0.01563 23.22145 72.66393
56.0 0.01786 23.23643 70.81757
52.0 0.01923 23.25139 69.19740
58.0 0.01724 23.26635 67.78880
63.0 0.01587 23.28131 66.58067
57.0 0.01754 23.29625 65.56512
49.0 0.02041 23.31117 64.73740
62.0 0.01613 23.32609 64.09605
51.0 0.01961 23.34100 63.64299
52.0 0.01923 23.35590 63.38394
56.0 0.01786 23.37078 63.32896
49.0 0.02041 23.38566 63.49343
68.0 0.01471 23.40053 63.89929
54.0 0.01852 23.41538 64.57708
56.0 0.01786 23.43023 65.56882
65.0 0.01538 23.44506 66.93306
67.0 0.01493 23.45989 68.75494
77.0 0.01299 23.47470 71.17374
77.0 0.01299 23.48951 74.46280
93.0 0.01075 23.50430 79.21313
87.0 0.01149 23.51908 86.60917
106.0 0.00943 23.53386 98.61093
120.0 0.00833 23.54861 117.70567
146.0 0.00685 23.56337 145.88062
206.0 0.00485 23.57811 184.21065
244.0 0.00410 23.59283 233.32950
273.0 0.00366 23.60756 293.44843
340.0 0.002941 23.62226 366.02802
426.0 0.002347 23.63696 452.24039
569.0 0.001757 23.65164 554.10059
647.0 0.001546 23.66632 674.31329
833.0 0.001200 23.68098 817.18634
989.0 0.001011 23.69563 990.97302
1264.0 0.000791 23.71028 1209.35327
1542.0 0.000649 23.72491 1493.10522
1975.0 0.000506 23.73953 1861.58179
2343.0 0.000427 23.75414 2298.97949
2645.0 0.000378 23.76874 2705.30957
2856.0 0.0003501 23.78333 2889.36694
2660.0 0.000376 23.79790 2696.13525
2327.0 0.000430 23.81247 2265.45801
1854.0 0.000539 23.82702 1877.93323
1524.0 0.000656 23.84157 1588.21338
1304.0 0.000767 23.85610 1278.71643
935.0 0.001070 23.87062 905.87573
642.0 0.001558 23.88513 571.53534
374.0 0.002674 23.89963 345.15451
210.0 0.00476 23.91411 220.21814
156.0 0.00641 23.92859 158.67628
91.0 0.01099 23.94306 127.28590
89.0 0.01124 23.95751 108.47673
75.0 0.01333 23.97195 95.35846
67.0 0.01493 23.98638 85.45336
58.0 0.01724 24.00080 77.69280
52.0 0.01923 24.01521 71.47344
57.0 0.01754 24.02961 66.40059
60.0 0.01667 24.04399 62.20068
57.0 0.01754 24.05837 58.67838
48.0 0.02083 24.07273 55.69089
45.0 0.02222 24.08708 53.13167
23.0 0.0435 24.10142 50.91990
61.0 0.01639 24.11575 48.99325
53.0 0.01887 24.13007 47.30298
36.0 0.02778 24.14438 45.81052
35.0 0.02857 24.15866 44.48520
29.0 0.03448 24.17295 43.30167
49.0 0.02041 24.18722 42.23972
45.0 0.02222 24.20148 41.28258
35.0 0.02857 24.21573 40.41632
27.0 0.0370 24.22996 39.62928
40.0 0.02500 24.24419 38.91174
34.0 0.02941 24.25840 38.25533
44.0 0.02273 24.27260 37.65312
29.0 0.03448 24.28679 37.09887
38.0 0.02632 24.30097 36.58749
33.0 0.03030 24.31513 36.11446
43.0 0.02326 24.32929 35.67588
36.0 0.02778 24.34343 35.26836
45.0 0.02222 24.35756 34.88889
36.0 0.02778 24.37168 34.53487
39.0 0.02564 24.38579 34.20397
38.0 0.02632 24.39988 33.89415
30.0 0.03333 24.41396 33.60361
32.0 0.03125 24.42804 33.33072
26.0 0.0385 24.44210 33.07402
54.0 0.01852 24.45615 32.83224
34.0 0.02941 24.47018 32.60420
35.0 0.02857 24.48420 32.38885
33.0 0.03030 24.49821 32.18527
34.0 0.02941 24.51222 31.99258
43.0 0.02326 24.52620 31.81002
32.0 0.03125 24.54018 31.63688
39.0 0.02564 24.55414 31.47252
30.0 0.03333 24.56809 31.31635
28.0 0.0357 24.58203 31.16785
35.0 0.02857 24.59596 31.02652
36.0 0.02778 24.60987 30.89191
28.0 0.0357 24.62378 30.76361
34.0 0.02941 24.63767 30.64125
26.0 0.0385 24.65155 30.52446
36.0 0.02778 24.66541 30.41293
40.0 0.02500 24.67927 30.30637
23.0 0.0435 24.69311 30.20449
31.0 0.03226 24.70694 30.10704
29.0 0.03448 24.72076 30.01378
27.0 0.0370 24.73457 29.92449
30.0 0.03333 24.74836 29.83897
30.0 0.03333 24.76214 29.75702
25.0 0.0400 24.77591 29.67846
29.0 0.03448 24.78967 29.60313
23.0 0.0435 24.80341 29.53087
32.0 0.03125 24.81715 29.46153
39.0 0.02564 24.83087 29.39499
35.0 0.02857 24.84457 29.33110
31.0 0.03226 24.85827 29.26976
31.0 0.03226 24.87195 29.21084
27.0 0.0370 24.88562 29.15425
30.0 0.03333 24.89928 29.09988
29.0 0.03448 24.91292 29.04763
26.0 0.0385 24.92656 28.99743
28.0 0.0357 24.94018 28.94917
34.0 0.02941 24.95379 28.90279
39.0 0.02564 24.96738 28.85821
33.0 0.03030 24.98097 28.81537
38.0 0.02632 24.99454 28.77418
27.0 0.0370 25.00809 28.73460
24.0 0.0417 25.02164 28.69656
35.0 0.02857 25.03518 28.66001
27.0 0.0370 25.04870 28.62488
20.0 0.0500 25.06220 28.59114
34.0 0.02941 25.07570 28.55872
24.0 0.0417 25.08918 28.52759
28.0 0.0357 25.10265 28.49769
28.0 0.0357 25.11611 28.46900
28.0 0.0357 25.12956 28.44148
30.0 0.03333 25.14299 28.41507
30.0 0.03333 25.15641 28.38976
25.0 0.0400 25.16982 28.36549
33.0 0.03030 25.18321 28.34225
22.0 0.0455 25.19659 28.31999
34.0 0.02941 25.20996 28.29870
34.0 0.02941 25.22332 28.27833
32.0 0.03125 25.23666 28.25888
31.0 0.03226 25.24999 28.24030
31.0 0.03226 25.26331 28.22259
45.0 0.02222 25.27662 28.20570
26.0 0.0385 25.28991 28.18964
20.0 0.0500 25.30319 28.17435
24.0 0.0417 25.31646 28.15983
30.0 0.03333 25.32971 28.14607
23.0 0.0435 25.34296 28.13305
27.0 0.0370 25.35619 28.12073
26.0 0.0385 25.36940 28.10911
16.0 0.0625 25.38260 28.09819
23.0 0.0435 25.39579 28.08793
19.0 0.0526 25.40897 28.07832
21.0 0.0476 25.42214 28.06935
28.0 0.0357 25.43529 28.06101
28.0 0.0357 25.44843 28.05329
28.0 0.0357 25.46155 28.04618
26.0 0.0385 25.47466 28.03965
32.0 0.03125 25.48776 28.03370
22.0 0.0455 25.50085 28.02834
41.0 0.02439 25.51393 28.02353
22.0 0.0455 25.52699 28.01930
25.0 0.0400 25.54003 28.01560
25.0 0.0400 25.55307 28.01243
38.0 0.02632 25.56609 28.00981
34.0 0.02941 25.57910 28.00771
37.0 0.02703 25.59210 28.00613
22.0 0.0455 25.60508 28.00507
34.0 0.02941 25.61805 28.00451
26.0 0.0385 25.63101 28.00446
29.0 0.03448 25.64395 28.00334
30.0 0.03333 25.65688 28.00428
25.0 0.0400 25.66980 28.00494
30.0 0.03333 25.68270 28.00688
30.0 0.03333 25.69560 28.00929
30.0 0.03333 25.70848 28.01221
25.0 0.0400 25.72134 28.01561
33.0 0.03030 25.73420 28.01949
31.0 0.03226 25.74703 28.02385
29.0 0.03448 25.75986 28.02870
20.0 0.0500 25.77267 28.03403
27.0 0.0370 25.78548 28.03985
28.0 0.0357 25.79826 28.04616
39.0 0.02564 25.81103 28.05296
29.0 0.03448 25.82379 28.06025
39.0 0.02564 25.83654 28.06802
30.0 0.03333 25.84927 28.07630
31.0 0.03226 25.86200 28.08507
27.0 0.0370 25.87470 28.09436
21.0 0.0476 25.88740 28.10416
34.0 0.02941 25.90008 28.11447
42.0 0.02381 25.91275 28.12531
26.0 0.0385 25.92540 28.13668
30.0 0.03333 25.93804 28.14859
40.0 0.02500 25.95067 28.16104
29.0 0.03448 25.96328 28.17405
27.0 0.0370 25.97589 28.18763
29.0 0.03448 25.98847 28.20178
34.0 0.02941 26.00105 28.21652
24.0 0.0417 26.01361 28.23186
41.0 0.02439 26.02616 28.24782
36.0 0.02778 26.03870 28.26440
26.0 0.0385 26.05122 28.28163
38.0 0.02632 26.06372 28.29951
23.0 0.0435 26.07622 28.31806
38.0 0.02632 26.08870 28.33732
29.0 0.03448 26.10117 28.35730
23.0 0.0435 26.11362 28.37799
27.0 0.0370 26.12607 28.39945
29.0 0.03448 26.13849 28.42171
34.0 0.02941 26.15091 28.44475
19.0 0.0526 26.16331 28.46863
31.0 0.03226 26.17570 28.49337
26.0 0.0385 26.18807 28.51901
30.0 0.03333 26.20044 28.54558
30.0 0.03333 26.21278 28.57310
33.0 0.03030 26.22512 28.60162
38.0 0.02632 26.23744 28.63119
33.0 0.03030 26.24975 28.66183
30.0 0.03333 26.26204 28.69358
35.0 0.02857 26.27432 28.72651
33.0 0.03030 26.28659 28.76067
32.0 0.03125 26.29884 28.79610
31.0 0.03226 26.31108 28.83286
34.0 0.02941 26.32331 28.87102
32.0 0.03125 26.33552 28.91064
42.0 0.02381 26.34772 28.95181
31.0 0.03226 26.35991 28.99457
30.0 0.03333 26.37208 29.03901
36.0 0.02778 26.38424 29.08525
24.0 0.0417 26.39639 29.13336
28.0 0.0357 26.40852 29.18343
34.0 0.02941 26.42064 29.23559
35.0 0.02857 26.43274 29.28993
34.0 0.02941 26.44483 29.34661
35.0 0.02857 26.45691 29.40573
30.0 0.03333 26.46898 29.46745
42.0 0.02381 26.48103 29.53193
32.0 0.03125 26.49307 29.59935
32.0 0.03125 26.50509 29.66987
31.0 0.03226 26.51710 29.74369
35.0 0.02857 26.52910 29.82105
32.0 0.03125 26.54108 29.90216
41.0 0.02439 26.55305 29.98729
34.0 0.02941 26.56500 30.07671
41.0 0.02439 26.57695 30.17073
35.0 0.02857 26.58887 30.26968
43.0 0.02326 26.60079 30.37392
27.0 0.0370 26.61269 30.48386
37.0 0.02703 26.62458 30.59992
35.0 0.02857 26.63646 30.72259
44.0 0.02273 26.64832 30.85239
38.0 0.02632 26.66017 30.98993
36.0 0.02778 26.67200 31.13583
43.0 0.02326 26.68382 31.29084
45.0 0.02222 26.69562 31.45573
35.0 0.02857 26.70742 31.63140
42.0 0.02381 26.71920 31.81886
48.0 0.02083 26.73096 32.01921
42.0 0.02381 26.74272 32.23370
52.0 0.01923 26.75445 32.46375
54.0 0.01852 26.76617 32.71096
39.0 0.02564 26.77788 32.97712
54.0 0.01852 26.78958 33.26429
63.0 0.01587 26.80127 33.57481
53.0 0.01887 26.81294 33.91137
71.0 0.01408 26.82459 34.27707
59.0 0.01695 26.83624 34.67547
61.0 0.01639 26.84786 35.11071
70.0 0.01429 26.85948 35.58766
67.0 0.01493 26.87108 36.11195
67.0 0.01493 26.88267 36.69032
64.0 0.01563 26.89424 37.33072
64.0 0.01563 26.90580 38.04263
67.0 0.01493 26.91735 38.83755
75.0 0.01333 26.92888 39.72942
64.0 0.01563 26.94040 40.73529
68.0 0.01471 26.95191 41.87640
64.0 0.01563 26.96340 43.17926
96.0 0.01042 26.97488 44.67768
64.0 0.01563 26.98634 46.41526
81.0 0.01235 26.99779 48.44970
64.0 0.01563 27.00923 50.86072
72.0 0.01389 27.02065 53.76937
110.0 0.00909 27.03206 57.38754
80.0 0.01250 27.04345 62.12949
110.0 0.00909 27.05484 68.79243
121.0 0.00826 27.06621 78.75495
112.0 0.00893 27.07756 94.02644
130.0 0.00769 27.08890 116.94696
191.0 0.00524 27.10023 149.36629
197.0 0.00508 27.11154 192.67325
267.0 0.00375 27.12284 248.37070
331.0 0.003021 27.13413 317.34680
430.0 0.002326 27.14540 403.18457
489.0 0.002045 27.15666 509.35605
624.0 0.001603 27.16790 643.57092
802.0 0.001247 27.17913 815.25610
989.0 0.001011 27.19034 1035.95972
1258.0 0.000795 27.20155 1307.49780
1632.0 0.000613 27.21274 1602.27002
1874.0 0.000534 27.22392 1846.89490
1924.0 0.000520 27.23508 1932.26807
1842.0 0.000543 27.24623 1795.52795
1612.0 0.000620 27.25736 1533.14050
1328.0 0.000753 27.26848 1299.49170
1070.0 0.000935 27.27959 1138.50562
945.0 0.001058 27.29068 993.74744
813.0 0.001230 27.30176 799.62854
587.0 0.001704 27.31282 573.66449
343.0 0.002915 27.32387 378.43411
233.0 0.00429 27.33491 243.60776
138.0 0.00725 27.34594 164.47726
117.0 0.00855 27.35695 122.28053
96.0 0.01042 27.36794 99.57862
70.0 0.01429 27.37893 85.90914
74.0 0.01351 27.38989 76.49045
67.0 0.01493 27.40085 69.40652
57.0 0.01754 27.41179 63.84097
48.0 0.02083 27.42272 59.36338
52.0 0.01923 27.43363 55.70067
61.0 0.01639 27.44453 52.66342
51.0 0.01961 27.45541 50.11509
56.0 0.01786 27.46628 47.95489
40.0 0.02500 27.47714 46.10702
39.0 0.02564 27.48799 44.51351
48.0 0.02083 27.49882 43.12938
31.0 0.03226 27.50964 41.91928
45.0 0.02222 27.52044 40.85508
47.0 0.02128 27.53123 39.91418
41.0 0.02439 27.54200 39.07823
44.0 0.02273 27.55276 38.33219
35.0 0.02857 27.56351 37.66365
47.0 0.02128 27.57425 37.06228
42.0 0.02381 27.58496 36.51945
45.0 0.02222 27.59568 36.02786
27.0 0.0370 27.60637 35.58132
36.0 0.02778 27.61704 35.17459
33.0 0.03030 27.62771 34.80313
26.0 0.0385 27.63836 34.46309
35.0 0.02857 27.64899 34.15106
27.0 0.0370 27.65962 33.86414
38.0 0.02632 27.67023 33.59978
44.0 0.02273 27.68082 33.35576
34.0 0.02941 27.69140 33.13012
37.0 0.02703 27.70197 32.92112
30.0 0.03333 27.71253 32.72723
28.0 0.0357 27.72307 32.54712
24.0 0.0417 27.73359 32.37956
33.0 0.03030 27.74411 32.22350
39.0 0.02564 27.75460 32.07796
35.0 0.02857 27.76509 31.94209
30.0 0.03333 27.77556 31.81511
34.0 0.02941 27.78602 31.69633
38.0 0.02632 27.79646 31.58511
26.0 0.0385 27.80689 31.48088
32.0 0.03125 27.81731 31.38315
26.0 0.0385 27.82771 31.29143
28.0 0.0357 27.83810 31.20530
27.0 0.0370 27.84847 31.12436
34.0 0.02941 27.85883 31.04828
39.0 0.02564 27.86918 30.97672
31.0 0.03226 27.87951 30.90939
38.0 0.02632 27.88984 30.84602
35.0 0.02857 27.90014 30.78636
24.0 0.0417 27.91043 30.73017
28.0 0.0357 27.92071 30.67726
27.0 0.0370 27.93097 30.62742
26.0 0.0385 27.94123 30.58048
32.0 0.03125 27.95146 30.53629
28.0 0.0357 27.96168 30.49466
22.0 0.0455 27.97189 30.45547
30.0 0.03333 27.98209 30.41860
35.0 0.02857 27.99227 30.38391
29.0 0.03448 28.00243 30.35130
33.0 0.03030 28.01258 30.32066
18.0 0.0556 28.02273 30.29190
28.0 0.0357 28.03285 30.26492
32.0 0.03125 28.04296 30.23964
30.0 0.03333 28.05306 30.21599
25.0 0.0400 28.06315 30.19390
29.0 0.03448 28.07322 30.17329
20.0 0.0500 28.08327 30.15412
31.0 0.03226 28.09332 30.13630
31.0 0.03226 28.10335 30.11981
26.0 0.0385 28.11337 30.10458
33.0 0.03030 28.12336 30.09057
23.0 0.0435 28.13335 30.07774
35.0 0.02857 28.14333 30.06606
41.0 0.02439 28.15329 30.05547
29.0 0.03448 28.16324 30.04595
36.0 0.02778 28.17317 30.03748
20.0 0.0500 28.18309 30.03001
31.0 0.03226 28.19300 30.02355
30.0 0.03333 28.20288 30.01804
34.0 0.02941 28.21276 30.01348
25.0 0.0400 28.22262 30.00985
34.0 0.02941 28.23247 30.00713
31.0 0.03226 28.24231 30.00531
28.0 0.0357 28.25213 30.00438
29.0 0.03448 28.26195 30.00432
26.0 0.0385 28.27174 30.00515
30.0 0.03333 28.28152 30.00683
30.0 0.03333 28.29129 30.00938
46.0 0.02174 28.30104 30.01278
31.0 0.03226 28.31078 30.01707
31.0 0.03226 28.32051 30.02221
18.0 0.0556 28.33022 30.02823
28.0 0.0357 28.33992 30.03513
29.0 0.03448 28.34960 30.04292
26.0 0.0385 28.35928 30.05162
34.0 0.02941 28.36893 30.06124
26.0 0.0385 28.37858 30.07180
31.0 0.03226 28.38821 30.08333
28.0 0.0357 28.39782 30.09584
26.0 0.0385 28.40743 30.10937
26.0 0.0385 28.41702 30.12394
38.0 0.02632 28.42659 30.13959
20.0 0.0500 28.43615 30.15636
32.0 0.03125 28.44570 30.17429
37.0 0.02703 28.45523 30.19344
27.0 0.0370 28.46476 30.21384
28.0 0.0357 28.47427 30.23556
27.0 0.0370 28.48376 30.25868
23.0 0.0435 28.49323 30.28325
28.0 0.0357 28.50270 30.30936
22.0 0.0455 28.51216 30.33708
21.0 0.0476 28.52159 30.36653
28.0 0.0357 28.53102 30.39779
21.0 0.0476 28.54042 30.43101
25.0 0.0400 28.54982 30.46628
32.0 0.03125 28.55921 30.50376
28.0 0.0357 28.56858 30.54360
29.0 0.03448 28.57793 30.58598
37.0 0.02703 28.58727 30.63109
28.0 0.0357 28.59661 30.67915
30.0 0.03333 28.60592 30.73037
25.0 0.0400 28.61522 30.78503
34.0 0.02941 28.62451 30.84344
34.0 0.02941 28.63378 30.90592
27.0 0.0370 28.64305 30.97284
35.0 0.02857 28.65229 31.04462
30.0 0.03333 28.66152 31.12173
34.0 0.02941 28.67074 31.20471
25.0 0.0400 28.67995 31.29415
26.0 0.0385 28.68914 31.39075
32.0 0.03125 28.69832 31.49530
29.0 0.03448 28.70749 31.60870
30.0 0.03333 28.71663 31.73199
39.0 0.02564 28.72577 31.86636
27.0 0.0370 28.73490 32.01323
30.0 0.03333 28.74401 32.17422
24.0 0.0417 28.75311 32.35123
40.0 0.02500 28.76219 32.54654
32.0 0.03125 28.77126 32.76281
36.0 0.02778 28.78032 33.00324
42.0 0.02381 28.78936 33.27168
17.0 0.0588 28.79839 33.57282
24.0 0.0417 28.80740 33.91236
26.0 0.0385 28.81641 34.29740
24.0 0.0417 28.82539 34.73673
36.0 0.02778 28.83437 35.24155
34.0 0.02941 28.84333 35.82619
39.0 0.02564 28.85228 36.50938
47.0 0.02128 28.86121 37.31643
40.0 0.02500 28.87013 38.28405
35.0 0.02857 28.87904 39.47181
40.0 0.02500 28.88793 40.98922
41.0 0.02439 28.89681 43.04619
52.0 0.01923 28.90567 46.02177
56.0 0.01786 28.91453 50.52016
47.0 0.02128 28.92337 57.36884
57.0 0.01754 28.93220 67.47443
75.0 0.01333 28.94101 81.56947
92.0 0.01087 28.94981 100.38922
113.0 0.00885 28.95859 124.89880
161.0 0.00621 28.96736 156.01039
188.0 0.00532 28.97612 196.21605
206.0 0.00485 28.98487 248.28870
290.0 0.003448 28.99360 315.42047
341.0 0.002933 29.00231 397.54575
441.0 0.002268 29.01102 486.60513
550.0 0.001818 29.01971 562.56818
563.0 0.001776 29.02839 596.47052
578.0 0.001730 29.03705 567.90613
477.0 0.002096 29.04570 496.20978
376.0 0.002660 29.05433 425.12180
334.0 0.002994 29.06296 376.58496
309.0 0.003236 29.07157 342.88098
286.0 0.003497 29.08016 302.56046
216.0 0.00463 29.08875 244.53682
145.0 0.00690 29.09732 180.96330
96.0 0.01042 29.10588 127.98764
81.0 0.01235 29.11441 91.60138
64.0 0.01563 29.12295 69.91177
44.0 0.02273 29.13146 58.00286
29.0 0.03448 29.13996 51.40926
34.0 0.02941 29.14845 47.38034
37.0 0.02703 29.15693 44.59390
35.0 0.02857 29.16539 42.49251
39.0 0.02564 29.17384 40.83409
27.0 0.0370 29.18228 39.49313
30.0 0.03333 29.19070 38.39113
31.0 0.03226 29.19910 37.47371
26.0 0.0385 29.20750 36.70143
30.0 0.03333 29.21588 36.04499
30.0 0.03333 29.22425 35.48218
24.0 0.0417 29.23260 34.99597
24.0 0.0417 29.24095 34.57305
23.0 0.0435 29.24928 34.20288
23.0 0.0435 29.25759 33.87712
26.0 0.0385 29.26589 33.58897
23.0 0.0435 29.27418 33.33290
36.0 0.02778 29.28245 33.10711
25.0 0.0400 29.29072 32.90246
29.0 0.03448 29.29897 32.71848
28.0 0.0357 29.30720 32.55258
28.0 0.0357 29.31542 32.40251
28.0 0.0357 29.32363 32.26640
29.0 0.03448 29.33183 32.14264
34.0 0.02941 29.34001 32.02983
34.0 0.02941 29.34818 31.92680
32.0 0.03125 29.35633 31.83250
27.0 0.0370 29.36448 31.74737
25.0 0.0400 29.37260 31.66795
25.0 0.0400 29.38072 31.59489
31.0 0.03226 29.38883 31.52759
34.0 0.02941 29.39691 31.46550
29.0 0.03448 29.40499 31.40815
29.0 0.03448 29.41305 31.35514
28.0 0.0357 29.42110 31.30606
26.0 0.0385 29.42914 31.26060
26.0 0.0385 29.43716 31.21847
33.0 0.03030 29.44517 31.17937
26.0 0.0385 29.45317 31.14306
36.0 0.02778 29.46115 31.10936
26.0 0.0385 29.46912 31.07803
25.0 0.0400 29.47708 31.04892
28.0 0.0357 29.48502 31.02186
31.0 0.03226 29.49295 30.99669
38.0 0.02632 29.50087 30.97330
25.0 0.0400 29.50878 30.95155
32.0 0.03125 29.51667 30.93132
30.0 0.03333 29.52454 30.91254
31.0 0.03226 29.53241 30.89508
24.0 0.0417 29.54026 30.87888
31.0 0.03226 29.54810 30.86385
31.0 0.03226 29.55592 30.84993
19.0 0.0526 29.56374 30.83703
39.0 0.02564 29.57154 30.82511
26.0 0.0385 29.57932 30.81409
33.0 0.03030 29.58710 30.80395
33.0 0.03030 29.59486 30.79461
42.0 0.02381 29.60260 30.78604
25.0 0.0400 29.61034 30.77819
35.0 0.02857 29.61806 30.77103
33.0 0.03030 29.62576 30.76451
31.0 0.03226 29.63346 30.75860
31.0 0.03226 29.64114 30.75329
28.0 0.0357 29.64881 30.74853
35.0 0.02857 29.65647 30.74430
29.0 0.03448 29.66411 30.74055
19.0 0.0526 29.67174 30.73729
41.0 0.02439 29.67936 30.73449
29.0 0.03448 29.68696 30.73211
33.0 0.03030 29.69455 30.73014
34.0 0.02941 29.70213 30.72858
36.0 0.02778 29.70969 30.72739
29.0 0.03448 29.71725 30.72656
37.0 0.02703 29.72478 30.72607
35.0 0.02857 29.73231 30.72591
27.0 0.0370 29.73982 30.72608
39.0 0.02564 29.74732 30.72654
38.0 0.02632 29.75481 30.72731
34.0 0.02941 29.76228 30.72834
36.0 0.02778 29.76974 30.72965
34.0 0.02941 29.77719 30.73122
30.0 0.03333 29.78462 30.73305
37.0 0.02703 29.79205 30.73510
35.0 0.02857 29.79946 30.73740
36.0 0.02778 29.80685 30.73992
38.0 0.02632 29.81423 30.74267
42.0 0.02381 29.82160 30.74562
36.0 0.02778 29.82896 30.74878
42.0 0.02381 29.83631 30.75214
40.0 0.02500 29.84364 30.75568
38.0 0.02632 29.85096 30.75941
30.0 0.03333 29.85826 30.76333
24.0 0.0417 29.86555 30.76742
54.0 0.01852 29.87284 30.77169
33.0 0.03030 29.88011 30.77612
40.0 0.02500 29.88736 30.78072
43.0 0.02326 29.89461 30.78547
40.0 0.02500 29.90183 30.79038
26.0 0.0385 29.90905 30.79544
26.0 0.0385 29.91625 30.80065
38.0 0.02632 29.92344 30.80601
37.0 0.02703 29.93062 30.81151
33.0 0.03030 29.93778 30.81716
19.0 0.0526 29.94494 30.82294
35.0 0.02857 29.95208 30.82886
26.0 0.0385 29.95921 30.83491
26.0 0.0385 29.96632 30.84109
36.0 0.02778 29.97342 30.84741
31.0 0.03226 29.98051 30.85385
38.0 0.02632 29.98759 30.86042
29.0 0.03448 29.99465 30.86712
41.0 0.02439 30.00170 30.87394
33.0 0.03030 30.00874 30.88088
33.0 0.03030 30.01577 30.88795
37.0 0.02703 30.02278 30.89514
35.0 0.02857 30.02977 30.90245
32.0 0.03125 30.03676 30.90988
27.0 0.0370 30.04374 30.91745
29.0 0.03448 30.05070 30.92511
28.0 0.0357 30.05765 30.93291
34.0 0.02941 30.06459 30.94081
23.0 0.0435 30.07151 30.94886
21.0 0.0476 30.07842 30.95701
41.0 0.02439 30.08532 30.96529
39.0 0.02564 30.09221 30.97369
32.0 0.03125 30.09908 30.98221
31.0 0.03226 30.10594 30.99086
40.0 0.02500 30.11279 30.99963
31.0 0.03226 30.11963 31.00852
26.0 0.0385 30.12645 31.01753
29.0 0.03448 30.13326 31.02668
28.0 0.0357 30.14006 31.03595
28.0 0.0357 30.14685 31.04536
34.0 0.02941 30.15362 31.05490
23.0 0.0435 30.16038 31.06457
25.0 0.0400 30.16713 31.07437
23.0 0.0435 30.17386 31.08431
41.0 0.02439 30.18059 31.09439
31.0 0.03226 30.18730 31.10461
23.0 0.0435 30.19400 31.11498
29.0 0.03448 30.20068 31.12550
31.0 0.03226 30.20735 31.13616
26.0 0.0385 30.21402 31.14699
26.0 0.0385 30.22066 31.15795
31.0 0.03226 30.22730 31.16909
26.0 0.0385 30.23392 31.18039
34.0 0.02941 30.24054 31.19184
21.0 0.0476 30.24714 31.20348
21.0 0.0476 30.25372 31.21528
32.0 0.03125 30.26029 31.22727
33.0 0.03030 30.26686 31.23944
31.0 0.03226 30.27341 31.25180
33.0 0.03030 30.27994 31.26436
31.0 0.03226 30.28646 31.27711
23.0 0.0435 30.29298 31.29006
29.0 0.03448 30.29948 31.30322
26.0 0.0385 30.30597 31.31660
32.0 0.03125 30.31244 31.33022
31.0 0.03226 30.31890 31.34406
30.0 0.03333 30.32535 31.35814
25.0 0.0400 30.33179 31.37246
28.0 0.0357 30.33822 31.38703
30.0 0.03333 30.34463 31.40187
27.0 0.0370 30.35103 31.41698
34.0 0.02941 30.35743 31.43237
18.0 0.0556 30.36380 31.44804
26.0 0.0385 30.37016 31.46404
34.0 0.02941 30.37651 31.48032
34.0 0.02941 30.38286 31.49694
34.0 0.02941 30.38918 31.51390
28.0 0.0357 30.39550 31.53120
32.0 0.03125 30.40180 31.54887
22.0 0.0455 30.40809 31.56691
32.0 0.03125 30.41438 31.58533
35.0 0.02857 30.42064 31.60418
25.0 0.0400 30.42690 31.62344
27.0 0.0370 30.43314 31.64316
26.0 0.0385 30.43937 31.66332
27.0 0.0370 30.44559 31.68397
26.0 0.0385 30.45179 31.70514
22.0 0.0455 30.45799 31.72682
32.0 0.03125 30.46417 31.74905
23.0 0.0435 30.47034 31.77185
27.0 0.0370 30.47650 31.79526
29.0 0.03448 30.48264 31.81929
29.0 0.03448 30.48877 31.84399
26.0 0.0385 30.49490 31.86985
40.0 0.02500 30.50101 31.89597
25.0 0.0400 30.50710 31.92285
28.0 0.0357 30.51319 31.95054
27.0 0.0370 30.51926 31.97907
37.0 0.02703 30.52532 32.00850
35.0 0.02857 30.53137 32.03886
20.0 0.0500 30.53741 32.07021
32.0 0.03125 30.54343 32.10260
33.0 0.03030 30.54945 32.13611
30.0 0.03333 30.55545 32.17100
25.0 0.0400 30.56144 32.20689
22.0 0.0455 30.56742 32.24410
43.0 0.02326 30.57338 32.28268
27.0 0.0370 30.57934 32.32274
30.0 0.03333 30.58528 32.36437
25.0 0.0400 30.59121 32.40764
22.0 0.0455 30.59712 32.45267
33.0 0.03030 30.60303 32.49962
33.0 0.03030 30.60892 32.54856
27.0 0.0370 30.61481 32.59964
26.0 0.0385 30.62067 32.65302
32.0 0.03125 30.62654 32.70885
29.0 0.03448 30.63238 32.76732
28.0 0.0357 30.63821 32.82861
44.0 0.02273 30.64403 32.89294
30.0 0.03333 30.64985 32.96054
34.0 0.02941 30.65565 33.03166
27.0 0.0370 30.66143 33.10660
38.0 0.02632 30.66721 33.18563
26.0 0.0385 30.67297 33.26912
32.0 0.03125 30.67872 33.35746
35.0 0.02857 30.68446 33.45103
35.0 0.02857 30.69019 33.55034
36.0 0.02778 30.69591 33.65588
32.0 0.03125 30.70161 33.76826
36.0 0.02778 30.70731 33.88811
37.0 0.02703 30.71299 34.01619
31.0 0.03226 30.71866 34.15329
29.0 0.03448 30.72431 34.30037
26.0 0.0385 30.72996 34.45848
38.0 0.02632 30.73559 34.62884
32.0 0.03125 30.74122 34.81282
37.0 0.02703 30.74683 35.01201
40.0 0.02500 30.75243 35.22821
38.0 0.02632 30.75802 35.46357
36.0 0.02778 30.76359 35.72046
40.0 0.02500 30.76916 36.00179
31.0 0.03226 30.77471 36.31089
35.0 0.02857 30.78025 36.65169
43.0 0.02326 30.78579 37.02890
24.0 0.0417 30.79130 37.44810
44.0 0.02273 30.79681 37.91601
34.0 0.02941 30.80231 38.44080
43.0 0.02326 30.80779 39.03241
44.0 0.02273 30.81326 39.70317
31.0 0.03226 30.81872 40.46838
33.0 0.03030 30.82417 41.34732
32.0 0.03125 30.82961 42.36464
33.0 0.03030 30.83504 43.55227
49.0 0.02041 30.84045 44.95255
43.0 0.02326 30.84585 46.62434
47.0 0.02128 30.85124 48.65692
55.0 0.01818 30.85662 51.20371
58.0 0.01724 30.86199 54.55661
70.0 0.01429 30.86735 59.27790
76.0 0.01316 30.87270 66.37659
73.0 0.01370 30.87803 77.46392
105.0 0.00952 30.88335 94.78772
143.0 0.00699 30.88866 121.02372
172.0 0.00581 30.89396 158.88785
237.0 0.00422 30.89925 211.58868
282.0 0.00355 30.90453 283.35248
341.0 0.002933 30.90979 379.12469
498.0 0.002008 30.91505 503.85306
644.0 0.001553 30.92029 655.10376
822.0 0.001217 30.92552 815.76947
1049.0 0.000953 30.93075 948.23767
1040.0 0.000962 30.93595 1002.86298
914.0 0.001094 30.94115 949.37732
830.0 0.001205 30.94634 823.01031
652.0 0.001534 30.95151 697.95367
597.0 0.001675 30.95668 617.70117
576.0 0.001736 30.96183 578.68481
501.0 0.001996 30.96697 546.96814
499.0 0.002004 30.97210 485.59579
412.0 0.002427 30.97722 388.24640
262.0 0.00382 30.98233 282.37204
196.0 0.00510 30.98743 194.35951
124.0 0.00806 30.99251 133.65384
84.0 0.01190 30.99759 97.28596
78.0 0.01282 31.00265 77.33099
64.0 0.01563 31.00770 66.43780
70.0 0.01429 31.01274 59.94923
60.0 0.01667 31.01777 55.55881
55.0 0.01818 31.02279 52.28051
39.0 0.02564 31.02780 49.69744
41.0 0.02439 31.03280 47.60561
48.0 0.02083 31.03778 45.88296
47.0 0.02128 31.04276 44.44623
52.0 0.01923 31.04772 43.23507
38.0 0.02632 31.05267 42.20451
32.0 0.03125 31.05761 41.32043
37.0 0.02703 31.06254 40.55648
46.0 0.02174 31.06746 39.89208
36.0 0.02778 31.07237 39.31093
41.0 0.02439 31.07727 38.80000
35.0 0.02857 31.08215 38.34872
26.0 0.0385 31.08702 37.94849
36.0 0.02778 31.09189 37.59222
33.0 0.03030 31.09674 37.27408
38.0 0.02632 31.10159 36.98912
31.0 0.03226 31.10642 36.73323
39.0 0.02564 31.11123 36.50297
44.0 0.02273 31.11605 36.29532
39.0 0.02564 31.12085 36.10778
35.0 0.02857 31.12563 35.93818
35.0 0.02857 31.13041 35.78463
37.0 0.02703 31.13517 35.64552
29.0 0.03448 31.13993 35.51941
26.0 0.0385 31.14467 35.40511
36.0 0.02778 31.14940 35.30153
39.0 0.02564 31.15413 35.20771
41.0 0.02439 31.15884 35.12283
47.0 0.02128 31.16354 35.04618
33.0 0.03030 31.16823 34.97706
29.0 0.03448 31.17291 34.91492
46.0 0.02174 31.17757 34.85927
33.0 0.03030 31.18223 34.80963
29.0 0.03448 31.18688 34.76560
28.0 0.0357 31.19151 34.72684
44.0 0.02273 31.19614 34.69300
45.0 0.02222 31.20075 34.66383
26.0 0.0385 31.20536 34.63903
34.0 0.02941 31.20995 34.61843
31.0 0.03226 31.21453 34.60179
32.0 0.03125 31.21910 34.58896
38.0 0.02632 31.22367 34.57976
35.0 0.02857 31.22822 34.57406
40.0 0.02500 31.23276 34.57173
29.0 0.03448 31.23728 34.57270
47.0 0.02128 31.24180 34.57685
37.0 0.02703 31.24631 34.58413
43.0 0.02326 31.25081 34.59443
33.0 0.03030 31.25529 34.60774
48.0 0.02083 31.25977 34.62402
31.0 0.03226 31.26423 34.64323
30.0 0.03333 31.26869 34.66537
42.0 0.02381 31.27313 34.69043
31.0 0.03226 31.27757 34.71838
30.0 0.03333 31.28199 34.74927
32.0 0.03125 31.28640 34.78310
31.0 0.03226 31.29080 34.81993
35.0 0.02857 31.29519 34.85979
38.0 0.02632 31.29958 34.90272
36.0 0.02778 31.30395 34.94880
39.0 0.02564 31.30831 34.99809
38.0 0.02632 31.31265 35.05068
41.0 0.02439 31.31700 35.10666
47.0 0.02128 31.32133 35.16727
44.0 0.02273 31.32564 35.23039
29.0 0.03448 31.32995 35.29726
40.0 0.02500 31.33425 35.36800
36.0 0.02778 31.33854 35.44281
37.0 0.02703 31.34282 35.52184
43.0 0.02326 31.34708 35.60528
43.0 0.02326 31.35134 35.69335
30.0 0.03333 31.35558 35.78627
28.0 0.0357 31.35982 35.88429
30.0 0.03333 31.36404 35.98768
39.0 0.02564 31.36826 36.09730
36.0 0.02778 31.37246 36.21234
42.0 0.02381 31.37666 36.33371
40.0 0.02500 31.38084 36.46178
54.0 0.01852 31.38501 36.59698
50.0 0.02000 31.38918 36.73975
31.0 0.03226 31.39333 36.89060
36.0 0.02778 31.39748 37.05006
28.0 0.0357 31.40161 37.21872
39.0 0.02564 31.40573 37.39723
41.0 0.02439 31.40984 37.58630
42.0 0.02381 31.41394 37.78673
40.0 0.02500 31.41804 37.99934
30.0 0.03333 31.42212 38.22509
39.0 0.02564 31.42619 38.46506
48.0 0.02083 31.43025 38.72037
46.0 0.02174 31.43430 38.99230
50.0 0.02000 31.43834 39.28230
44.0 0.02273 31.44238 39.59193
41.0 0.02439 31.44640 39.92297
44.0 0.02273 31.45041 40.27739
36.0 0.02778 31.45441 40.65740
43.0 0.02326 31.45840 41.06548
48.0 0.02083 31.46238 41.50446
45.0 0.02222 31.46636 41.97748
58.0 0.01724 31.47032 42.48812
49.0 0.02041 31.47427 43.04049
44.0 0.02273 31.47821 43.63923
60.0 0.01667 31.48214 44.28971
53.0 0.01887 31.48606 44.99800
58.0 0.01724 31.48997 45.77123
47.0 0.02128 31.49388 46.61762
29.0 0.03448 31.49777 47.54673
47.0 0.02128 31.50165 48.56976
56.0 0.01786 31.50552 49.69994
51.0 0.01961 31.50938 50.95289
53.0 0.01887 31.51323 52.34724
71.0 0.01408 31.51707 53.90533
51.0 0.01961 31.52091 55.65415
73.0 0.01370 31.52473 57.62659
53.0 0.01887 31.52854 59.86306
69.0 0.01449 31.53234 62.41363
87.0 0.01149 31.53613 65.34106
67.0 0.01493 31.53992 68.72493
76.0 0.01316 31.54369 72.66748
88.0 0.01136 31.54745 77.30247
86.0 0.01163 31.55121 82.81036
97.0 0.01031 31.55495 89.44955
125.0 0.00800 31.55869 97.63043
132.0 0.00758 31.56242 108.08865
171.0 0.00585 31.56613 122.24101
194.0 0.00515 31.56984 142.77963
209.0 0.00478 31.57353 174.43436
302.0 0.003311 31.57722 224.66826
375.0 0.002667 31.58089 303.97369
488.0 0.002049 31.58456 425.41931
665.0 0.001504 31.58821 603.70850
936.0 0.001068 31.59186 856.50018
1190.0 0.000840 31.59550 1202.21143
1618.0 0.000618 31.59913 1649.99219
2182.0 0.000458 31.60275 2182.95776
2767.0 0.000361 31.60636 2729.91895
3417.0 0.0002927 31.60996 3158.88696
3609.0 0.0002771 31.61355 3307.64185
3354.0 0.0002982 31.61713 3097.19727
2826.0 0.000354 31.62070 2660.63062
2133.0 0.000469 31.62426 2239.26196
1937.0 0.000516 31.62781 1975.73584
1677.0 0.000596 31.63136 1867.17224
1885.0 0.000531 31.63488 1811.23096
1848.0 0.000541 31.63841 1676.78101
1585.0 0.000631 31.64192 1402.20874
1131.0 0.000884 31.64543 1049.48987
715.0 0.001399 31.64892 720.38812
464.0 0.002155 31.65240 471.36673
322.0 0.003106 31.65588 310.02606
227.0 0.00441 31.65935 216.79115
177.0 0.00565 31.66281 165.76559
141.0 0.00709 31.66626 136.95337
123.0 0.00813 31.66969 118.85384
123.0 0.00813 31.67313 106.04348
107.0 0.00935 31.67654 96.21106
107.0 0.00935 31.67996 88.33504
90.0 0.01111 31.68336 81.88074
75.0 0.01333 31.68675 76.51192
71.0 0.01408 31.69013 71.99310
79.0 0.01266 31.69351 68.15096
77.0 0.01299 31.69687 64.85490
61.0 0.01639 31.70023 62.00473
53.0 0.01887 31.70358 59.52251
61.0 0.01639 31.70691 57.34678
59.0 0.01695 31.71024 55.42853
49.0 0.02041 31.71356 53.72833
49.0 0.02041 31.71687 52.21406
47.0 0.02128 31.72016 50.85935
46.0 0.02174 31.72346 49.64244
56.0 0.01786 31.72674 48.54517
60.0 0.01667 31.73001 47.55227
43.0 0.02326 31.73327 46.65093
42.0 0.02381 31.73653 45.83020
43.0 0.02326 31.73978 45.08072
58.0 0.01724 31.74301 44.39456
48.0 0.02083 31.74624 43.76476
55.0 0.01818 31.74946 43.18536
45.0 0.02222 31.75267 42.65117
46.0 0.02174 31.75587 42.15765
57.0 0.01754 31.75905 41.70079
43.0 0.02326 31.76224 41.27712
46.0 0.02174 31.76541 40.88354
55.0 0.01818 31.76857 40.52179
46.0 0.02174 31.77173 40.18052
49.0 0.02041 31.77488 39.86203
39.0 0.02564 31.77802 39.56436
44.0 0.02273 31.78115 39.28581
50.0 0.02000 31.78426 39.02485
44.0 0.02273 31.78737 38.78003
61.0 0.01639 31.79048 38.55013
56.0 0.01786 31.79357 38.33400
35.0 0.02857 31.79665 38.13063
50.0 0.02000 31.79973 37.93908
45.0 0.02222 31.80280 37.75849
46.0 0.02174 31.80585 37.59032
44.0 0.02273 31.80890 37.42944
51.0 0.01961 31.81194 37.27740
42.0 0.02381 31.81497 37.13363
51.0 0.01961 31.81800 36.99755
36.0 0.02778 31.82101 36.86876
39.0 0.02564 31.82401 36.74670
40.0 0.02500 31.82701 36.63104
49.0 0.02041 31.83000 36.52134
44.0 0.02273 31.83298 36.41726
44.0 0.02273 31.83595 36.31846
38.0 0.02632 31.83891 36.22466
46.0 0.02174 31.84186 36.13557
56.0 0.01786 31.84481 36.05091
43.0 0.02326 31.84774 35.97048
47.0 0.02128 31.85067 35.89403
42.0 0.02381 31.85359 35.82135
32.0 0.03125 31.85650 35.75224
47.0 0.02128 31.85940 35.68656
32.0 0.03125 31.86229 35.62407
54.0 0.01852 31.86517 35.56470
41.0 0.02439 31.86805 35.50825
39.0 0.02564 31.87091 35.45457
42.0 0.02381 31.87377 35.40357
38.0 0.02632 31.87663 35.35513
32.0 0.03125 31.87947 35.30913
40.0 0.02500 31.88230 35.26545
32.0 0.03125 31.88512 35.22399
39.0 0.02564 31.88794 35.18471
22.0 0.0455 31.89075 35.14746
34.0 0.02941 31.89355 35.11221
43.0 0.02326 31.89634 35.07885
44.0 0.02273 31.89912 35.04733
36.0 0.02778 31.90189 35.01759
47.0 0.02128 31.90466 34.98953
36.0 0.02778 31.90741 34.96314
36.0 0.02778 31.91016 34.93834
54.0 0.01852 31.91291 34.91507
30.0 0.03333 31.91564 34.89331
32.0 0.03125 31.91836 34.87300
43.0 0.02326 31.92108 34.85410
47.0 0.02128 31.92378 34.83658
35.0 0.02857 31.92649 34.82040
34.0 0.02941 31.92917 34.80551
34.0 0.02941 31.93186 34.79190
27.0 0.0370 31.93454 34.77953
34.0 0.02941 31.93719 34.76838
37.0 0.02703 31.93986 34.75842
32.0 0.03125 31.94250 34.74962
39.0 0.02564 31.94514 34.74199
43.0 0.02326 31.94778 34.73549
43.0 0.02326 31.95041 34.73008
39.0 0.02564 31.95302 34.72578
32.0 0.03125 31.95563 34.72258
39.0 0.02564 31.95823 34.72043
38.0 0.02632 31.96083 34.71933
43.0 0.02326 31.96341 34.71929
44.0 0.02273 31.96599 34.72031
55.0 0.01818 31.96855 34.72236
24.0 0.0417 31.97112 34.72544
45.0 0.02222 31.97367 34.72956
25.0 0.0400 31.97621 34.73470
38.0 0.02632 31.97875 34.74087
43.0 0.02326 31.98128 34.74805
28.0 0.0357 31.98380 34.75629
41.0 0.02439 31.98631 34.76554
34.0 0.02941 31.98882 34.74623
40.0 0.02500 31.99131 34.75764
37.0 0.02703 31.99380 34.77010
53.0 0.01887 31.99628 34.78362
43.0 0.02326 31.99875 34.78347
33.0 0.03030 32.00122 34.79916
36.0 0.02778 32.00368 34.81596
38.0 0.02632 32.00612 34.83389
55.0 0.01818 32.00857 34.85293
38.0 0.02632 32.01100 34.87314
49.0 0.02041 32.01343 34.89450
49.0 0.02041 32.01584 34.91707
59.0 0.01695 32.01826 34.94087
46.0 0.02174 32.02066 34.96587
48.0 0.02083 32.02305 34.99218
39.0 0.02564 32.02544 35.01976
29.0 0.03448 32.02782 35.04868
33.0 0.03030 32.03019 35.07896
36.0 0.02778 32.03255 35.11067
48.0 0.02083 32.03491 35.14377
38.0 0.02632 32.03726 35.17837
41.0 0.02439 32.03960 35.20814
41.0 0.02439 32.04193 35.24583
46.0 0.02174 32.04426 35.28515
45.0 0.02222 32.04658 35.32614
40.0 0.02500 32.04889 35.36885
34.0 0.02941 32.05119 35.41019
36.0 0.02778 32.05348 35.45655
38.0 0.02632 32.05577 35.50481
44.0 0.02273 32.05805 35.55505
44.0 0.02273 32.06032 35.60736
45.0 0.02222 32.06259 35.66178
38.0 0.02632 32.06485 35.71844
47.0 0.02128 32.06710 35.77742
46.0 0.02174 32.06934 35.83878
60.0 0.01667 32.07157 35.90267
41.0 0.02439 32.07380 35.96915
32.0 0.03125 32.07602 36.03837
35.0 0.02857 32.07824 36.11041
38.0 0.02632 32.08044 36.18545
44.0 0.02273 32.08263 36.26360
44.0 0.02273 32.08482 36.34498
37.0 0.02703 32.08701 36.42980
52.0 0.01923 32.08918 36.51820
34.0 0.02941 32.09135 36.61032
49.0 0.02041 32.09351 36.70640
48.0 0.02083 32.09566 36.80664
34.0 0.02941 32.09781 36.91122
36.0 0.02778 32.09995 37.02040
46.0 0.02174 32.10208 37.13441
37.0 0.02703 32.10421 37.25353
38.0 0.02632 32.10633 37.37803
47.0 0.02128 32.10843 37.50821
50.0 0.02000 32.11054 37.64442
41.0 0.02439 32.11263 37.78699
29.0 0.03448 32.11472 37.93631
41.0 0.02439 32.11680 38.09279
49.0 0.02041 32.11887 38.25687
47.0 0.02128 32.12094 38.42900
40.0 0.02500 32.12300 38.60974
43.0 0.02326 32.12505 38.79964
38.0 0.02632 32.12710 38.99928
53.0 0.01887 32.12914 39.20935
36.0 0.02778 32.13117 39.43052
51.0 0.01961 32.13319 39.66360
41.0 0.02439 32.13521 39.90945
45.0 0.02222 32.13722 40.16895
50.0 0.02000 32.13922 40.44318
45.0 0.02222 32.14122 40.73318
37.0 0.02703 32.14321 41.04021
45.0 0.02222 32.14519 41.36559
48.0 0.02083 32.14716 41.71080
56.0 0.01786 32.14913 42.07746
44.0 0.02273 32.15109 42.46739
52.0 0.01923 32.15305 42.88255
50.0 0.02000 32.15499 43.32518
45.0 0.02222 32.15693 43.79773
53.0 0.01887 32.15887 44.30291
61.0 0.01639 32.16079 44.84388
57.0 0.01754 32.16271 45.42397
49.0 0.02041 32.16462 46.04712
60.0 0.01667 32.16653 46.71768
42.0 0.02381 32.16843 47.44057
45.0 0.02222 32.17032 48.22137
69.0 0.01449 32.17220 49.06647
46.0 0.02174 32.17408 49.98313
59.0 0.01695 32.17596 50.97969
51.0 0.01961 32.17782 52.06573
48.0 0.02083 32.17968 53.25234
61.0 0.01639 32.18153 54.55243
62.0 0.01613 32.18337 55.98095
55.0 0.01818 32.18521 57.55556
61.0 0.01639 32.18704 59.29697
51.0 0.01961 32.18887 61.22979
68.0 0.01471 32.19069 63.38333
86.0 0.01163 32.19250 65.79281
61.0 0.01639 32.19430 68.50084
82.0 0.01220 32.19610 71.55936
64.0 0.01563 32.19789 75.03215
74.0 0.01351 32.19968 78.99841
82.0 0.01220 32.20145 83.55745
101.0 0.00990 32.20322 88.83500
100.0 0.01000 32.20500 94.99290
111.0 0.00901 32.20675 102.24326
110.0 0.00909 32.20850 110.87447
119.0 0.00840 32.21025 121.30383
151.0 0.00662 32.21199 134.19551
178.0 0.00562 32.21372 150.71431
204.0 0.00490 32.21544 173.01271
240.0 0.00417 32.21716 205.02737
293.0 0.003413 32.21888 253.56920
363.0 0.002755 32.22058 329.57227
492.0 0.002033 32.22229 449.21475
592.0 0.001689 32.22398 634.05396
866.0 0.001155 32.22567 907.99658
1198.0 0.000835 32.22734 1290.23962
1634.0 0.000612 32.22902 1787.79944
2212.0 0.000452 32.23069 2375.97485
2912.0 0.0003434 32.23235 2973.33154
3643.0 0.0002745 32.23401 3454.21484
4045.0 0.0002472 32.23566 3666.81836
3848.0 0.0002599 32.23730 3517.29224
3209.0 0.0003116 32.23894 3095.87500
2725.0 0.000367 32.24057 2626.34033
2030.0 0.000493 32.24219 2283.72607
1868.0 0.000535 32.24381 2117.36182
1933.0 0.000517 32.24543 2074.33740
2067.0 0.000484 32.24703 2045.18909
2056.0 0.000486 32.24863 1912.56055
1776.0 0.000563 32.25022 1632.60742
1499.0 0.000667 32.25181 1268.88269
879.0 0.001138 32.25340 916.93127
658.0 0.001520 32.25497 633.92261
438.0 0.002283 32.25653 434.59564
304.0 0.003289 32.25810 307.68735
232.0 0.00431 32.25965 231.82881
204.0 0.00490 32.26120 186.86105
151.0 0.00662 32.26275 158.73866
117.0 0.00855 32.26428 139.46936
112.0 0.00893 32.26582 125.08155
113.0 0.00885 32.26734 113.70634
102.0 0.00980 32.26886 104.41784
79.0 0.01266 32.27038 96.68934
79.0 0.01266 32.27188 90.17553
82.0 0.01220 32.27339 84.62888
69.0 0.01449 32.27488 79.86367
78.0 0.01282 32.27638 75.73752
86.0 0.01163 32.27786 72.13940
70.0 0.01429 32.27934 68.98165
76.0 0.01316 32.28081 66.19423
82.0 0.01220 32.28228 63.72066
64.0 0.01563 32.28374 61.51501
59.0 0.01695 32.28519 59.53947
53.0 0.01887 32.28664 57.76276
63.0 0.01587 32.28809 56.15878
63.0 0.01587 32.28953 54.70564
60.0 0.01667 32.29095 53.38481
41.0 0.02439 32.29238 52.18061
66.0 0.01515 32.29380 51.07956
70.0 0.01429 32.29522 50.07013
56.0 0.01786 32.29663 49.14238
71.0 0.01408 32.29803 48.28764
53.0 0.01887 32.29943 47.49843
45.0 0.02222 32.30082 46.76819
68.0 0.01471 32.30220 46.09115
61.0 0.01639 32.30358 45.46225
41.0 0.02439 32.30496 44.87704
51.0 0.01961 32.30633 44.33153
60.0 0.01667 32.30769 43.82221
49.0 0.02041 32.30905 43.34595
54.0 0.01852 32.31040 42.89996
40.0 0.02500 32.31174 42.48174
46.0 0.02174 32.31309 42.08899
49.0 0.02041 32.31442 41.71975
50.0 0.02000 32.31575 41.37213
45.0 0.02222 32.31708 41.04453
53.0 0.01887 32.31839 40.73544
36.0 0.02778 32.31971 40.44350
53.0 0.01887 32.32101 40.16851
32.0 0.03125 32.32232 39.90727
47.0 0.02128 32.32361 39.65991
31.0 0.03226 32.32490 39.42527
43.0 0.02326 32.32619 39.20265
43.0 0.02326 32.32747 38.99120
35.0 0.02857 32.32874 38.79023
54.0 0.01852 32.33001 38.59909
36.0 0.02778 32.33128 38.41713
48.0 0.02083 32.33254 38.24379
39.0 0.02564 32.33379 38.07863
29.0 0.03448 32.33504 37.92109
33.0 0.03030 32.33628 37.77077
54.0 0.01852 32.33752 37.62774
53.0 0.01887 32.33875 37.49062
42.0 0.02381 32.33998 37.35983
43.0 0.02326 32.34120 37.23452
38.0 0.02632 32.34241 37.11463
41.0 0.02439 32.34362 36.99995
42.0 0.02381 32.34483 36.89014
36.0 0.02778 32.34603 36.78499
32.0 0.03125 32.34723 36.68429
47.0 0.02128 32.34842 36.58781
49.0 0.02041 32.34960 36.49535
48.0 0.02083 32.35078 36.40675
46.0 0.02174 32.35196 36.32182
39.0 0.02564 32.35313 36.24043
40.0 0.02500 32.35429 36.16241
34.0 0.02941 32.35545 36.08768
37.0 0.02703 32.35661 36.01616
37.0 0.02703 32.35775 35.94756
35.0 0.02857 32.35890 35.88188
48.0 0.02083 32.36003 35.81904
39.0 0.02564 32.36117 35.75893
36.0 0.02778 32.36230 35.70149
34.0 0.02941 32.36342 35.64667
39.0 0.02564 32.36454 35.59440
41.0 0.02439 32.36565 35.54462
51.0 0.01961 32.36677 35.49729
28.0 0.0357 32.36787 35.45245
36.0 0.02778 32.36897 35.41001
43.0 0.02326 32.37006 35.36996
46.0 0.02174 32.37115 35.33235
54.0 0.01852 32.37224 35.29718
44.0 0.02273 32.37331 35.26450
42.0 0.02381 32.37439 35.23434
46.0 0.02174 32.37547 35.20673
36.0 0.02778 32.37653 35.18183
37.0 0.02703 32.37759 35.15971
38.0 0.02632 32.37864 35.14050
35.0 0.02857 32.37969 35.12437
37.0 0.02703 32.38074 35.11153
34.0 0.02941 32.38178 35.10222
49.0 0.02041 32.38281 35.09673
39.0 0.02564 32.38385 35.09541
32.0 0.03125 32.38487 35.09870
40.0 0.02500 32.38589 35.10711
30.0 0.03333 32.38691 35.12129
39.0 0.02564 32.38793 35.14200
41.0 0.02439 32.38894 35.17020
38.0 0.02632 32.38993 35.20707
51.0 0.01961 32.39093 35.25401
41.0 0.02439 32.39193 35.31293
32.0 0.03125 32.39292 35.38614
36.0 0.02778 32.39391 35.47663
37.0 0.02703 32.39488 35.58832
40.0 0.02500 32.39586 35.72647
34.0 0.02941 32.39683 35.89853
30.0 0.03333 32.39780 36.11604
44.0 0.02273 32.39875 36.39895
41.0 0.02439 32.39971 36.78464
49.0 0.02041 32.40067 37.34447
47.0 0.02128 32.40162 38.21008
43.0 0.02326 32.40256 39.60819
43.0 0.02326 32.40350 41.89674
54.0 0.01852 32.40443 45.58082
51.0 0.01961 32.40536 51.25629
55.0 0.01818 32.40629 59.41335
68.0 0.01471 32.40722 70.13885
83.0 0.01205 32.40813 82.74998
98.0 0.01020 32.40904 95.33887
109.0 0.00917 32.40995 104.94875
134.0 0.00746 32.41085 108.33730
134.0 0.00746 32.41175 103.95624
106.0 0.00943 32.41265 94.26807
84.0 0.01190 32.41354 84.07524
74.0 0.01351 32.41443 76.89365
67.0 0.01493 32.41531 73.79434
82.0 0.01220 32.41619 73.74324
75.0 0.01333 32.41706 74.43322
77.0 0.01299 32.41793 73.28085
85.0 0.01176 32.41880 68.80202
71.0 0.01408 32.41967 61.77552
46.0 0.02174 32.42052 54.25441
43.0 0.02326 32.42137 47.80447
63.0 0.01587 32.42222 43.04810
48.0 0.02083 32.42307 39.92555
43.0 0.02326 32.42391 38.03942
50.0 0.02000 32.42475 36.93933
35.0 0.02857 32.42558 36.27888
41.0 0.02439 32.42640 35.84744
28.0 0.0357 32.42723 35.53643
45.0 0.02222 32.42805 35.29502
37.0 0.02703 32.42886 35.09942
32.0 0.03125 32.42968 34.93722
41.0 0.02439 32.43048 34.80086
37.0 0.02703 32.43129 34.68517
36.0 0.02778 32.43209 34.58638
42.0 0.02381 32.43288 34.50166
38.0 0.02632 32.43367 34.42892
25.0 0.0400 32.43446 34.36658
41.0 0.02439 32.43525 34.31353
25.0 0.0400 32.43602 34.26906
29.0 0.03448 32.43681 34.23283
36.0 0.02778 32.43757 34.20508
42.0 0.02381 32.43835 34.18687
38.0 0.02632 32.43910 34.18102
32.0 0.03125 32.43987 34.19343
35.0 0.02857 32.44062 34.23570
28.0 0.0357 32.44137 34.32790
28.0 0.0357 32.44212 34.50202
39.0 0.02564 32.44287 34.80222
43.0 0.02326 32.44361 35.27803
31.0 0.03226 32.44435 35.96436
37.0 0.02703 32.44508 36.85362
32.0 0.03125 32.44581 37.86311
37.0 0.02703 32.44654 38.80767
40.0 0.02500 32.44726 39.43043
28.0 0.0357 32.44798 39.48861
32.0 0.03125 32.44870 38.94780
28.0 0.0357 32.44941 38.09394
29.0 0.03448 32.45011 37.30498
39.0 0.02564 32.45082 36.80777
29.0 0.03448 32.45151 36.64120
38.0 0.02632 32.45222 36.68730
33.0 0.03030 32.45291 36.74894
37.0 0.02703 32.45360 36.62605
29.0 0.03448 32.45428 36.22934
51.0 0.01961 32.45496 35.64932
31.0 0.03226 32.45564 35.05182
27.0 0.0370 32.45631 34.55087
22.0 0.0455 32.45699 34.18687
34.0 0.02941 32.45766 33.94963
33.0 0.03030 32.45832 33.80546
40.0 0.02500 32.45898 33.71905
24.0 0.0417 32.45964 33.66440
32.0 0.03125 32.46030 33.62620
33.0 0.03030 32.46095 33.59757
27.0 0.0370 32.46159 33.57336
43.0 0.02326 32.46223 33.55262
43.0 0.02326 32.46287 33.53457
41.0 0.02439 32.46351 33.51864
36.0 0.02778 32.46414 33.50437
26.0 0.0385 32.46477 33.49149
34.0 0.02941 32.46540 33.47981
43.0 0.02326 32.46602 33.46913
35.0 0.02857 32.46664 33.45929
24.0 0.0417 32.46725 33.45022
37.0 0.02703 32.46787 33.44182
38.0 0.02632 32.46848 33.43399
31.0 0.03226 32.46909 33.42669
28.0 0.0357 32.46969 33.41517
27.0 0.0370 32.47029 33.40880
24.0 0.0417 32.47089 33.40279
35.0 0.02857 32.47148 33.39717
31.0 0.03226 32.47207 33.39187
44.0 0.02273 32.47265 33.38453
33.0 0.03030 32.47324 33.37986
36.0 0.02778 32.47382 33.37544
29.0 0.03448 32.47440 33.37128
17.0 0.0588 32.47498 33.36737
26.0 0.0385 32.47554 33.36369
30.0 0.03333 32.47611 33.36100
31.0 0.03226 32.47667 33.35776
39.0 0.02564 32.47724 33.35471
32.0 0.03125 32.47779 33.35186
43.0 0.02326 32.47835 33.34921
31.0 0.03226 32.47890 33.34674
36.0 0.02778 32.47945 33.34444
29.0 0.03448 32.48000 33.34232
34.0 0.02941 32.48054 33.34038
34.0 0.02941 32.48109 33.33860
26.0 0.0385 32.48162 33.33697
25.0 0.0400 32.48215 33.33551
35.0 0.02857 32.48269 33.33421
38.0 0.02632 32.48322 33.33307
30.0 0.03333 32.48374 33.33209
31.0 0.03226 32.48426 33.33162
41.0 0.02439 32.48478 33.33094
32.0 0.03125 32.48529 33.33041
22.0 0.0455 32.48581 33.33002
31.0 0.03226 32.48632 33.32978
37.0 0.02703 32.48683 33.32969
41.0 0.02439 32.48733 33.32976
31.0 0.03226 32.48783 33.32998
47.0 0.02128 32.48834 33.33035
26.0 0.0385 32.48883 33.33087
32.0 0.03125 32.48932 33.33152
31.0 0.03226 32.48981 33.33236
26.0 0.0385 32.49030 33.33365
23.0 0.0435 32.49079 33.33477
40.0 0.02500 32.49127 33.33606
29.0 0.03448 32.49175 33.33750
39.0 0.02564 32.49223 33.33913
42.0 0.02381 32.49270 33.34091
36.0 0.02778 32.49317 33.34285
30.0 0.03333 32.49364 33.34497
35.0 0.02857 32.49411 33.34725
41.0 0.02439 32.49457 33.34972
30.0 0.03333 32.49503 33.35236
27.0 0.0370 32.49549 33.35519
40.0 0.02500 32.49594 33.35821
31.0 0.03226 32.49640 33.36142
36.0 0.02778 32.49685 33.36499
31.0 0.03226 32.49730 33.36861
39.0 0.02564 32.49774 33.37243
28.0 0.0357 32.49819 33.37649
23.0 0.0435 32.49863 33.38076
24.0 0.0417 32.49906 33.38525
37.0 0.02703 32.49950 33.38998
39.0 0.02564 32.49992 33.39494
25.0 0.0400 32.50036 33.40018
32.0 0.03125 32.50079 33.40567
23.0 0.0435 32.50121 33.41143
39.0 0.02564 32.50163 33.41747
28.0 0.0357 32.50205 33.42380
28.0 0.0357 32.50247 33.43044
36.0 0.02778 32.50288 33.43739
26.0 0.0385 32.50330 33.44468
21.0 0.0476 32.50370 33.45229
26.0 0.0385 32.50411 33.46027
33.0 0.03030 32.50452 33.46862
35.0 0.02857 32.50492 33.47738
47.0 0.02128 32.50533 33.48651
30.0 0.03333 32.50573 33.49607
45.0 0.02222 32.50612 33.50610
28.0 0.0357 32.50651 33.51657
36.0 0.02778 32.50690 33.52755
32.0 0.03125 32.50729 33.53906
38.0 0.02632 32.50768 33.55109
27.0 0.0370 32.50806 33.56370
29.0 0.03448 32.50845 33.57692
29.0 0.03448 32.50883 33.59077
42.0 0.02381 32.50920 33.60531
29.0 0.03448 32.50958 33.62056
32.0 0.03125 32.50995 33.63657
36.0 0.02778 32.51032 33.65336
34.0 0.02941 32.51069 33.67102
43.0 0.02326 32.51105 33.68958
39.0 0.02564 32.51142 33.70909
37.0 0.02703 32.51179 33.72966
29.0 0.03448 32.51214 33.75130
44.0 0.02273 32.51251 33.77412
43.0 0.02326 32.51286 33.79821
29.0 0.03448 32.51322 33.82365
29.0 0.03448 32.51357 33.85051
37.0 0.02703 32.51391 33.87912
39.0 0.02564 32.51427 33.90919
35.0 0.02857 32.51461 33.94111
29.0 0.03448 32.51495 33.97493
38.0 0.02632 32.51530 34.01089
36.0 0.02778 32.51563 34.04913
31.0 0.03226 32.51597 34.08982
42.0 0.02381 32.51630 34.13325
31.0 0.03226 32.51664 34.17959
34.0 0.02941 32.51698 34.22944
26.0 0.0385 32.51730 34.28256
43.0 0.02326 32.51763 34.33953
35.0 0.02857 32.51795 34.40076
33.0 0.03030 32.51828 34.46669
37.0 0.02703 32.51860 34.53782
39.0 0.02564 32.51892 34.61483
35.0 0.02857 32.51924 34.69814
27.0 0.0370 32.51956 34.78863
56.0 0.01786 32.51987 34.88715
34.0 0.02941 32.52018 34.99467
30.0 0.03333 32.52049 35.11237
35.0 0.02857 32.52080 35.24160
46.0 0.02174 32.52111 35.38393
33.0 0.03030 32.52141 35.54123
33.0 0.03030 32.52171 35.71573
34.0 0.02941 32.52202 35.91019
25.0 0.0400 32.52232 36.12753
41.0 0.02439 32.52262 36.37170
36.0 0.02778 32.52291 36.64743
37.0 0.02703 32.52321 36.96048
40.0 0.02500 32.52350 37.31797
42.0 0.02381 32.52379 37.72897
40.0 0.02500 32.52408 38.20479
40.0 0.02500 32.52437 38.76006
34.0 0.02941 32.52465 39.41400
37.0 0.02703 32.52494 40.19258
37.0 0.02703 32.52522 41.13334
39.0 0.02564 32.52551 42.29605
33.0 0.03030 32.52578 43.78738
48.0 0.02083 32.52606 45.81273
54.0 0.01852 32.52634 48.77301
59.0 0.01695 32.52662 53.41740
56.0 0.01786 32.52689 61.03521
73.0 0.01370 32.52716 73.60822
98.0 0.01020 32.52743 93.74190
101.0 0.00990 32.52770 124.07512
161.0 0.00621 32.52796 165.88286
200.0 0.00500 32.52823 217.21852
257.0 0.00389 32.52849 271.85382
348.0 0.002874 32.52876 318.78928
379.0 0.002639 32.52902 343.68661
407.0 0.002457 32.52927 336.59537
330.0 0.003030 32.52954 301.38895
255.0 0.00392 32.52979 255.35963
205.0 0.00488 32.53005 216.09700
175.0 0.00571 32.53030 193.01790
177.0 0.00565 32.53055 187.05470
175.0 0.00571 32.53080 192.74062
219.0 0.00457 32.53105 200.44551
212.0 0.00472 32.53130 199.71751
196.0 0.00510 32.53155 184.65744
158.0 0.00633 32.53180 157.79359
149.0 0.00671 32.53204 127.13379
115.0 0.00870 32.53228 99.47362
87.0 0.01149 32.53252 78.06181
65.0 0.01538 32.53276 63.31902
55.0 0.01818 32.53300 54.04353
61.0 0.01639 32.53324 48.51517
41.0 0.02439 32.53347 45.22818
54.0 0.01852 32.53370 43.16359
47.0 0.02128 32.53394 41.74487
39.0 0.02564 32.53418 40.68356
47.0 0.02128 32.53440 39.84257
37.0 0.02703 32.53463 39.15408
34.0 0.02941 32.53486 38.57988
35.0 0.02857 32.53509 38.09521
43.0 0.02326 32.53532 37.68235
46.0 0.02174 32.53554 37.32792
37.0 0.02703 32.53577 37.02161
30.0 0.03333 32.53599 36.75537
43.0 0.02326 32.53621 36.52278
41.0 0.02439 32.53643 36.31866
32.0 0.03125 32.53664 36.13889
31.0 0.03226 32.53687 35.97999
38.0 0.02632 32.53708 35.83917
27.0 0.0370 32.53730 35.71415
36.0 0.02778 32.53751 35.60292
28.0 0.0357 32.53773 35.50386
37.0 0.02703 32.53794 35.41559
41.0 0.02439 32.53815 35.33691
41.0 0.02439 32.53836 35.26685
49.0 0.02041 32.53857 35.20451
29.0 0.03448 32.53878 35.14917
30.0 0.03333 32.53899 35.10020
35.0 0.02857 32.53920 35.05701
37.0 0.02703 32.53940 35.01916
41.0 0.02439 32.53960 34.98620
41.0 0.02439 32.53981 34.95779
26.0 0.0385 32.54001 34.93359
35.0 0.02857 32.54021 34.91336
55.0 0.01818 32.54041 34.89684
35.0 0.02857 32.54061 34.88382
29.0 0.03448 32.54081 34.87412
42.0 0.02381 32.54101 34.86759
37.0 0.02703 32.54120 34.86412
35.0 0.02857 32.54140 34.86356
43.0 0.02326 32.54159 34.86585
42.0 0.02381 32.54179 34.87089
40.0 0.02500 32.54198 34.87865
38.0 0.02632 32.54217 34.88906
39.0 0.02564 32.54236 34.90208
50.0 0.02000 32.54255 34.91772
34.0 0.02941 32.54275 34.93599
44.0 0.02273 32.54293 34.95684
33.0 0.03030 32.54312 34.98034
40.0 0.02500 32.54331 35.00648
50.0 0.02000 32.54350 35.03532
34.0 0.02941 32.54367 35.06694
48.0 0.02083 32.54387 35.10138
42.0 0.02381 32.54405 35.13875
39.0 0.02564 32.54424 35.17910
36.0 0.02778 32.54442 35.22256
45.0 0.02222 32.54460 35.26927
44.0 0.02273 32.54478 35.31932
34.0 0.02941 32.54496 35.37290
46.0 0.02174 32.54514 35.43019
46.0 0.02174 32.54532 35.49138
47.0 0.02128 32.54550 35.55668
38.0 0.02632 32.54567 35.62633
41.0 0.02439 32.54585 35.70058
38.0 0.02632 32.54603 35.77969
60.0 0.01667 32.54620 35.86405
58.0 0.01724 32.54638 35.95401
43.0 0.02326 32.54655 36.04989
36.0 0.02778 32.54673 36.15223
53.0 0.01887 32.54691 36.26144
45.0 0.02222 32.54708 36.37813
39.0 0.02564 32.54725 36.50286
44.0 0.02273 32.54742 36.63634
47.0 0.02128 32.54759 36.77788
46.0 0.02174 32.54776 36.93118
50.0 0.02000 32.54793 37.09577
43.0 0.02326 32.54811 37.27270
32.0 0.03125 32.54827 37.46323
44.0 0.02273 32.54844 37.66870
56.0 0.01786 32.54861 37.89002
40.0 0.02500 32.54877 38.13028
44.0 0.02273 32.54893 38.39088
36.0 0.02778 32.54911 38.67416
50.0 0.02000 32.54927 38.98278
50.0 0.02000 32.54944 39.31994
40.0 0.02500 32.54961 39.68921
43.0 0.02326 32.54977 40.09486
38.0 0.02632 32.54993 40.54190
30.0 0.03333 32.55010 41.03621
30.0 0.03333 32.55026 41.58484
42.0 0.02381 32.55042 42.19619
51.0 0.01961 32.55058 42.88036
48.0 0.02083 32.55075 43.64967
56.0 0.01786 32.55091 44.51914
53.0 0.01887 32.55107 45.50733
46.0 0.02174 32.55123 46.63736
60.0 0.01667 32.55140 47.93836
57.0 0.01754 32.55156 49.44738
72.0 0.01389 32.55171 51.21242
59.0 0.01695 32.55188 53.29688
56.0 0.01786 32.55203 55.78836
64.0 0.01563 32.55219 58.81771
71.0 0.01408 32.55235 62.60445
77.0 0.01299 32.55251 67.56390
91.0 0.01099 32.55267 74.53555
111.0 0.00901 32.55283 85.20698
120.0 0.00833 32.55298 102.76248
148.0 0.00676 32.55314 132.61595
215.0 0.00465 32.55330 182.74551
286.0 0.003497 32.55346 262.71915
356.0 0.002809 32.55362 380.29889
487.0 0.002053 32.55377 535.27197
639.0 0.001565 32.55392 713.03101
893.0 0.001120 32.55408 882.39301
1032.0 0.000969 32.55423 998.17590
1076.0 0.000929 32.55439 1017.18469
973.0 0.001028 32.55455 931.15546
803.0 0.001245 32.55470 782.48907
601.0 0.001664 32.55486 632.76587
479.0 0.002088 32.55501 526.00464
414.0 0.002415 32.55517 479.49213
430.0 0.002326 32.55533 486.65393
484.0 0.002066 32.55547 523.61774
567.0 0.001764 32.55563 557.10138
503.0 0.001988 32.55579 555.07654
532.0 0.001880 32.55594 503.52466
442.0 0.002262 32.55609 415.85373
288.0 0.003472 32.55625 318.87305
220.0 0.00455 32.55640 233.20741
165.0 0.00606 32.55655 168.21272
124.0 0.00806 32.55671 124.49142
102.0 0.00980 32.55687 97.75359
88.0 0.01136 32.55701 82.37771
78.0 0.01282 32.55717 73.65489
60.0 0.01667 32.55732 68.50970
54.0 0.01852 32.55748 65.26060
63.0 0.01587 32.55763 63.09748
75.0 0.01333 32.55779 61.65565
63.0 0.01587 32.55794 60.77085
64.0 0.01563 32.55809 60.36694
68.0 0.01471 32.55824 60.41222
76.0 0.01316 32.55840 60.90494
65.0 0.01538 32.55855 61.87083
77.0 0.01299 32.55870 63.36844
76.0 0.01316 32.55886 65.50706
76.0 0.01316 32.55901 68.49341
71.0 0.01408 32.55916 72.74284
91.0 0.01099 32.55932 79.11540
123.0 0.00813 32.55947 89.34611
116.0 0.00862 32.55963 106.68464
162.0 0.00617 32.55978 136.56937
180.0 0.00556 32.55993 186.81400
289.0 0.003460 32.56009 266.40143
366.0 0.002732 32.56024 381.92206
488.0 0.002049 32.56039 531.59723
647.0 0.001546 32.56055 699.49323
865.0 0.001156 32.56071 854.03833
1009.0 0.000991 32.56086 951.85480
1002.0 0.000998 32.56101 955.17902
858.0 0.001166 32.56117 862.91174
731.0 0.001368 32.56133 719.27643
575.0 0.001739 32.56148 580.41858
476.0 0.002101 32.56163 484.26801
417.0 0.002398 32.56179 444.74280
394.0 0.002538 32.56195 454.64169
465.0 0.002151 32.56211 491.38400
513.0 0.001949 32.56226 524.13940
560.0 0.001786 32.56242 523.33759
546.0 0.001832 32.56257 475.95532
410.0 0.002439 32.56273 394.34177
301.0 0.003322 32.56289 303.31842
185.0 0.00541 32.56305 222.19635
159.0 0.00629 32.56321 159.97282
123.0 0.00813 32.56336 117.52808
79.0 0.01266 32.56352 91.09373
74.0 0.01351 32.56368 75.50964
76.0 0.01316 32.56384 66.34425
85.0 0.01176 32.56400 60.63705
62.0 0.01613 32.56416 56.73089
61.0 0.01639 32.56431 53.80511
58.0 0.01724 32.56447 51.47541
45.0 0.02222 32.56464 49.55492
48.0 0.02083 32.56479 47.94038
45.0 0.02222 32.56496 46.56549
55.0 0.01818 32.56512 45.38306
56.0 0.01786 32.56528 44.35753
47.0 0.02128 32.56544 43.46142
49.0 0.02041 32.56561 42.67311
46.0 0.02174 32.56577 41.97542
46.0 0.02174 32.56593 41.35448
45.0 0.02222 32.56609 40.79906
44.0 0.02273 32.56625 40.29997
37.0 0.02703 32.56642 39.84956
44.0 0.02273 32.56658 39.44146
45.0 0.02222 32.56675 39.07040
39.0 0.02564 32.56691 38.73185
42.0 0.02381 32.56707 38.42218
31.0 0.03226 32.56724 38.13779
39.0 0.02564 32.56741 37.87603
41.0 0.02439 32.56757 37.63452
36.0 0.02778 32.56774 37.41111
37.0 0.02703 32.56791 37.20402
29.0 0.03448 32.56807 37.01166
33.0 0.03030 32.56825 36.83258
40.0 0.02500 32.56842 36.66558
44.0 0.02273 32.56858 36.50959
45.0 0.02222 32.56875 36.36361
36.0 0.02778 32.56892 36.22679
28.0 0.0357 32.56909 36.09835
37.0 0.02703 32.56926 35.97764
34.0 0.02941 32.56944 35.86404
33.0 0.03030 32.56960 35.75695
42.0 0.02381 32.56978 35.65589
39.0 0.02564 32.56995 35.56052
28.0 0.0357 32.57013 35.47025
33.0 0.03030 32.57030 35.38477
42.0 0.02381 32.57047 35.30379
35.0 0.02857 32.57065 35.22696
30.0 0.03333 32.57082 35.15405
38.0 0.02632 32.57100 35.08474
42.0 0.02381 32.57118 35.01885
33.0 0.03030 32.57135 34.95614
28.0 0.0357 32.57153 34.89640
21.0 0.0476 32.57170 34.83951
29.0 0.03448 32.57189 34.78522
36.0 0.02778 32.57206 34.73346
33.0 0.03030 32.57225 34.68401
34.0 0.02941 32.57243 34.63678
38.0 0.02632 32.57261 34.59166
40.0 0.02500 32.57279 34.54850
42.0 0.02381 32.57297 34.50725
35.0 0.02857 32.57315 34.46775
39.0 0.02564 32.57333 34.42995
38.0 0.02632 32.57352 34.39378
25.0 0.0400 32.57370 34.35913
44.0 0.02273 32.57389 34.32592
28.0 0.0357 32.57407 34.29413
25.0 0.0400 32.57426 34.26363
39.0 0.02564 32.57444 34.23442
44.0 0.02273 32.57463 34.20644
34.0 0.02941 32.57482 34.17962
41.0 0.02439 32.57501 34.15391
43.0 0.02326 32.57520 34.12930
22.0 0.0455 32.57539 34.10571
21.0 0.0476 32.57558 34.08313
40.0 0.02500 32.57577 34.06152
27.0 0.0370 32.57596 34.04083
21.0 0.0476 32.57616 34.02104
28.0 0.0357 32.57635 34.00214
29.0 0.03448 32.57655 33.98409
23.0 0.0435 32.57674 33.96687
38.0 0.02632 32.57693 33.95045
20.0 0.0500 32.57713 33.93481
35.0 0.02857 32.57732 33.91996
28.0 0.0357 32.57752 33.90586
37.0 0.02703 32.57772 33.89249
29.0 0.03448 32.57792 33.87986
32.0 0.03125 32.57812 33.86795
28.0 0.0357 32.57832 33.85674
32.0 0.03125 32.57852 33.84626
35.0 0.02857 32.57872 33.83648
28.0 0.0357 32.57892 33.82739
30.0 0.03333 32.57913 33.81901
32.0 0.03125 32.57933 33.81132
31.0 0.03226 32.57953 33.80434
43.0 0.02326 32.57973 33.79808
34.0 0.02941 32.57994 33.79254
29.0 0.03448 32.58015 33.78774
31.0 0.03226 32.58036 33.78366
34.0 0.02941 32.58056 33.78036
40.0 0.02500 32.58077 33.77784
34.0 0.02941 32.58098 33.77611
34.0 0.02941 32.58119 33.77520
28.0 0.0357 32.58141 33.77516
34.0 0.02941 32.58162 33.77597
26.0 0.0385 32.58183 33.77774
28.0 0.0357 32.58204 33.78048
28.0 0.0357 32.58225 33.78420
31.0 0.03226 32.58247 33.78901
30.0 0.03333 32.58269 33.79494
29.0 0.03448 32.58290 33.80207
34.0 0.02941 32.58312 33.81045
22.0 0.0455 32.58334 33.82019
33.0 0.03030 32.58356 33.83140
41.0 0.02439 32.58377 33.84414
29.0 0.03448 32.58400 33.85857
37.0 0.02703 32.58421 33.87484
31.0 0.03226 32.58444 33.89302
40.0 0.02500 32.58466 33.91340
36.0 0.02778 32.58488 33.93610
32.0 0.03125 32.58511 33.96140
38.0 0.02632 32.58533 33.98949
34.0 0.02941 32.58556 34.02075
45.0 0.02222 32.58578 34.05547
26.0 0.0385 32.58601 34.09406
25.0 0.0400 32.58624 34.13695
32.0 0.03125 32.58647 34.18470
28.0 0.0357 32.58670 34.23791
23.0 0.0435 32.58693 34.29475
33.0 0.03030 32.58716 34.36121
27.0 0.0370 32.58740 34.43572
35.0 0.02857 32.58763 34.51951
28.0 0.0357 32.58786 34.61400
31.0 0.03226 32.58810 34.72099
33.0 0.03030 32.58833 34.84130
37.0 0.02703 32.58857 34.98009
37.0 0.02703 32.58881 35.13937
29.0 0.03448 32.58904 35.32312
34.0 0.02941 32.58928 35.53650
32.0 0.03125 32.58952 35.78601
30.0 0.03333 32.58977 36.08015
31.0 0.03226 32.59001 36.43021
40.0 0.02500 32.59025 36.85212
40.0 0.02500 32.59049 37.37060
44.0 0.02273 32.59073 38.02942
39.0 0.02564 32.59098 38.91602
45.0 0.02222 32.59122 40.21269
40.0 0.02500 32.59148 42.28817
40.0 0.02500 32.59172 45.81897
45.0 0.02222 32.59197 51.90168
52.0 0.01923 32.59222 62.01757
84.0 0.01190 32.59247 77.69982
102.0 0.00980 32.59272 99.78813
123.0 0.00813 32.59297 127.34441
139.0 0.00719 32.59323 156.65672
197.0 0.00508 32.59348 181.34193
215.0 0.00465 32.59373 194.03656
196.0 0.00510 32.59399 189.50713
168.0 0.00595 32.59425 169.69154
142.0 0.00704 32.59451 143.34062
136.0 0.00735 32.59477 119.35983
100.0 0.01000 32.59502 103.29282
84.0 0.01190 32.59528 97.10178
101.0 0.00990 32.59554 99.63142
107.0 0.00935 32.59581 107.28499
107.0 0.00935 32.59606 115.08511
139.0 0.00719 32.59633 118.06168
127.0 0.00787 32.59660 113.01069
102.0 0.00980 32.59686 100.77212
92.0 0.01087 32.59712 85.35779
70.0 0.01429 32.59739 70.56387
42.0 0.02381 32.59766 58.53601
46.0 0.02174 32.59793 49.91338
45.0 0.02222 32.59820 44.32991
36.0 0.02778 32.59847 40.97042
34.0 0.02941 32.59874 39.01073
29.0 0.03448 32.59902 37.83763
34.0 0.02941 32.59929 37.07802
40.0 0.02500 32.59956 36.53581
24.0 0.0417 32.59984 36.11712
34.0 0.02941 32.60011 35.77779
29.0 0.03448 32.60039 35.49525
28.0 0.0357 32.60067 35.25631
22.0 0.0455 32.60095 35.05198
31.0 0.03226 32.60123 34.87570
30.0 0.03333 32.60151 34.72245
29.0 0.03448 32.60179 34.58831
25.0 0.0400 32.60207 34.47014
35.0 0.02857 32.60236 34.36546
37.0 0.02703 32.60264 34.27231
25.0 0.0400 32.60293 34.18895
35.0 0.02857 32.60321 34.11410
40.0 0.02500 32.60350 34.04660
33.0 0.03030 32.60378 33.98549
31.0 0.03226 32.60408 33.93003
35.0 0.02857 32.60437 33.87949
22.0 0.0455 32.60466 33.83335
23.0 0.0435 32.60495 33.79111
20.0 0.0500 32.60524 33.75235
22.0 0.0455 32.60553 33.71665
24.0 0.0417 32.60583 33.68378
29.0 0.03448 32.60612 33.65341
37.0 0.02703 32.60642 33.62532
34.0 0.02941 32.60672 33.59932
28.0 0.0357 32.60701 33.57518
28.0 0.0357 32.60731 33.55277
36.0 0.02778 32.60761 33.53193
31.0 0.03226 32.60791 33.51255
30.0 0.03333 32.60822 33.49448
29.0 0.03448 32.60851 33.47764
34.0 0.02941 32.60882 33.46196
32.0 0.03125 32.60912 33.44732
28.0 0.0357 32.60943 33.43369
26.0 0.0385 32.60973 33.42096
27.0 0.0370 32.61004 33.40908
30.0 0.03333 32.61035 33.39803
35.0 0.02857 32.61066 33.38773
24.0 0.0417 32.61096 33.37819
30.0 0.03333 32.61127 33.36929
29.0 0.03448 32.61158 33.36108
30.0 0.03333 32.61189 33.35345
24.0 0.0417 32.61221 33.34645
24.0 0.0417 32.61252 33.34000
23.0 0.0435 32.61284 33.33412
33.0 0.03030 32.61316 33.32878
17.0 0.0588 32.61347 33.32398
24.0 0.0417 32.61379 33.31967
17.0 0.0588 32.61411 33.31585
29.0 0.03448 32.61443 33.31255
29.0 0.03448 32.61475 33.30973
30.0 0.03333 32.61507 33.30742
34.0 0.02941 32.61539 33.30559
38.0 0.02632 32.61571 33.30426
24.0 0.0417 32.61603 33.30342
30.0 0.03333 32.61636 33.30311
25.0 0.0400 32.61669 33.30331
27.0 0.0370 32.61701 33.30409
38.0 0.02632 32.61734 33.30541
23.0 0.0435 32.61766 33.30734
30.0 0.03333 32.61800 33.30986
29.0 0.03448 32.61832 33.31303
23.0 0.0435 32.61866 33.31690
28.0 0.0357 32.61899 33.32149
28.0 0.0357 32.61932 33.32688
33.0 0.03030 32.61965 33.33312
29.0 0.03448 32.61998 33.34026
32.0 0.03125 32.62032 33.34842
26.0 0.0385 32.62066 33.35766
39.0 0.02564 32.62099 33.36811
29.0 0.03448 32.62133 33.37988
30.0 0.03333 32.62167 33.39314
26.0 0.0385 32.62200 33.40805
24.0 0.0417 32.62234 33.42482
36.0 0.02778 32.62268 33.44368
31.0 0.03226 32.62302 33.46519
32.0 0.03125 32.62337 33.48914
30.0 0.03333 32.62371 33.51626
32.0 0.03125 32.62406 33.54697
35.0 0.02857 32.62440 33.58195
18.0 0.0556 32.62474 33.62185
31.0 0.03226 32.62509 33.66762
24.0 0.0417 32.62544 33.72036
24.0 0.0417 32.62579 33.78154
32.0 0.03125 32.62613 33.85289
25.0 0.0400 32.62648 33.93677
28.0 0.0357 32.62683 34.03624
28.0 0.0357 32.62718 34.15561
31.0 0.03226 32.62753 34.30136
19.0 0.0526 32.62789 34.48470
32.0 0.03125 32.62825 34.72755
33.0 0.03030 32.62859 35.07501
30.0 0.03333 32.62895 35.61827
37.0 0.02703 32.62930 36.52726
30.0 0.03333 32.62966 38.08211
37.0 0.02703 32.63002 40.67311
52.0 0.01923 32.63037 44.72791
46.0 0.02174 32.63073 50.53421
68.0 0.01471 32.63109 57.97310
57.0 0.01754 32.63145 66.23997
76.0 0.01316 32.63182 73.73020
75.0 0.01333 32.63218 78.35164
67.0 0.01493 32.63254 78.38002
62.0 0.01613 32.63290 73.79501
69.0 0.01449 32.63326 66.61926
58.0 0.01724 32.63363 59.35971
46.0 0.02174 32.63400 53.80171
49.0 0.02041 32.63436 50.81233
43.0 0.02326 32.63474 50.45210
43.0 0.02326 32.63510 52.11026
45.0 0.02222 32.63547 54.67080
44.0 0.02273 32.63583 56.74873
60.0 0.01667 32.63620 57.07582
47.0 0.02128 32.63657 55.09425
55.0 0.01818 32.63695 51.37786
45.0 0.02222 32.63732 47.06850
37.0 0.02703 32.63769 43.08549
50.0 0.02000 32.63807 39.90833
39.0 0.02564 32.63844 37.64936
41.0 0.02439 32.63881 36.18564
25.0 0.0400 32.63919 35.29723
27.0 0.0370 32.63956 34.77122
22.0 0.0455 32.63993 34.45105
32.0 0.03125 32.64032 34.24096
32.0 0.03125 32.64069 34.08997
24.0 0.0417 32.64107 33.97393
37.0 0.02703 32.64145 33.87916
24.0 0.0417 32.64183 33.80025
28.0 0.0357 32.64220 33.73412
22.0 0.0455 32.64259 33.67720
23.0 0.0435 32.64297 33.62822
33.0 0.03030 32.64335 33.58571
30.0 0.03333 32.64373 33.54867
25.0 0.0400 32.64412 33.51620
32.0 0.03125 32.64450 33.48758
23.0 0.0435 32.64488 33.46228
37.0 0.02703 32.64527 33.43981
31.0 0.03226 32.64566 33.41980
24.0 0.0417 32.64605 33.40194
36.0 0.02778 32.64643 33.38595
38.0 0.02632 32.64682 33.37159
40.0 0.02500 32.64721 33.35867
25.0 0.0400 32.64759 33.34707
32.0 0.03125 32.64799 33.33663
28.0 0.0357 32.64838 33.32722
34.0 0.02941 32.64877 33.31875
29.0 0.03448 32.64915 33.31110
29.0 0.03448 32.64955 33.30420
25.0 0.0400 32.64994 33.29802
37.0 0.02703 32.65033 33.29247
25.0 0.0400 32.65072 33.28750
35.0 0.02857 32.65112 33.28305
30.0 0.03333 32.65150 33.27908
32.0 0.03125 32.65191 33.27562
29.0 0.03448 32.65229 33.27253
32.0 0.03125 32.65269 33.26986
34.0 0.02941 32.65308 33.26229
40.0 0.02500 32.65348 33.26032
44.0 0.02273 32.65388 33.25866
28.0 0.0357 32.65428 33.25734
48.0 0.02083 32.65468 33.25629
35.0 0.02857 32.65507 33.25549
26.0 0.0385 32.65547 33.25497
29.0 0.03448 32.65587 33.24778
33.0 0.03030 32.65627 33.24773
31.0 0.03226 32.65667 33.24823
31.0 0.03226 32.65707 33.24865
37.0 0.02703 32.65747 33.24923
21.0 0.0476 32.65787 33.25004
38.0 0.02632 32.65827 33.25102
43.0 0.02326 32.65867 33.25220
31.0 0.03226 32.65907 33.25356
36.0 0.02778 32.65948 33.25510
30.0 0.03333 32.65988 33.25712
34.0 0.02941 32.66028 33.25900
19.0 0.0526 32.66069 33.26104
28.0 0.0357 32.66109 33.26325
24.0 0.0417 32.66150 33.26562
37.0 0.02703 32.66190 33.26814
29.0 0.03448 32.66230 33.27081
39.0 0.02564 32.66271 33.27365
39.0 0.02564 32.66312 33.27666
30.0 0.03333 32.66352 33.27979
24.0 0.0417 32.66392 33.28311
35.0 0.02857 32.66433 33.28653
24.0 0.0417 32.66473 33.29016
28.0 0.0357 32.66515 33.29391
31.0 0.03226 32.66555 33.29799
25.0 0.0400 32.66596 33.30207
31.0 0.03226 32.66637 33.30630
35.0 0.02857 32.66678 33.31070
36.0 0.02778 32.66719 33.31525
31.0 0.03226 32.66759 33.31995
33.0 0.03030 32.66800 33.32484
22.0 0.0455 32.66841 33.32989
29.0 0.03448 32.66882 33.33512
33.0 0.03030 32.66923 33.34050
23.0 0.0435 32.66964 33.34608
28.0 0.0357 32.67005 33.35184
27.0 0.0370 32.67046 33.35777
30.0 0.03333 32.67087 33.36390
29.0 0.03448 32.67128 33.37023
41.0 0.02439 32.67169 33.37672
38.0 0.02632 32.67210 33.38345
39.0 0.02564 32.67251 33.39039
42.0 0.02381 32.67292 33.39753
27.0 0.0370 32.67334 33.40491
23.0 0.0435 32.67375 33.41251
41.0 0.02439 32.67416 33.42033
30.0 0.03333 32.67457 33.42839
37.0 0.02703 32.67498 33.43671
33.0 0.03030 32.67539 33.44527
38.0 0.02632 32.67580 33.45411
30.0 0.03333 32.67621 33.46324
33.0 0.03030 32.67663 33.47263
24.0 0.0417 32.67704 33.48233
31.0 0.03226 32.67745 33.49232
23.0 0.0435 32.67786 33.50265
23.0 0.0435 32.67828 33.51331
26.0 0.0385 32.67868 33.52430
38.0 0.02632 32.67910 33.53565
34.0 0.02941 32.67951 33.54736
26.0 0.0385 32.67992 33.55947
32.0 0.03125 32.68033 33.57314
36.0 0.02778 32.68075 33.58606
26.0 0.0385 32.68116 33.59941
41.0 0.02439 32.68156 33.61324
33.0 0.03030 32.68198 33.62753
29.0 0.03448 32.68239 33.64235
38.0 0.02632 32.68280 33.65765
33.0 0.03030 32.68322 33.67350
33.0 0.03030 32.68363 33.68996
24.0 0.0417 32.68403 33.70699
37.0 0.02703 32.68445 33.72466
43.0 0.02326 32.68486 33.74302
25.0 0.0400 32.68527 33.76205
23.0 0.0435 32.68568 33.78182
33.0 0.03030 32.68610 33.80241
29.0 0.03448 32.68650 33.82376
35.0 0.02857 32.68692 33.84600
37.0 0.02703 32.68733 33.86916
48.0 0.02083 32.68774 33.89329
30.0 0.03333 32.68814 33.91844
36.0 0.02778 32.68856 33.94465
32.0 0.03125 32.68897 33.97205
38.0 0.02632 32.68937 34.00068
34.0 0.02941 32.68979 34.03056
41.0 0.02439 32.69019 34.06215
28.0 0.0357 32.69060 34.09489
32.0 0.03125 32.69101 34.12924
33.0 0.03030 32.69142 34.16530
34.0 0.02941 32.69182 34.20311
36.0 0.02778 32.69223 34.24289
28.0 0.0357 32.69264 34.28472
23.0 0.0435 32.69305 34.32877
34.0 0.02941 32.69345 34.37523
37.0 0.02703 32.69386 34.42424
32.0 0.03125 32.69426 34.47607
34.0 0.02941 32.69467 34.53101
37.0 0.02703 32.69508 34.58909
36.0 0.02778 32.69548 34.65071
35.0 0.02857 32.69588 34.71618
27.0 0.0370 32.69628 34.78583
26.0 0.0385 32.69669 34.86004
36.0 0.02778 32.69709 34.93926
29.0 0.03448 32.69749 35.02393
44.0 0.02273 32.69790 35.11463
42.0 0.02381 32.69830 35.21194
49.0 0.02041 32.69871 35.31657
41.0 0.02439 32.69910 35.42929
32.0 0.03125 32.69950 35.55099
27.0 0.0370 32.69990 35.68267
37.0 0.02703 32.70030 35.82556
39.0 0.02564 32.70070 35.98093
41.0 0.02439 32.70110 36.15038
35.0 0.02857 32.70150 36.33572
36.0 0.02778 32.70190 36.53905
31.0 0.03226 32.70230 36.76286
35.0 0.02857 32.70269 37.01010
49.0 0.02041 32.70309 37.28421
41.0 0.02439 32.70348 37.58935
48.0 0.02083 32.70387 37.93054
50.0 0.02000 32.70427 38.31377
43.0 0.02326 32.70467 38.74644
39.0 0.02564 32.70506 39.23755
52.0 0.01923 32.70545 39.79837
45.0 0.02222 32.70584 40.44294
48.0 0.02083 32.70623 41.18901
57.0 0.01754 32.70662 42.05951
38.0 0.02632 32.70701 43.08466
45.0 0.02222 32.70740 44.30659
44.0 0.02273 32.70779 45.78967
49.0 0.02041 32.70818 47.64545
56.0 0.01786 32.70857 50.09006
50.0 0.02000 32.70895 53.56174
67.0 0.01493 32.70933 58.92402
72.0 0.01389 32.70972 67.74015
81.0 0.01235 32.71010 82.50270
108.0 0.00926 32.71049 106.56142
130.0 0.00769 32.71087 143.42804
143.0 0.00699 32.71125 195.30360
228.0 0.00439 32.71163 261.08600
298.0 0.003356 32.71201 334.39801
385.0 0.002597 32.71239 402.04959
419.0 0.002387 32.71276 444.64435
444.0 0.002252 32.71314 445.35678
425.0 0.002353 32.71352 404.96606
398.0 0.002513 32.71389 341.57611
271.0 0.00369 32.71427 275.69400
245.0 0.00408 32.71464 221.89525
176.0 0.00568 32.71501 188.11324
153.0 0.00654 32.71539 176.54123
184.0 0.00543 32.71576 184.65997
184.0 0.00543 32.71612 206.23515
213.0 0.00469 32.71650 231.95560
238.0 0.00420 32.71687 250.08820
218.0 0.00459 32.71722 250.01472
236.0 0.00424 32.71759 229.44684
211.0 0.00474 32.71796 195.66757
166.0 0.00602 32.71832 158.28671
118.0 0.00847 32.71869 124.18002
104.0 0.00962 32.71905 96.84382
87.0 0.01149 32.71941 77.07923
70.0 0.01429 32.71976 63.93601
63.0 0.01587 32.72013 55.70233
51.0 0.01961 32.72048 50.67346
65.0 0.01538 32.72084 47.54358
47.0 0.02128 32.72119 45.47409
53.0 0.01887 32.72155 43.99196
52.0 0.01923 32.72190 42.85279
43.0 0.02326 32.72226 41.93415
55.0 0.01818 32.72261 41.17225
40.0 0.02500 32.72296 40.53008
50.0 0.02000 32.72330 39.98328
45.0 0.02222 32.72365 39.51423
50.0 0.02000 32.72400 39.10954
42.0 0.02381 32.72434 38.75869
57.0 0.01754 32.72467 38.45331
40.0 0.02500 32.72502 38.18668
45.0 0.02222 32.72536 37.95331
54.0 0.01852 32.72570 37.74887
55.0 0.01818 32.72604 37.56936
55.0 0.01818 32.72638 37.41190
43.0 0.02326 32.72671 37.27386
55.0 0.01818 32.72705 37.15312
46.0 0.02174 32.72738 37.04786
48.0 0.02083 32.72770 36.95657
44.0 0.02273 32.72804 36.87792
42.0 0.02381 32.72836 36.81076
44.0 0.02273 32.72868 36.75420
44.0 0.02273 32.72902 36.70742
55.0 0.01818 32.72934 36.66969
49.0 0.02041 32.72966 36.64046
59.0 0.01695 32.72998 36.61924
43.0 0.02326 32.73030 36.60561
56.0 0.01786 32.73062 36.59920
39.0 0.02564 32.73093 36.59971
46.0 0.02174 32.73125 36.60695
46.0 0.02174 32.73156 36.62072
55.0 0.01818 32.73187 36.64090
38.0 0.02632 32.73219 36.66740
44.0 0.02273 32.73249 36.70013
48.0 0.02083 32.73280 36.73911
34.0 0.02941 32.73310 36.78437
58.0 0.01724 32.73341 36.83603
45.0 0.02222 32.73371 36.89407
48.0 0.02083 32.73401 36.95867
45.0 0.02222 32.73431 37.03001
54.0 0.01852 32.73461 37.10829
39.0 0.02564 32.73490 37.19380
60.0 0.01667 32.73520 37.28680
53.0 0.01887 32.73549 37.38764
55.0 0.01818 32.73578 37.49668
41.0 0.02439 32.73607 37.61438
50.0 0.02000 32.73635 37.74123
53.0 0.01887 32.73664 37.87777
38.0 0.02632 32.73693 38.02462
60.0 0.01667 32.73720 38.18248
31.0 0.03226 32.73748 38.35212
54.0 0.01852 32.73775 38.53438
54.0 0.01852 32.73803 38.73027
49.0 0.02041 32.73831 38.94083
45.0 0.02222 32.73858 39.16728
54.0 0.01852 32.73885 39.41102
39.0 0.02564 32.73912 39.67350
49.0 0.02041 32.73938 39.95649
57.0 0.01754 32.73965 40.26192
37.0 0.02703 32.73991 40.59192
70.0 0.01429 32.74017 40.94904
53.0 0.01887 32.74043 41.33604
61.0 0.01639 32.74069 41.75615
56.0 0.01786 32.74094 42.21303
73.0 0.01370 32.74120 42.71087
53.0 0.01887 32.74145 43.25454
52.0 0.01923 32.74169 43.84958
57.0 0.01754 32.74194 44.50252
58.0 0.01724 32.74218 45.22091
39.0 0.02564 32.74242 46.01358
70.0 0.01429 32.74266 46.89104
57.0 0.01754 32.74290 47.86558
53.0 0.01887 32.74314 48.95194
57.0 0.01754 32.74337 50.16791
56.0 0.01786 32.74360 51.53438
76.0 0.01316 32.74383 53.07735
72.0 0.01389 32.74406 54.82843
91.0 0.01099 32.74428 56.82660
73.0 0.01370 32.74450 59.12048
67.0 0.01493 32.74473 61.77129
81.0 0.01235 32.74494 64.85724
91.0 0.01099 32.74516 68.48080
87.0 0.01149 32.74537 72.78246
94.0 0.01064 32.74558 77.97190
101.0 0.00990 32.74579 84.40176
113.0 0.00885 32.74600 92.73422
126.0 0.00794 32.74620 104.29277
129.0 0.00775 32.74640 121.68238
175.0 0.00571 32.74660 149.68393
209.0 0.00478 32.74680 196.14168
249.0 0.00402 32.74699 272.12589
357.0 0.002801 32.74718 390.31909
482.0 0.002075 32.74737 560.84979
665.0 0.001504 32.74756 784.93915
903.0 0.001107 32.74774 1047.98706
1307.0 0.000765 32.74792 1313.64832
1538.0 0.000650 32.74810 1521.29187
1705.0 0.000587 32.74828 1600.76965
1608.0 0.000622 32.74845 1520.27246
1468.0 0.000681 32.74862 1318.79333
1119.0 0.000894 32.74880 1070.34607
863.0 0.001159 32.74896 838.56824
628.0 0.001592 32.74913 664.02228
528.0 0.001894 32.74928 566.05481
501.0 0.001996 32.74945 546.34692
539.0 0.001855 32.74960 592.52533
642.0 0.001558 32.74976 681.11267
730.0 0.001370 32.74990 778.90576
791.0 0.001264 32.75005 844.92517
867.0 0.001153 32.75020 843.18768
816.0 0.001225 32.75034 767.27203
754.0 0.001326 32.75048 643.45850
561.0 0.001783 32.75062 505.86554
405.0 0.002469 32.75076 379.21756
319.0 0.003135 32.75089 276.48367
217.0 0.00461 32.75101 201.10934
152.0 0.00658 32.75114 150.17230
133.0 0.00752 32.75126 117.76757
120.0 0.00833 32.75138 97.74924
110.0 0.00909 32.75150 85.23898
83.0 0.01205 32.75162 76.99561
82.0 0.01220 32.75172 71.13165
78.0 0.01282 32.75183 66.64551
66.0 0.01515 32.75194 63.02908
60.0 0.01667 32.75204 60.01804
57.0 0.01754 32.75214 57.46338
70.0 0.01429 32.75224 55.26947
48.0 0.02083 32.75233 53.36841
73.0 0.01370 32.75242 51.70909
49.0 0.02041 32.75251 50.25090
50.0 0.02000 32.75259 48.96212
59.0 0.01695 32.75267 47.81699
63.0 0.01587 32.75275 46.79450
57.0 0.01754 32.75283 45.87743
54.0 0.01852 32.75290 45.05148
58.0 0.01724 32.75297 44.30478
54.0 0.01852 32.75303 43.62729
45.0 0.02222 32.75309 43.01061
52.0 0.01923 32.75315 42.44754
40.0 0.02500 32.75321 41.93195
46.0 0.02174 32.75327 41.45855
56.0 0.01786 32.75331 41.02284
48.0 0.02083 32.75336 40.62085
53.0 0.01887 32.75341 40.24913
56.0 0.01786 32.75344 39.90471
49.0 0.02041 32.75348 39.58491
37.0 0.02703 32.75352 39.28745
43.0 0.02326 32.75355 39.01029
42.0 0.02381 32.75357 38.75160
62.0 0.01613 32.75359 38.50976
46.0 0.02174 32.75362 38.28333
48.0 0.02083 32.75364 38.07103
54.0 0.01852 32.75364 37.87170
44.0 0.02273 32.75365 37.68430
45.0 0.02222 32.75366 37.50792
48.0 0.02083 32.75367 37.34170
41.0 0.02439 32.75366 37.18487
47.0 0.02128 32.75366 37.03675
55.0 0.01818 32.75365 36.89682
40.0 0.02500 32.75364 36.76430
47.0 0.02128 32.75362 36.63876
51.0 0.01961 32.75360 36.51972
40.0 0.02500 32.75358 36.40676
35.0 0.02857 32.75356 36.29949
45.0 0.02222 32.75352 36.19753
51.0 0.01961 32.75349 36.10054
35.0 0.02857 32.75346 36.00822
36.0 0.02778 32.75342 35.92027
43.0 0.02326 32.75338 35.83645
46.0 0.02174 32.75333 35.75652
42.0 0.02381 32.75328 35.68024
32.0 0.03125 32.75322 35.60741
39.0 0.02564 32.75316 35.53785
36.0 0.02778 32.75310 35.47132
39.0 0.02564 32.75304 35.40773
49.0 0.02041 32.75297 35.34688
36.0 0.02778 32.75289 35.28864
41.0 0.02439 32.75281 35.23290
37.0 0.02703 32.75273 35.17949
47.0 0.02128 32.75265 35.12833
41.0 0.02439 32.75256 35.07929
53.0 0.01887 32.75246 35.02219
39.0 0.02564 32.75237 34.97710
39.0 0.02564 32.75227 34.93388
47.0 0.02128 32.75216 34.89240
45.0 0.02222 32.75205 34.85263
44.0 0.02273 32.75193 34.81445
44.0 0.02273 32.75182 34.77781
32.0 0.03125 32.75170 34.73765
57.0 0.01754 32.75158 34.70391
46.0 0.02174 32.75145 34.67155
50.0 0.02000 32.75131 34.64050
48.0 0.02083 32.75117 34.61068
37.0 0.02703 32.75103 34.58211
48.0 0.02083 32.75089 34.55469
37.0 0.02703 32.75074 34.52842
36.0 0.02778 32.75058 34.50323
52.0 0.01923 32.75043 34.47911
31.0 0.03226 32.75026 34.45603
42.0 0.02381 32.75010 34.43390
43.0 0.02326 32.74993 34.41277
23.0 0.0435 32.74975 34.39257
32.0 0.03125 32.74957 34.37327
41.0 0.02439 32.74939 34.35486
40.0 0.02500 32.74920 34.33736
49.0 0.02041 32.74901 34.32071
34.0 0.02941 32.74881 34.30487
46.0 0.02174 32.74862 34.28986
49.0 0.02041 32.74841 34.27566
37.0 0.02703 32.74820 34.26226
44.0 0.02273 32.74799 34.24962
31.0 0.03226 32.74777 34.23775
45.0 0.02222 32.74754 34.22667
35.0 0.02857 32.74732 34.21636
43.0 0.02326 32.74709 34.20680
32.0 0.03125 32.74685 34.19798
46.0 0.02174 32.74661 34.18992
38.0 0.02632 32.74636 34.18261
31.0 0.03226 32.74612 34.17604
32.0 0.03125 32.74586 34.17024
38.0 0.02632 32.74560 34.16520
41.0 0.02439 32.74534 34.16093
41.0 0.02439 32.74507 34.15741
49.0 0.02041 32.74480 34.15471
45.0 0.02222 32.74453 34.15279
27.0 0.0370 32.74424 34.15167
41.0 0.02439 32.74395 34.15141
43.0 0.02326 32.74366 34.15201
54.0 0.01852 32.74337 34.15347
24.0 0.0417 32.74307 34.15580
51.0 0.01961 32.74276 34.15907
36.0 0.02778 32.74245 34.16327
32.0 0.03125 32.74213 34.16848
30.0 0.03333 32.74181 34.17470
35.0 0.02857 32.74149 34.18201
26.0 0.0385 32.74116 34.19039
41.0 0.02439 32.74083 34.19998
34.0 0.02941 32.74049 34.21073
45.0 0.02222 32.74015 34.22279
47.0 0.02128 32.73980 34.23616
37.0 0.02703 32.73944 34.25093
37.0 0.02703 32.73908 34.26721
32.0 0.03125 32.73872 34.28507
34.0 0.02941 32.73835 34.30461
34.0 0.02941 32.73798 34.32592
44.0 0.02273 32.73760 34.34910
45.0 0.02222 32.73722 34.37434
38.0 0.02632 32.73683 34.40172
45.0 0.02222 32.73643 34.43142
30.0 0.03333 32.73604 34.46362
34.0 0.02941 32.73563 34.49852
41.0 0.02439 32.73522 34.53633
33.0 0.03030 32.73481 34.57729
40.0 0.02500 32.73439 34.62165
44.0 0.02273 32.73397 34.66971
42.0 0.02381 32.73354 34.72181
45.0 0.02222 32.73310 34.77834
40.0 0.02500 32.73267 34.83969
33.0 0.03030 32.73222 34.90638
42.0 0.02381 32.73177 34.97892
36.0 0.02778 32.73132 35.05792
42.0 0.02381 32.73086 35.14412
27.0 0.0370 32.73039 35.23825
36.0 0.02778 32.72992 35.34130
43.0 0.02326 32.72944 35.45430
47.0 0.02128 32.72896 35.57847
40.0 0.02500 32.72847 35.71524
38.0 0.02632 32.72798 35.86626
37.0 0.02703 32.72749 36.03350
38.0 0.02632 32.72698 36.21922
37.0 0.02703 32.72647 36.42621
45.0 0.02222 32.72596 36.65764
42.0 0.02381 32.72544 36.91748
41.0 0.02439 32.72492 37.21041
43.0 0.02326 32.72438 37.54216
47.0 0.02128 32.72385 37.91983
36.0 0.02778 32.72330 38.35209
46.0 0.02174 32.72276 38.84985
44.0 0.02273 32.72221 39.42691
51.0 0.01961 32.72165 40.10109
61.0 0.01639 32.72109 40.89608
46.0 0.02174 32.72052 41.84583
40.0 0.02500 32.71995 43.00433
54.0 0.01852 32.71936 44.46952
64.0 0.01563 32.71878 46.43626
68.0 0.01471 32.71819 49.30077
65.0 0.01538 32.71759 53.83320
75.0 0.01333 32.71699 61.39939
93.0 0.01075 32.71638 74.13009
103.0 0.00971 32.71576 94.83179
144.0 0.00694 32.71514 126.39307
170.0 0.00588 32.71452 170.58389
190.0 0.00526 32.71389 226.47141
287.0 0.003484 32.71325 288.93362
355.0 0.002817 32.71261 347.67181
402.0 0.002488 32.71196 387.66522
443.0 0.002257 32.71130 394.69141
389.0 0.002571 32.71064 366.24591
316.0 0.003165 32.70997 314.18658
260.0 0.00385 32.70931 254.83134
204.0 0.00490 32.70863 201.14177
156.0 0.00641 32.70794 161.15213
104.0 0.00962 32.70725 138.51730
137.0 0.00730 32.70656 133.42168
136.0 0.00735 32.70585 143.47388
173.0 0.00578 32.70514 164.29449
193.0 0.00518 32.70443 189.68906
212.0 0.00472 32.70370 211.63501
235.0 0.00426 32.70298 221.36913
222.0 0.00450 32.70225 213.63535
224.0 0.00446 32.70152 190.78886
155.0 0.00645 32.70076 160.18294
123.0 0.00813 32.70002 128.88551
104.0 0.00962 32.69926 101.51416
86.0 0.01163 32.69850 80.20055
71.0 0.01408 32.69773 65.12373
71.0 0.01408 32.69696 55.26224
58.0 0.01724 32.69617 49.15639
46.0 0.02174 32.69539 45.45326
39.0 0.02564 32.69460 43.15475
49.0 0.02041 32.69380 41.63303
55.0 0.01818 32.69299 40.53792
45.0 0.02222 32.69217 39.69009
54.0 0.01852 32.69136 39.00005
38.0 0.02632 32.69054 38.42162
25.0 0.0400 32.68970 37.92834
46.0 0.02174 32.68886 37.50286
35.0 0.02857 32.68803 37.13279
48.0 0.02083 32.68717 36.80863
42.0 0.02381 32.68631 36.52273
32.0 0.03125 32.68545 36.26937
35.0 0.02857 32.68459 36.04358
21.0 0.0476 32.68371 35.84140
40.0 0.02500 32.68283 35.65961
35.0 0.02857 32.68194 35.49543
33.0 0.03030 32.68105 35.34668
31.0 0.03226 32.68015 35.21136
39.0 0.02564 32.67923 35.08791
37.0 0.02703 32.67832 34.97496
31.0 0.03226 32.67740 34.87132
42.0 0.02381 32.67648 34.77597
31.0 0.03226 32.67554 34.68806
35.0 0.02857 32.67461 34.60683
37.0 0.02703 32.67366 34.53157
44.0 0.02273 32.67270 34.46175
36.0 0.02778 32.67174 34.39686
38.0 0.02632 32.67078 34.33641
27.0 0.0370 32.66980 34.28005
33.0 0.03030 32.66882 34.22741
33.0 0.03030 32.66784 34.17819
37.0 0.02703 32.66684 34.13210
30.0 0.03333 32.66584 34.08887
35.0 0.02857 32.66484 34.04832
44.0 0.02273 32.66382 34.01022
26.0 0.0385 32.66281 33.97443
41.0 0.02439 32.66178 33.94074
37.0 0.02703 32.66075 33.90906
45.0 0.02222 32.65971 33.87920
43.0 0.02326 32.65866 33.85111
40.0 0.02500 32.65760 33.82465
29.0 0.03448 32.65654 33.79972
30.0 0.03333 32.65548 33.77623
27.0 0.0370 32.65440 33.75414
30.0 0.03333 32.65332 33.73380
35.0 0.02857 32.65224 33.71424
32.0 0.03125 32.65114 33.69588
43.0 0.02326 32.65004 33.67868
34.0 0.02941 32.64893 33.66259
31.0 0.03226 32.64782 33.64761
38.0 0.02632 32.64669 33.63364
34.0 0.02941 32.64557 33.62071
30.0 0.03333 32.64443 33.60880
44.0 0.02273 32.64329 33.59788
32.0 0.03125 32.64214 33.58797
31.0 0.03226 32.64098 33.57907
41.0 0.02439 32.63981 33.57117
38.0 0.02632 32.63865 33.56431
29.0 0.03448 32.63747 33.55849
33.0 0.03030 32.63628 33.55377
36.0 0.02778 32.63509 33.55018
35.0 0.02857 32.63389 33.54778
30.0 0.03333 32.63269 33.54663
31.0 0.03226 32.63147 33.54679
35.0 0.02857 32.63025 33.54844
39.0 0.02564 32.62902 33.55159
38.0 0.02632 32.62779 33.55644
30.0 0.03333 32.62654 33.56317
32.0 0.03125 32.62530 33.57196
37.0 0.02703 32.62404 33.58308
36.0 0.02778 32.62278 33.59678
37.0 0.02703 32.62150 33.61346
32.0 0.03125 32.62023 33.63350
38.0 0.02632 32.61894 33.65747
35.0 0.02857 32.61765 33.68598
43.0 0.02326 32.61635 33.71987
34.0 0.02941 32.61504 33.76011
31.0 0.03226 32.61374 33.80791
44.0 0.02273 32.61240 33.86500
31.0 0.03226 32.61108 33.93351
33.0 0.03030 32.60975 34.01657
30.0 0.03333 32.60840 34.11923
34.0 0.02941 32.60706 34.25050
43.0 0.02326 32.60569 34.42773
46.0 0.02174 32.60432 34.68481
32.0 0.03125 32.60295 35.08474
40.0 0.02500 32.60157 35.73528
45.0 0.02222 32.60019 36.79992
38.0 0.02632 32.59879 38.49091
33.0 0.03030 32.59739 41.02865
48.0 0.02083 32.59598 44.56056
46.0 0.02174 32.59456 49.05238
71.0 0.01408 32.59314 54.17988
72.0 0.01389 32.59170 59.24361
78.0 0.01282 32.59027 63.14990
74.0 0.01351 32.58882 64.68049
65.0 0.01538 32.58736 63.26416
72.0 0.01389 32.58590 59.50730
48.0 0.02083 32.58443 54.66531
61.0 0.01639 32.58295 49.88422
67.0 0.01493 32.58147 45.94166
46.0 0.02174 32.57998 43.26420
39.0 0.02564 32.57848 41.99330
40.0 0.02500 32.57697 42.05390
33.0 0.03030 32.57546 43.20987
56.0 0.01786 32.57393 45.09146
64.0 0.01563 32.57241 47.19349
59.0 0.01695 32.57087 48.87128
63.0 0.01587 32.56932 49.45706
44.0 0.02273 32.56778 48.61903
57.0 0.01754 32.56621 46.61761
47.0 0.02128 32.56464 44.04553
44.0 0.02273 32.56306 41.44218
45.0 0.02222 32.56148 39.15504
30.0 0.03333 32.55989 37.34681
31.0 0.03226 32.55829 36.03661
32.0 0.03125 32.55668 35.15272
39.0 0.02564 32.55507 34.58619
37.0 0.02703 32.55345 34.23112
42.0 0.02381 32.55182 34.00539
31.0 0.03226 32.55018 33.85450
33.0 0.03030 32.54854 33.74635
34.0 0.02941 32.54688 33.66371
30.0 0.03333 32.54522 33.59795
49.0 0.02041 32.54356 33.54519
36.0 0.02778 32.54188 33.50421
31.0 0.03226 32.54020 33.47567
40.0 0.02500 32.53851 33.46164
33.0 0.03030 32.53681 33.46473
32.0 0.03125 32.53510 33.48714
35.0 0.02857 32.53338 33.52887
24.0 0.0417 32.53166 33.58579
26.0 0.0385 32.52993 33.64834
38.0 0.02632 32.52819 33.70052
29.0 0.03448 32.52645 33.72221
39.0 0.02564 32.52470 33.69889
30.0 0.03333 32.52293 33.63379
34.0 0.02941 32.52117 33.54488
43.0 0.02326 32.51939 33.45190
25.0 0.0400 32.51760 33.36944
33.0 0.03030 32.51580 33.30612
33.0 0.03030 32.51400 33.26574
26.0 0.0385 32.51220 33.24828
37.0 0.02703 32.51038 33.25095
31.0 0.03226 32.50855 33.26880
35.0 0.02857 32.50672 33.29484
31.0 0.03226 32.50488 33.31985
35.0 0.02857 32.50302 33.33286
29.0 0.03448 32.50117 33.32488
30.0 0.03333 32.49931 33.29514
23.0 0.0435 32.49744 33.25119
23.0 0.0435 32.49555 33.20269
36.0 0.02778 32.49366 33.15696
23.0 0.0435 32.49176 33.11810
30.0 0.03333 32.48986 33.08764
41.0 0.02439 32.48795 33.06508
37.0 0.02703 32.48603 33.04892
32.0 0.03125 32.48410 33.03736
25.0 0.0400 32.48216 33.02879
28.0 0.0357 32.48022 33.02210
19.0 0.0526 32.47827 33.01656
32.0 0.03125 32.47631 33.01176
29.0 0.03448 32.47434 33.00746
28.0 0.0357 32.47236 33.00354
36.0 0.02778 32.47037 32.99994
25.0 0.0400 32.46838 32.99659
30.0 0.03333 32.46638 32.99355
24.0 0.0417 32.46437 32.99070
27.0 0.0370 32.46235 32.98804
25.0 0.0400 32.46033 32.98558
35.0 0.02857 32.45830 32.98332
21.0 0.0476 32.45626 32.98123
38.0 0.02632 32.45420 32.97929
32.0 0.03125 32.45215 32.97753
27.0 0.0370 32.45008 32.97591
37.0 0.02703 32.44801 32.97442
37.0 0.02703 32.44592 32.97308
28.0 0.0357 32.44384 32.97189
34.0 0.02941 32.44174 32.97083
40.0 0.02500 32.43964 32.96991
24.0 0.0417 32.43752 32.96913
35.0 0.02857 32.43539 32.96847
45.0 0.02222 32.43327 32.96794
36.0 0.02778 32.43113 32.96752
19.0 0.0526 32.42899 32.96725
28.0 0.0357 32.42683 32.96711
39.0 0.02564 32.42466 32.96709
38.0 0.02632 32.42249 32.96722
27.0 0.0370 32.42031 32.96745
36.0 0.02778 32.41813 32.96785
30.0 0.03333 32.41593 32.96838
27.0 0.0370 32.41373 32.96905
37.0 0.02703 32.41152 32.96981
32.0 0.03125 32.40929 32.97077
37.0 0.02703 32.40707 32.97183
39.0 0.02564 32.40483 32.97308
32.0 0.03125 32.40259 32.97444
40.0 0.02500 32.40034 32.97598
36.0 0.02778 32.39807 32.97766
26.0 0.0385 32.39581 32.97950
24.0 0.0417 32.39353 32.98150
23.0 0.0435 32.39125 32.98369
29.0 0.03448 32.38895 32.98606
28.0 0.0357 32.38665 32.98861
23.0 0.0435 32.38434 32.99131
36.0 0.02778 32.38202 32.99424
42.0 0.02381 32.37971 32.99738
43.0 0.02326 32.37737 33.00070
25.0 0.0400 32.37503 33.00423
33.0 0.03030 32.37268 33.00801
32.0 0.03125 32.37032 33.01200
28.0 0.0357 32.36795 33.01623
21.0 0.0476 32.36558 33.02071
23.0 0.0435 32.36320 33.02545
30.0 0.03333 32.36080 33.03049
30.0 0.03333 32.35840 33.03577
31.0 0.03226 32.35600 33.04137
32.0 0.03125 32.35358 33.04726
22.0 0.0455 32.35116 33.05351
30.0 0.03333 32.34872 33.06007
39.0 0.02564 32.34629 33.06701
19.0 0.0526 32.34384 33.07429
27.0 0.0370 32.34138 33.08197
25.0 0.0400 32.33892 33.09008
32.0 0.03125 32.33644 33.09862
34.0 0.02941 32.33397 33.10761
19.0 0.0526 32.33148 33.11620
27.0 0.0370 32.32898 33.12619
36.0 0.02778 32.32648 33.13671
34.0 0.02941 32.32397 33.14780
32.0 0.03125 32.32144 33.15947
33.0 0.03030 32.31892 33.17182
35.0 0.02857 32.31638 33.18481
29.0 0.03448 32.31383 33.19853
25.0 0.0400 32.31128 33.21301
38.0 0.02632 32.30872 33.22790
33.0 0.03030 32.30615 33.24408
22.0 0.0455 32.30357 33.26117
39.0 0.02564 32.30098 33.27928
27.0 0.0370 32.29839 33.29845
35.0 0.02857 32.29579 33.31875
24.0 0.0417 32.29318 33.34026
33.0 0.03030 32.29056 33.36310
41.0 0.02439 32.28794 33.38736
36.0 0.02778 32.28529 33.41316
31.0 0.03226 32.28265 33.44059
34.0 0.02941 32.28001 33.46983
30.0 0.03333 32.27735 33.50099
46.0 0.02174 32.27468 33.53426
34.0 0.02941 32.27200 33.56984
33.0 0.03030 32.26933 33.60790
37.0 0.02703 32.26664 33.64869
30.0 0.03333 32.26393 33.69247
28.0 0.0357 32.26122 33.73957
37.0 0.02703 32.25852 33.79025
33.0 0.03030 32.25579 33.84496
28.0 0.0357 32.25306 33.90409
32.0 0.03125 32.25032 33.96811
33.0 0.03030 32.24758 34.03759
28.0 0.0357 32.24482 34.11316
48.0 0.02083 32.24206 34.19556
30.0 0.03333 32.23929 34.28566
33.0 0.03030 32.23651 34.38438
29.0 0.03448 32.23372 34.49293
40.0 0.02500 32.23093 34.61261
36.0 0.02778 32.22813 34.74506
42.0 0.02381 32.22532 34.89212
38.0 0.02632 32.22250 35.05606
34.0 0.02941 32.21967 35.23959
37.0 0.02703 32.21684 35.44597
42.0 0.02381 32.21400 35.67915
41.0 0.02439 32.21115 35.94402
25.0 0.0400 32.20829 36.24663
41.0 0.02439 32.20543 36.59464
27.0 0.0370 32.20256 36.99792
40.0 0.02500 32.19968 37.46986
38.0 0.02632 32.19678 38.03008
38.0 0.02632 32.19389 38.71021
40.0 0.02500 32.19098 39.56619
31.0 0.03226 32.18808 40.70226
50.0 0.02000 32.18515 42.31187
44.0 0.02273 32.18223 44.73804
46.0 0.02174 32.17929 48.54221
53.0 0.01887 32.17635 54.54854
66.0 0.01515 32.17340 63.80759
75.0 0.01333 32.17044 77.41500
97.0 0.01031 32.16747 96.15706
124.0 0.00806 32.16450 120.02885
145.0 0.00690 32.16152 147.73332
174.0 0.00575 32.15853 176.25009
205.0 0.00488 32.15553 200.58575
231.0 0.00433 32.15253 214.43587
219.0 0.00457 32.14951 213.14899
219.0 0.00457 32.14650 197.41920
195.0 0.00513 32.14347 172.73465
141.0 0.00709 32.14043 145.46791
107.0 0.00935 32.13739 120.49074
91.0 0.01099 32.13434 100.84795
85.0 0.01176 32.13128 88.04986
101.0 0.00990 32.12822 82.42888
67.0 0.01493 32.12514 83.46627
94.0 0.01064 32.12206 90.01595
106.0 0.00943 32.11897 100.37550
121.0 0.00826 32.11588 112.23434
104.0 0.00962 32.11278 122.55872
130.0 0.00769 32.10966 127.91908
135.0 0.00741 32.10655 125.93586
128.0 0.00781 32.10343 116.98077
117.0 0.00855 32.10030 103.72875
70.0 0.01429 32.09716 89.19027
60.0 0.01667 32.09401 75.56950
74.0 0.01351 32.09086 64.11467
46.0 0.02174 32.08769 55.28106
42.0 0.02381 32.08453 48.94449
44.0 0.02273 32.08135 44.65527
35.0 0.02857 32.07816 41.86198
37.0 0.02703 32.07497 40.06520
52.0 0.01923 32.07178 38.88712
40.0 0.02500 32.06857 38.07684
48.0 0.02083 32.06535 37.48367
34.0 0.02941 32.06214 37.02325
40.0 0.02500 32.05891 36.64993
40.0 0.02500 32.05567 36.33869
28.0 0.0357 32.05243 36.07482
49.0 0.02041 32.04919 35.84888
34.0 0.02941 32.04593 35.65415
36.0 0.02778 32.04267 35.48560
39.0 0.02564 32.03940 35.33924
31.0 0.03226 32.03613 35.21187
19.0 0.0526 32.03284 35.10094
35.0 0.02857 32.02955 35.00428
30.0 0.03333 32.02625 34.92017
46.0 0.02174 32.02295 34.84715
38.0 0.02632 32.01964 34.78398
35.0 0.02857 32.01632 34.72968
49.0 0.02041 32.01299 34.68340
29.0 0.03448 32.00966 34.64436
31.0 0.03226 32.00632 34.61200
30.0 0.03333 32.00298 34.58579
41.0 0.02439 31.99962 34.56528
33.0 0.03030 31.99627 34.55016
41.0 0.02439 31.99290 34.54007
33.0 0.03030 31.98953 34.53477
43.0 0.02326 31.98615 34.53408
44.0 0.02273 31.98276 34.53783
35.0 0.02857 31.97937 34.54319
31.0 0.03226 31.97597 34.55544
30.0 0.03333 31.97257 34.57185
39.0 0.02564 31.96915 34.59235
26.0 0.0385 31.96573 34.61695
35.0 0.02857 31.96231 34.64567
28.0 0.0357 31.95887 34.67857
46.0 0.02174 31.95543 34.71571
37.0 0.02703 31.95199 34.75720
42.0 0.02381 31.94853 34.80182
42.0 0.02381 31.94508 34.85235
40.0 0.02500 31.94161 34.90771
40.0 0.02500 31.93814 34.96805
46.0 0.02174 31.93466 35.03361
41.0 0.02439 31.93118 35.10472
39.0 0.02564 31.92769 35.18162
44.0 0.02273 31.92420 35.26472
43.0 0.02326 31.92069 35.35436
46.0 0.02174 31.91719 35.45103
40.0 0.02500 31.91368 35.55520
47.0 0.02128 31.91015 35.66743
41.0 0.02439 31.90662 35.78837
54.0 0.01852 31.90309 35.91867
36.0 0.02778 31.89956 36.05918
27.0 0.0370 31.89601 36.21077
25.0 0.0400 31.89245 36.37444
52.0 0.01923 31.88891 36.55132
32.0 0.03125 31.88534 36.74271
39.0 0.02564 31.88177 36.95006
53.0 0.01887 31.87820 37.17501
35.0 0.02857 31.87462 37.41950
29.0 0.03448 31.87103 37.68567
46.0 0.02174 31.86744 37.97603
34.0 0.02941 31.86384 38.29342
38.0 0.02632 31.86024 38.64124
40.0 0.02500 31.85663 39.02332
49.0 0.02041 31.85301 39.44421
38.0 0.02632 31.84939 39.90926
53.0 0.01887 31.84577 40.42474
46.0 0.02174 31.84214 40.99814
57.0 0.01754 31.83850 41.63837
40.0 0.02500 31.83486 42.35620
57.0 0.01754 31.83120 43.16462
37.0 0.02703 31.82755 44.07944
35.0 0.02857 31.82390 45.12029
65.0 0.01538 31.82023 46.31153
57.0 0.01754 31.81656 47.68443
54.0 0.01852 31.81289 49.28062
63.0 0.01587 31.80921 51.15923
74.0 0.01351 31.80552 53.41250
54.0 0.01852 31.80183 56.19731
68.0 0.01471 31.79814 59.79700
79.0 0.01266 31.79444 64.72790
92.0 0.01087 31.79073 71.90038
82.0 0.01220 31.78702 82.81528
123.0 0.00813 31.78331 99.72678
139.0 0.00719 31.77959 125.63557
137.0 0.00730 31.77586 163.94112
189.0 0.00529 31.77214 217.62878
255.0 0.00392 31.76840 288.02866
334.0 0.002994 31.76466 373.37604
520.0 0.001923 31.76091 467.43982
566.0 0.001767 31.75717 558.34839
717.0 0.001395 31.75341 628.38422
737.0 0.001357 31.74965 658.17010
650.0 0.001538 31.74589 637.85388
564.0 0.001773 31.74212 575.34741
462.0 0.002165 31.73835 489.89539
332.0 0.003012 31.73458 400.47177
286.0 0.003497 31.73080 320.73065
209.0 0.00478 31.72701 258.93594
222.0 0.00450 31.72322 219.01305
200.0 0.00500 31.71942 201.62305
177.0 0.00565 31.71563 205.09677
201.0 0.00498 31.71182 226.04704
254.0 0.00394 31.70802 259.54410
275.0 0.00364 31.70420 298.88736
310.0 0.003226 31.70039 335.19083
369.0 0.002710 31.69658 357.84576
381.0 0.002625 31.69275 358.08932
351.0 0.002849 31.68893 334.66739
299.0 0.003344 31.68509 294.54132
240.0 0.00417 31.68126 247.40326
182.0 0.00549 31.67742 201.10962
144.0 0.00694 31.67358 160.56613
119.0 0.00840 31.66973 128.07886
93.0 0.01075 31.66588 103.96778
97.0 0.01031 31.66203 87.26093
83.0 0.01205 31.65817 76.39156
76.0 0.01316 31.65431 69.76263
69.0 0.01449 31.65045 66.09739
69.0 0.01449 31.64659 64.59316
76.0 0.01316 31.64272 64.95594
71.0 0.01408 31.63884 67.39285
83.0 0.01205 31.63496 72.59364
74.0 0.01351 31.63108 81.67479
98.0 0.01020 31.62720 96.01801
121.0 0.00826 31.62331 116.93780
143.0 0.00699 31.61943 145.17030
176.0 0.00568 31.61553 180.26180
223.0 0.00448 31.61164 219.97269
270.0 0.00370 31.60773 259.75702
305.0 0.003279 31.60384 292.51132
325.0 0.003077 31.59993 309.74136
321.0 0.003115 31.59603 305.74084
277.0 0.00361 31.59212 282.04642
283.0 0.00353 31.58820 246.20056
198.0 0.00505 31.58429 206.69827
151.0 0.00662 31.58036 170.02919
119.0 0.00840 31.57645 140.30342
107.0 0.00935 31.57252 119.65759
85.0 0.01176 31.56860 108.72461
103.0 0.00971 31.56467 107.06372
106.0 0.00943 31.56074 113.47467
125.0 0.00800 31.55681 126.12899
149.0 0.00671 31.55287 142.51775
165.0 0.00606 31.54894 159.27103
182.0 0.00549 31.54500 172.09090
163.0 0.00613 31.54106 176.59457
164.0 0.00610 31.53712 170.59625
147.0 0.00680 31.53317 155.70369
128.0 0.00781 31.52922 135.87967
93.0 0.01075 31.52527 114.98991
93.0 0.01075 31.52133 95.72484
67.0 0.01493 31.51738 79.56689
60.0 0.01667 31.51342 67.01955
64.0 0.01563 31.50947 57.88602
44.0 0.02273 31.50551 51.56934
49.0 0.02041 31.50155 47.34341
49.0 0.02041 31.49760 44.54169
53.0 0.01887 31.49364 42.64778
38.0 0.02632 31.48968 41.30846
49.0 0.02041 31.48571 40.30424
41.0 0.02439 31.48175 39.50803
44.0 0.02273 31.47779 38.84902
37.0 0.02703 31.47382 38.28761
45.0 0.02222 31.46985 37.80050
44.0 0.02273 31.46589 37.37281
34.0 0.02941 31.46192 36.99401
39.0 0.02564 31.45795 36.65628
27.0 0.0370 31.45397 36.35332
24.0 0.0417 31.45001 36.08024
36.0 0.02778 31.44603 35.83289
32.0 0.03125 31.44206 35.60788
28.0 0.0357 31.43809 35.40239
30.0 0.03333 31.43412 35.21400
32.0 0.03125 31.43015 35.04074
39.0 0.02564 31.42617 34.88090
40.0 0.02500 31.42220 34.73301
32.0 0.03125 31.41823 34.59579
36.0 0.02778 31.41425 34.46814
40.0 0.02500 31.41028 34.34917
37.0 0.02703 31.40630 34.23799
36.0 0.02778 31.40233 34.13388
44.0 0.02273 31.39836 34.03623
48.0 0.02083 31.39439 33.94448
30.0 0.03333 31.39042 33.85807
34.0 0.02941 31.38644 33.77663
44.0 0.02273 31.38248 33.69972
37.0 0.02703 31.37851 33.62700
31.0 0.03226 31.37454 33.55817
33.0 0.03030 31.37057 33.49290
27.0 0.0370 31.36660 33.43095
27.0 0.0370 31.36263 33.37211
31.0 0.03226 31.35866 33.31612
29.0 0.03448 31.35470 33.26285
39.0 0.02564 31.35073 33.21207
37.0 0.02703 31.34677 33.16366
35.0 0.02857 31.34281 33.11743
39.0 0.02564 31.33885 33.07330
26.0 0.0385 31.33489 33.03113
30.0 0.03333 31.33094 32.99080
36.0 0.02778 31.32698 32.95221
27.0 0.0370 31.32302 32.91528
32.0 0.03125 31.31907 32.87989
44.0 0.02273 31.31512 32.84601
33.0 0.03030 31.31117 32.81355
26.0 0.0385 31.30722 32.78241
42.0 0.02381 31.30329 32.75258
36.0 0.02778 31.29934 32.72397
38.0 0.02632 31.29540 32.69654
32.0 0.03125 31.29146 32.67023
36.0 0.02778 31.28752 32.64500
30.0 0.03333 31.28359 32.62083
32.0 0.03125 31.27966 32.59768
38.0 0.02632 31.27573 32.57551
33.0 0.03030 31.27181 32.55426
42.0 0.02381 31.26788 32.53393
33.0 0.03030 31.26396 32.51450
30.0 0.03333 31.26004 32.49595
38.0 0.02632 31.25613 32.47826
41.0 0.02439 31.25222 32.46141
39.0 0.02564 31.24831 32.44537
37.0 0.02703 31.24441 32.43015
33.0 0.03030 31.24051 32.41571
29.0 0.03448 31.23661 32.40206
46.0 0.02174 31.23272 32.38924
27.0 0.0370 31.22883 32.37717
36.0 0.02778 31.22494 32.36591
30.0 0.03333 31.22105 32.35542
34.0 0.02941 31.21717 32.34575
37.0 0.02703 31.21329 32.33686
33.0 0.03030 31.20943 32.32880
40.0 0.02500 31.20556 32.32155
37.0 0.02703 31.20170 32.31517
28.0 0.0357 31.19784 32.30962
29.0 0.03448 31.19398 32.30497
26.0 0.0385 31.19013 32.30125
28.0 0.0357 31.18629 32.29846
29.0 0.03448 31.18245 32.29666
46.0 0.02174 31.17861 32.29590
35.0 0.02857 31.17478 32.29620
30.0 0.03333 31.17096 32.29763
35.0 0.02857 31.16713 32.30022
32.0 0.03125 31.16332 32.30412
36.0 0.02778 31.15950 32.30930
32.0 0.03125 31.15570 32.31591
38.0 0.02632 31.15190 32.32404
28.0 0.0357 31.14811 32.33377
29.0 0.03448 31.14432 32.34525
37.0 0.02703 31.14054 32.35860
37.0 0.02703 31.13676 32.37399
35.0 0.02857 31.13299 32.39157
40.0 0.02500 31.12922 32.41159
30.0 0.03333 31.12546 32.43424
34.0 0.02941 31.12171 32.45974
32.0 0.03125 31.11796 32.48846
31.0 0.03226 31.11422 32.52069
29.0 0.03448 31.11049 32.55682
35.0 0.02857 31.10676 32.59730
33.0 0.03030 31.10304 32.64265
37.0 0.02703 31.09933 32.69346
28.0 0.0357 31.09562 32.75044
36.0 0.02778 31.09192 32.81440
35.0 0.02857 31.08823 32.88634
37.0 0.02703 31.08454 32.96735
28.0 0.0357 31.08087 33.05885
39.0 0.02564 31.07720 33.16243
42.0 0.02381 31.07353 33.28009
46.0 0.02174 31.06987 33.41423
41.0 0.02439 31.06623 33.56778
40.0 0.02500 31.06259 33.74446
37.0 0.02703 31.05895 33.94895
33.0 0.03030 31.05534 34.18753
41.0 0.02439 31.05172 34.46922
38.0 0.02632 31.04811 34.80797
36.0 0.02778 31.04451 35.22731
48.0 0.02083 31.04092 35.76870
40.0 0.02500 31.03734 36.50574
43.0 0.02326 31.03376 37.56452
37.0 0.02703 31.03020 39.14835
57.0 0.01754 31.02664 41.55803
51.0 0.01961 31.02310 45.19240
49.0 0.02041 31.01956 50.50985
73.0 0.01370 31.01603 57.93479
72.0 0.01389 31.01252 67.71138
81.0 0.01235 31.00900 79.72682
123.0 0.00813 31.00550 93.33604
138.0 0.00725 31.00201 107.20132
170.0 0.00588 30.99854 119.18771
174.0 0.00575 30.99507 126.59335
159.0 0.00629 30.99161 127.23743
142.0 0.00704 30.98816 120.97565
101.0 0.00990 30.98472 109.83625
93.0 0.01075 30.98129 96.58876
85.0 0.01176 30.97787 83.55006
75.0 0.01333 30.97446 72.28201
62.0 0.01613 30.97107 63.68420
54.0 0.01852 30.96768 58.14418
58.0 0.01724 30.96431 55.68071
47.0 0.02128 30.96094 56.06361
70.0 0.01429 30.95759 58.88530
69.0 0.01449 30.95425 63.57363
74.0 0.01351 30.95092 69.35391
68.0 0.01471 30.94760 75.17948
92.0 0.01087 30.94430 79.70435
82.0 0.01220 30.94100 81.52971
80.0 0.01250 30.93772 79.88860
78.0 0.01282 30.93445 75.18655
90.0 0.01111 30.93119 68.64790
53.0 0.01887 30.92794 61.55087
44.0 0.02273 30.92471 54.83034
57.0 0.01754 30.92149 49.03777
35.0 0.02857 30.91828 44.40609
46.0 0.02174 30.91509 40.93052
39.0 0.02564 30.91191 38.45577
32.0 0.03125 30.90874 36.76010
42.0 0.02381 30.90558 35.62077
43.0 0.02326 30.90244 34.85197
32.0 0.03125 30.89931 34.31773
35.0 0.02857 30.89620 33.92819
38.0 0.02632 30.89310 33.62831
37.0 0.02703 30.89001 33.38618
36.0 0.02778 30.88693 33.18363
35.0 0.02857 30.88388 33.01022
38.0 0.02632 30.88083 32.85944
29.0 0.03448 30.87780 32.72700
39.0 0.02564 30.87479 32.60975
37.0 0.02703 30.87179 32.50534
29.0 0.03448 30.86880 32.41181
35.0 0.02857 30.86584 32.32764
35.0 0.02857 30.86287 32.25155
36.0 0.02778 30.85994 32.18246
39.0 0.02564 30.85701 32.11952
22.0 0.0455 30.85410 32.06195
35.0 0.02857 30.85121 32.00914
44.0 0.02273 30.84833 31.96053
34.0 0.02941 30.84547 31.91565
28.0 0.0357 30.84263 31.87412
33.0 0.03030 30.83980 31.83561
36.0 0.02778 30.83698 31.79978
30.0 0.03333 30.83418 31.76639
35.0 0.02857 30.83141 31.73520
37.0 0.02703 30.82864 31.70603
38.0 0.02632 30.82590 31.67871
25.0 0.0400 30.82317 31.65306
30.0 0.03333 30.82046 31.62893
26.0 0.0385 30.81776 31.60623
39.0 0.02564 30.81509 31.58484
27.0 0.0370 30.81243 31.56466
30.0 0.03333 30.80979 31.54560
29.0 0.03448 30.80717 31.52758
24.0 0.0417 30.80456 31.51055
29.0 0.03448 30.80198 31.49443
30.0 0.03333 30.79940 31.47917
32.0 0.03125 30.79686 31.46473
20.0 0.0500 30.79433 31.45105
34.0 0.02941 30.79182 31.43810
26.0 0.0385 30.78933 31.42582
33.0 0.03030 30.78685 31.41422
32.0 0.03125 30.78440 31.40326
41.0 0.02439 30.78197 31.39290
31.0 0.03226 30.77955 31.38315
34.0 0.02941 30.77716 31.37396
33.0 0.03030 30.77478 31.36534
24.0 0.0417 30.77243 31.35728
31.0 0.03226 30.77009 31.34976
21.0 0.0476 30.76778 31.34277
27.0 0.0370 30.76549 31.33634
29.0 0.03448 30.76322 31.33045
31.0 0.03226 30.76097 31.32512
34.0 0.02941 30.75874 31.32035
30.0 0.03333 30.75653 31.31616
25.0 0.0400 30.75434 31.31257
24.0 0.0417 30.75217 31.30959
36.0 0.02778 30.75003 31.30727
32.0 0.03125 30.74791 31.30565
27.0 0.0370 30.74581 31.30478
35.0 0.02857 30.74374 31.30467
27.0 0.0370 30.74168 31.30543
19.0 0.0526 30.73965 31.30712
36.0 0.02778 30.73763 31.30984
33.0 0.03030 30.73565 31.31371
29.0 0.03448 30.73369 31.31883
25.0 0.0400 30.73175 31.32539
42.0 0.02381 30.72984 31.33356
22.0 0.0455 30.72794 31.34359
24.0 0.0417 30.72607 31.35573
23.0 0.0435 30.72423 31.37034
32.0 0.03125 30.72241 31.38786
28.0 0.0357 30.72061 31.40883
40.0 0.02500 30.71883 31.43394
26.0 0.0385 30.71709 31.46424
35.0 0.02857 30.71537 31.50123
34.0 0.02941 30.71367 31.54746
38.0 0.02632 30.71200 31.60740
27.0 0.0370 30.71035 31.68904
35.0 0.02857 30.70873 31.80630
31.0 0.03226 30.70713 31.98228
35.0 0.02857 30.70556 32.25225
26.0 0.0385 30.70402 32.66516
24.0 0.0417 30.70250 33.28059
36.0 0.02778 30.70101 34.15921
35.0 0.02857 30.69955 35.34567
48.0 0.02083 30.69811 36.84589
38.0 0.02632 30.69670 38.60359
43.0 0.02326 30.69531 40.47905
54.0 0.01852 30.69396 42.23284
48.0 0.02083 30.69263 43.53186
41.0 0.02439 30.69133 44.03669
54.0 0.01852 30.69006 43.59263
37.0 0.02703 30.68881 42.35019
33.0 0.03030 30.68760 40.65092
40.0 0.02500 30.68641 38.83633
40.0 0.02500 30.68525 37.15927
33.0 0.03030 30.68412 35.77818
33.0 0.03030 30.68302 34.77432
35.0 0.02857 30.68195 34.17180
27.0 0.0370 30.68090 33.95722
29.0 0.03448 30.67989 34.09464
35.0 0.02857 30.67891 34.53236
36.0 0.02778 30.67796 35.20082
45.0 0.02222 30.67703 36.00533
46.0 0.02174 30.67614 36.81562
29.0 0.03448 30.67528 37.46172
34.0 0.02941 30.67445 37.76140
40.0 0.02500 30.67364 37.60344
35.0 0.02857 30.67288 37.02444
39.0 0.02564 30.67214 36.17701
30.0 0.03333 30.67143 35.23251
33.0 0.03030 30.67076 34.32247
42.0 0.02381 30.67012 33.52836
38.0 0.02632 30.66951 32.88839
36.0 0.02778 30.66893 32.40722
24.0 0.0417 30.66839 32.06753
28.0 0.0357 30.66788 31.84184
36.0 0.02778 30.66740 31.70216
23.0 0.0435 30.66695 31.62641
35.0 0.02857 30.66654 31.60147
31.0 0.03226 30.66617 31.62357
32.0 0.03125 30.66582 31.69674
30.0 0.03333 30.66551 31.83003
29.0 0.03448 30.66523 32.03329
32.0 0.03125 30.66499 32.31186
34.0 0.02941 30.66478 32.66079
35.0 0.02857 30.66460 33.05968
23.0 0.0435 30.66447 33.46799
35.0 0.02857 30.66437 33.82261
25.0 0.0400 30.66430 34.04425
38.0 0.02632 30.66428 34.06714
29.0 0.03448 30.66428 33.88195
31.0 0.03226 30.66432 33.54351
37.0 0.02703 30.66440 33.13220
18.0 0.0556 30.66451 32.71811
36.0 0.02778 30.66466 32.34991
37.0 0.02703 30.66485 32.05639
34.0 0.02941 30.66508 31.85078
26.0 0.0385 30.66535 31.73514
17.0 0.0588 30.66564 31.70464
24.0 0.0417 30.66599 31.75037
23.0 0.0435 30.66636 31.86018
30.0 0.03333 30.66678 32.01792
31.0 0.03226 30.66724 32.20131
27.0 0.0370 30.66773 32.37986
25.0 0.0400 30.66826 32.51439
32.0 0.03125 30.66883 32.56520
34.0 0.02941 30.66944 32.51173
28.0 0.0357 30.67009 32.36715
36.0 0.02778 30.67078 32.16746
28.0 0.0357 30.67151 31.95026
35.0 0.02857 30.67228 31.74357
32.0 0.03125 30.67310 31.56434
35.0 0.02857 30.67395 31.42011
23.0 0.0435 30.67484 31.31123
36.0 0.02778 30.67578 31.23332
31.0 0.03226 30.67676 31.17984
30.0 0.03333 30.67778 31.14403
34.0 0.02941 30.67884 31.12016
32.0 0.03125 30.67994 31.10393
24.0 0.0417 30.68108 31.09249
28.0 0.0357 30.68228 31.08404
35.0 0.02857 30.68351 31.07752
38.0 0.02632 30.68479 31.07236
32.0 0.03125 30.68610 31.06820
37.0 0.02703 30.68747 31.06483
28.0 0.0357 30.68887 31.06213
23.0 0.0435 30.69032 31.06000
29.0 0.03448 30.69182 31.05836
29.0 0.03448 30.69336 31.05715
33.0 0.03030 30.69494 31.05632
32.0 0.03125 30.69658 31.05585
18.0 0.0556 30.69825 31.05569
27.0 0.0370 30.69997 31.05583
26.0 0.0385 30.70173 31.05622
20.0 0.0500 30.70355 31.05686
21.0 0.0476 30.70541 31.05773
32.0 0.03125 30.70732 31.05883
30.0 0.03333 30.70927 31.06012
34.0 0.02941 30.71128 31.06160
29.0 0.03448 30.71332 31.06328
25.0 0.0400 30.71542 31.06513
27.0 0.0370 30.71756 31.06714
29.0 0.03448 30.71976 31.06874
37.0 0.02703 30.72199 31.07108
34.0 0.02941 30.72429 31.07359
26.0 0.0385 30.72663 31.07624
31.0 0.03226 30.72901 31.07904
31.0 0.03226 30.73146 31.08199
22.0 0.0455 30.73394 31.08509
32.0 0.03125 30.73648 31.08833
31.0 0.03226 30.73907 31.09172
32.0 0.03125 30.74171 31.09524
29.0 0.03448 30.74439 31.09891
32.0 0.03125 30.74713 31.10272
32.0 0.03125 30.74993 31.10666
23.0 0.0435 30.75277 31.11075
26.0 0.0385 30.75567 31.11498
36.0 0.02778 30.75861 31.11935
36.0 0.02778 30.76161 31.12387
36.0 0.02778 30.76468 31.12853
29.0 0.03448 30.76777 31.13335
33.0 0.03030 30.77094 31.13829
40.0 0.02500 30.77415 31.14340
31.0 0.03226 30.77742 31.14865
40.0 0.02500 30.78074 31.15405
30.0 0.03333 30.78411 31.15964
26.0 0.0385 30.78754 31.16535
26.0 0.0385 30.79103 31.17124
19.0 0.0526 30.79457 31.17729
32.0 0.03125 30.79816 31.18352
31.0 0.03226 30.80182 31.18990
35.0 0.02857 30.80553 31.19647
33.0 0.03030 30.80929 31.20322
19.0 0.0526 30.81311 31.21016
33.0 0.03030 30.81699 31.21729
33.0 0.03030 30.82092 31.22462
27.0 0.0370 30.82491 31.23215
30.0 0.03333 30.82897 31.23988
26.0 0.0385 30.83308 31.24784
29.0 0.03448 30.83724 31.25602
22.0 0.0455 30.84147 31.26442
39.0 0.02564 30.84575 31.27306
29.0 0.03448 30.85010 31.28196
33.0 0.03030 30.85450 31.29112
31.0 0.03226 30.85896 31.30054
30.0 0.03333 30.86349 31.31025
28.0 0.0357 30.86808 31.32024
23.0 0.0435 30.87272 31.33054
34.0 0.02941 30.87742 31.34115
34.0 0.02941 30.88219 31.35212
43.0 0.02326 30.88702 31.36341
30.0 0.03333 30.89191 31.37509
36.0 0.02778 30.89686 31.38715
32.0 0.03125 30.90188 31.39963
23.0 0.0435 30.90696 31.41253
28.0 0.0357 30.91210 31.42589
37.0 0.02703 30.91730 31.43973
31.0 0.03226 30.92257 31.45408
21.0 0.0476 30.92791 31.46900
34.0 0.02941 30.93330 31.48449
34.0 0.02941 30.93876 31.50060
27.0 0.0370 30.94429 31.51739
30.0 0.03333 30.94988 31.53488
39.0 0.02564 30.95554 31.55313
29.0 0.03448 30.96127 31.57221
41.0 0.02439 30.96705 31.59219
26.0 0.0385 30.97291 31.61312
30.0 0.03333 30.97883 31.63511
32.0 0.03125 30.98483 31.65821
29.0 0.03448 30.99088 31.68256
26.0 0.0385 30.99701 31.70826
32.0 0.03125 31.00320 31.73544
29.0 0.03448 31.00947 31.76424
27.0 0.0370 31.01580 31.79483
32.0 0.03125 31.02220 31.82738
36.0 0.02778 31.02867 31.86216
27.0 0.0370 31.03521 31.89936
31.0 0.03226 31.04182 31.93930
34.0 0.02941 31.04850 31.98230
32.0 0.03125 31.05525 32.02872
29.0 0.03448 31.06207 32.07907
32.0 0.03125 31.06897 32.13381
32.0 0.03125 31.07593 32.19358
29.0 0.03448 31.08297 32.25917
31.0 0.03226 31.09007 32.33139
26.0 0.0385 31.09726 32.41132
42.0 0.02381 31.10451 32.50028
35.0 0.02857 31.11185 32.59978
35.0 0.02857 31.11925 32.71183
44.0 0.02273 31.12672 32.83896
32.0 0.03125 31.13428 32.98457
32.0 0.03125 31.14190 33.15372
32.0 0.03125 31.14960 33.35429
35.0 0.02857 31.15738 33.59967
40.0 0.02500 31.16523 33.91328
46.0 0.02174 31.17317 34.33579
38.0 0.02632 31.18117 34.93529
41.0 0.02439 31.18925 35.81912
39.0 0.02564 31.19740 37.14305
34.0 0.02941 31.20564 39.11134
45.0 0.02222 31.21396 41.95850
45.0 0.02222 31.22236 45.90615
55.0 0.01818 31.23083 51.09525
52.0 0.01923 31.23937 57.50304
68.0 0.01471 31.24801 64.86086
63.0 0.01587 31.25671 72.58145
61.0 0.01639 31.26551 79.70560
84.0 0.01190 31.27438 84.93979
86.0 0.01163 31.28333 86.99664
76.0 0.01316 31.29236 85.28988
67.0 0.01493 31.30147 80.36552
61.0 0.01639 31.31067 73.50674
52.0 0.01923 31.31995 66.03544
54.0 0.01852 31.32930 58.95757
46.0 0.02174 31.33875 52.92242
57.0 0.01754 31.34827 48.28010
50.0 0.02000 31.35788 45.15549
54.0 0.01852 31.36757 43.52537
49.0 0.02041 31.37735 43.28570
44.0 0.02273 31.38722 44.29142
38.0 0.02632 31.39717 46.36240
49.0 0.02041 31.40720 49.26130
49.0 0.02041 31.41732 52.65660
46.0 0.02174 31.42752 56.08210
61.0 0.01639 31.43781 58.91631
51.0 0.01961 31.44819 60.46318
48.0 0.02083 31.45866 60.22879
54.0 0.01852 31.46921 58.23617
56.0 0.01786 31.47985 54.99928
52.0 0.01923 31.49059 51.18710
50.0 0.02000 31.50140 47.35885
42.0 0.02381 31.51232 43.88944
41.0 0.02439 31.52332 40.98266
38.0 0.02632 31.53440 38.70344
35.0 0.02857 31.54558 37.01608
39.0 0.02564 31.55685 35.82557
35.0 0.02857 31.56821 35.01542
46.0 0.02174 31.57967 34.47500
34.0 0.02941 31.59122 34.11453
33.0 0.03030 31.60285 33.86882
34.0 0.02941 31.61457 33.69483
29.0 0.03448 31.62640 33.56594
36.0 0.02778 31.63832 33.46646
37.0 0.02703 31.65033 33.38745
37.0 0.02703 31.66243 33.32360
38.0 0.02632 31.67463 33.27167
34.0 0.02941 31.68693 33.22953
45.0 0.02222 31.69932 33.19562
30.0 0.03333 31.71180 33.16881
42.0 0.02381 31.72438 33.14809
38.0 0.02632 31.73707 33.13277
42.0 0.02381 31.74984 33.12221
25.0 0.0400 31.76272 33.11590
29.0 0.03448 31.77569 33.11341
30.0 0.03333 31.78876 33.11441
35.0 0.02857 31.80193 33.11861
37.0 0.02703 31.81520 33.12574
32.0 0.03125 31.82856 33.13560
36.0 0.02778 31.84204 33.14802
32.0 0.03125 31.85560 33.16291
34.0 0.02941 31.86927 33.18009
40.0 0.02500 31.88304 33.19954
42.0 0.02381 31.89692 33.22113
29.0 0.03448 31.91089 33.24483
31.0 0.03226 31.92496 33.27060
34.0 0.02941 31.93914 33.29844
40.0 0.02500 31.95343 33.32834
52.0 0.01923 31.96782 33.36029
26.0 0.0385 31.98231 33.39429
36.0 0.02778 31.99690 33.43044
29.0 0.03448 32.01162 33.46872
43.0 0.02326 32.02642 33.50920
45.0 0.02222 32.04133 33.55197
41.0 0.02439 32.05635 33.59709
29.0 0.03448 32.07148 33.64468
39.0 0.02564 32.08671 33.69483
35.0 0.02857 32.10205 33.74768
42.0 0.02381 32.11750 33.80334
47.0 0.02128 32.13306 33.86201
46.0 0.02174 32.14872 33.92384
39.0 0.02564 32.16451 33.98904
35.0 0.02857 32.18039 34.05783
43.0 0.02326 32.19639 34.13044
32.0 0.03125 32.21250 34.20721
37.0 0.02703 32.22872 34.28839
40.0 0.02500 32.24504 34.37434
37.0 0.02703 32.26149 34.46545
48.0 0.02083 32.27805 34.56216
43.0 0.02326 32.29472 34.66498
33.0 0.03030 32.31151 34.77440
35.0 0.02857 32.32840 34.89111
41.0 0.02439 32.34541 35.01575
39.0 0.02564 32.36253 35.14914
57.0 0.01754 32.37978 35.29219
35.0 0.02857 32.39713 35.44475
38.0 0.02632 32.41461 35.61028
46.0 0.02174 32.43219 35.78900
50.0 0.02000 32.44991 35.98242
50.0 0.02000 32.46772 36.19235
44.0 0.02273 32.48567 36.42080
43.0 0.02326 32.50373 36.67025
48.0 0.02083 32.52191 36.94345
38.0 0.02632 32.54021 37.24375
37.0 0.02703 32.55862 37.57502
53.0 0.01887 32.57718 37.94193
61.0 0.01639 32.59583 38.35003
38.0 0.02632 32.61462 38.80547
50.0 0.02000 32.63352 39.31750
48.0 0.02083 32.65254 39.89565
44.0 0.02273 32.67170 40.55276
42.0 0.02381 32.69097 41.30576
54.0 0.01852 32.71037 42.17873
36.0 0.02778 32.72989 43.20825
57.0 0.01754 32.74954 44.45449
54.0 0.01852 32.76930 46.02057
44.0 0.02273 32.78920 48.08487
61.0 0.01639 32.80923 50.94848
67.0 0.01493 32.82937 55.09493
63.0 0.01587 32.84966 61.24852
76.0 0.01316 32.87005 70.40288
90.0 0.01111 32.89059 83.77795
99.0 0.01010 32.91125 102.66373
119.0 0.00840 32.93204 128.12988
154.0 0.00649 32.95296 160.62543
181.0 0.00552 32.97401 199.53510
215.0 0.00465 32.99519 242.76616
306.0 0.003268 33.01650 286.39630
363.0 0.002755 33.03795 324.48190
361.0 0.002770 33.05952 349.63403
374.0 0.002674 33.08124 355.49649
347.0 0.002882 33.10308 340.49225
272.0 0.00368 33.12506 308.98746
224.0 0.00446 33.14716 268.34995
164.0 0.00610 33.16940 225.51785
157.0 0.00637 33.19180 185.58914
140.0 0.00714 33.21430 151.77950
95.0 0.01053 33.23696 125.75211
121.0 0.00826 33.25975 108.01940
103.0 0.00971 33.28267 98.36395
93.0 0.01075 33.30573 96.20406
119.0 0.00840 33.32893 100.81487
106.0 0.00943 33.35228 111.36379
129.0 0.00775 33.37576 126.79019
142.0 0.00704 33.39938 145.60078
176.0 0.00568 33.42313 165.64375
198.0 0.00505 33.44705 183.92697
212.0 0.00472 33.47108 196.73593
198.0 0.00505 33.49527 200.60846
201.0 0.00498 33.51960 194.14383
176.0 0.00568 33.54407 178.94978
151.0 0.00662 33.56869 158.48822
118.0 0.00847 33.59344 136.26781
93.0 0.01075 33.61835 114.93489
76.0 0.01316 33.64340 96.15128
63.0 0.01587 33.66859 80.72487
70.0 0.01429 33.69393 68.79059
69.0 0.01449 33.71943 60.01966
62.0 0.01613 33.74505 53.83473
61.0 0.01639 33.77083 49.59444
53.0 0.01887 33.79676 46.71836
42.0 0.02381 33.82284 44.74768
54.0 0.01852 33.84908 43.35520
49.0 0.02041 33.87545 42.32595
49.0 0.02041 33.90199 41.52731
45.0 0.02222 33.92866 40.88099
54.0 0.01852 33.95550 40.34127
42.0 0.02381 33.98249 39.88111
47.0 0.02128 34.00962 39.48347
38.0 0.02632 34.03691 39.13688
45.0 0.02222 34.06436 38.83294
32.0 0.03125 34.09197 38.56523
54.0 0.01852 34.11971 38.32858
35.0 0.02857 34.14764 38.11876
40.0 0.02500 34.17570 37.93225
48.0 0.02083 34.20392 37.76613
46.0 0.02174 34.23231 37.61795
46.0 0.02174 34.26085 37.48553
40.0 0.02500 34.28955 37.36717
33.0 0.03030 34.31841 37.26127
39.0 0.02564 34.34743 37.16656
43.0 0.02326 34.37660 37.08184
45.0 0.02222 34.40594 37.00614
48.0 0.02083 34.43544 36.93861
44.0 0.02273 34.46510 36.87843
37.0 0.02703 34.49493 36.82497
36.0 0.02778 34.52492 36.77766
55.0 0.01818 34.55508 36.73593
45.0 0.02222 34.58538 36.69931
30.0 0.03333 34.61586 36.66747
37.0 0.02703 34.64651 36.63993
48.0 0.02083 34.67732 36.61643
37.0 0.02703 34.70831 36.59664
40.0 0.02500 34.73945 36.58033
40.0 0.02500 34.77077 36.56723
35.0 0.02857 34.80226 36.55717
36.0 0.02778 34.83391 36.54987
42.0 0.02381 34.86573 36.54520
38.0 0.02632 34.89773 36.54303
35.0 0.02857 34.92989 36.54313
35.0 0.02857 34.96222 36.54543
40.0 0.02500 34.99473 36.54982
42.0 0.02381 35.02741 36.55616
44.0 0.02273 35.06027 36.56433
33.0 0.03030 35.09329 36.57427
42.0 0.02381 35.12651 36.58590
39.0 0.02564 35.15988 36.59910
37.0 0.02703 35.19344 36.61385
33.0 0.03030 35.22715 36.63005
28.0 0.0357 35.26106 36.64764
48.0 0.02083 35.29516 36.66658
32.0 0.03125 35.32942 36.68682
54.0 0.01852 35.36386 36.70830
32.0 0.03125 35.39848 36.73098
52.0 0.01923 35.43330 36.75486
45.0 0.02222 35.46827 36.77984
32.0 0.03125 35.50343 36.80149
41.0 0.02439 35.53878 36.82866
46.0 0.02174 35.57431 36.85687
42.0 0.02381 35.61003 36.88609
43.0 0.02326 35.64592 36.91630
38.0 0.02632 35.68201 36.94751
35.0 0.02857 35.71827 36.97963
47.0 0.02128 35.75473 37.01275
46.0 0.02174 35.79136 37.04677
43.0 0.02326 35.82819 37.08171
40.0 0.02500 35.86521 37.11755
30.0 0.03333 35.90241 37.15209
40.0 0.02500 35.93981 37.18973
34.0 0.02941 35.97739 37.22824
26.0 0.0385 36.01517 37.26767
37.0 0.02703 36.05312 37.30793
42.0 0.02381 36.09129 37.34911
42.0 0.02381 36.12963 37.39115
44.0 0.02273 36.16817 37.43406
34.0 0.02941 36.20691 37.47787
44.0 0.02273 36.24583 37.52254
32.0 0.03125 36.28497 37.56814
48.0 0.02083 36.32428 37.61461
28.0 0.0357 36.36382 37.66201
44.0 0.02273 36.40352 37.71031
38.0 0.02632 36.44342 37.75954
40.0 0.02500 36.48355 37.80973
31.0 0.03226 36.52385 37.86085
36.0 0.02778 36.56437 37.91298
34.0 0.02941 36.60508 37.96608
39.0 0.02564 36.64600 38.02021
39.0 0.02564 36.68710 38.07536
41.0 0.02439 36.72843 38.13158
30.0 0.03333 36.76995 38.18887
34.0 0.02941 36.81166 38.24723
42.0 0.02381 36.85360 38.30680
39.0 0.02564 36.89573 38.36751
35.0 0.02857 36.93808 38.42944
44.0 0.02273 36.98061 38.49259
51.0 0.01961 37.02338 38.55703
44.0 0.02273 37.06633 38.62279
54.0 0.01852 37.10952 38.68994
32.0 0.03125 37.15289 38.75851
43.0 0.02326 37.19648 38.82852
29.0 0.03448 37.24028 38.90009
43.0 0.02326 37.28430 38.97320
51.0 0.01961 37.32853 39.04802
44.0 0.02273 37.37297 39.12454
52.0 0.01923 37.41763 39.20287
27.0 0.0370 37.46248 39.28307
33.0 0.03030 37.50756 39.36520
52.0 0.01923 37.55287 39.44945
27.0 0.0370 37.59838 39.53583
49.0 0.02041 37.64412 39.62448
46.0 0.02174 37.69006 39.71549
46.0 0.02174 37.73624 39.80904
37.0 0.02703 37.78263 39.90522
42.0 0.02381 37.82925 40.00416
44.0 0.02273 37.87607 40.10607
39.0 0.02564 37.92311 40.21109
33.0 0.03030 37.97040 40.31943
51.0 0.01961 38.01789 40.43125
48.0 0.02083 38.06562 40.54681
48.0 0.02083 38.11356 40.66633
38.0 0.02632 38.16175 40.79008
45.0 0.02222 38.21014 40.91832
54.0 0.01852 38.25878 41.05138
37.0 0.02703 38.30762 41.18962
48.0 0.02083 38.35670 41.33335
35.0 0.02857 38.40602 41.48306
45.0 0.02222 38.45555 41.63913
41.0 0.02439 38.50533 41.80211
49.0 0.02041 38.55533 41.97251
44.0 0.02273 38.60557 42.15099
39.0 0.02564 38.65604 42.33815
48.0 0.02083 38.70673 42.53477
43.0 0.02326 38.75768 42.74173
50.0 0.02000 38.80884 42.95991
44.0 0.02273 38.86026 43.19041
58.0 0.01724 38.91190 43.43432
62.0 0.01613 38.96380 43.69307
43.0 0.02326 39.01591 43.96804
55.0 0.01818 39.06828 44.26101
45.0 0.02222 39.12087 44.57384
37.0 0.02703 39.17370 44.90877
57.0 0.01754 39.22680 45.26830
37.0 0.02703 39.28011 45.65528
55.0 0.01818 39.33369 46.07306
39.0 0.02564 39.38749 46.52544
56.0 0.01786 39.44156 47.01696
55.0 0.01818 39.49585 47.55278
42.0 0.02381 39.55041 48.13900
52.0 0.01923 39.60519 48.78288
49.0 0.02041 39.66024 49.49296
69.0 0.01449 39.71554 50.27952
68.0 0.01471 39.77107 51.15482
65.0 0.01538 39.82687 52.13399
58.0 0.01724 39.88290 53.23562
66.0 0.01515 39.93921 54.48390
71.0 0.01408 39.99574 55.91140
67.0 0.01493 40.05253 57.56541
71.0 0.01408 40.10960 59.51959
79.0 0.01266 40.16690 61.89524
84.0 0.01190 40.22447 64.89802
84.0 0.01190 40.28228 68.87449
104.0 0.00962 40.34037 74.39085
97.0 0.01031 40.39870 82.32480
128.0 0.00781 40.45731 93.94618
133.0 0.00752 40.51616 110.94093
136.0 0.00735 40.57526 135.31808
186.0 0.00538 40.63465 169.14491
186.0 0.00538 40.69428 214.08891
253.0 0.00395 40.75420 270.80838
337.0 0.002967 40.81436 338.28961
432.0 0.002315 40.87480 413.23138
569.0 0.001757 40.93549 489.51611
642.0 0.001558 40.99647 557.88354
636.0 0.001572 41.05769 606.56744
618.0 0.001618 41.11919 624.53125
576.0 0.001736 41.18096 607.14081
488.0 0.002049 41.24299 559.29059
422.0 0.002370 41.30532 492.15680
346.0 0.002890 41.36789 417.55573
273.0 0.00366 41.43076 344.81027
244.0 0.00410 41.49387 280.18625
190.0 0.00526 41.55727 227.27174
201.0 0.00498 41.62096 187.55293
157.0 0.00637 41.68491 161.06181
177.0 0.00565 41.74914 147.02913
162.0 0.00617 41.81364 144.41124
147.0 0.00680 41.87845 152.17245
185.0 0.00541 41.94350 169.28455
192.0 0.00521 42.00886 194.50035
201.0 0.00498 42.07447 226.00815
262.0 0.00382 42.14038 261.06641
331.0 0.003021 42.20658 295.67712
361.0 0.002770 42.27304 324.46487
367.0 0.002725 42.33982 341.35422
330.0 0.003030 42.40686 341.74414
317.0 0.003155 42.47420 325.15231
266.0 0.00376 42.54181 295.50336
254.0 0.00394 42.60973 258.67859
195.0 0.00513 42.67793 220.06786
172.0 0.00581 42.74640 183.59402
125.0 0.00800 42.81519 151.67891
112.0 0.00893 42.88425 125.45992
114.0 0.00877 42.95362 105.06753
81.0 0.01235 43.02328 89.93884
72.0 0.01389 43.09324 79.13844
75.0 0.01333 43.16348 71.63225
81.0 0.01235 43.23400 66.47585
77.0 0.01299 43.30486 62.90994
70.0 0.01429 43.37598 60.38057
54.0 0.01852 43.44744 58.51411
54.0 0.01852 43.51917 57.07354
59.0 0.01695 43.59122 55.91507
54.0 0.01852 43.66356 54.95311
43.0 0.02326 43.73621 54.13649
65.0 0.01538 43.80914 53.43309
48.0 0.02083 43.88238 52.82160
46.0 0.02174 43.95595 52.28681
54.0 0.01852 44.02981 51.81701
55.0 0.01818 44.10399 51.40306
41.0 0.02439 44.17846 51.03736
43.0 0.02326 44.25327 50.71371
46.0 0.02174 44.32835 50.42686
54.0 0.01852 44.40378 50.17239
44.0 0.02273 44.47948 49.94652
49.0 0.02041 44.55551 49.74603
36.0 0.02778 44.63187 49.56818
44.0 0.02273 44.70853 49.41057
56.0 0.01786 44.78552 49.27114
48.0 0.02083 44.86280 49.14807
50.0 0.02000 44.94044 49.03981
44.0 0.02273 45.01836 48.94495
49.0 0.02041 45.09660 48.86228
49.0 0.02041 45.17519 48.79077
46.0 0.02174 45.25408 48.72941
55.0 0.01818 45.33331 48.67738
43.0 0.02326 45.41284 48.63395
48.0 0.02083 45.49272 48.59837
52.0 0.01923 45.57291 48.57011
48.0 0.02083 45.65343 48.54861
45.0 0.02222 45.73426 48.53336
49.0 0.02041 45.81543 48.52392
44.0 0.02273 45.89695 48.51994
41.0 0.02439 45.97877 48.52100
45.0 0.02222 46.06096 48.52680
43.0 0.02326 46.14345 48.53703
46.0 0.02174 46.22630 48.55149
42.0 0.02381 46.30944 48.56984
44.0 0.02273 46.39296 48.59191
45.0 0.02222 46.47679 48.61745
31.0 0.03226 46.56095 48.64631
49.0 0.02041 46.64548 48.67838
57.0 0.01754 46.73032 48.71338
52.0 0.01923 46.81554 48.75130
40.0 0.02500 46.90106 48.79189
43.0 0.02326 46.98697 48.83513
36.0 0.02778 47.07317 48.88083
54.0 0.01852 47.15972 48.92896
38.0 0.02632 47.24665 48.97947
43.0 0.02326 47.33390 49.03217
38.0 0.02632 47.42152 49.08711
35.0 0.02857 47.50946 49.14416
45.0 0.02222 47.59779 49.20332
46.0 0.02174 47.68643 49.26451
51.0 0.01961 47.77545 49.32774
38.0 . . .
