#------------------------------------------------------------------------------
#$Date: 2016-02-12 10:25:59 +0200 (Fri, 12 Feb 2016) $
#$Revision: 176404 $
#$URL: svn://www.crystallography.net/cod/cif/7/22/42/7224242.cif $
#------------------------------------------------------------------------------
#
# This file is available in the Crystallography Open Database (COD),
# http://www.crystallography.net/
#
# All data on this site have been placed in the public domain by the
# contributors.
#
data_7224242
loop_
_publ_author_name
'Attfield, Martin'
'Feygenson, Mikhail'
'Neuefeind, Joerg C.'
'Proffen, Thomas E.'
'Hriljac, J. A.'
'Lucas, Timothy C.'
_publ_section_title
;
 Reprobing the mechanism of negative thermal expansion in siliceous
 faujasite
;
_journal_name_full               'RSC Adv.'
_journal_paper_doi               10.1039/C5RA23827G
_journal_year                    2016
_chemical_formula_sum            'O2 Si'
_chemical_formula_weight         60.08
_chemical_name_systematic        ' ?'
_space_group_IT_number           227
_symmetry_cell_setting           cubic
_symmetry_space_group_name_Hall  '-F 4vw 2vw 3'
_symmetry_space_group_name_H-M   'F d -3 m :2'
_audit_creation_date             2015-07-02T12:42
_audit_creation_method           'from EXP file using GSAS2CIF'
_audit_update_record
' 2015-07-02T12:42  Initial CIF as created by GSAS2CIF'
_cell_angle_alpha                90.0
_cell_angle_beta                 90.0
_cell_angle_gamma                90.0
_cell_formula_units_Z            192
_cell_length_a                   24.2489(12)
_cell_length_b                   24.2489
_cell_length_c                   24.2489
_cell_volume                     14258.6(7)
_computing_structure_refinement  GSAS
_diffrn_radiation_probe          neutron
_exptl_absorpt_correction_T_max  1.00000
_exptl_absorpt_correction_T_min  1.00000
_exptl_absorpt_process_details
;   GSAS Absorption/surface roughness correction: function number 0
 No correction is applied.
;
_pd_block_id
2015-07-02T12:42|ZDDAYC35A7500KBANK5|Martin_Attfield|NOMAD
_pd_calc_method                  'Rietveld Refinement'
_pd_instr_location               ' ?'
_pd_meas_2theta_fixed            154.000
_pd_meas_number_of_points        3000
_pd_phase_name                   zdday
_pd_proc_info_datetime           2015-07-02T12:42:20
_pd_proc_info_excluded_regions   ' ?'
_pd_proc_ls_background_function
;   GSAS Background function number 1 with 12 terms.
 Shifted Chebyshev function of 1st kind
      1:   9.973040E-02 2:   4.752260E-03 3:  -6.004120E-03 4:  -3.673820E-03
      5:  -5.537250E-03 6:   3.679070E-03 7:  -1.667640E-03 8:  -8.499890E-03
      9:  -4.795220E-0310:   1.366920E-0311:   1.038320E-0412:   2.127800E-04
;
_pd_proc_ls_peak_cutoff          0.00200
_pd_proc_ls_profile_function
;
 TOF Profile function number-3 with  21 terms
 Profile coefficients for exponential pseudovoigt
  convolution Von Dreele, 1990 (unpublished)
 Peak tails are ignored  where the intensity is below 0.0020 times the peak
   Aniso. broadening axis   0.0   0.0   1.0
;
_pd_proc_ls_prof_R_factor        0.0273
_pd_proc_ls_prof_wR_expected     0.0207
_pd_proc_ls_prof_wR_factor       0.0332
_pd_proc_number_of_points        3000
_pd_spec_mounting                ' ?'
_refine_ls_goodness_of_fit_all   1.63
_refine_ls_matrix_type           full
_refine_ls_number_parameters     32
_refine_ls_number_restraints     0
_refine_ls_R_Fsqd_factor         0.09953
_refine_ls_shift/su_max          0.01
_refine_ls_shift/su_mean         0.00
_reflns_d_resolution_high        0.561
_reflns_d_resolution_low         1.556
_reflns_limit_h_max              43
_reflns_limit_h_min              1
_reflns_limit_k_max              30
_reflns_limit_k_min              0
_reflns_limit_l_max              25
_reflns_limit_l_min              0
_reflns_number_total             1921
_cod_data_source_file            c5ra23827g6.cif
_cod_data_source_block           ZDDAYC35A7500KBANK5_publ
_cod_depositor_comments
;
The following automatic conversions were performed:

'_geom_bond_publ_flag' value 'N' changed to 'n' according to
/usr/data/users/saulius/crontab/automatic-downloads/rss-feeds/RSC/lib/dictionaries/cif_core.dic
dictionary named 'cif_core.dic' version 2.4.2 from 2011-04-26 (40
times).

'_geom_angle_publ_flag' value 'N' changed to 'n' according to
/usr/data/users/saulius/crontab/automatic-downloads/rss-feeds/RSC/lib/dictionaries/cif_core.dic
dictionary named 'cif_core.dic' version 2.4.2 from 2011-04-26 (10
times).

Automatic conversion script
Id: cif_fix_values 4268 2015-11-12 08:31:59Z antanas 
;
_cod_original_cell_volume        14258.5(21)
_cod_original_sg_symbol_H-M      'F d -3 m'
_cod_database_code               7224242
_gsas_exptl_extinct_corr_t_min   1.00000
_gsas_exptl_extinct_corr_t_max   1.00000
loop_
_symmetry_equiv_pos_site_id
_symmetry_equiv_pos_as_xyz
1 +x,+y,+z
2 +z,+x,+y
3 +y,+z,+x
4 +x+1/4,+y+1/4,-z
5 -z,+x+1/4,+y+1/4
6 +y+1/4,-z,+x+1/4
7 -z+1/4,+x+1/2,-y+3/4
8 -y+3/4,-z+1/4,+x+1/2
9 +y+1/2,-z+1/4,-x+3/4
10 -x+3/4,+y+1/2,-z+1/4
11 -z+1/4,-x+3/4,+y+1/2
12 +x+1/2,-y+3/4,-z+1/4
13 +y,+x,+z
14 +z,+y,+x
15 +x,+z,+y
16 +y+1/4,+x+1/4,-z
17 -z,+y+1/4,+x+1/4
18 +x+1/4,-z,+y+1/4
19 -z+1/4,+y+1/2,-x+3/4
20 -x+3/4,-z+1/4,+y+1/2
21 +x+1/2,-z+1/4,-y+3/4
22 -y+3/4,+x+1/2,-z+1/4
23 -z+1/4,-y+3/4,+x+1/2
24 +y+1/2,-x+3/4,-z+1/4
-1 -x,-y,-z
-2 -z,-x,-y
-3 -y,-z,-x
-4 -x+3/4,-y+3/4,+z
-5 +z,-x+3/4,-y+3/4
-6 -y+3/4,+z,-x+3/4
-7 +z+3/4,-x+1/2,+y+1/4
-8 +y+1/4,+z+3/4,-x+1/2
-9 -y+1/2,+z+3/4,+x+1/4
-10 +x+1/4,-y+1/2,+z+3/4
-11 +z+3/4,+x+1/4,-y+1/2
-12 -x+1/2,+y+1/4,+z+3/4
-13 -y,-x,-z
-14 -z,-y,-x
-15 -x,-z,-y
-16 -y+3/4,-x+3/4,+z
-17 +z,-y+3/4,-x+3/4
-18 -x+3/4,+z,-y+3/4
-19 +z+3/4,-y+1/2,+x+1/4
-20 +x+1/4,+z+3/4,-y+1/2
-21 -x+1/2,+z+3/4,+y+1/4
-22 +y+1/4,-x+1/2,+z+3/4
-23 +z+3/4,+y+1/4,-x+1/2
-24 -y+1/2,+x+1/4,+z+3/4
101 +x,+y+1/2,+z+1/2
102 +z,+x+1/2,+y+1/2
103 +y,+z+1/2,+x+1/2
104 +x+1/4,+y+3/4,-z+1/2
105 -z,+x+3/4,+y+3/4
106 +y+1/4,-z+1/2,+x+3/4
107 -z+1/4,+x,-y+1/4
108 -y+3/4,-z+3/4,+x
109 +y+1/2,-z+3/4,-x+1/4
110 -x+3/4,+y,-z+3/4
111 -z+1/4,-x+1/4,+y
112 +x+1/2,-y+1/4,-z+3/4
113 +y,+x+1/2,+z+1/2
114 +z,+y+1/2,+x+1/2
115 +x,+z+1/2,+y+1/2
116 +y+1/4,+x+3/4,-z+1/2
117 -z,+y+3/4,+x+3/4
118 +x+1/4,-z+1/2,+y+3/4
119 -z+1/4,+y,-x+1/4
120 -x+3/4,-z+3/4,+y
121 +x+1/2,-z+3/4,-y+1/4
122 -y+3/4,+x,-z+3/4
123 -z+1/4,-y+1/4,+x
124 +y+1/2,-x+1/4,-z+3/4
-101 -x,-y+1/2,-z+1/2
-102 -z,-x+1/2,-y+1/2
-103 -y,-z+1/2,-x+1/2
-104 -x+3/4,-y+1/4,+z+1/2
-105 +z,-x+1/4,-y+1/4
-106 -y+3/4,+z+1/2,-x+1/4
-107 +z+3/4,-x,+y+3/4
-108 +y+1/4,+z+1/4,-x
-109 -y+1/2,+z+1/4,+x+3/4
-110 +x+1/4,-y,+z+1/4
-111 +z+3/4,+x+3/4,-y
-112 -x+1/2,+y+3/4,+z+1/4
-113 -y,-x+1/2,-z+1/2
-114 -z,-y+1/2,-x+1/2
-115 -x,-z+1/2,-y+1/2
-116 -y+3/4,-x+1/4,+z+1/2
-117 +z,-y+1/4,-x+1/4
-118 -x+3/4,+z+1/2,-y+1/4
-119 +z+3/4,-y,+x+3/4
-120 +x+1/4,+z+1/4,-y
-121 -x+1/2,+z+1/4,+y+3/4
-122 +y+1/4,-x,+z+1/4
-123 +z+3/4,+y+3/4,-x
-124 -y+1/2,+x+3/4,+z+1/4
201 +x+1/2,+y,+z+1/2
202 +z+1/2,+x,+y+1/2
203 +y+1/2,+z,+x+1/2
204 +x+3/4,+y+1/4,-z+1/2
205 -z+1/2,+x+1/4,+y+3/4
206 +y+3/4,-z,+x+3/4
207 -z+3/4,+x+1/2,-y+1/4
208 -y+1/4,-z+1/4,+x
209 +y,-z+1/4,-x+1/4
210 -x+1/4,+y+1/2,-z+3/4
211 -z+3/4,-x+3/4,+y
212 +x,-y+3/4,-z+3/4
213 +y+1/2,+x,+z+1/2
214 +z+1/2,+y,+x+1/2
215 +x+1/2,+z,+y+1/2
216 +y+3/4,+x+1/4,-z+1/2
217 -z+1/2,+y+1/4,+x+3/4
218 +x+3/4,-z,+y+3/4
219 -z+3/4,+y+1/2,-x+1/4
220 -x+1/4,-z+1/4,+y
221 +x,-z+1/4,-y+1/4
222 -y+1/4,+x+1/2,-z+3/4
223 -z+3/4,-y+3/4,+x
224 +y,-x+3/4,-z+3/4
-201 -x+1/2,-y,-z+1/2
-202 -z+1/2,-x,-y+1/2
-203 -y+1/2,-z,-x+1/2
-204 -x+1/4,-y+3/4,+z+1/2
-205 +z+1/2,-x+3/4,-y+1/4
-206 -y+1/4,+z,-x+1/4
-207 +z+1/4,-x+1/2,+y+3/4
-208 +y+3/4,+z+3/4,-x
-209 -y,+z+3/4,+x+3/4
-210 +x+3/4,-y+1/2,+z+1/4
-211 +z+1/4,+x+1/4,-y
-212 -x,+y+1/4,+z+1/4
-213 -y+1/2,-x,-z+1/2
-214 -z+1/2,-y,-x+1/2
-215 -x+1/2,-z,-y+1/2
-216 -y+1/4,-x+3/4,+z+1/2
-217 +z+1/2,-y+3/4,-x+1/4
-218 -x+1/4,+z,-y+1/4
-219 +z+1/4,-y+1/2,+x+3/4
-220 +x+3/4,+z+3/4,-y
-221 -x,+z+3/4,+y+3/4
-222 +y+3/4,-x+1/2,+z+1/4
-223 +z+1/4,+y+1/4,-x
-224 -y,+x+1/4,+z+1/4
301 +x+1/2,+y+1/2,+z
302 +z+1/2,+x+1/2,+y
303 +y+1/2,+z+1/2,+x
304 +x+3/4,+y+3/4,-z
305 -z+1/2,+x+3/4,+y+1/4
306 +y+3/4,-z+1/2,+x+1/4
307 -z+3/4,+x,-y+3/4
308 -y+1/4,-z+3/4,+x+1/2
309 +y,-z+3/4,-x+3/4
310 -x+1/4,+y,-z+1/4
311 -z+3/4,-x+1/4,+y+1/2
312 +x,-y+1/4,-z+1/4
313 +y+1/2,+x+1/2,+z
314 +z+1/2,+y+1/2,+x
315 +x+1/2,+z+1/2,+y
316 +y+3/4,+x+3/4,-z
317 -z+1/2,+y+3/4,+x+1/4
318 +x+3/4,-z+1/2,+y+1/4
319 -z+3/4,+y,-x+3/4
320 -x+1/4,-z+3/4,+y+1/2
321 +x,-z+3/4,-y+3/4
322 -y+1/4,+x,-z+1/4
323 -z+3/4,-y+1/4,+x+1/2
324 +y,-x+1/4,-z+1/4
-301 -x+1/2,-y+1/2,-z
-302 -z+1/2,-x+1/2,-y
-303 -y+1/2,-z+1/2,-x
-304 -x+1/4,-y+1/4,+z
-305 +z+1/2,-x+1/4,-y+3/4
-306 -y+1/4,+z+1/2,-x+3/4
-307 +z+1/4,-x,+y+1/4
-308 +y+3/4,+z+1/4,-x+1/2
-309 -y,+z+1/4,+x+1/4
-310 +x+3/4,-y,+z+3/4
-311 +z+1/4,+x+3/4,-y+1/2
-312 -x,+y+3/4,+z+3/4
-313 -y+1/2,-x+1/2,-z
-314 -z+1/2,-y+1/2,-x
-315 -x+1/2,-z+1/2,-y
-316 -y+1/4,-x+1/4,+z
-317 +z+1/2,-y+1/4,-x+3/4
-318 -x+1/4,+z+1/2,-y+3/4
-319 +z+1/4,-y,+x+1/4
-320 +x+3/4,+z+1/4,-y+1/2
-321 -x,+z+1/4,+y+1/4
-322 +y+3/4,-x,+z+3/4
-323 +z+1/4,+y+3/4,-x+1/2
-324 -y,+x+3/4,+z+3/4
loop_
_atom_site_type_symbol
_atom_site_label
_atom_site_fract_x
_atom_site_fract_y
_atom_site_fract_z
_atom_site_occupancy
_atom_site_thermal_displace_type
_atom_site_U_iso_or_equiv
_atom_site_symmetry_multiplicity
Si Si1 0.94626(13) 0.12620(14) 0.03586(19) 1.0 Uiso 0.0109(6) 192
O O1 0.0 -0.10591(14) 0.10591(14) 1.0 Uiso 0.0207(13) 96
O O2 -0.00366(12) -0.00366(12) 0.14091(20) 1.0 Uiso 0.0239(13) 96
O O3 0.07603(14) 0.07603(14) -0.03690(18) 1.0 Uiso 0.0242(11) 96
O O4 0.06970(13) 0.06970(13) 0.32003(18) 1.0 Uiso 0.0195(11) 96
loop_
_atom_type_symbol
_atom_type_number_in_cell
_atom_type_scat_length_neutron
_atom_type_scat_source
Si 192.0 0.4149 International_Tables_Vol_C
O 384.0 0.5803 International_Tables_Vol_C
loop_
_geom_angle_atom_site_label_1
_geom_angle_atom_site_label_2
_geom_angle_atom_site_label_3
_geom_angle
_geom_angle_site_symmetry_1
_geom_angle_site_symmetry_3
_geom_angle_publ_flag
O1 Si1 O2 110.08(30) 3_655 3_655 n
O1 Si1 O3 107.14(30) 3_655 2_655 n
O1 Si1 O4 109.50(33) 3_655 111_533 n
O2 Si1 O3 109.92(29) 3_655 2_655 n
O2 Si1 O4 108.34(34) 3_655 111_533 n
O3 Si1 O4 111.9(4) 2_655 111_533 n
Si1 O1 Si1 140.4(4) 2_545 -14_556 n
Si1 O2 Si1 150.8(4) 2_545 15_455 n
Si1 O3 Si1 148.1(4) 3_554 14_554 n
Si1 O4 Si1 141.5(4) -117_446 -206_446 n
loop_
_geom_bond_atom_site_label_1
_geom_bond_atom_site_label_2
_geom_bond_distance
_geom_bond_site_symmetry_2
_geom_bond_publ_flag
Si1 Si1 3.073(8) 14_654 n
Si1 Si1 3.098(8) 15_555 n
Si1 Si1 3.033(8) -13_665 n
Si1 Si1 3.016(8) 221_555 n
Si1 O1 1.612(4) 3_655 n
Si1 O2 1.588(4) 3_655 n
Si1 O3 1.611(4) 2_655 n
Si1 O4 1.597(4) 111_655 n
O1 Si1 1.612(4) 2_545 n
O1 Si1 1.612(4) -14_556 n
O1 O2 2.6222(33) 1_555 n
O1 O2 2.6222(33) -3_555 n
O1 O3 2.593(5) 3_555 n
O1 O3 2.593(5) -1_555 n
O1 O4 2.6206(22) 209_555 n
O1 O4 2.6206(22) -312_434 n
O2 Si1 1.588(4) 2_545 n
O2 Si1 1.588(4) 15_455 n
O2 O1 2.6222(33) 1_555 n
O2 O1 2.6222(33) 13_555 n
O2 O3 2.619(4) 2_555 n
O2 O3 2.619(4) 3_555 n
O2 O4 2.582(4) 107_555 n
O2 O4 2.582(4) 209_555 n
O3 Si1 1.611(4) 3_554 n
O3 Si1 1.611(4) 14_554 n
O3 O1 2.593(5) 2_555 n
O3 O1 2.593(5) 15_555 n
O3 O2 2.619(4) 2_555 n
O3 O2 2.619(4) 3_555 n
O3 O4 2.657(4) 310_555 n
O3 O4 2.657(4) 312_555 n
O4 Si1 1.597(4) -117_545 n
O4 Si1 1.597(4) -206_455 n
O4 O1 2.6206(22) 107_555 n
O4 O1 2.6206(22) 221_555 n
O4 O2 2.582(4) 107_555 n
O4 O2 2.582(4) 209_555 n
O4 O3 2.657(4) 310_555 n
O4 O3 2.657(4) 312_555 n
loop_
_pd_meas_time_of_flight
_pd_proc_d_spacing
_pd_meas_intensity_total
_pd_proc_ls_weight
_pd_proc_intensity_bkg_calc
_pd_calc_intensity_total
1377.39 . 0.083(5) . . .
1378.53 . 0.084(5) . . .
1379.68 . 0.086(5) . . .
1380.82 . 0.087(5) . . .
1381.97 . 0.076(5) . . .
1383.12 . 0.081(5) . . .
1384.27 . 0.081(5) . . .
1385.42 . 0.078(5) . . .
1386.57 . 0.088(5) . . .
1387.72 . 0.083(5) . . .
1388.88 . 0.081(5) . . .
1390.03 . 0.085(5) . . .
1391.18 . 0.082(5) . . .
1392.34 . 0.089(5) . . .
1393.50 . 0.080(5) . . .
1394.66 . 0.081(5) . . .
1395.81 . 0.085(5) . . .
1396.97 . 0.083(5) . . .
1398.13 . 0.073(5) . . .
1399.30 . 0.081(5) . . .
1400.46 . 0.086(5) . . .
1401.62 . 0.079(5) . . .
1402.79 . 0.078(5) . . .
1403.95 . 0.086(5) . . .
1405.12 . 0.077(5) . . .
1406.29 . 0.080(5) . . .
1407.46 . 0.084(5) . . .
1408.62 . 0.070(5) . . .
1409.80 . 0.083(5) . . .
1410.97 . 0.080(5) . . .
1412.14 . 0.083(5) . . .
1413.31 . 0.085(5) . . .
1414.49 . 0.086(5) . . .
1415.66 . 0.082(5) . . .
1416.84 . 0.089(5) . . .
1418.02 . 0.082(5) . . .
1419.19 . 0.082(5) . . .
1420.37 . 0.080(5) . . .
1421.55 . 0.070(5) . . .
1422.73 . 0.076(5) . . .
1423.92 . 0.077(5) . . .
1425.10 . 0.079(5) . . .
1426.28 . 0.086(5) . . .
1427.47 . 0.081(5) . . .
1428.65 . 0.075(5) . . .
1429.84 . 0.082(5) . . .
1431.03 . 0.081(5) . . .
1432.22 . 0.079(5) . . .
1433.41 . 0.079(5) . . .
1434.60 . 0.084(5) . . .
1435.79 . 0.088(5) . . .
1436.99 . 0.081(5) . . .
1438.18 . 0.088(5) . . .
1439.37 . 0.091(5) . . .
1440.57 . 0.083(5) . . .
1441.77 . 0.078(5) . . .
1442.97 . 0.082(5) . . .
1444.16 . 0.081(5) . . .
1445.36 . 0.081(5) . . .
1446.57 . 0.074(5) . . .
1447.77 . 0.079(5) . . .
1448.97 . 0.087(5) . . .
1450.17 . 0.083(5) . . .
1451.38 . 0.081(5) . . .
1452.59 . 0.082(5) . . .
1453.79 . 0.085(5) . . .
1455.00 . 0.076(5) . . .
1456.21 . 0.088(5) . . .
1457.42 . 0.076(5) . . .
1458.63 . 0.085(5) . . .
1459.84 . 0.085(5) . . .
1461.05 . 0.080(5) . . .
1462.27 . 0.082(5) . . .
1463.48 . 0.081(5) . . .
1464.70 . 0.080(5) . . .
1465.92 . 0.070(5) . . .
1467.13 . 0.080(5) . . .
1468.35 . 0.082(5) . . .
1469.57 . 0.079(5) . . .
1470.80 . 0.087(4) . . .
1472.02 . 0.077(5) . . .
1473.24 . 0.077(5) . . .
1474.46 . 0.079(5) . . .
1475.69 . 0.088(4) . . .
1476.92 . 0.085(5) . . .
1478.14 . 0.084(5) . . .
1479.37 . 0.084(5) . . .
1480.60 . 0.074(5) . . .
1481.83 . 0.094(4) . . .
1483.06 . 0.076(5) . . .
1484.29 . 0.084(5) . . .
1485.53 . 0.091(4) . . .
1486.76 . 0.083(5) . . .
1488.00 . 0.088(4) . . .
1489.23 . 0.086(5) . . .
1490.47 . 0.077(5) . . .
1491.71 . 0.081(5) . . .
1492.95 . 0.080(5) . . .
1494.19 . 0.076(5) . . .
1495.43 . 0.082(5) . . .
1496.67 . 0.084(4) . . .
1497.92 . 0.076(5) . . .
1499.16 . 0.084(4) . . .
1500.41 . 0.081(4) . . .
1501.65 . 0.084(5) . . .
1502.90 . 0.083(4) . . .
1504.15 . 0.088(4) . . .
1505.40 . 0.078(5) . . .
1506.65 . 0.090(4) . . .
1507.90 . 0.082(5) . . .
1509.16 . 0.086(4) . . .
1510.41 . 0.085(4) . . .
1511.66 . 0.088(4) . . .
1512.92 . 0.074(4) . . .
1514.18 . 0.089(4) . . .
1515.44 . 0.082(4) . . .
1516.70 . 0.073(5) . . .
1517.96 . 0.086(4) . . .
1519.22 . 0.082(4) . . .
1520.48 . 0.076(5) . . .
1521.74 . 0.079(5) . . .
1523.01 . 0.081(4) . . .
1524.27 . 0.081(4) . . .
1525.54 . 0.080(4) . . .
1526.81 . 0.085(4) . . .
1528.08 . 0.076(5) . . .
1529.34 . 0.086(4) . . .
1530.62 . 0.084(4) . . .
1531.89 . 0.086(4) . . .
1533.16 . 0.085(4) . . .
1534.43 . 0.094(4) . . .
1535.71 . 0.082(4) . . .
1536.99 . 0.084(4) . . .
1538.26 . 0.072(5) . . .
1539.54 . 0.086(4) . . .
1540.82 . 0.082(4) . . .
1542.10 . 0.083(4) . . .
1543.38 . 0.084(4) . . .
1544.66 . 0.077(4) . . .
1545.95 . 0.077(4) . . .
1547.23 . 0.084(4) . . .
1548.52 . 0.084(4) . . .
1549.80 . 0.084(4) . . .
1551.09 . 0.083(4) . . .
1552.38 . 0.076(4) . . .
1553.67 . 0.080(4) . . .
1554.96 . 0.079(4) . . .
1556.25 . 0.077(4) . . .
1557.55 . 0.085(4) . . .
1558.84 . 0.081(4) . . .
1560.14 . 0.078(4) . . .
1561.43 . 0.077(4) . . .
1562.73 . 0.074(4) . . .
1564.03 . 0.082(4) . . .
1565.33 . 0.082(4) . . .
1566.63 . 0.080(4) . . .
1567.93 . 0.084(4) . . .
1569.23 . 0.081(4) . . .
1570.54 . 0.071(4) . . .
1571.84 . 0.085(4) . . .
1573.15 . 0.079(4) . . .
1574.45 . 0.084(4) . . .
1575.76 . 0.082(4) . . .
1577.07 . 0.073(4) . . .
1578.38 . 0.080(4) . . .
1579.69 . 0.074(4) . . .
1581.01 . 0.081(4) . . .
1582.32 . 0.082(4) . . .
1583.64 . 0.076(4) . . .
1584.95 . 0.078(4) . . .
1586.27 . 0.078(4) . . .
1587.59 . 0.086(4) . . .
1588.91 . 0.079(4) . . .
1590.23 . 0.073(4) . . .
1591.55 . 0.076(4) . . .
1592.87 . 0.081(4) . . .
1594.19 . 0.090(4) . . .
1595.52 . 0.077(4) . . .
1596.84 . 0.082(4) . . .
1598.17 . 0.073(4) . . .
1599.50 . 0.083(4) . . .
1600.83 . 0.078(4) . . .
1602.16 . 0.073(4) . . .
1603.49 . 0.075(4) . . .
1604.82 . 0.075(4) . . .
1606.15 . 0.087(4) . . .
1607.49 . 0.078(4) . . .
1608.82 . 0.082(4) . . .
1610.16 . 0.072(4) . . .
1611.50 . 0.080(4) . . .
1612.84 . 0.080(4) . . .
1614.18 . 0.084(4) . . .
1615.52 . 0.089(4) . . .
1616.86 . 0.086(4) . . .
1618.21 . 0.085(4) . . .
1619.55 . 0.093(4) . . .
1620.90 . 0.081(4) . . .
1622.24 . 0.082(4) . . .
1623.59 . 0.085(4) . . .
1624.94 . 0.085(4) . . .
1626.29 . 0.079(4) . . .
1627.64 . 0.085(4) . . .
1628.99 . 0.081(4) . . .
1630.35 . 0.082(4) . . .
1631.70 . 0.078(4) . . .
1633.06 . 0.077(4) . . .
1634.41 . 0.083(4) . . .
1635.77 . 0.093(4) . . .
1637.13 . 0.084(4) . . .
1638.49 . 0.083(4) . . .
1639.85 . 0.087(4) . . .
1641.22 . 0.082(4) . . .
1642.58 . 0.081(4) . . .
1643.94 . 0.078(4) . . .
1645.31 . 0.079(4) . . .
1646.68 . 0.074(4) . . .
1648.05 . 0.078(4) . . .
1649.41 . 0.077(4) . . .
1650.79 . 0.083(4) . . .
1652.16 . 0.077(4) . . .
1653.53 . 0.083(4) . . .
1654.90 . 0.074(4) . . .
1656.28 . 0.084(4) . . .
1657.65 . 0.082(4) . . .
1659.03 . 0.080(4) . . .
1660.41 . 0.083(4) . . .
1661.79 . 0.076(4) . . .
1663.17 . 0.080(4) . . .
1664.55 . 0.077(4) . . .
1665.94 . 0.077(4) . . .
1667.32 . 0.086(4) . . .
1668.71 . 0.079(4) . . .
1670.09 . 0.079(4) . . .
1671.48 . 0.080(4) . . .
1672.87 . 0.074(4) . . .
1674.26 . 0.085(4) . . .
1675.65 . 0.071(4) . . .
1677.04 . 0.088(4) . . .
1678.44 . 0.077(4) . . .
1679.83 . 0.078(4) . . .
1681.23 . 0.074(4) . . .
1682.62 . 0.082(4) . . .
1684.02 . 0.081(4) . . .
1685.42 . 0.084(4) . . .
1686.82 . 0.083(4) . . .
1688.22 . 0.075(4) . . .
1689.63 . 0.074(4) . . .
1691.03 . 0.084(4) . . .
1692.43 . 0.077(4) . . .
1693.84 . 0.075(4) . . .
1695.25 . 0.082(4) . . .
1696.66 . 0.088(4) . . .
1698.07 . 0.080(4) . . .
1699.48 . 0.076(4) . . .
1700.89 . 0.075(4) . . .
1702.30 . 0.078(4) . . .
1703.72 . 0.079(4) . . .
1705.13 . 0.086(4) . . .
1706.55 . 0.074(4) . . .
1707.97 . 0.085(4) . . .
1709.39 . 0.084(4) . . .
1710.81 . 0.077(4) . . .
1712.23 . 0.075(4) . . .
1713.65 . 0.085(4) . . .
1715.08 . 0.088(4) . . .
1716.50 . 0.080(4) . . .
1717.93 . 0.084(4) . . .
1719.35 . 0.084(4) . . .
1720.78 . 0.081(4) . . .
1722.21 . 0.080(4) . . .
1723.64 . 0.081(4) . . .
1725.08 . 0.084(4) . . .
1726.51 . 0.080(4) . . .
1727.94 . 0.077(4) . . .
1729.38 . 0.074(4) . . .
1730.82 . 0.072(4) . . .
1732.25 . 0.079(4) . . .
1733.69 . 0.074(4) . . .
1735.13 . 0.068(4) . . .
1736.58 . 0.078(4) . . .
1738.02 . 0.086(4) . . .
1739.46 . 0.081(4) . . .
1740.91 . 0.084(4) . . .
1742.35 . 0.086(4) . . .
1743.80 . 0.078(4) . . .
1745.25 . 0.079(4) . . .
1746.70 . 0.077(4) . . .
1748.15 . 0.082(4) . . .
1749.61 . 0.086(4) . . .
1751.06 . 0.080(4) . . .
1752.51 . 0.073(4) . . .
1753.97 . 0.075(4) . . .
1755.43 . 0.076(4) . . .
1756.89 . 0.079(4) . . .
1758.35 . 0.077(4) . . .
1759.81 . 0.081(4) . . .
1761.27 . 0.073(4) . . .
1762.73 . 0.084(4) . . .
1764.20 . 0.075(4) . . .
1765.66 . 0.081(4) . . .
1767.13 . 0.084(4) . . .
1768.60 . 0.084(4) . . .
1770.07 . 0.077(4) . . .
1771.54 . 0.083(4) . . .
1773.01 . 0.079(4) . . .
1774.48 . 0.070(4) . . .
1775.96 . 0.081(4) . . .
1777.43 . 0.083(4) . . .
1778.91 . 0.080(4) . . .
1780.39 . 0.076(4) . . .
1781.87 . 0.078(4) . . .
1783.35 . 0.077(4) . . .
1784.83 . 0.082(4) . . .
1786.31 . 0.075(4) . . .
1787.80 . 0.081(4) . . .
1789.28 . 0.080(4) . . .
1790.77 . 0.083(4) . . .
1792.26 . 0.078(4) . . .
1793.75 . 0.083(4) . . .
1795.24 . 0.081(4) . . .
1796.73 . 0.081(4) . . .
1798.22 . 0.078(4) . . .
1799.72 . 0.085(4) . . .
1801.21 . 0.082(4) . . .
1802.71 . 0.077(4) . . .
1804.21 . 0.082(4) . . .
1805.71 . 0.081(4) . . .
1807.21 . 0.082(4) . . .
1808.71 . 0.075(4) . . .
1810.21 . 0.081(4) . . .
1811.71 . 0.074(4) . . .
1813.22 . 0.078(4) . . .
1814.73 . 0.086(4) . . .
1816.23 . 0.083(4) . . .
1817.74 . 0.085(4) . . .
1819.25 . 0.075(4) . . .
1820.77 . 0.081(4) . . .
1822.28 . 0.077(4) . . .
1823.79 . 0.081(4) . . .
1825.31 . 0.088(4) . . .
1826.83 . 0.082(4) . . .
1828.34 . 0.085(4) . . .
1829.86 . 0.089(4) . . .
1831.38 . 0.080(4) . . .
1832.90 . 0.085(4) . . .
1834.43 . 0.078(4) . . .
1835.95 . 0.079(4) . . .
1837.48 . 0.081(4) . . .
1839.00 . 0.081(4) . . .
1840.53 . 0.080(4) . . .
1842.06 . 0.079(4) . . .
1843.59 . 0.082(4) . . .
1845.12 . 0.086(4) . . .
1846.66 . 0.084(4) . . .
1848.19 . 0.084(4) . . .
1849.73 . 0.080(4) . . .
1851.26 . 0.084(4) . . .
1852.80 . 0.077(4) . . .
1854.34 . 0.077(4) . . .
1855.88 . 0.083(4) . . .
1857.42 . 0.084(4) . . .
1858.97 . 0.082(4) . . .
1860.51 . 0.084(4) . . .
1862.06 . 0.090(4) . . .
1863.60 . 0.077(4) . . .
1865.15 . 0.079(4) . . .
1866.70 . 0.074(4) . . .
1868.25 . 0.087(4) . . .
1869.81 . 0.087(4) . . .
1871.36 . 0.079(4) . . .
1872.92 . 0.085(4) . . .
1874.47 . 0.082(4) . . .
1876.03 . 0.081(4) . . .
1877.59 . 0.091(4) . . .
1879.15 . 0.073(4) . . .
1880.71 . 0.079(4) . . .
1882.27 . 0.080(4) . . .
1883.84 . 0.077(4) . . .
1885.40 . 0.077(4) . . .
1886.97 . 0.083(4) . . .
1888.54 . 0.075(4) . . .
1890.11 . 0.083(4) . . .
1891.68 . 0.072(4) . . .
1893.25 . 0.080(4) . . .
1894.82 . 0.076(4) . . .
1896.39 . 0.077(4) . . .
1897.97 . 0.078(4) . . .
1899.55 . 0.080(4) . . .
1901.13 . 0.068(4) . . .
1902.71 . 0.079(4) . . .
1904.29 . 0.077(4) . . .
1905.87 . 0.077(4) . . .
1907.45 . 0.080(4) . . .
1909.04 . 0.072(4) . . .
1910.62 . 0.076(4) . . .
1912.21 . 0.075(4) . . .
1913.80 . 0.076(4) . . .
1915.39 . 0.080(4) . . .
1916.98 . 0.081(4) . . .
1918.57 . 0.083(4) . . .
1920.17 . 0.081(4) . . .
1921.76 . 0.080(4) . . .
1923.36 . 0.077(4) . . .
1924.96 . 0.074(4) . . .
1926.56 . 0.074(4) . . .
1928.16 . 0.080(4) . . .
1929.76 . 0.083(4) . . .
1931.37 . 0.075(4) . . .
1932.97 . 0.080(4) . . .
1934.58 . 0.079(4) . . .
1936.18 . 0.087(4) . . .
1937.79 . 0.075(4) . . .
1939.40 . 0.076(4) . . .
1941.01 . 0.077(4) . . .
1942.63 . 0.081(4) . . .
1944.24 . 0.078(4) . . .
1945.86 . 0.081(4) . . .
1947.47 . 0.082(4) . . .
1949.09 . 0.078(4) . . .
1950.71 . 0.080(4) . . .
1952.33 . 0.073(4) . . .
1953.95 . 0.081(4) . . .
1955.58 . 0.083(4) . . .
1957.20 . 0.077(4) . . .
1958.83 . 0.078(4) . . .
1960.46 . 0.072(4) . . .
1962.08 . 0.074(4) . . .
1963.72 . 0.076(4) . . .
1965.35 . 0.082(4) . . .
1966.98 . 0.072(4) . . .
1968.61 . 0.077(4) . . .
1970.25 . 0.084(4) . . .
1971.89 . 0.079(4) . . .
1973.53 . 0.077(4) . . .
1975.17 . 0.083(4) . . .
1976.81 . 0.083(4) . . .
1978.45 . 0.082(4) . . .
1980.09 . 0.080(4) . . .
1981.74 . 0.078(4) . . .
1983.39 . 0.079(4) . . .
1985.03 . 0.076(4) . . .
1986.68 . 0.073(4) . . .
1988.33 . 0.080(4) . . .
1989.99 . 0.076(4) . . .
1991.64 . 0.081(4) . . .
1993.29 . 0.077(4) . . .
1994.95 . 0.081(4) . . .
1996.61 . 0.082(4) . . .
1998.27 . 0.082(4) . . .
1999.93 . 0.083(4) . . .
2001.59 . 0.085(4) . . .
2003.25 . 0.086(4) . . .
2004.92 . 0.078(4) . . .
2006.58 . 0.079(4) . . .
2008.25 . 0.084(4) . . .
2009.92 . 0.078(4) . . .
2011.59 . 0.088(4) . . .
2013.26 . 0.078(4) . . .
2014.93 . 0.089(4) . . .
2016.61 . 0.080(4) . . .
2018.28 . 0.084(4) . . .
2019.96 . 0.077(4) . . .
2021.64 . 0.080(4) . . .
2023.32 . 0.088(4) . . .
2025.00 . 0.072(4) . . .
2026.68 . 0.081(4) . . .
2028.37 . 0.084(4) . . .
2030.05 . 0.089(4) . . .
2031.74 . 0.083(4) . . .
2033.43 . 0.082(4) . . .
2035.12 . 0.084(4) . . .
2036.81 . 0.083(4) . . .
2038.50 . 0.070(4) . . .
2040.19 . 0.075(4) . . .
2041.89 . 0.077(4) . . .
2043.58 . 0.081(4) . . .
2045.28 . 0.080(4) . . .
2046.98 . 0.077(4) . . .
2048.68 . 0.078(4) . . .
2050.38 . 0.079(4) . . .
2052.09 . 0.078(4) . . .
2053.79 . 0.078(4) . . .
2055.50 . 0.088(4) . . .
2057.21 . 0.074(4) . . .
2058.92 . 0.079(4) . . .
2060.63 . 0.083(4) . . .
2062.34 . 0.084(4) . . .
2064.05 . 0.085(4) . . .
2065.77 . 0.079(4) . . .
2067.49 . 0.081(4) . . .
2069.20 . 0.080(4) . . .
2070.92 . 0.077(4) . . .
2072.64 . 0.080(4) . . .
2074.37 . 0.083(4) . . .
2076.09 . 0.084(4) . . .
2077.81 . 0.078(4) . . .
2079.54 . 0.081(4) . . .
2081.27 . 0.081(4) . . .
2083.00 . 0.081(4) . . .
2084.73 . 0.076(4) . . .
2086.46 . 0.074(4) . . .
2088.19 . 0.081(4) . . .
2089.93 . 0.082(4) . . .
2091.67 . 0.083(4) . . .
2093.40 . 0.084(4) . . .
2095.14 . 0.086(4) . . .
2096.88 . 0.086(4) . . .
2098.63 . 0.084(4) . . .
2100.37 . 0.085(4) . . .
2102.12 . 0.074(4) . . .
2103.86 . 0.086(4) . . .
2105.61 . 0.080(4) . . .
2107.36 . 0.079(4) . . .
2109.11 . 0.081(4) . . .
2110.86 . 0.079(4) . . .
2112.62 . 0.083(4) . . .
2114.37 . 0.082(4) . . .
2116.13 . 0.082(4) . . .
2117.89 . 0.077(4) . . .
2119.65 . 0.082(4) . . .
2121.41 . 0.078(4) . . .
2123.17 . 0.081(4) . . .
2124.94 . 0.081(4) . . .
2126.70 . 0.080(4) . . .
2128.47 . 0.081(4) . . .
2130.24 . 0.078(4) . . .
2132.01 . 0.078(4) . . .
2133.78 . 0.082(4) . . .
2135.55 . 0.080(4) . . .
2137.33 . 0.081(4) . . .
2139.10 . 0.083(4) . . .
2140.88 . 0.083(4) . . .
2142.66 . 0.081(4) . . .
2144.44 . 0.083(4) . . .
2146.22 . 0.079(4) . . .
2148.00 . 0.080(4) . . .
2149.79 . 0.075(4) . . .
2151.57 . 0.079(4) . . .
2153.36 . 0.080(4) . . .
2155.15 . 0.080(4) . . .
2156.94 . 0.078(4) . . .
2158.73 . 0.082(4) . . .
2160.53 . 0.083(4) . . .
2162.32 . 0.071(4) . . .
2164.12 . 0.083(4) . . .
2165.92 . 0.073(4) . . .
2167.72 . 0.077(4) . . .
2169.52 . 0.073(4) . . .
2171.32 . 0.083(4) . . .
2173.13 . 0.081(4) . . .
2174.93 . 0.082(4) . . .
2176.74 . 0.083(4) . . .
2178.55 . 0.074(4) . . .
2180.36 . 0.072(4) . . .
2182.17 . 0.079(4) . . .
2183.98 . 0.081(4) . . .
2185.80 . 0.076(4) . . .
2187.61 . 0.076(4) . . .
2189.43 . 0.085(4) . . .
2191.25 . 0.080(4) . . .
2193.07 . 0.076(4) . . .
2194.89 . 0.075(4) . . .
2196.72 . 0.082(4) . . .
2198.54 . 0.083(4) . . .
2200.37 . 0.075(4) . . .
2202.20 . 0.080(4) . . .
2204.03 . 0.073(4) . . .
2205.86 . 0.073(4) . . .
2207.69 . 0.075(4) . . .
2209.53 . 0.077(4) . . .
2211.36 . 0.068(4) . . .
2213.20 . 0.085(4) . . .
2215.04 . 0.079(4) . . .
2216.88 . 0.080(4) . . .
2218.72 . 0.080(4) . . .
2220.56 . 0.076(4) . . .
2222.41 . 0.071(4) . . .
2224.26 . 0.077(4) . . .
2226.10 . 0.080(4) . . .
2227.95 . 0.078(4) . . .
2229.80 . 0.085(4) . . .
2231.66 . 0.079(4) . . .
2233.51 . 0.085(4) . . .
2235.37 . 0.077(4) . . .
2237.23 . 0.078(4) . . .
2239.08 . 0.075(4) . . .
2240.94 . 0.079(4) . . .
2242.81 . 0.082(4) . . .
2244.67 . 0.075(4) . . .
2246.54 . 0.079(4) . . .
2248.40 . 0.082(4) . . .
2250.27 . 0.083(4) . . .
2252.14 . 0.082(4) . . .
2254.01 . 0.074(4) . . .
2255.88 . 0.078(4) . . .
2257.76 . 0.074(4) . . .
2259.63 . 0.084(4) . . .
2261.51 . 0.084(4) . . .
2263.39 . 0.081(4) . . .
2265.27 . 0.078(4) . . .
2267.15 . 0.074(4) . . .
2269.04 . 0.079(4) . . .
2270.92 . 0.076(4) . . .
2272.81 . 0.081(4) . . .
2274.70 . 0.080(4) . . .
2276.59 . 0.080(4) . . .
2278.48 . 0.075(4) . . .
2280.37 . 0.079(4) . . .
2282.27 . 0.074(4) . . .
2284.16 . 0.078(4) . . .
2286.06 . 0.073(4) . . .
2287.96 . 0.086(4) . . .
2289.86 . 0.078(4) . . .
2291.77 . 0.083(4) . . .
2293.67 . 0.082(4) . . .
2295.58 . 0.081(4) . . .
2297.48 . 0.082(4) . . .
2299.39 . 0.079(4) . . .
2301.30 . 0.073(4) . . .
2303.21 . 0.077(4) . . .
2305.13 . 0.083(4) . . .
2307.04 . 0.074(4) . . .
2308.96 . 0.078(4) . . .
2310.88 . 0.081(4) . . .
2312.80 . 0.087(4) . . .
2314.72 . 0.080(4) . . .
2316.64 . 0.076(4) . . .
2318.57 . 0.080(4) . . .
2320.50 . 0.081(4) . . .
2322.42 . 0.077(4) . . .
2324.35 . 0.081(4) . . .
2326.29 . 0.083(4) . . .
2328.22 . 0.083(4) . . .
2330.15 . 0.078(4) . . .
2332.09 . 0.075(4) . . .
2334.03 . 0.079(4) . . .
2335.97 . 0.084(4) . . .
2337.91 . 0.074(4) . . .
2339.85 . 0.084(4) . . .
2341.79 . 0.081(4) . . .
2343.74 . 0.084(4) . . .
2345.69 . 0.076(4) . . .
2347.64 . 0.084(4) . . .
2349.59 . 0.081(4) . . .
2351.54 . 0.086(4) . . .
2353.49 . 0.081(4) . . .
2355.45 . 0.078(4) . . .
2357.41 . 0.086(4) . . .
2359.36 . 0.083(4) . . .
2361.32 . 0.072(4) . . .
2363.29 . 0.079(4) . . .
2365.25 . 0.083(4) . . .
2367.22 . 0.083(4) . . .
2369.18 . 0.082(4) . . .
2371.15 . 0.081(4) . . .
2373.12 . 0.084(4) . . .
2375.09 . 0.078(4) . . .
2377.07 . 0.078(4) . . .
2379.04 . 0.087(4) . . .
2381.02 . 0.080(4) . . .
2383.00 . 0.070(4) . . .
2384.98 . 0.078(4) . . .
2386.96 . 0.079(4) . . .
2388.94 . 0.083(4) . . .
2390.93 . 0.081(4) . . .
2392.91 . 0.078(4) . . .
2394.90 . 0.080(4) . . .
2396.89 . 0.078(4) . . .
2398.88 . 0.084(4) . . .
2400.88 . 0.087(4) . . .
2402.87 . 0.080(4) . . .
2404.87 . 0.078(4) . . .
2406.87 . 0.081(4) . . .
2408.87 . 0.081(4) . . .
2410.87 . 0.078(4) . . .
2412.87 . 0.084(4) . . .
2414.88 . 0.073(4) . . .
2416.88 . 0.084(4) . . .
2418.89 . 0.085(4) . . .
2420.90 . 0.076(4) . . .
2422.91 . 0.083(4) . . .
2424.93 . 0.085(4) . . .
2426.94 . 0.077(4) . . .
2428.96 . 0.079(4) . . .
2430.97 . 0.082(4) . . .
2432.99 . 0.078(4) . . .
2435.02 . 0.082(4) . . .
2437.04 . 0.082(4) . . .
2439.06 . 0.077(4) . . .
2441.09 . 0.084(4) . . .
2443.12 . 0.081(4) . . .
2445.15 . 0.076(4) . . .
2447.18 . 0.081(4) . . .
2449.21 . 0.081(4) . . .
2451.25 . 0.082(4) . . .
2453.29 . 0.084(4) . . .
2455.32 . 0.078(4) . . .
2457.37 . 0.085(4) . . .
2459.41 . 0.075(4) . . .
2461.45 . 0.076(4) . . .
2463.50 . 0.081(4) . . .
2465.54 . 0.082(4) . . .
2467.59 . 0.083(4) . . .
2469.64 . 0.081(4) . . .
2471.69 . 0.079(4) . . .
2473.75 . 0.088(4) . . .
2475.80 . 0.072(4) . . .
2477.86 . 0.085(4) . . .
2479.92 . 0.085(4) . . .
2481.98 . 0.084(4) . . .
2484.04 . 0.083(4) . . .
2486.11 . 0.083(4) . . .
2488.17 . 0.083(4) . . .
2490.24 . 0.083(4) . . .
2492.31 . 0.076(4) . . .
2494.38 . 0.080(4) . . .
2496.45 . 0.088(4) . . .
2498.53 . 0.079(4) . . .
2500.60 . 0.078(4) . . .
2502.68 . 0.081(4) . . .
2504.76 . 0.077(4) . . .
2506.84 . 0.084(4) . . .
2508.92 . 0.086(4) . . .
2511.01 . 0.080(4) . . .
2513.09 . 0.079(4) . . .
2515.18 . 0.081(4) . . .
2517.27 . 0.086(4) . . .
2519.36 . 0.086(4) . . .
2521.46 . 0.073(4) . . .
2523.55 . 0.085(4) . . .
2525.65 . 0.077(4) . . .
2527.75 . 0.083(4) . . .
2529.85 . 0.078(4) . . .
2531.95 . 0.082(4) . . .
2534.05 . 0.084(4) . . .
2536.16 . 0.075(4) . . .
2538.27 . 0.075(4) . . .
2540.38 . 0.084(4) . . .
2542.49 . 0.087(4) . . .
2544.60 . 0.082(4) . . .
2546.71 . 0.078(4) . . .
2548.83 . 0.079(4) . . .
2550.95 . 0.084(4) . . .
2553.07 . 0.082(4) . . .
2555.19 . 0.082(4) . . .
2557.31 . 0.075(4) . . .
2559.44 . 0.082(4) . . .
2561.56 . 0.079(4) . . .
2563.69 . 0.084(4) . . .
2565.82 . 0.080(4) . . .
2567.95 . 0.086(4) . . .
2570.09 . 0.083(4) . . .
2572.22 . 0.079(4) . . .
2574.36 . 0.083(4) . . .
2576.50 . 0.081(4) . . .
2578.64 . 0.076(4) . . .
2580.78 . 0.084(4) . . .
2582.93 . 0.080(4) . . .
2585.07 . 0.087(4) . . .
2587.22 . 0.079(4) . . .
2589.37 . 0.084(4) . . .
2591.52 . 0.077(4) . . .
2593.68 . 0.084(4) . . .
2595.83 . 0.079(4) . . .
2597.99 . 0.083(4) . . .
2600.15 . 0.084(4) . . .
2602.31 . 0.081(4) . . .
2604.47 . 0.084(4) . . .
2606.63 . 0.081(4) . . .
2608.80 . 0.081(4) . . .
2610.97 . 0.081(4) . . .
2613.14 . 0.082(4) . . .
2615.31 . 0.083(4) . . .
2617.48 . 0.083(4) . . .
2619.66 . 0.078(4) . . .
2621.83 . 0.078(4) . . .
2624.01 . 0.084(4) . . .
2626.19 . 0.084(4) . . .
2628.37 . 0.086(4) . . .
2630.56 . 0.083(4) . . .
2632.74 . 0.081(4) . . .
2634.93 . 0.083(4) . . .
2637.12 . 0.085(4) . . .
2639.31 . 0.084(4) . . .
2641.50 . 0.078(4) . . .
2643.70 . 0.082(4) . . .
2645.90 . 0.089(4) . . .
2648.09 . 0.083(4) . . .
2650.29 . 0.081(4) . . .
2652.50 . 0.079(4) . . .
2654.70 . 0.079(4) . . .
2656.91 . 0.090(4) . . .
2659.11 . 0.087(4) . . .
2661.32 . 0.085(4) . . .
2663.53 . 0.086(4) . . .
2665.75 . 0.082(4) . . .
2667.96 . 0.080(4) . . .
2670.18 . 0.084(4) . . .
2672.40 . 0.089(4) . . .
2674.62 . 0.090(4) . . .
2676.84 . 0.085(4) . . .
2679.07 . 0.087(4) . . .
2681.29 . 0.079(4) . . .
2683.52 . 0.091(4) . . .
2685.75 . 0.088(4) . . .
2687.98 . 0.088(4) . . .
2690.21 . 0.082(4) . . .
2692.45 . 0.084(4) . . .
2694.69 . 0.081(4) . . .
2696.93 . 0.086(4) . . .
2699.17 . 0.086(4) . . .
2701.41 . 0.091(4) . . .
2703.65 . 0.083(4) . . .
2705.90 . 0.087(4) . . .
2708.15 . 0.085(4) . . .
2710.40 . 0.086(4) . . .
2712.65 . 0.088(4) . . .
2714.91 . 0.078(4) . . .
2717.16 . 0.086(4) . . .
2719.42 . 0.085(4) . . .
2721.68 . 0.088(4) . . .
2723.94 . 0.085(4) . . .
2726.20 . 0.084(4) . . .
2728.47 . 0.078(4) . . .
2730.74 . 0.087(4) . . .
2733.00 . 0.084(4) . . .
2735.28 . 0.081(4) . . .
2737.55 . 0.082(4) . . .
2739.82 . 0.083(4) . . .
2742.10 . 0.081(4) . . .
2744.38 . 0.087(4) . . .
2746.66 . 0.078(4) . . .
2748.94 . 0.086(4) . . .
2751.22 . 0.081(4) . . .
2753.51 . 0.083(4) . . .
2755.80 . 0.080(4) . . .
2758.09 . 0.080(4) . . .
2760.38 . 0.081(4) . . .
2762.67 . 0.073(4) . . .
2764.97 . 0.076(4) . . .
2767.27 . 0.081(4) . . .
2769.57 . 0.0873(35) . . .
2771.87 . 0.085(4) . . .
2774.17 . 0.081(4) . . .
2776.47 . 0.088(4) . . .
2778.78 . 0.082(4) . . .
2781.09 . 0.084(4) . . .
2783.40 . 0.075(4) . . .
2785.71 . 0.086(4) . . .
2788.03 . 0.083(4) . . .
2790.35 . 0.082(4) . . .
2792.66 . 0.081(4) . . .
2794.98 . 0.081(4) . . .
2797.31 . 0.084(4) . . .
2799.63 . 0.0894(35) . . .
2801.96 . 0.077(4) . . .
2804.29 . 0.084(4) . . .
2806.62 . 0.080(4) . . .
2808.95 . 0.082(4) . . .
2811.28 . 0.080(4) . . .
2813.62 . 0.0870(35) . . .
2815.96 . 0.080(4) . . .
2818.30 . 0.080(4) . . .
2820.64 . 0.0876(35) . . .
2822.98 . 0.0822(35) . . .
2825.33 . 0.0895(35) . . .
2827.67 . 0.0882(35) . . .
2830.02 . 0.0824(35) . . .
2832.38 . 0.080(4) . . .
2834.73 . 0.0824(35) . . .
2837.08 . 0.077(4) . . .
2839.44 . 0.0812(35) . . .
2841.80 . 0.0832(35) . . .
2844.16 . 0.0860(35) . . .
2846.52 . 0.0864(35) . . .
2848.89 . 0.083(4) . . .
2851.26 . 0.0821(35) . . .
2853.63 . 0.080(4) . . .
2856.00 . 0.0830(35) . . .
2858.37 . 0.0851(35) . . .
2860.75 . 0.0855(35) . . .
2863.12 . 0.0855(34) . . .
2865.50 . 0.0824(35) . . .
2867.88 . 0.0848(35) . . .
2870.27 . 0.0826(35) . . .
2872.65 . 0.0744(35) . . .
2875.04 . 0.0819(35) . . .
2877.43 . 0.0826(35) . . .
2879.82 . 0.0839(35) . . .
2882.21 . 0.0831(35) . . .
2884.60 . 0.0875(34) . . .
2887.00 . 0.0846(34) . . .
2889.40 . 0.0793(35) . . .
2891.80 . 0.0806(35) . . .
2894.20 . 0.0810(35) . . .
2896.61 . 0.0847(35) . . .
2899.02 . 0.0807(35) . . .
2901.42 . 0.0810(35) . . .
2903.84 . 0.0800(35) . . .
2906.25 . 0.0778(34) . . .
2908.66 . 0.0810(34) . . .
2911.08 . 0.0818(35) . . .
2913.50 . 0.0833(34) . . .
2915.92 . 0.0808(34) . . .
2918.34 . 0.0772(34) . . .
2920.77 . 0.0782(35) . . .
2923.19 . 0.0827(35) . . .
2925.62 . 0.0837(35) . . .
2928.05 . 0.0841(34) . . .
2930.49 . 0.0849(34) . . .
2932.92 . 0.0801(34) . . .
2935.36 . 0.0890(34) . . .
2937.80 . 0.0757(35) . . .
2940.24 . 0.0844(34) . . .
2942.68 . 0.0900(34) . . .
2945.13 . 0.0844(34) . . .
2947.57 . 0.0789(35) . . .
2950.02 . 0.0882(34) . . .
2952.47 . 0.0798(35) . . .
2954.93 . 0.0819(34) . . .
2957.38 . 0.0891(34) . . .
2959.84 . 0.0852(34) . . .
2962.30 . 0.0818(34) . . .
2964.76 . 0.0826(35) . . .
2967.22 . 0.0863(34) . . .
2969.69 . 0.0879(34) . . .
2972.16 . 0.0829(34) . . .
2974.63 . 0.0792(35) . . .
2977.10 . 0.0821(34) . . .
2979.57 . 0.0801(34) . . .
2982.05 . 0.0775(35) . . .
2984.53 . 0.0876(34) . . .
2987.01 . 0.0833(34) . . .
2989.49 . 0.0831(34) . . .
2991.97 . 0.0808(34) . . .
2994.46 . 0.0856(34) . . .
2996.95 . 0.0811(34) . . .
2999.44 . 0.0882(34) . . .
3001.93 . 0.0838(34) . . .
3004.42 . 0.0843(34) . . .
3006.92 . 0.0834(34) . . .
3009.42 . 0.0837(34) . . .
3011.92 . 0.0865(34) . . .
3014.42 . 0.0801(34) . . .
3016.93 . 0.0853(34) . . .
3019.43 . 0.0790(34) . . .
3021.94 . 0.0785(34) . . .
3024.45 . 0.0775(34) . . .
3026.97 . 0.0853(34) . . .
3029.48 . 0.0777(34) . . .
3032.00 . 0.0860(34) . . .
3034.52 . 0.0838(34) . . .
3037.04 . 0.0807(34) . . .
3039.56 . 0.0810(34) . . .
3042.09 . 0.0813(34) . . .
3044.61 . 0.0877(34) . . .
3047.14 . 0.0772(34) . . .
3049.68 . 0.0816(34) . . .
3052.21 . 0.0787(34) . . .
3054.75 . 0.0762(34) . . .
3057.29 . 0.0810(34) . . .
3059.83 . 0.0860(34) . . .
3062.37 . 0.0783(34) . . .
3064.91 . 0.0855(34) . . .
3067.46 . 0.0868(34) . . .
3070.01 . 0.0868(34) . . .
3072.56 . 0.0846(34) . . .
3075.11 . 0.0827(34) . . .
3077.67 . 0.0794(34) . . .
3080.22 . 0.0806(34) . . .
3082.78 . 0.0868(34) . . .
3085.34 . 0.0905(34) . . .
3087.91 . 0.0815(34) . . .
3090.47 . 0.0892(34) . . .
3093.04 . 0.0831(34) . . .
3095.61 . 0.0794(34) . . .
3098.18 . 0.0847(34) . . .
3100.76 . 0.0842(34) . . .
3103.33 . 0.0858(34) . . .
3105.91 . 0.0840(34) . . .
3108.49 . 0.0855(34) . . .
3111.08 . 0.0861(34) . . .
3113.66 . 0.0863(34) . . .
3116.25 . 0.0875(34) . . .
3118.84 . 0.0813(34) . . .
3121.43 . 0.0876(34) . . .
3124.02 . 0.0834(34) . . .
3126.62 . 0.0915(34) . . .
3129.22 . 0.0810(34) . . .
3131.82 . 0.0912(34) . . .
3134.42 . 0.0857(34) . . .
3137.02 . 0.0859(34) . . .
3139.63 . 0.0846(34) . . .
3142.24 . 0.0900(34) . . .
3144.85 . 0.0896(34) . . .
3147.46 . 0.0884(34) . . .
3150.08 . 0.0885(34) . . .
3152.70 . 0.0792(34) . . .
3155.32 . 0.0852(34) . . .
3157.94 . 0.0810(34) . . .
3160.56 . 0.0808(34) . . .
3163.19 . 0.0856(34) . . .
3165.82 . 0.0874(34) . . .
3168.45 . 0.0793(34) . . .
3171.08 . 0.0902(34) . . .
3173.71 . 0.0821(34) . . .
3176.35 . 0.0854(34) . . .
3178.99 . 0.0877(34) . . .
3181.63 . 0.0911(33) . . .
3184.28 . 0.0888(34) . . .
3186.92 . 0.0890(34) . . .
3189.57 . 0.0902(34) . . .
3192.22 . 0.0851(34) . . .
3194.87 . 0.0819(34) . . .
3197.53 . 0.0808(34) . . .
3200.18 . 0.0867(34) . . .
3202.84 . 0.0850(34) . . .
3205.50 . 0.0861(34) . . .
3208.17 . 0.0886(34) . . .
3210.83 . 0.0823(34) . . .
3213.50 . 0.0870(34) . . .
3216.17 . 0.0876(34) . . .
3218.84 . 0.0835(34) . . .
3221.52 . 0.0827(34) . . .
3224.19 . 0.0891(34) . . .
3226.87 . 0.0910(33) . . .
3229.55 . 0.0880(33) . . .
3232.24 . 0.0867(34) . . .
3234.92 . 0.0850(34) . . .
3237.61 . 0.0913(34) . . .
3240.30 . 0.0867(34) . . .
3242.99 . 0.0881(34) . . .
3245.69 . 0.0891(34) . . .
3248.39 . 0.0892(33) . . .
3251.08 . 0.0897(34) . . .
3253.79 . 0.0889(33) . . .
3256.49 . 0.0878(33) . . .
3259.20 . 0.0911(34) . . .
3261.90 . 0.0845(34) . . .
3264.61 . 0.0902(34) . . .
3267.33 . 0.0911(34) . . .
3270.04 . 0.0833(34) . . .
3272.76 . 0.0870(34) . . .
3275.48 . 0.0860(34) . . .
3278.20 . 0.0851(34) . . .
3280.92 . 0.0880(34) . . .
3283.65 . 0.0911(34) . . .
3286.38 . 0.0859(34) . . .
3289.11 . 0.0944(34) . . .
3291.84 . 0.0831(34) . . .
3294.58 . 0.0912(34) . . .
3297.31 . 0.0860(34) . . .
3300.05 . 0.0850(34) . . .
3302.80 . 0.0889(33) . . .
3305.54 . 0.0918(33) . . .
3308.29 . 0.0820(34) . . .
3311.04 . 0.0814(34) . . .
3313.79 . 0.0919(33) . . .
3316.54 . 0.0912(33) . . .
3319.30 . 0.0847(34) . . .
3322.05 . 0.0924(33) . . .
3324.81 . 0.0856(34) . . .
3327.58 . 0.0847(34) . . .
3330.34 . 0.0894(33) . . .
3333.11 . 0.0910(34) . . .
3335.88 . 0.0895(33) . . .
3338.65 . 0.0875(34) . . .
3341.43 . 0.0889(34) . . .
3344.20 . 0.0857(33) . . .
3346.98 . 0.0891(33) . . .
3349.76 . 0.0836(34) . . .
3352.54 . 0.0847(33) . . .
3355.33 . 0.0926(33) . . .
3358.12 . 0.0852(33) . . .
3360.91 . 0.0895(33) . . .
3363.70 . 0.0937(33) . . .
3366.50 . 0.0909(33) . . .
3369.29 . 0.0940(33) . . .
3372.09 . 0.0888(33) . . .
3374.89 . 0.0953(33) . . .
3377.70 . 0.0929(33) . . .
3380.50 . 0.0955(32) . . .
3383.31 . 0.0850(33) . . .
3386.13 . 0.0891(33) . . .
3388.94 . 0.0867(33) . . .
3391.75 . 0.0887(33) . . .
3394.57 . 0.0823(33) . . .
3397.39 . 0.0816(33) . . .
3400.22 . 0.0876(33) . . .
3403.04 . 0.0877(33) . . .
3405.87 . 0.0884(33) . . .
3408.70 . 0.0887(33) . . .
3411.53 . 0.0876(33) . . .
3414.37 . 0.0900(33) . . .
3417.20 . 0.0851(33) . . .
3420.04 . 0.0867(33) . . .
3422.88 . 0.0846(33) . . .
3425.73 . 0.0917(32) . . .
3428.57 . 0.0860(33) . . .
3431.42 . 0.0802(33) . . .
3434.27 . 0.0900(32) . . .
3437.13 . 0.0881(32) . . .
3439.98 . 0.0839(33) . . .
3442.84 . 0.0834(32) . . .
3445.70 . 0.0861(32) . . .
3448.57 . 0.0830(33) . . .
3451.43 . 0.0811(32) . . .
3454.30 . 0.0848(32) . . .
3457.17 . 0.0859(32) . . .
3460.04 . 0.0863(32) . . .
3462.92 . 0.0841(32) . . .
3465.79 . 0.0844(32) . . .
3468.67 . 0.0867(32) . . .
3471.56 . 0.0841(32) . . .
3474.44 . 0.0886(32) . . .
3477.33 . 0.0844(32) . . .
3480.22 . 0.0804(32) . . .
3483.11 . 0.0839(32) . . .
3486.00 . 0.0856(32) . . .
3488.90 . 0.0855(32) . . .
3491.80 . 0.0902(32) . . .
3494.70 . 0.0876(32) . . .
3497.60 . 0.0889(32) . . .
3500.51 . 0.0844(32) . . .
3503.42 . 0.0801(32) . . .
3506.33 . 0.0852(32) . . .
3509.2 . 0.0839(32) . . .
3512.2 . 0.0826(32) . . .
3515.1 . 0.0809(32) . . .
3518.0 . 0.0838(32) . . .
3520.9 . 0.0828(32) . . .
3523.8 . 0.0878(32) . . .
3526.8 . 0.0831(32) . . .
3529.7 . 0.0814(32) . . .
3532.6 . 0.0880(32) . . .
3535.6 . 0.0849(32) . . .
3538.5 . 0.0799(32) . . .
3541.5 . 0.0802(32) . . .
3544.4 . 0.0858(31) . . .
3547.3 . 0.0819(32) . . .
3550.3 . 0.0806(32) . . .
3553.2 . 0.0850(31) . . .
3556.2 . 0.0894(31) . . .
3559.1 . 0.0849(31) . . .
3562.1 . 0.0846(31) . . .
3565.1 . 0.0856(31) . . .
3568.0 . 0.0870(31) . . .
3571.0 . 0.0827(32) . . .
3574.0 . 0.0844(31) . . .
3576.9 . 0.0851(31) . . .
3579.9 . 0.0840(32) . . .
3582.9 . 0.0839(32) . . .
3585.8 . 0.0868(31) . . .
3588.8 . 0.0861(31) . . .
3591.8 . 0.0834(31) . . .
3594.8 . 0.0874(31) . . .
3597.8 . 0.0862(31) . . .
3600.8 . 0.0799(32) . . .
3603.8 . 0.0888(31) . . .
3606.8 . 0.0801(32) . . .
3609.8 . 0.0815(32) . . .
3612.8 . 0.0847(31) . . .
3615.8 . 0.0886(31) . . .
3618.8 . 0.0870(31) . . .
3621.8 . 0.0831(31) . . .
3624.8 . 0.0794(32) . . .
3627.8 . 0.0852(31) . . .
3630.8 . 0.0835(32) . . .
3633.8 . 0.0820(31) . . .
3636.8 . 0.0917(31) . . .
3639.9 . 0.0788(32) . . .
3642.9 . 0.0820(31) . . .
3645.9 . 0.0831(32) . . .
3648.9 . 0.0865(31) . . .
3652.0 . 0.0839(31) . . .
3655.0 . 0.0855(31) . . .
3658.0 . 0.0883(31) . . .
3661.1 . 0.0840(31) . . .
3664.1 . 0.0841(31) . . .
3667.2 . 0.0805(32) . . .
3670.2 . 0.0874(31) . . .
3673.3 . 0.0861(31) . . .
3676.3 . 0.0802(32) . . .
3679.4 . 0.0854(32) . . .
3682.4 . 0.0889(31) . . .
3685.5 . 0.0842(32) . . .
3688.6 . 0.0847(32) . . .
3691.6 . 0.0887(32) . . .
3694.7 . 0.0874(31) . . .
3697.8 . 0.0922(31) . . .
3700.8 . 0.0832(32) . . .
3703.9 . 0.0851(32) . . .
3707.0 . 0.0869(31) . . .
3710.1 . 0.0855(32) . . .
3713.1 . 0.0842(32) . . .
3716.2 . 0.0896(31) . . .
3719.3 . 0.0862(32) . . .
3722.4 . 0.0921(31) . . .
3725.5 . 0.0844(32) . . .
3728.6 . 0.0880(32) . . .
3731.7 . 0.0910(31) . . .
3734.8 . 0.0885(31) . . .
3737.9 . 0.0853(32) . . .
3741.0 . 0.0878(32) . . .
3744.1 . 0.0898(31) . . .
3747.2 . 0.0888(32) . . .
3750.3 . 0.0880(32) . . .
3753.5 . 0.0933(31) . . .
3756.6 . 0.0844(32) . . .
3759.7 . 0.0925(32) . . .
3762.8 . 0.0919(32) . . .
3765.9 . 0.0866(32) . . .
3769.1 . 0.0904(32) . . .
3772.2 . 0.0893(32) . . .
3775.3 . 0.0906(31) . . .
3778.5 . 0.0867(32) . . .
3781.6 . 0.0893(32) . . .
3784.8 . 0.0902(32) . . .
3787.9 . 0.0897(32) . . .
3791.0 . 0.0911(32) . . .
3794.2 . 0.0880(32) . . .
3797.4 . 0.0867(32) . . .
3800.5 . 0.0916(32) . . .
3803.7 . 0.0887(32) . . .
3806.8 . 0.0922(32) . . .
3810.0 . 0.0859(32) . . .
3813.2 . 0.0898(32) . . .
3816.3 . 0.0875(32) . . .
3819.5 . 0.0917(32) . . .
3822.7 . 0.0918(32) . . .
3825.8 . 0.0922(32) . . .
3829.0 . 0.0966(31) . . .
3832.2 . 0.0955(32) . . .
3835.4 . 0.0895(32) . . .
3838.6 . 0.0907(32) . . .
3841.8 . 0.0899(32) . . .
3845.0 . 0.0916(32) . . .
3848.2 . 0.0898(32) . . .
3851.3 . 0.0930(32) . . .
3854.5 . 0.0964(32) . . .
3857.8 . 0.0909(32) . . .
3861.0 . 0.0879(32) . . .
3864.2 . 0.0966(32) . . .
3867.4 . 0.0908(32) . . .
3870.6 . 0.0932(32) . . .
3873.8 . 0.0923(32) . . .
3877.0 . 0.0961(32) . . .
3880.2 . 0.0961(32) . . .
3883.5 . 0.0947(32) . . .
3886.7 . 0.0930(32) . . .
3889.9 . 0.0873(32) . . .
3893.2 . 0.1034(31) . . .
3896.4 . 0.0895(32) . . .
3899.6 . 0.0904(32) . . .
3902.9 . 0.0872(32) . . .
3906.1 . 0.0911(32) . . .
3909.4 . 0.0908(32) . . .
3912.6 . 0.0916(32) . . .
3915.9 . 0.0934(32) . . .
3919.1 . 0.0942(32) . . .
3922.4 . 0.0938(32) . . .
3925.6 . 0.0916(32) . . .
3928.9 . 0.0989(32) . . .
3932.2 . 0.0964(31) . . .
3935.4 . 0.0979(32) . . .
3938.7 . 0.0935(32) . . .
3942.0 . 0.0965(32) . . .
3945.2 . 0.0967(31) . . .
3948.5 . 0.0853(32) . . .
3951.8 . 0.0907(32) . . .
3955.1 . 0.0914(32) . . .
3958.4 . 0.0939(32) . . .
3961.7 . 0.0963(32) . . .
3964.9 . 0.0917(32) . . .
3968.2 . 0.0945(32) . . .
3971.5 . 0.0936(32) . . .
3974.8 . 0.0949(32) . . .
3978.1 . 0.0886(32) . . .
3981.4 . 0.0967(32) . . .
3984.8 . 0.0936(32) . . .
3988.1 . 0.0962(32) . . .
3991.4 . 0.1018(31) . . .
3994.7 . 0.0944(32) . . .
3998.0 . 0.0896(32) . . .
4001.3 . 0.0957(32) . . .
4004.7 . 0.0968(31) . . .
4008.0 . 0.0936(32) . . .
4011.3 . 0.0935(32) . . .
4014.7 . 0.0943(32) . . .
4018.0 . 0.0983(31) . . .
4021.3 . 0.0908(32) . . .
4024.7 . 0.0981(31) . . .
4028.0 . 0.0966(31) . . .
4031.4 . 0.0946(31) . . .
4034.7 . 0.0916(31) . . .
4038.1 . 0.0972(31) . . .
4041.4 . 0.0922(32) . . .
4044.8 . 0.0877(32) . . .
4048.1 . 0.0949(32) . . .
4051.5 . 0.0963(31) . . .
4054.9 . 0.0911(31) . . .
4058.2 . 0.0947(31) . . .
4061.6 . 0.0953(31) . . .
4065.0 . 0.0925(31) . . .
4068.4 . 0.0864(31) . . .
4071.7 . 0.0839(32) . . .
4075.1 . 0.0901(32) . . .
4078.5 . 0.0897(31) . . .
4081.9 . 0.0959(31) . . .
4085.3 . 0.0896(31) . . .
4088.7 . 0.0907(31) . . .
4092.1 . 0.0876(32) . . .
4095.5 . 0.0895(31) . . .
4098.9 . 0.0917(31) . . .
4102.3 . 0.0852(32) . . .
4105.7 . 0.0943(31) . . .
4109.1 . 0.0917(31) . . .
4112.5 . 0.0893(31) . . .
4115.9 . 0.0864(31) . . .
4119.4 . 0.0965(31) . . .
4122.8 . 0.0902(31) . . .
4126.2 . 0.0920(31) . . .
4129.6 . 0.0890(31) . . .
4133.1 . 0.0923(31) . . .
4136.5 . 0.0883(31) . . .
4139.9 . 0.0938(31) . . .
4143.4 . 0.0920(31) . . .
4146.8 . 0.0918(31) . . .
4150.3 . 0.0939(31) . . .
4153.7 . 0.0971(31) . . .
4157.2 . 0.0801(32) . . .
4160.6 . 0.0921(31) . . .
4164.1 . 0.0940(31) . . .
4167.5 . 0.0912(31) . . .
4171.0 . 0.0915(31) . . .
4174.5 . 0.0892(31) . . .
4177.9 . 0.0851(31) . . .
4181.4 . 0.0953(31) . . .
4184.9 . 0.0921(31) . . .
4188.4 . 0.0907(31) . . .
4191.8 . 0.0902(31) . . .
4195.3 . 0.0913(31) . . .
4198.8 . 0.0967(31) . . .
4202.3 . 0.0899(31) . . .
4205.8 . 0.0873(31) . . .
4209.3 . 0.0896(31) . . .
4212.8 . 0.0881(31) . . .
4216.3 . 0.0867(31) . . .
4219.8 . 0.0901(31) . . .
4223.3 . 0.0903(31) . . .
4226.8 . 0.0906(31) . . .
4230.3 . 0.0924(31) . . .
4233.8 . 0.0929(31) . . .
4237.3 . 0.0896(31) . . .
4240.9 . 0.0973(31) . . .
4244.4 . 0.0938(31) . . .
4247.9 . 0.0897(31) . . .
4251.4 . 0.0892(31) . . .
4255.0 . 0.0862(31) . . .
4258.5 . 0.0918(31) . . .
4262.1 . 0.0914(31) . . .
4265.6 . 0.0916(31) . . .
4269.1 . 0.0933(31) . . .
4272.7 . 0.0944(31) . . .
4276.2 . 0.0890(31) . . .
4279.8 . 0.0940(31) . . .
4283.3 . 0.1010(30) . . .
4286.9 . 0.0911(31) . . .
4290.5 . 0.0906(31) . . .
4294.0 . 0.0986(31) . . .
4297.6 . 0.0921(31) . . .
4301.2 . 0.0966(31) . . .
4304.7 . 0.0933(31) . . .
4308.3 . 0.0877(31) . . .
4311.9 . 0.0900(31) . . .
4315.5 . 0.0915(31) . . .
4319.1 . 0.0912(31) . . .
4322.7 . 0.0919(31) . . .
4326.3 . 0.0941(31) . . .
4329.8 . 0.0892(31) . . .
4333.4 . 0.0982(31) . . .
4337.0 . 0.0907(31) . . .
4340.6 . 0.0949(31) . . .
4344.3 . 0.0935(31) . . .
4347.9 . 0.0970(31) . . .
4351.5 . 0.0952(31) . . .
4355.1 . 0.0887(31) . . .
4358.7 . 0.0929(31) . . .
4362.3 . 0.0906(31) . . .
4366.0 . 0.1019(31) . . .
4369.6 . 0.0880(31) . . .
4373.2 . 0.0904(31) . . .
4376.9 . 0.0913(31) . . .
4380.5 . 0.0928(31) . . .
4384.1 . 0.0933(31) . . .
4387.8 . 0.0948(31) . . .
4391.4 . 0.0898(31) . . .
4395.1 . 0.0880(31) . . .
4398.7 . 0.0856(31) . . .
4402.4 . 0.0898(31) . . .
4406.0 . 0.0889(31) . . .
4409.7 . 0.0967(31) . . .
4413.4 . 0.0907(31) . . .
4417.0 . 0.0896(31) . . .
4420.7 . 0.0891(31) . . .
4424.4 . 0.0914(31) . . .
4428.0 . 0.0938(31) . . .
4431.7 . 0.0902(31) . . .
4435.4 . 0.0852(31) . . .
4439.1 . 0.0884(31) . . .
4442.8 . 0.0940(31) . . .
4446.5 . 0.0915(31) . . .
4450.2 . 0.0942(31) . . .
4453.9 . 0.0989(31) . . .
4457.6 . 0.0899(31) . . .
4461.3 . 0.0986(30) . . .
4465.0 . 0.0920(31) . . .
4468.7 . 0.0894(31) . . .
4472.4 . 0.0903(31) . . .
4476.1 . 0.0901(31) . . .
4479.8 . 0.0910(31) . . .
4483.6 . 0.0880(31) . . .
4487.3 . 0.0915(31) . . .
4491.0 . 0.0867(31) . . .
4494.7 . 0.0962(31) . . .
4498.5 . 0.0869(31) . . .
4502.2 . 0.0944(31) . . .
4506.0 . 0.0965(31) . . .
4509.7 . 0.0887(31) . . .
4513.4 . 0.0918(30) . . .
4517.2 . 0.0873(31) . . .
4520.9 . 0.0882(31) . . .
4524.7 . 0.0890(31) . . .
4528.5 . 0.0925(31) . . .
4532.2 . 0.0906(31) . . .
4536.0 . 0.0848(31) . . .
4539.8 . 0.0909(31) . . .
4543.5 . 0.0915(31) . . .
4547.3 . 0.0904(31) . . .
4551.1 . 0.0911(31) . . .
4554.9 . 0.0876(31) . . .
4558.7 . 0.0968(31) . . .
4562.4 . 0.0889(31) . . .
4566.2 . 0.0906(31) . . .
4570.0 . 0.0890(31) . . .
4573.8 . 0.0876(31) . . .
4577.6 . 0.0898(31) . . .
4581.4 . 0.0887(31) . . .
4585.2 . 0.0860(31) . . .
4589.0 . 0.0924(31) . . .
4592.9 . 0.0878(31) . . .
4596.7 . 0.0955(31) . . .
4600.5 . 0.0844(31) . . .
4604.3 . 0.0926(31) . . .
4608.1 . 0.0936(31) . . .
4612.0 . 0.0892(31) . . .
4615.8 . 0.0893(31) . . .
4619.6 . 0.0848(31) . . .
4623.5 . 0.0938(30) . . .
4627.3 . 0.0927(31) . . .
4631.2 . 0.0882(31) . . .
4635.0 . 0.0861(31) . . .
4638.9 . 0.0893(31) . . .
4642.7 . 0.0872(31) . . .
4646.6 . 0.0883(31) . . .
4650.4 . 0.0889(31) . . .
4654.3 . 0.0926(30) . . .
4658.2 . 0.0875(31) . . .
4662.0 . 0.0917(31) . . .
4665.9 . 0.0878(31) . . .
4669.8 . 0.0909(31) . . .
4673.7 . 0.0937(31) . . .
4677.6 . 0.0942(31) . . .
4681.4 . 0.0877(31) . . .
4685.3 . 0.0878(31) . . .
4689.2 . 0.0913(31) . . .
4693.1 . 0.0929(31) . . .
4697.0 . 0.0882(31) . . .
4700.9 . 0.0839(31) . . .
4704.8 . 0.0872(31) . . .
4708.7 . 0.0938(31) . . .
4712.6 . 0.0905(31) . . .
4716.6 . 0.0977(30) . . .
4720.5 . 0.0913(31) . . .
4724.4 . 0.0877(31) . . .
4728.3 . 0.0922(31) . . .
4732.3 . 0.0918(31) . . .
4736.2 . 0.0879(31) . . .
4740.1 . 0.0884(31) . . .
4744.1 . 0.0962(31) . . .
4748.0 . 0.0870(31) . . .
4751.9 . 0.0915(31) . . .
4755.9 . 0.0870(31) . . .
4759.9 . 0.0865(31) . . .
4763.8 . 0.0892(31) . . .
4767.8 . 0.0917(31) . . .
4771.7 . 0.0882(31) . . .
4775.7 . 0.0927(31) . . .
4779.7 . 0.0891(31) . . .
4783.6 . 0.0952(31) . . .
4787.6 . 0.0969(30) . . .
4791.6 . 0.0896(31) . . .
4795.6 . 0.0971(31) . . .
4799.5 . 0.0922(31) . . .
4803.5 . 0.0944(31) . . .
4807.5 . 0.0977(31) . . .
4811.5 . 0.0902(31) . . .
4815.5 . 0.0907(31) . . .
4819.5 . 0.0947(31) . . .
4823.5 . 0.0936(31) . . .
4827.5 . 0.0885(31) . . .
4831.5 . 0.0943(31) . . .
4835.6 . 0.0948(31) . . .
4839.6 . 0.0895(31) . . .
4843.6 . 0.0937(31) . . .
4847.6 . 0.0897(31) . . .
4851.7 . 0.0978(31) . . .
4855.7 . 0.0977(31) . . .
4859.7 . 0.0948(31) . . .
4863.8 . 0.0909(31) . . .
4867.8 . 0.0958(31) . . .
4871.8 . 0.0937(31) . . .
4875.9 . 0.0917(31) . . .
4879.9 . 0.0905(31) . . .
4884.0 . 0.1009(31) . . .
4888.1 . 0.0997(31) . . .
4892.1 . 0.0957(31) . . .
4896.2 . 0.0927(31) . . .
4900.2 . 0.0922(31) . . .
4904.3 . 0.0991(31) . . .
4908.4 . 0.0868(32) . . .
4912.5 . 0.0947(32) . . .
4916.6 . 0.0991(31) . . .
4920.6 . 0.0952(32) . . .
4924.7 . 0.1000(31) . . .
4928.8 . 0.0939(32) . . .
4932.9 . 0.0915(32) . . .
4937.0 . 0.1051(31) . . .
4941.1 . 0.1030(31) . . .
4945.2 . 0.0990(31) . . .
4949.3 . 0.1007(32) . . .
4953.4 . 0.0979(32) . . .
4957.6 . 0.0942(32) . . .
4961.7 . 0.0946(32) . . .
4965.8 . 0.0904(32) . . .
4969.9 . 0.1033(31) . . .
4974.1 . 0.0962(32) . . .
4978.2 . 0.1014(32) . . .
4982.3 . 0.0980(32) . . .
4986.5 . 0.1035(32) . . .
4990.6 . 0.1022(32) . . .
4994.8 . 0.0985(32) . . .
4998.9 . 0.0987(32) . . .
5003.1 . 0.0988(32) . . .
5007.2 . 0.1012(32) . . .
5011.4 . 0.0908(33) . . .
5015.5 . 0.0974(32) . . .
5019.7 . 0.1018(32) . . .
5023.9 . 0.0998(32) . . .
5028.1 . 0.0950(32) . . .
5032.2 . 0.0981(32) . . .
5036.4 . 0.0993(32) . . .
5040.6 . 0.1016(32) . . .
5044.8 . 0.0935(32) . . .
5049.0 . 0.1050(32) . . .
5053.2 . 0.0996(32) . . .
5057.4 . 0.1060(32) . . .
5061.6 . 0.1012(33) . . .
5065.8 . 0.1014(33) . . .
5070.0 . 0.1081(32) . . .
5074.2 . 0.1036(32) . . .
5078.4 . 0.1062(32) . . .
5082.6 . 0.1033(33) . . .
5086.9 . 0.1019(33) . . .
5091.1 . 0.0954(33) . . .
5095.3 . 0.1013(33) . . .
5099.6 . 0.0984(33) . . .
5103.8 . 0.1021(33) . . .
5108.0 . 0.1091(32) . . .
5112.3 . 0.1059(33) . . .
5116.5 . 0.1003(33) . . .
5120.8 . 0.1026(33) . . .
5125.0 . 0.1080(32) . . .
5129.3 . 0.1086(33) . . .
5133.5 . 0.0993(33) . . .
5137.8 . 0.1021(33) . . .
5142.1 . 0.1023(33) . . .
5146.4 . 0.1032(33) . . .
5150.6 . 0.1020(33) . . .
5154.9 . 0.1011(33) . . .
5159.2 . 0.1064(33) . . .
5163.5 . 0.1096(33) . . .
5167.8 . 0.1076(33) . . .
5172.1 . 0.1073(33) . . .
5176.4 . 0.1099(33) . . .
5180.7 . 0.1044(33) . . .
5185.0 . 0.1129(33) . . .
5189.3 . 0.1100(33) . . .
5193.6 . 0.1071(33) . . .
5197.9 . 0.1119(33) . . .
5202.2 . 0.1080(33) . . .
5206.5 . 0.1077(33) . . .
5210.9 . 0.1065(33) . . .
5215.2 . 0.1078(33) . . .
5219.5 . 0.1070(33) . . .
5223.9 . 0.1063(33) . . .
5228.2 . 0.1104(33) . . .
5232.6 . 0.1027(33) . . .
5236.9 . 0.1088(33) . . .
5241.3 . 0.1035(33) . . .
5245.6 . 0.1091(33) . . .
5250.0 . 0.1022(33) . . .
5254.3 . 0.1067(33) . . .
5258.7 . 0.1078(33) . . .
5263.1 . 0.1099(33) . . .
5267.4 . 0.1078(33) . . .
5271.8 . 0.1033(33) . . .
5276.2 . 0.1057(33) . . .
5280.6 . 0.1087(33) . . .
5285.0 . 0.1048(33) . . .
5289.4 . 0.1093(33) . . .
5293.8 . 0.1123(33) . . .
5298.2 . 0.1149(33) . . .
5302.6 . 0.1144(33) . . .
5307.0 . 0.1095(33) . . .
5311.4 . 0.1130(33) . . .
5315.8 . 0.1076(33) . . .
5320.2 . 0.1112(33) . . .
5324.6 . 0.1109(33) . . .
5329.0 . 0.1114(33) . . .
5333.5 . 0.1139(33) . . .
5337.9 . 0.1095(33) . . .
5342.3 . 0.1098(33) . . .
5346.8 . 0.1110(33) . . .
5351.2 . 0.1049(33) . . .
5355.7 . 0.1120(33) . . .
5360.1 . 0.1090(33) . . .
5364.6 . 0.1172(32) . . .
5369.0 . 0.1064(33) . . .
5373.5 . 0.1024(33) . . .
5378.0 . 0.1127(33) . . .
5382.4 . 0.1058(33) . . .
5386.9 . 0.1147(33) . . .
5391.4 . 0.1151(33) . . .
5395.9 . 0.1121(33) . . .
5400.3 . 0.1133(33) . . .
5404.8 . 0.1138(32) . . .
5409.3 . 0.1098(32) . . .
5413.8 . 0.1064(33) . . .
5418.3 . 0.1017(32) . . .
5422.8 . 0.1036(33) . . .
5427.3 . 0.1087(32) . . .
5431.8 . 0.1055(32) . . .
5436.3 . 0.1090(32) . . .
5440.9 . 0.1052(33) . . .
5445.4 . 0.1130(32) . . .
5449.9 . 0.0982(33) . . .
5454.4 . 0.1065(33) . . .
5459.0 . 0.1119(32) . . .
5463.5 . 0.1019(32) . . .
5468.0 . 0.1027(32) . . .
5472.6 . 0.1049(32) . . .
5477.1 . 0.1076(32) . . .
5481.7 . 0.1038(32) . . .
5486.2 . 0.1017(32) . . .
5490.8 . 0.1073(32) . . .
5495.4 . 0.1073(32) . . .
5499.9 . 0.1062(32) . . .
5504.5 . 0.1072(32) . . .
5509.1 . 0.1078(32) . . .
5513.6 . 0.1068(32) . . .
5518.2 . 0.1087(32) . . .
5522.8 . 0.1073(32) . . .
5527.4 . 0.1031(32) . . .
5532.0 . 0.1069(32) . . .
5536.6 . 0.1100(32) . . .
5541.2 . 0.1099(32) . . .
5545.8 . 0.1099(32) . . .
5550.4 . 0.1127(32) . . .
5555.0 . 0.1068(32) . . .
5559.6 . 0.1089(31) . . .
5564.2 . 0.1049(32) . . .
5568.9 . 0.1053(32) . . .
5573.5 . 0.1004(32) . . .
5578.1 . 0.1138(31) . . .
5582.8 . 0.1044(32) . . .
5587.4 . 0.1020(32) . . .
5592.0 . 0.1027(31) . . .
5596.7 . 0.1058(31) . . .
5601.3 . 0.1038(31) . . .
5606.0 . 0.1000(31) . . .
5610.7 . 0.0985(31) . . .
5615.3 . 0.0990(31) . . .
5620.0 . 0.1048(31) . . .
5624.7 . 0.0952(31) . . .
5629.3 . 0.0975(31) . . .
5634.0 . 0.1004(31) . . .
5638.7 . 0.0986(31) . . .
5643.4 . 0.0953(31) . . .
5648.1 . 0.0980(31) . . .
5652.8 . 0.0940(31) . . .
5657.4 . 0.0999(31) . . .
5662.1 . 0.0968(31) . . .
5666.9 . 0.0926(31) . . .
5671.6 . 0.0959(31) . . .
5676.3 . 0.0967(30) . . .
5681.0 . 0.0926(31) . . .
5685.7 . 0.1032(30) . . .
5690.4 . 0.0919(31) . . .
5695.2 . 0.0976(30) . . .
5699.9 . 0.0953(30) . . .
5704.6 . 0.0987(30) . . .
5709.4 . 0.1023(30) . . .
5714.1 . 0.0933(31) . . .
5718.9 . 0.0901(31) . . .
5723.6 . 0.0897(30) . . .
5728.4 . 0.0904(30) . . .
5733.1 . 0.0957(30) . . .
5737.9 . 0.0988(30) . . .
5742.7 . 0.1012(30) . . .
5747.4 . 0.0932(31) . . .
5752.2 . 0.0993(30) . . .
5757.0 . 0.0949(30) . . .
5761.8 . 0.0905(30) . . .
5766.6 . 0.0898(30) . . .
5771.4 . 0.0990(30) . . .
5776.1 . 0.0993(30) . . .
5780.9 . 0.0950(30) . . .
5785.8 . 0.1012(30) . . .
5790.6 . 0.0964(30) . . .
5795.4 . 0.0957(30) . . .
5800.2 . 0.1012(30) . . .
5805.0 . 0.0996(30) . . .
5809.8 . 0.1008(30) . . .
5814.7 . 0.1003(30) . . .
5819.5 . 0.0958(30) . . .
5824.3 . 0.0940(30) . . .
5829.2 . 0.0919(30) . . .
5834.0 . 0.0950(30) . . .
5838.9 . 0.0941(30) . . .
5843.7 . 0.0932(30) . . .
5848.6 . 0.0929(30) . . .
5853.4 . 0.0929(30) . . .
5858.3 . 0.0873(30) . . .
5863.2 . 0.0910(30) . . .
5868.0 . 0.0923(30) . . .
5872.9 . 0.0922(30) . . .
5877.8 . 0.0893(30) . . .
5882.7 . 0.0934(29) . . .
5887.5 . 0.0945(29) . . .
5892.4 . 0.0881(30) . . .
5897.3 . 0.0929(30) . . .
5902.2 . 0.0884(30) . . .
5907.1 . 0.0913(29) . . .
5912.0 . 0.0884(30) . . .
5917.0 . 0.0935(30) . . .
5921.9 . 0.0935(30) . . .
5926.8 . 0.0945(29) . . .
5931.7 . 0.0931(30) . . .
5936.7 . 0.0938(30) . . .
5941.6 0.56224 0.0954(29) 115635. 0.08399 0.08939
5946.5 0.56271 0.0914(30) 113186. 0.08422 0.08950
5951.5 0.56318 0.0897(30) 113800. 0.08445 0.08993
5956.4 0.56365 0.0936(30) 114419. 0.08468 0.09030
5961.4 0.56411 0.0871(30) 111870. 0.08490 0.09046
5966.3 0.56458 0.0944(30) 114380. 0.08511 0.09068
5971.3 0.56505 0.0937(30) 113793. 0.08532 0.09132
5976.2 0.56552 0.0973(29) 115595. 0.08553 0.09243
5981.2 0.56599 0.0940(30) 113243. 0.08573 0.09350
5986.2 0.56646 0.0970(30) 114366. 0.08593 0.09385
5991.1 0.56693 0.0929(30) 112368. 0.08613 0.09337
5996.1 0.56740 0.0918(30) 113425. 0.08632 0.09253
6001.1 0.56788 0.0914(30) 113939. 0.08651 0.09188
6006.1 0.56835 0.0851(30) 111877. 0.08669 0.09171
6011.1 0.56882 0.0921(30) 113840. 0.08688 0.09213
6016.1 0.56929 0.0944(29) 115057. 0.08705 0.09305
6021.1 0.56977 0.0931(30) 114220. 0.08723 0.09420
6026.1 0.57024 0.0965(30) 113237. 0.08740 0.09519
6031.1 0.57071 0.1018(29) 115734. 0.08757 0.09582
6036.1 0.57119 0.0987(29) 116387. 0.08773 0.09612
6041.1 0.57166 0.1020(30) 114415. 0.08789 0.09624
6046.1 0.57214 0.0985(30) 114193. 0.08805 0.09623
6051.1 0.57261 0.0930(30) 113031. 0.08820 0.09595
6056.2 0.57309 0.1016(29) 116517. 0.08836 0.09544
6061.2 0.57356 0.0935(30) 114335. 0.08851 0.09516
6066.2 0.57404 0.0932(30) 113884. 0.08865 0.09582
6071.3 0.57452 0.0944(29) 115539. 0.08879 0.09778
6076.3 0.57499 0.0988(30) 114108. 0.08893 0.10008
6081.4 0.57547 0.0969(29) 114961. 0.08907 0.10100
6086.4 0.57595 0.0936(30) 112856. 0.08920 0.09991
6091.5 0.57643 0.0978(30) 113417. 0.08934 0.09781
6096.6 0.57691 0.0945(30) 113309. 0.08946 0.09603
6101.6 0.57739 0.0966(29) 114972. 0.08959 0.09506
6106.7 0.57787 0.0890(30) 111109. 0.08971 0.09472
6111.8 0.57835 0.0897(30) 112506. 0.08984 0.09483
6116.8 0.57883 0.0978(29) 114940. 0.08995 0.09543
6121.9 0.57931 0.0978(30) 113356. 0.09007 0.09646
6127.0 0.57979 0.1017(29) 116012. 0.09018 0.09754
6132.1 0.58027 0.0963(30) 112803. 0.09029 0.09807
6137.2 0.58075 0.0973(30) 112816. 0.09040 0.09804
6142.3 0.58124 0.0907(30) 112079. 0.09051 0.09833
6147.4 0.58172 0.0973(30) 114169. 0.09061 0.09993
6152.5 0.58220 0.0984(30) 112623. 0.09071 0.10271
6157.6 0.58269 0.1015(30) 112986. 0.09081 0.10501
6162.7 0.58317 0.1098(30) 114026. 0.09091 0.10514
6167.9 0.58366 0.1005(30) 111628. 0.09101 0.10311
6173.0 0.58414 0.1025(30) 113876. 0.09110 0.10025
6178.1 0.58463 0.0903(30) 112116. 0.09119 0.09779
6183.2 0.58511 0.0970(30) 114385. 0.09128 0.09633
6188.4 0.58560 0.0970(30) 112961. 0.09137 0.09612
6193.5 0.58609 0.0958(30) 111980. 0.09146 0.09709
6198.7 0.58657 0.0927(30) 111825. 0.09154 0.09875
6203.8 0.58706 0.1019(30) 113728. 0.09162 0.10037
6209.0 0.58755 0.1010(30) 113590. 0.09170 0.10137
6214.1 0.58804 0.0972(30) 110355. 0.09178 0.10158
6219.3 0.58852 0.0978(30) 111265. 0.09186 0.10107
6224.5 0.58901 0.1018(30) 112919. 0.09193 0.10022
6229.6 0.58950 0.1012(30) 113767. 0.09201 0.09963
6234.8 0.58999 0.1037(30) 113831. 0.09208 0.09973
6240.0 0.59048 0.1012(30) 113349. 0.09215 0.10034
6245.2 0.59097 0.1021(30) 112257. 0.09222 0.10101
6250.4 0.59146 0.0989(30) 113096. 0.09228 0.10173
6255.6 0.59196 0.1056(30) 113607. 0.09235 0.10294
6260.8 0.59245 0.1087(30) 112791. 0.09241 0.10476
6266.0 0.59294 0.1062(30) 111943. 0.09248 0.10683
6271.2 0.59343 0.1060(30) 111214. 0.09254 0.10868
6276.4 0.59393 0.1130(30) 112772. 0.09260 0.11007
6281.6 0.59442 0.1099(30) 110562. 0.09266 0.11086
6286.8 0.59491 0.1113(30) 111047. 0.09272 0.11057
6292.0 0.59541 0.1063(30) 108227. 0.09277 0.10879
6297.3 0.59590 0.1081(30) 111211. 0.09283 0.10614
6302.5 0.59640 0.0994(30) 110519. 0.09288 0.10389
6307.7 0.59689 0.1033(30) 109177. 0.09293 0.10255
6313.0 0.59739 0.1017(30) 111124. 0.09299 0.10165
6318.2 0.59789 0.0998(30) 111482. 0.09304 0.10073
6323.5 0.59838 0.0984(30) 111259. 0.09309 0.09997
6328.7 0.59888 0.0966(30) 110434. 0.09314 0.09991
6334.0 0.59938 0.0993(30) 111748. 0.09318 0.10067
6339.2 0.59988 0.0998(30) 110405. 0.09323 0.10152
6344.5 0.60037 0.0996(30) 110561. 0.09328 0.10159
6349.8 0.60087 0.0959(30) 109971. 0.09332 0.10073
6355.1 0.60137 0.0977(30) 111346. 0.09337 0.09961
6360.3 0.60187 0.1035(30) 111766. 0.09341 0.09917
6365.6 0.60237 0.1023(30) 112717. 0.09345 0.09998
6370.9 0.60287 0.1027(30) 110774. 0.09349 0.10185
6376.2 0.60337 0.1028(30) 110093. 0.09354 0.10405
6381.5 0.60388 0.1040(30) 111182. 0.09358 0.10597
6386.8 0.60438 0.1042(30) 108266. 0.09362 0.10757
6392.1 0.60488 0.1030(31) 106965. 0.09365 0.10887
6397.4 0.60538 0.1080(30) 109962. 0.09369 0.10914
6402.7 0.60588 0.1049(30) 107883. 0.09373 0.10773
6408.1 0.60639 0.1001(31) 106997. 0.09377 0.10534
6413.4 0.60689 0.1036(30) 108703. 0.09380 0.10330
6418.7 0.60740 0.0981(31) 107402. 0.09384 0.10226
6424.0 0.60790 0.1015(30) 109043. 0.09387 0.10223
6429.4 0.60841 0.1042(30) 110056. 0.09391 0.10282
6434.7 0.60891 0.1063(30) 111945. 0.09394 0.10358
6440.1 0.60942 0.1074(30) 109091. 0.09398 0.10442
6445.4 0.60992 0.1033(30) 108190. 0.09401 0.10545
6450.8 0.61043 0.1103(31) 107383. 0.09404 0.10665
6456.1 0.61094 0.1097(31) 105994. 0.09408 0.10794
6461.5 0.61145 0.1129(31) 107025. 0.09411 0.10940
6466.9 0.61195 0.1131(31) 105306. 0.09414 0.11154
6472.2 0.61246 0.1132(31) 105281. 0.09417 0.11461
6477.6 0.61297 0.1161(31) 106389. 0.09420 0.11711
6483.0 0.61348 0.1184(31) 107073. 0.09423 0.11675
6488.4 0.61399 0.1096(31) 105741. 0.09426 0.11332
6493.8 0.61450 0.1118(30) 107622. 0.09429 0.10915
6499.2 0.61501 0.1077(31) 107041. 0.09432 0.10644
6504.6 0.61552 0.1019(31) 105332. 0.09435 0.10553
6510.0 0.61603 0.1074(30) 108247. 0.09438 0.10569
6515.4 0.61655 0.1053(31) 106763. 0.09441 0.10661
6520.8 0.61706 0.1145(31) 107291. 0.09444 0.10816
6526.2 0.61757 0.1086(31) 107028. 0.09447 0.10935
6531.7 0.61808 0.1101(30) 107613. 0.09450 0.10919
6537.1 0.61860 0.1120(30) 108173. 0.09453 0.10805
6542.5 0.61911 0.1087(31) 107353. 0.09455 0.10683
6547.9 0.61963 0.1056(31) 105922. 0.09458 0.10576
6553.4 0.62014 0.1110(30) 108824. 0.09461 0.10500
6558.8 0.62066 0.1026(31) 106096. 0.09464 0.10469
6564.3 0.62117 0.1044(31) 106578. 0.09467 0.10444
6569.7 0.62169 0.1056(31) 106576. 0.09470 0.10379
6575.2 0.62220 0.1033(30) 107753. 0.09472 0.10283
6580.7 0.62272 0.1045(31) 107374. 0.09475 0.10186
6586.1 0.62324 0.1059(31) 107228. 0.09478 0.10123
6591.6 0.62376 0.0956(31) 103523. 0.09481 0.10142
6597.1 0.62428 0.0989(31) 105212. 0.09484 0.10230
6602.6 0.62479 0.1086(31) 107429. 0.09486 0.10307
6608.0 0.62531 0.1037(31) 104434. 0.09489 0.10310
6613.5 0.62583 0.1057(31) 107090. 0.09492 0.10291
6619.0 0.62635 0.1091(30) 108288. 0.09495 0.10371
6624.5 0.62687 0.1094(31) 106531. 0.09498 0.10612
6630.0 0.62739 0.1118(31) 105260. 0.09501 0.10893
6635.5 0.62792 0.1170(31) 105936. 0.09503 0.10996
6641.1 0.62844 0.1102(31) 105005. 0.09506 0.10843
6646.6 0.62896 0.1035(31) 105041. 0.09509 0.10573
6652.1 0.62948 0.1059(31) 106281. 0.09512 0.10382
6657.6 0.63001 0.1092(30) 108308. 0.09515 0.10367
6663.2 0.63053 0.1056(31) 104601. 0.09518 0.10462
6668.7 0.63105 0.1049(31) 104421. 0.09521 0.10517
6674.2 0.63158 0.1054(31) 104435. 0.09524 0.10460
6679.8 0.63210 0.1076(31) 107207. 0.09527 0.10336
6685.3 0.63263 0.1023(31) 106620. 0.09530 0.10194
6690.9 0.63315 0.1019(31) 106552. 0.09533 0.10049
6696.4 0.63368 0.0953(31) 106622. 0.09536 0.09941
6702.0 0.63421 0.0981(31) 105230. 0.09539 0.09930
6707.6 0.63473 0.1049(31) 106861. 0.09542 0.10066
6713.1 0.63526 0.1006(31) 103124. 0.09545 0.10347
6718.7 0.63579 0.1101(31) 105583. 0.09548 0.10667
6724.3 0.63632 0.1098(31) 105926. 0.09552 0.10886
6729.9 0.63684 0.1024(31) 103984. 0.09555 0.11013
6735.5 0.63737 0.1060(31) 104334. 0.09558 0.11174
6741.1 0.63790 0.1078(31) 102870. 0.09561 0.11382
6746.7 0.63843 0.1080(31) 104071. 0.09565 0.11519
6752.3 0.63896 0.1187(31) 105758. 0.09568 0.11489
6757.9 0.63950 0.1116(31) 103433. 0.09571 0.11283
6763.5 0.64003 0.1109(31) 103983. 0.09575 0.10947
6769.1 0.64056 0.1128(31) 105824. 0.09578 0.10595
6774.8 0.64109 0.1063(31) 106787. 0.09582 0.10341
6780.4 0.64162 0.0988(31) 103878. 0.09585 0.10220
6786.0 0.64216 0.0961(31) 104136. 0.09589 0.10194
6791.7 0.64269 0.1097(31) 107310. 0.09592 0.10222
6797.3 0.64322 0.0966(31) 103912. 0.09596 0.10297
6803.0 0.64376 0.1025(31) 104813. 0.09599 0.10447
6808.6 0.64429 0.1018(31) 103121. 0.09603 0.10698
6814.3 0.64483 0.1079(31) 103983. 0.09607 0.10977
6819.9 0.64536 0.1101(31) 104757. 0.09610 0.11111
6825.6 0.64590 0.1135(31) 105046. 0.09614 0.11008
6831.3 0.64644 0.1151(31) 105848. 0.09618 0.10762
6836.9 0.64697 0.1053(31) 104344. 0.09622 0.10568
6842.6 0.64751 0.1049(31) 103650. 0.09625 0.10579
6848.3 0.64805 0.1003(31) 101649. 0.09629 0.10824
6854.0 0.64859 0.1067(31) 102378. 0.09633 0.11173
6859.7 0.64913 0.1170(31) 105091. 0.09637 0.11404
6865.4 0.64967 0.1183(31) 105491. 0.09641 0.11390
6871.1 0.65021 0.1108(31) 103388. 0.09645 0.11166
6876.8 0.65075 0.1122(31) 104784. 0.09649 0.10853
6882.5 0.65129 0.1071(31) 105287. 0.09653 0.10574
6888.2 0.65183 0.1010(31) 103944. 0.09658 0.10396
6894.0 0.65237 0.1019(31) 105075. 0.09662 0.10305
6899.7 0.65291 0.1020(31) 104141. 0.09666 0.10270
6905.4 0.65346 0.0988(31) 103782. 0.09670 0.10298
6911.2 0.65400 0.1104(31) 104128. 0.09675 0.10376
6916.9 0.65454 0.1077(31) 104638. 0.09679 0.10446
6922.7 0.65509 0.1050(31) 103321. 0.09683 0.10482
6928.4 0.65563 0.1090(31) 103908. 0.09688 0.10521
6934.2 0.65618 0.1045(31) 104496. 0.09692 0.10596
6939.9 0.65672 0.1086(31) 104099. 0.09697 0.10722
6945.7 0.65727 0.1086(31) 103622. 0.09701 0.10960
6951.5 0.65781 0.1141(31) 104094. 0.09706 0.11387
6957.2 0.65836 0.1206(31) 102803. 0.09710 0.11926
6963.0 0.65891 0.1257(31) 103940. 0.09715 0.12310
6968.8 0.65945 0.1212(31) 101880. 0.09720 0.12321
6974.6 0.66000 0.1213(31) 102111. 0.09724 0.11995
6980.4 0.66055 0.1147(31) 103549. 0.09729 0.11553
6986.2 0.66110 0.1124(31) 104099. 0.09734 0.11210
6992.0 0.66165 0.1087(31) 102535. 0.09739 0.11011
6997.8 0.66220 0.1102(31) 104146. 0.09744 0.10854
7003.6 0.66275 0.1108(31) 105909. 0.09749 0.10683
7009.4 0.66330 0.1063(31) 102866. 0.09753 0.10573
7015.3 0.66385 0.1048(31) 103244. 0.09758 0.10595
7021.1 0.66440 0.1105(31) 104557. 0.09763 0.10689
7026.9 0.66495 0.1048(31) 102235. 0.09768 0.10736
7032.8 0.66551 0.1060(31) 103216. 0.09774 0.10696
7038.6 0.66606 0.1069(31) 102221. 0.09779 0.10633
7044.5 0.66661 0.1016(31) 102618. 0.09784 0.10641
7050.3 0.66717 0.1095(31) 104627. 0.09789 0.10775
7056.2 0.66772 0.1094(31) 102648. 0.09794 0.10976
7062.0 0.66828 0.1152(31) 104712. 0.09799 0.11079
7067.9 0.66883 0.1094(31) 103184. 0.09805 0.10984
7073.8 0.66939 0.1099(31) 104583. 0.09810 0.10762
7079.6 0.66994 0.1081(31) 103277. 0.09815 0.10567
7085.5 0.67050 0.1062(31) 104181. 0.09821 0.10524
7091.4 0.67106 0.1137(31) 103344. 0.09826 0.10688
7097.3 0.67161 0.1162(31) 102986. 0.09832 0.11029
7103.2 0.67217 0.1186(31) 102046. 0.09837 0.11388
7109.1 0.67273 0.1178(31) 100952. 0.09842 0.11561
7115.0 0.67329 0.1121(31) 101608. 0.09848 0.11516
7120.9 0.67385 0.1130(31) 101250. 0.09854 0.11428
7126.8 0.67441 0.1205(31) 103277. 0.09859 0.11427
7132.8 0.67497 0.1150(31) 101137. 0.09865 0.11419
7138.7 0.67553 0.1204(31) 103187. 0.09870 0.11292
7144.6 0.67609 0.1099(31) 101019. 0.09876 0.11117
7150.6 0.67665 0.1126(31) 103004. 0.09882 0.11075
7156.5 0.67722 0.1160(31) 103619. 0.09887 0.11273
7162.5 0.67778 0.1178(31) 103835. 0.09893 0.11621
7168.4 0.67834 0.1217(31) 102285. 0.09899 0.11868
7174.4 0.67891 0.1171(31) 102823. 0.09905 0.11900
7180.3 0.67947 0.1175(31) 103126. 0.09910 0.11889
7186.3 0.68003 0.1154(31) 101708. 0.09916 0.11947
7192.3 0.68060 0.1237(31) 102087. 0.09922 0.11883
7198.2 0.68117 0.1204(31) 104583. 0.09928 0.11530
7204.2 0.68173 0.1123(31) 102826. 0.09934 0.11035
7210.2 0.68230 0.1059(31) 102364. 0.09940 0.10671
7216.2 0.68286 0.1126(31) 105842. 0.09946 0.10628
7222.2 0.68343 0.1124(31) 103654. 0.09952 0.11032
7228.2 0.68400 0.1161(31) 101933. 0.09958 0.11902
7234.2 0.68457 0.1253(32) 100317. 0.09964 0.12994
7240.2 0.68514 0.1388(31) 101494. 0.09970 0.13902
7246.2 0.68571 0.1375(32) 98890. 0.09976 0.14515
7252.2 0.68628 0.1532(32) 100552. 0.09982 0.15132
7258.3 0.68685 0.1589(31) 100834. 0.09988 0.15925
7264.3 0.68742 0.1697(32) 98738. 0.09994 0.16432
7270.3 0.68799 0.1580(32) 97036. 0.10000 0.16003
7276.4 0.68856 0.1506(32) 99801. 0.10006 0.14669
7282.4 0.68913 0.1346(31) 101965. 0.10012 0.13171
7288.5 0.68970 0.1239(31) 104257. 0.10018 0.12166
7294.5 0.69028 0.1226(31) 103139. 0.10024 0.11808
7300.6 0.69085 0.1239(31) 103949. 0.10030 0.11862
7306.7 0.69143 0.1201(31) 101694. 0.10036 0.11945
7312.7 0.69200 0.1186(31) 102038. 0.10043 0.11863
7318.8 0.69258 0.1186(31) 102583. 0.10049 0.11737
7324.9 0.69315 0.1244(31) 104968. 0.10055 0.11750
7331.0 0.69373 0.1219(31) 103407. 0.10061 0.11868
7337.1 0.69430 0.1240(31) 102539. 0.10067 0.11916
7343.2 0.69488 0.1254(31) 104267. 0.10073 0.11776
7349.3 0.69546 0.1148(31) 101748. 0.10080 0.11537
7355.4 0.69604 0.1117(31) 102873. 0.10086 0.11410
7361.5 0.69661 0.1175(31) 105730. 0.10092 0.11568
7367.6 0.69719 0.1205(31) 103512. 0.10098 0.12043
7373.7 0.69777 0.1297(31) 102749. 0.10104 0.12596
7379.8 0.69835 0.1295(31) 102213. 0.10110 0.12781
7386.0 0.69893 0.1282(31) 105023. 0.10117 0.12397
7392.1 0.69951 0.1122(31) 102091. 0.10123 0.11719
7398.3 0.70009 0.1124(31) 105039. 0.10129 0.11139
7404.4 0.70068 0.1134(31) 105424. 0.10135 0.10810
7410.6 0.70126 0.1084(31) 104925. 0.10141 0.10690
7416.7 0.70184 0.1056(31) 104733. 0.10147 0.10697
7422.9 0.70242 0.1060(31) 104139. 0.10153 0.10752
7429.0 0.70301 0.1009(31) 104282. 0.10160 0.10787
7435.2 0.70359 0.0994(31) 103066. 0.10166 0.10776
7441.4 0.70418 0.0969(31) 102716. 0.10172 0.10757
7447.6 0.70476 0.1055(31) 103994. 0.10178 0.10785
7453.8 0.70535 0.1077(31) 105780. 0.10184 0.10895
7460.0 0.70593 0.1082(31) 104849. 0.10190 0.11130
7466.2 0.70652 0.1092(31) 103017. 0.10196 0.11539
7472.4 0.70711 0.1173(31) 102481. 0.10202 0.12053
7478.6 0.70769 0.1280(31) 104009. 0.10208 0.12442
7484.8 0.70828 0.1224(31) 103204. 0.10214 0.12541
7491.0 0.70887 0.1214(31) 102983. 0.10220 0.12473
7497.2 0.70946 0.1279(31) 104719. 0.10226 0.12416
7503.5 0.71005 0.1207(31) 103024. 0.10232 0.12338
7509.7 0.71064 0.1167(31) 101552. 0.10238 0.12141
7515.9 0.71123 0.1192(31) 103378. 0.10244 0.11923
7522.2 0.71182 0.1204(31) 103724. 0.10250 0.11902
7528.4 0.71241 0.1194(31) 103991. 0.10256 0.12153
7534.7 0.71300 0.1222(31) 103932. 0.10261 0.12495
7540.9 0.71360 0.1291(31) 106261. 0.10267 0.12674
7547.2 0.71419 0.1232(31) 104675. 0.10273 0.12603
7553.5 0.71478 0.1217(31) 103433. 0.10279 0.12341
7559.8 0.71538 0.1140(31) 101193. 0.10285 0.11952
7566.0 0.71597 0.1137(31) 103302. 0.10290 0.11574
7572.3 0.71657 0.1097(31) 104107. 0.10296 0.11441
7578.6 0.71716 0.1128(31) 102797. 0.10302 0.11697
7584.9 0.71776 0.1241(31) 103971. 0.10307 0.12223
7591.2 0.71835 0.1265(31) 103218. 0.10313 0.12669
7597.5 0.71895 0.1239(31) 102215. 0.10318 0.12775
7603.8 0.71955 0.1229(31) 105080. 0.10324 0.12573
7610.2 0.72015 0.1199(31) 104635. 0.10329 0.12228
7616.5 0.72075 0.1175(31) 103937. 0.10335 0.11919
7622.8 0.72134 0.1145(31) 103912. 0.10340 0.11810
7629.1 0.72194 0.1135(31) 102860. 0.10346 0.11877
7635.5 0.72254 0.1142(31) 102895. 0.10351 0.11912
7641.8 0.72314 0.1156(31) 103989. 0.10356 0.11778
7648.2 0.72374 0.1125(31) 103370. 0.10362 0.11551
7654.5 0.72435 0.1132(31) 103593. 0.10367 0.11361
7660.9 0.72495 0.1084(31) 102453. 0.10372 0.11256
7667.3 0.72555 0.1121(31) 104320. 0.10377 0.11228
7673.6 0.72615 0.1132(31) 103116. 0.10382 0.11316
7680.0 0.72676 0.1094(31) 101589. 0.10387 0.11666
7686.4 0.72736 0.1230(31) 100884. 0.10392 0.12445
7692.8 0.72796 0.1368(31) 101555. 0.10397 0.13568
7699.2 0.72857 0.1487(31) 100798. 0.10402 0.14620
7705.6 0.72918 0.1548(31) 100800. 0.10407 0.15248
7712.0 0.72978 0.1534(32) 99755. 0.10412 0.15389
7718.4 0.73039 0.1460(32) 100227. 0.10417 0.14988
7724.8 0.73099 0.1333(32) 98460. 0.10421 0.14076
7731.2 0.73160 0.1253(31) 101535. 0.10426 0.13051
7737.6 0.73221 0.1193(31) 101053. 0.10431 0.12358
7744.1 0.73282 0.1174(32) 100697. 0.10435 0.12134
7750.5 0.73343 0.1223(31) 102004. 0.10440 0.12376
7756.9 0.73404 0.1253(31) 101086. 0.10444 0.13200
7763.4 0.73465 0.1425(32) 98336. 0.10449 0.14625
7769.8 0.73526 0.1527(32) 97381. 0.10453 0.16022
7776.3 0.73587 0.1609(32) 97240. 0.10457 0.16352
7782.7 0.73648 0.1517(32) 99104. 0.10461 0.15368
7789.2 0.73709 0.1349(32) 100066. 0.10466 0.13911
7795.7 0.73770 0.1305(31) 102960. 0.10470 0.12810
7802.2 0.73832 0.1215(32) 100565. 0.10474 0.12198
7808.6 0.73893 0.1185(31) 102176. 0.10478 0.11851
7815.1 0.73954 0.1158(31) 102205. 0.10482 0.11651
7821.6 0.74016 0.1168(31) 103362. 0.10486 0.11595
7828.1 0.74077 0.1139(32) 100405. 0.10489 0.11633
7834.6 0.74139 0.1120(31) 101584. 0.10493 0.11680
7841.1 0.74201 0.1165(31) 101711. 0.10497 0.11823
7847.6 0.74262 0.1130(31) 101061. 0.10501 0.12284
7854.2 0.74324 0.1284(31) 101368. 0.10504 0.13038
7860.7 0.74386 0.1344(31) 100835. 0.10508 0.13650
7867.2 0.74447 0.1375(31) 101200. 0.10511 0.13721
7873.8 0.74509 0.1290(32) 100236. 0.10514 0.13383
7880.3 0.74571 0.1302(31) 101376. 0.10518 0.13075
7886.9 0.74633 0.1253(32) 99336. 0.10521 0.13041
7893.4 0.74695 0.1280(31) 101912. 0.10524 0.13145
7900.0 0.74757 0.1355(31) 102094. 0.10527 0.13104
7906.5 0.74819 0.1314(31) 101863. 0.10530 0.12837
7913.1 0.74882 0.1244(31) 101906. 0.10533 0.12595
7919.7 0.74944 0.1196(32) 100088. 0.10536 0.12685
7926.3 0.75006 0.1386(31) 101780. 0.10539 0.13072
7932.8 0.75068 0.1338(32) 99001. 0.10541 0.13450
7939.4 0.75131 0.1339(32) 99369. 0.10544 0.13690
7946.0 0.75193 0.1377(32) 99100. 0.10547 0.13930
7952.6 0.75256 0.1369(32) 97434. 0.10549 0.14160
7959.2 0.75318 0.1357(32) 97338. 0.10552 0.14141
7965.9 0.75381 0.1364(32) 98589. 0.10554 0.13736
7972.5 0.75443 0.1267(32) 98954. 0.10556 0.13105
7979.1 0.75506 0.1213(32) 99844. 0.10558 0.12495
7985.7 0.75569 0.1201(32) 100121. 0.10560 0.12005
7992.4 0.75632 0.1093(32) 99789. 0.10562 0.11633
7999.0 0.75695 0.1110(31) 101651. 0.10564 0.11377
8005.6 0.75757 0.1094(31) 101982. 0.10566 0.11212
8012.3 0.75820 0.1058(31) 101033. 0.10568 0.11088
8019.0 0.75883 0.1077(31) 100952. 0.10570 0.10981
8025.6 0.75946 0.1046(31) 101682. 0.10571 0.10928
8032.3 0.76010 0.1066(32) 100728. 0.10573 0.10985
8039.0 0.76073 0.1044(32) 99805. 0.10574 0.11177
8045.6 0.76136 0.1156(32) 100534. 0.10576 0.11458
8052.3 0.76199 0.1096(32) 98664. 0.10577 0.11730
8059.0 0.76263 0.1165(32) 98701. 0.10578 0.11921
8065.7 0.76326 0.1155(32) 98927. 0.10579 0.12027
8072.4 0.76389 0.1189(32) 98413. 0.10580 0.12054
8079.1 0.76453 0.1158(32) 97878. 0.10581 0.12044
8085.8 0.76516 0.1181(32) 98981. 0.10582 0.12221
8092.6 0.76580 0.1221(32) 97950. 0.10583 0.12838
8099.3 0.76644 0.1360(32) 97492. 0.10583 0.13761
8106.0 0.76707 0.1456(32) 97519. 0.10584 0.14506
8112.7 0.76771 0.1430(32) 95479. 0.10585 0.14801
8119.5 0.76835 0.1460(32) 95571. 0.10585 0.14840
8126.2 0.76899 0.1482(32) 97616. 0.10585 0.14925
8133.0 0.76962 0.1483(32) 95875. 0.10585 0.15042
8139.7 0.77026 0.1507(32) 95044. 0.10586 0.14835
8146.5 0.77090 0.1496(32) 97980. 0.10586 0.14092
8153.3 0.77154 0.1320(32) 96946. 0.10586 0.13076
8160.0 0.77219 0.1214(32) 98059. 0.10585 0.12198
8166.8 0.77283 0.1197(32) 98173. 0.10585 0.11656
8173.6 0.77347 0.1125(32) 97934. 0.10585 0.11425
8180.4 0.77411 0.1124(32) 98724. 0.10585 0.11371
8187.2 0.77476 0.1143(32) 98878. 0.10584 0.11362
8194.0 0.77540 0.1117(32) 98406. 0.10583 0.11359
8200.8 0.77604 0.1110(32) 96500. 0.10583 0.11398
8207.6 0.77669 0.1117(32) 97456. 0.10582 0.11488
8214.5 0.77733 0.1156(32) 97105. 0.10581 0.11594
8221.3 0.77798 0.1208(32) 98756. 0.10580 0.11707
8228.1 0.77863 0.1201(32) 98720. 0.10579 0.11863
8234.9 0.77927 0.1221(32) 96734. 0.10578 0.12057
8241.8 0.77992 0.1302(32) 98545. 0.10577 0.12208
8248.6 0.78057 0.1313(32) 98573. 0.10575 0.12267
8255.5 0.78122 0.1313(32) 97538. 0.10574 0.12297
8262.3 0.78187 0.1278(32) 97017. 0.10572 0.12406
8269.2 0.78252 0.1298(32) 96569. 0.10571 0.12541
8276.1 0.78317 0.1291(32) 97760. 0.10569 0.12467
8283.0 0.78382 0.1285(32) 98240. 0.10567 0.12090
8289.8 0.78447 0.1179(32) 98687. 0.10565 0.11626
8296.7 0.78512 0.1105(32) 98573. 0.10563 0.11330
8303.6 0.78577 0.1134(32) 98468. 0.10561 0.11262
8310.5 0.78643 0.1129(32) 100227. 0.10559 0.11326
8317.4 0.78708 0.1175(32) 99833. 0.10557 0.11401
8324.3 0.78773 0.1161(32) 98865. 0.10554 0.11425
8331.3 0.78839 0.1155(32) 99515. 0.10552 0.11426
8338.2 0.78904 0.1211(32) 100419. 0.10549 0.11461
8345.1 0.78970 0.1152(32) 98104. 0.10546 0.11551
8352.0 0.79036 0.1186(32) 98550. 0.10544 0.11711
8359.0 0.79101 0.1223(32) 98377. 0.10541 0.12030
8365.9 0.79167 0.1242(32) 97942. 0.10538 0.12635
8372.9 0.79233 0.1373(32) 98640. 0.10535 0.13432
8379.8 0.79299 0.1464(32) 98171. 0.10532 0.13972
8386.8 0.79364 0.1389(32) 96948. 0.10528 0.13892
8393.8 0.79430 0.1361(32) 98085. 0.10525 0.13336
8400.7 0.79496 0.1321(32) 99882. 0.10522 0.12760
8407.7 0.79562 0.1270(32) 99459. 0.10518 0.12565
8414.7 0.79629 0.1280(32) 97890. 0.10514 0.12920
8421.7 0.79695 0.1355(32) 97115. 0.10511 0.13705
8428.7 0.79761 0.1508(32) 97893. 0.10507 0.14681
8435.7 0.79827 0.1576(32) 97308. 0.10503 0.15872
8442.7 0.79894 0.1815(32) 96134. 0.10499 0.17354
8449.7 0.79960 0.1958(33) 93748. 0.10495 0.18406
8456.7 0.80026 0.1937(33) 94264. 0.10491 0.17980
8463.8 0.80093 0.1689(32) 96932. 0.10486 0.16231
8470.8 0.80159 0.1502(32) 98492. 0.10482 0.14383
8477.8 0.80226 0.1393(32) 99409. 0.10477 0.13338
8484.9 0.80293 0.1378(32) 99741. 0.10473 0.13166
8491.9 0.80359 0.1372(32) 99399. 0.10468 0.13485
8499.0 0.80426 0.1414(32) 98596. 0.10463 0.13825
8506.1 0.80493 0.1414(32) 98487. 0.10458 0.13881
8513.1 0.80560 0.1443(32) 99173. 0.10453 0.13680
8520.2 0.80627 0.1430(32) 99620. 0.10448 0.13413
8527.3 0.80694 0.1388(32) 98898. 0.10443 0.13179
8534.4 0.80761 0.1388(31) 101663. 0.10438 0.13041
8541.5 0.80828 0.1361(31) 101427. 0.10433 0.13161
8548.6 0.80895 0.1488(31) 101866. 0.10427 0.13771
8555.7 0.80962 0.1539(32) 100156. 0.10422 0.14783
8562.8 0.81030 0.1620(32) 98726. 0.10416 0.15484
8569.9 0.81097 0.1653(32) 100051. 0.10410 0.15190
8577.0 0.81164 0.1499(31) 102228. 0.10405 0.14174
8584.1 0.81232 0.1413(31) 103199. 0.10399 0.13337
8591.3 0.81299 0.1352(31) 101678. 0.10393 0.13277
8598.4 0.81367 0.1454(31) 104737. 0.10387 0.13948
8605.5 0.81434 0.1466(31) 101129. 0.10380 0.14854
8612.7 0.81502 0.1569(31) 102689. 0.10374 0.15419
8619.8 0.81570 0.1498(31) 101461. 0.10368 0.15290
8627.0 0.81638 0.1443(31) 103385. 0.10362 0.14589
8634.2 0.81705 0.1357(31) 103333. 0.10355 0.13715
8641.4 0.81773 0.1347(31) 104854. 0.10348 0.12934
8648.5 0.81841 0.1281(31) 104828. 0.10342 0.12494
8655.7 0.81909 0.1281(31) 104852. 0.10335 0.12837
8662.9 0.81977 0.1421(31) 103736. 0.10328 0.14247
8670.1 0.82045 0.1718(31) 103487. 0.10321 0.16123
8677.3 0.82114 0.1889(31) 103139. 0.10314 0.17125
8684.5 0.82182 0.1794(31) 104036. 0.10307 0.16574
8691.7 0.82250 0.1598(31) 104318. 0.10300 0.15161
8699.0 0.82319 0.1468(31) 104757. 0.10293 0.13974
8706.2 0.82387 0.1421(31) 106435. 0.10285 0.13550
8713.4 0.82455 0.1457(31) 106279. 0.10278 0.13743
8720.7 0.82524 0.1508(31) 106539. 0.10270 0.13881
8727.9 0.82592 0.1420(31) 107073. 0.10263 0.13453
8735.2 0.82661 0.1312(30) 108339. 0.10255 0.12629
8742.4 0.82730 0.1193(30) 108764. 0.10247 0.11901
8749.7 0.82799 0.1191(30) 111990. 0.10240 0.11574
8757.0 0.82867 0.1180(30) 110974. 0.10232 0.11676
8764.2 0.82936 0.1208(30) 111613. 0.10224 0.12063
8771.5 0.83005 0.1246(30) 111969. 0.10216 0.12513
8778.8 0.83074 0.1258(30) 109902. 0.10208 0.12819
8786.1 0.83143 0.1269(30) 110717. 0.10199 0.12998
8793.4 0.83212 0.1346(30) 112113. 0.10191 0.13117
8800.7 0.83281 0.1311(30) 111300. 0.10183 0.13002
8808.0 0.83351 0.1256(30) 112596. 0.10174 0.12497
8815.3 0.83420 0.1166(30) 114116. 0.10166 0.11814
8822.7 0.83489 0.1152(29) 115439. 0.10157 0.11331
8830.0 0.83559 0.1168(29) 115212. 0.10149 0.11227
8837.3 0.83628 0.1145(30) 114864. 0.10140 0.11440
8844.7 0.83697 0.1202(29) 115961. 0.10131 0.11794
8852.0 0.83767 0.1159(29) 115113. 0.10123 0.12152
8859.4 0.83837 0.1215(29) 115429. 0.10114 0.12471
8866.7 0.83906 0.1233(30) 114464. 0.10105 0.12795
8874.1 0.83976 0.1333(29) 117146. 0.10096 0.13112
8881.5 0.84046 0.1379(29) 116762. 0.10087 0.13155
8888.9 0.84116 0.1256(30) 114685. 0.10077 0.12717
8896.2 0.84185 0.1218(29) 118526. 0.10068 0.12025
8903.6 0.84255 0.1184(29) 119777. 0.10059 0.11514
8911.0 0.84325 0.1095(29) 118151. 0.10050 0.11465
8918.4 0.84396 0.1229(29) 120228. 0.10040 0.11906
8925.8 0.84466 0.1284(29) 118852. 0.10031 0.12563
8933.3 0.84536 0.1345(29) 120346. 0.10021 0.13023
8940.7 0.84606 0.1317(29) 119650. 0.10012 0.13084
8948.1 0.84676 0.1304(29) 120840. 0.10002 0.12846
8955.5 0.84747 0.1220(29) 120413. 0.09993 0.12613
8963.0 0.84817 0.1182(29) 120482. 0.09983 0.12623
8970.4 0.84888 0.1227(29) 122446. 0.09973 0.12702
8977.9 0.84958 0.1214(29) 120811. 0.09963 0.12486
8985.3 0.85029 0.1230(28) 125158. 0.09953 0.11947
8992.8 0.85099 0.1089(28) 123377. 0.09944 0.11391
9000.3 0.85170 0.1117(28) 125570. 0.09934 0.11058
9007.8 0.85241 0.1040(28) 124536. 0.09924 0.10954
9015.2 0.85312 0.1051(28) 125763. 0.09913 0.10933
9022.7 0.85383 0.1057(28) 126764. 0.09903 0.10875
9030.2 0.85454 0.1021(28) 126526. 0.09893 0.10775
9037.7 0.85525 0.1014(28) 126917. 0.09883 0.10693
9045.3 0.85596 0.1036(28) 127255. 0.09873 0.10727
9052.8 0.85667 0.1097(28) 127647. 0.09863 0.10943
9060.3 0.85738 0.1132(28) 127468. 0.09852 0.11308
9067.8 0.85809 0.1158(28) 126253. 0.09842 0.11699
9075.4 0.85880 0.1258(28) 128567. 0.09832 0.11920
9082.9 0.85952 0.1182(28) 127753. 0.09821 0.11799
9090.4 0.86023 0.1137(28) 128569. 0.09811 0.11432
9098.0 0.86095 0.1111(28) 129650. 0.09800 0.11126
9105.6 0.86166 0.1139(28) 130432. 0.09790 0.11066
9113.1 0.86238 0.1114(28) 129586. 0.09779 0.11212
9120.7 0.86310 0.1148(28) 130325. 0.09769 0.11376
9128.3 0.86381 0.1076(28) 128035. 0.09758 0.11393
9135.9 0.86453 0.1125(28) 132139. 0.09747 0.11309
9143.4 0.86525 0.1088(28) 130950. 0.09737 0.11321
9151.0 0.86597 0.1136(27) 133273. 0.09726 0.11553
9158.6 0.86669 0.1155(28) 130466. 0.09715 0.11996
9166.3 0.86741 0.1212(28) 129836. 0.09705 0.12424
9173.9 0.86813 0.1301(27) 133398. 0.09694 0.12511
9181.5 0.86885 0.1198(28) 131781. 0.09683 0.12280
9189.1 0.86957 0.1190(27) 133015. 0.09672 0.12102
9196.8 0.87029 0.1182(28) 132031. 0.09662 0.12187
9204.4 0.87102 0.1195(28) 132057. 0.09651 0.12420
9212.0 0.87174 0.1176(28) 130235. 0.09640 0.12565
9219.7 0.87247 0.1232(27) 133078. 0.09629 0.12394
9227.4 0.87319 0.1144(27) 132279. 0.09618 0.11887
9235.0 0.87392 0.1102(27) 133242. 0.09607 0.11304
9242.7 0.87464 0.1121(27) 136388. 0.09597 0.10856
9250.4 0.87537 0.1073(27) 135847. 0.09586 0.10532
9258.1 0.87610 0.1055(27) 138582. 0.09575 0.10280
9265.8 0.87682 0.1045(27) 138179. 0.09564 0.10121
9273.5 0.87755 0.1000(27) 136965. 0.09553 0.10125
9281.2 0.87828 0.1027(27) 136579. 0.09542 0.10357
9288.9 0.87901 0.1097(27) 139916. 0.09531 0.10747
9296.6 0.87974 0.1045(27) 136826. 0.09520 0.11072
9304.3 0.88047 0.1088(27) 137378. 0.09509 0.11206
9312.1 0.88120 0.1126(27) 137122. 0.09499 0.11351
9319.8 0.88194 0.1166(27) 135679. 0.09488 0.12054
9327.5 0.88267 0.1341(27) 136604. 0.09477 0.13964
9335.3 0.88340 0.1564(28) 130911. 0.09466 0.16936
9343.0 0.88414 0.1838(28) 128967. 0.09455 0.19258
9350.8 0.88487 0.1865(28) 128684. 0.09444 0.19105
9358.6 0.88561 0.1635(27) 134643. 0.09433 0.16789
9366.3 0.88634 0.1351(27) 134575. 0.09423 0.14161
9374.1 0.88708 0.1182(27) 135499. 0.09412 0.12517
9381.9 0.88782 0.1155(27) 136172. 0.09401 0.12031
9389.7 0.88855 0.1265(27) 138244. 0.09390 0.12210
9397.5 0.88929 0.1198(27) 135705. 0.09380 0.12392
9405.3 0.89003 0.1208(27) 138781. 0.09369 0.12247
9413.1 0.89077 0.1128(27) 137509. 0.09358 0.11873
9421.0 0.89151 0.1151(26) 143607. 0.09347 0.11509
9428.8 0.89225 0.1043(27) 138352. 0.09337 0.11345
9436.6 0.89299 0.1096(27) 140148. 0.09326 0.11350
9444.5 0.89374 0.1117(27) 140223. 0.09315 0.11260
9452.3 0.89448 0.1043(27) 140047. 0.09305 0.10928
9460.2 0.89522 0.1023(27) 140256. 0.09294 0.10523
9468.0 0.89597 0.1050(27) 142376. 0.09284 0.10376
9475.9 0.89671 0.1051(27) 141036. 0.09273 0.10800
9483.8 0.89746 0.1140(27) 139671. 0.09263 0.11911
9491.6 0.89820 0.1271(27) 137168. 0.09253 0.13224
9499.5 0.89895 0.1348(27) 137158. 0.09242 0.13799
9507.4 0.89969 0.1277(27) 137635. 0.09232 0.13272
9515.3 0.90044 0.1195(27) 138709. 0.09222 0.12276
9523.2 0.90119 0.1168(27) 141425. 0.09211 0.11642
9531.1 0.90194 0.1180(27) 141584. 0.09201 0.11736
9539.1 0.90269 0.1200(27) 139349. 0.09191 0.12335
9547.0 0.90344 0.1275(27) 137506. 0.09181 0.12847
9554.9 0.90419 0.1250(27) 138346. 0.09171 0.12891
9562.9 0.90494 0.1196(27) 140447. 0.09161 0.12558
9570.8 0.90569 0.1150(27) 139757. 0.09151 0.12011
9578.8 0.90644 0.1080(27) 139343. 0.09141 0.11333
9586.7 0.90720 0.1077(26) 143139. 0.09131 0.10690
9594.7 0.90795 0.0974(27) 139996. 0.09121 0.10233
9602.7 0.90871 0.0994(26) 142766. 0.09112 0.09977
9610.6 0.90946 0.1015(26) 144091. 0.09102 0.09886
9618.6 0.91022 0.1034(26) 143720. 0.09092 0.09904
9626.6 0.91097 0.1047(26) 145401. 0.09083 0.09970
9634.6 0.91173 0.0953(27) 141778. 0.09073 0.10161
9642.6 0.91249 0.1042(26) 143272. 0.09064 0.10614
9650.6 0.91325 0.1121(26) 142544. 0.09054 0.11193
9658.7 0.91401 0.1154(26) 143003. 0.09045 0.11477
9666.7 0.91476 0.1082(27) 141585. 0.09036 0.11254
9674.7 0.91552 0.1043(26) 142707. 0.09027 0.10754
9682.7 0.91629 0.1016(26) 143041. 0.09018 0.10312
9690.8 0.91705 0.0988(26) 144100. 0.09009 0.10152
9698.8 0.91781 0.1006(26) 144881. 0.09000 0.10348
9706.9 0.91857 0.1107(26) 144840. 0.08991 0.10723
9715.0 0.91933 0.1120(26) 146054. 0.08982 0.10921
9723.0 0.92010 0.1113(26) 145057. 0.08974 0.10788
9731.1 0.92086 0.1093(26) 145167. 0.08965 0.10479
9739.2 0.92163 0.1017(26) 145935. 0.08956 0.10210
9747.3 0.92239 0.0996(26) 146482. 0.08948 0.10133
9755.4 0.92316 0.0973(26) 144709. 0.08940 0.10265
9763.5 0.92393 0.1009(26) 144956. 0.08931 0.10410
9771.6 0.92470 0.1008(26) 145988. 0.08923 0.10342
9779.7 0.92546 0.0974(26) 145961. 0.08915 0.10108
9787.9 0.92623 0.1004(26) 145178. 0.08907 0.10033
9796.0 0.92700 0.1093(26) 148433. 0.08899 0.10532
9804.1 0.92777 0.1218(26) 145570. 0.08891 0.11814
9812.3 0.92854 0.1343(27) 142251. 0.08884 0.13422
9820.4 0.92932 0.1459(27) 139981. 0.08876 0.14358
9828.6 0.93009 0.1415(27) 141516. 0.08869 0.14206
9836.8 0.93086 0.1325(27) 142086. 0.08861 0.13532
9844.9 0.93163 0.1269(26) 144793. 0.08854 0.12843
9853.1 0.93241 0.1201(26) 147407. 0.08847 0.12144
9861.3 0.93318 0.1125(26) 147062. 0.08840 0.11507
9869.5 0.93396 0.1096(26) 147819. 0.08833 0.11151
9877.7 0.93473 0.1080(26) 145181. 0.08826 0.10991
9885.9 0.93551 0.1080(26) 146931. 0.08819 0.10719
9894.1 0.93629 0.1019(26) 147793. 0.08812 0.10237
9902.3 0.93707 0.1004(26) 148206. 0.08806 0.09720
9910.6 0.93784 0.0962(26) 150444. 0.08799 0.09337
9918.8 0.93862 0.0945(26) 150060. 0.08793 0.09123
9927.0 0.93940 0.0905(26) 147653. 0.08787 0.09043
9935.3 0.94018 0.0987(26) 152414. 0.08781 0.09040
9943.5 0.94097 0.0948(26) 151596. 0.08775 0.09060
9951.8 0.94175 0.0923(26) 150660. 0.08769 0.09067
9960.1 0.94253 0.0875(26) 149129. 0.08763 0.09071
9968.4 0.94331 0.1014(26) 152422. 0.08758 0.09121
9976.6 0.94410 0.0950(26) 150419. 0.08752 0.09314
9984.9 0.94488 0.1000(26) 149635. 0.08747 0.09757
9993.2 0.94567 0.1026(26) 149383. 0.08742 0.10373
10001.5 0.94645 0.1103(26) 150360. 0.08736 0.10856
10009.8 0.94724 0.1116(26) 150262. 0.08732 0.10990
10018.2 0.94803 0.1055(26) 149756. 0.08727 0.10858
10026.5 0.94881 0.1031(26) 148452. 0.08722 0.10623
10034.8 0.94960 0.1043(26) 150213. 0.08717 0.10453
10043.1 0.95039 0.1047(26) 149607. 0.08713 0.10662
10051.5 0.95118 0.1110(26) 148687. 0.08709 0.11427
10059.8 0.95197 0.1166(26) 148408. 0.08704 0.12316
10068.2 0.95276 0.1202(26) 146609. 0.08700 0.12581
10076.6 0.95355 0.1184(26) 150217. 0.08697 0.12055
10084.9 0.95435 0.1074(26) 147293. 0.08693 0.11201
10093.3 0.95514 0.1055(26) 152829. 0.08689 0.10426
10101.7 0.95593 0.0991(26) 149546. 0.08686 0.09880
10110.1 0.95673 0.0990(25) 154306. 0.08682 0.09604
10118.5 0.95752 0.0965(26) 151911. 0.08679 0.09531
10126.9 0.95832 0.0983(26) 153033. 0.08676 0.09507
10135.3 0.95911 0.0951(26) 153256. 0.08673 0.09423
10143.7 0.95991 0.0932(26) 152734. 0.08671 0.09298
10152.2 0.96071 0.0950(25) 153864. 0.08668 0.09180
10160.6 0.96151 0.0951(25) 154090. 0.08666 0.09118
10169.1 0.96231 0.1017(25) 154810. 0.08663 0.09193
10177.5 0.96311 0.0983(26) 153709. 0.08661 0.09447
10186.0 0.96391 0.1055(25) 154701. 0.08659 0.09778
10194.4 0.96471 0.1053(25) 154406. 0.08657 0.10007
10202.9 0.96551 0.1043(26) 153743. 0.08656 0.10094
10211.4 0.96631 0.1072(25) 156421. 0.08654 0.10074
10219.9 0.96711 0.1052(25) 155314. 0.08653 0.09969
10228.3 0.96792 0.1025(25) 154998. 0.08652 0.09938
10236.8 0.96872 0.1022(25) 154380. 0.08651 0.10248
10245.4 0.96953 0.1058(26) 152964. 0.08650 0.10883
10253.9 0.97033 0.1131(25) 154925. 0.08649 0.11350
10262.4 0.97114 0.1118(26) 153224. 0.08648 0.11190
10270.9 0.97195 0.1023(26) 152678. 0.08648 0.10545
10279.4 0.97275 0.0996(25) 155657. 0.08648 0.09894
10288.0 0.97356 0.0935(26) 152519. 0.08648 0.09551
10296.5 0.97437 0.0973(25) 153870. 0.08648 0.09608
10305.1 0.97518 0.1000(25) 154474. 0.08648 0.09989
10313.7 0.97599 0.1032(26) 153318. 0.08648 0.10443
10322.2 0.97680 0.1102(26) 153485. 0.08649 0.10728
10330.8 0.97761 0.1075(26) 153546. 0.08650 0.10869
10339.4 0.97843 0.1078(26) 151385. 0.08651 0.10986
10348.0 0.97924 0.1128(25) 154897. 0.08652 0.11036
10356.6 0.98005 0.1091(26) 153514. 0.08653 0.11084
10365.2 0.98087 0.1157(25) 153923. 0.08655 0.11428
10373.8 0.98168 0.1144(26) 150698. 0.08656 0.12036
10382.4 0.98250 0.1207(26) 151530. 0.08658 0.12330
10391.0 0.98331 0.1209(26) 152795. 0.08660 0.11900
10399.7 0.98413 0.1120(26) 153213. 0.08662 0.11019
10408.3 0.98495 0.1054(25) 156471. 0.08664 0.10188
10417.0 0.98577 0.0946(26) 153093. 0.08667 0.09653
10425.6 0.98659 0.0979(25) 156290. 0.08670 0.09490
10434.3 0.98741 0.0949(26) 153485. 0.08672 0.09811
10442.9 0.98823 0.1049(26) 151764. 0.08675 0.10658
10451.6 0.98905 0.1133(26) 151820. 0.08679 0.11649
10460.3 0.98987 0.1165(26) 152328. 0.08682 0.12126
10469.0 0.99069 0.1144(26) 150835. 0.08686 0.11895
10477.7 0.99152 0.1041(26) 150162. 0.08689 0.11319
10486.4 0.99234 0.1046(26) 152605. 0.08693 0.10701
10495.1 0.99316 0.0995(26) 153745. 0.08697 0.10135
10503.8 0.99399 0.1001(25) 154565. 0.08701 0.09718
10512.6 0.99481 0.0974(25) 154729. 0.08706 0.09503
10521.3 0.99564 0.0968(25) 155128. 0.08711 0.09418
10530.0 0.99647 0.0971(25) 153998. 0.08715 0.09362
10538.8 0.99730 0.0988(25) 155066. 0.08720 0.09304
10547.5 0.99813 0.0966(25) 153934. 0.08725 0.09262
10556.3 0.99895 0.0961(25) 155127. 0.08731 0.09233
10565.1 0.99978 0.0953(26) 153556. 0.08736 0.09240
10573.9 1.00062 0.0956(26) 153310. 0.08742 0.09363
10582.7 1.00145 0.0968(26) 153471. 0.08748 0.09636
10591.4 1.00228 0.0986(26) 152122. 0.08754 0.10037
10600.2 1.00311 0.1036(26) 152951. 0.08760 0.10689
10609.1 1.00395 0.1157(26) 152504. 0.08767 0.11865
10617.9 1.00478 0.1303(26) 148002. 0.08773 0.13350
10626.7 1.00561 0.1425(26) 148684. 0.08780 0.14178
10635.5 1.00645 0.1347(26) 148038. 0.08787 0.13745
10644.4 1.00729 0.1195(26) 147672. 0.08794 0.12666
10653.2 1.00812 0.1152(26) 149608. 0.08802 0.11897
10662.1 1.00896 0.1155(26) 150472. 0.08809 0.11679
10670.9 1.00980 0.1175(26) 151189. 0.08817 0.11600
10679.8 1.01064 0.1140(26) 150830. 0.08825 0.11298
10688.7 1.01148 0.1078(26) 151599. 0.08833 0.10837
10697.5 1.01232 0.1015(26) 150055. 0.08841 0.10396
10706.4 1.01316 0.1007(26) 151565. 0.08849 0.10004
10715.3 1.01400 0.0959(26) 151745. 0.08858 0.09679
10724.2 1.01484 0.0982(26) 151836. 0.08867 0.09497
10733.1 1.01569 0.0983(26) 152023. 0.08876 0.09486
10742.0 1.01653 0.0968(26) 151006. 0.08885 0.09546
10751.0 1.01738 0.0982(26) 151695. 0.08894 0.09535
10759.9 1.01822 0.0966(26) 151622. 0.08904 0.09422
10768.8 1.01907 0.0977(26) 152729. 0.08913 0.09284
10777.8 1.01991 0.0972(26) 152137. 0.08923 0.09209
10786.8 1.02076 0.0957(26) 152555. 0.08933 0.09270
10795.7 1.02161 0.0987(26) 151010. 0.08944 0.09596
10804.7 1.02246 0.1020(26) 147828. 0.08954 0.10280
10813.7 1.02331 0.1118(26) 147926. 0.08965 0.11133
10822.6 1.02416 0.1165(26) 147149. 0.08975 0.11665
10831.6 1.02501 0.1204(26) 148753. 0.08986 0.11618
10840.6 1.02586 0.1146(26) 148452. 0.08997 0.11268
10849.6 1.02671 0.1125(26) 146763. 0.09009 0.11026
10858.7 1.02757 0.1100(26) 144547. 0.09020 0.11281
10867.7 1.02842 0.1349(26) 148166. 0.09032 0.12691
10876.7 1.02928 0.1593(27) 141276. 0.09043 0.15739
10885.8 1.03013 0.1947(27) 136598. 0.09055 0.19469
10894.8 1.03099 0.2183(27) 134767. 0.09068 0.21559
10903.9 1.03184 0.2130(27) 137150. 0.09080 0.20684
10912.9 1.03270 0.1767(27) 139465. 0.09092 0.17883
10922.0 1.03356 0.1512(26) 142444. 0.09105 0.14997
10931.1 1.03442 0.1321(26) 146183. 0.09118 0.12941
10940.1 1.03528 0.1235(26) 147286. 0.09131 0.11829
10949.2 1.03614 0.1267(26) 147788. 0.09144 0.11696
10958.3 1.03700 0.1365(26) 147791. 0.09157 0.12553
10967.4 1.03786 0.1514(26) 143841. 0.09171 0.13902
10976.5 1.03872 0.1606(26) 145127. 0.09184 0.14695
10985.7 1.03959 0.1501(26) 142959. 0.09198 0.14268
10994.8 1.04045 0.1405(26) 146407. 0.09212 0.12993
11003.9 1.04131 0.1244(26) 146874. 0.09226 0.11680
11013.1 1.04218 0.1097(26) 146584. 0.09241 0.10774
11022.2 1.04305 0.1131(26) 150798. 0.09255 0.10381
11031.4 1.04391 0.1083(26) 146741. 0.09270 0.10652
11040.5 1.04478 0.1182(26) 146861. 0.09284 0.11870
11049.7 1.04565 0.1404(26) 146230. 0.09299 0.13873
11058.9 1.04652 0.1573(26) 143432. 0.09314 0.15584
11068.1 1.04739 0.1510(27) 141405. 0.09330 0.16019
11077.3 1.04826 0.1497(26) 143406. 0.09345 0.15491
11086.5 1.04913 0.1361(26) 143614. 0.09360 0.14749
11095.7 1.05000 0.1289(26) 142996. 0.09376 0.13886
11104.9 1.05087 0.1232(26) 145539. 0.09392 0.12919
11114.1 1.05174 0.1245(26) 147769. 0.09408 0.12383
11123.4 1.05262 0.1316(26) 146475. 0.09424 0.12898
11132.6 1.05349 0.1416(26) 143019. 0.09440 0.14365
11141.9 1.05437 0.1580(26) 143095. 0.09457 0.15620
11151.1 1.05525 0.1605(27) 141765. 0.09473 0.15509
11160.4 1.05612 0.1435(26) 142881. 0.09490 0.14234
11169.7 1.05700 0.1252(26) 142817. 0.09507 0.12782
11179.0 1.05788 0.1234(26) 145470. 0.09523 0.11713
11188.2 1.05876 0.1152(26) 145844. 0.09541 0.11141
11197.5 1.05964 0.1135(26) 145804. 0.09558 0.11171
11206.8 1.06052 0.1228(26) 143947. 0.09575 0.11949
11216.2 1.06140 0.1379(26) 144418. 0.09592 0.13254
11225.5 1.06228 0.1446(27) 141831. 0.09610 0.14392
11234.8 1.06316 0.1506(27) 141557. 0.09628 0.14913
11244.1 1.06405 0.1529(27) 140553. 0.09646 0.15210
11253.5 1.06493 0.1590(27) 138771. 0.09663 0.15613
11262.8 1.06582 0.1635(27) 140413. 0.09682 0.15591
11272.2 1.06670 0.1526(27) 140061. 0.09700 0.14766
11281.6 1.06759 0.1403(27) 141090. 0.09718 0.13737
11290.9 1.06847 0.1348(27) 142339. 0.09736 0.13245
11300.3 1.06936 0.1362(26) 143373. 0.09755 0.13222
11309.7 1.07025 0.1320(26) 142496. 0.09773 0.13080
11319.1 1.07114 0.1197(27) 141259. 0.09792 0.12513
11328.5 1.07203 0.1164(26) 143488. 0.09811 0.11733
11337.9 1.07292 0.1126(26) 144189. 0.09830 0.11053
11347.3 1.07381 0.1056(26) 143517. 0.09849 0.10591
11356.8 1.07470 0.1047(26) 144101. 0.09868 0.10315
11366.2 1.07560 0.1001(27) 141871. 0.09887 0.10172
11375.6 1.07649 0.0979(26) 143106. 0.09907 0.10149
11385.1 1.07739 0.1090(26) 145825. 0.09926 0.10257
11394.6 1.07828 0.1039(26) 143091. 0.09945 0.10526
11404.0 1.07918 0.1093(26) 142762. 0.09965 0.11055
11413.5 1.08007 0.1192(27) 142005. 0.09985 0.12174
11423.0 1.08097 0.1384(27) 139925. 0.10004 0.14129
11432.5 1.08187 0.1558(27) 138807. 0.10024 0.16227
11442.0 1.08277 0.1665(27) 136718. 0.10044 0.17043
11451.5 1.08367 0.1587(27) 137479. 0.10064 0.16235
11461.0 1.08457 0.1447(27) 137900. 0.10084 0.15000
11470.5 1.08547 0.1366(27) 137061. 0.10104 0.14494
11480.1 1.08637 0.1442(27) 138617. 0.10124 0.14751
11489.6 1.08727 0.1410(27) 137100. 0.10145 0.14978
11499.1 1.08818 0.1425(27) 139400. 0.10165 0.14523
11508.7 1.08908 0.1309(27) 138227. 0.10185 0.13487
11518.3 1.08999 0.1234(27) 139240. 0.10206 0.12395
11527.8 1.09089 0.1129(27) 140009. 0.10226 0.11588
11537.4 1.09180 0.1087(27) 139726. 0.10247 0.11117
11547.0 1.09271 0.1067(27) 138679. 0.10267 0.10982
11556.6 1.09361 0.1114(27) 139384. 0.10288 0.11294
11566.2 1.09452 0.1189(27) 137189. 0.10309 0.12225
11575.8 1.09543 0.1387(27) 137669. 0.10329 0.13620
11585.4 1.09634 0.1450(27) 134164. 0.10350 0.14770
11595.0 1.09725 0.1502(27) 134281. 0.10371 0.14979
11604.7 1.09817 0.1427(27) 134431. 0.10392 0.14472
11614.3 1.09908 0.1353(27) 135532. 0.10412 0.13908
11624.0 1.09999 0.1259(27) 135728. 0.10433 0.13427
11633.6 1.10091 0.1240(27) 136116. 0.10454 0.12833
11643.3 1.10182 0.1148(27) 135372. 0.10475 0.12178
11653.0 1.10274 0.1059(27) 133335. 0.10496 0.11688
11662.6 1.10365 0.1085(27) 135565. 0.10517 0.11479
11672.3 1.10457 0.1104(27) 136895. 0.10538 0.11485
11682.0 1.10549 0.1076(27) 136262. 0.10559 0.11520
11691.7 1.10641 0.1099(27) 135424. 0.10580 0.11438
11701.5 1.10732 0.1079(27) 137163. 0.10601 0.11261
11711.2 1.10825 0.1048(27) 135777. 0.10622 0.11092
11720.9 1.10917 0.1034(27) 134554. 0.10643 0.10977
11730.7 1.11009 0.1045(27) 133879. 0.10664 0.10912
11740.4 1.11101 0.1030(27) 133515. 0.10685 0.10927
11750.2 1.11193 0.1068(27) 133553. 0.10706 0.11134
11759.9 1.11286 0.1119(28) 132177. 0.10726 0.11704
11769.7 1.11378 0.1228(28) 131444. 0.10747 0.12631
11779.5 1.11471 0.1251(28) 130352. 0.10768 0.13437
11789.3 1.11563 0.1336(28) 131597. 0.10789 0.13562
11799.1 1.11656 0.1284(28) 130003. 0.10810 0.13059
11808.9 1.11749 0.1204(28) 130940. 0.10831 0.12410
11818.7 1.11842 0.1106(28) 129430. 0.10851 0.11907
11828.5 1.11935 0.1148(28) 130571. 0.10872 0.11578
11838.3 1.12028 0.1140(28) 130022. 0.10893 0.11391
11848.2 1.12121 0.1155(28) 130238. 0.10913 0.11390
11858.0 1.12214 0.1195(28) 130125. 0.10934 0.11689
11867.9 1.12307 0.1331(28) 128243. 0.10955 0.12388
11877.7 1.12400 0.1461(28) 126900. 0.10975 0.13543
11887.6 1.12494 0.1692(28) 124909. 0.10996 0.15706
11897.5 1.12587 0.2086(29) 122233. 0.11016 0.20464
11907.3 1.12681 0.2736(29) 115693. 0.11036 0.28454
11917.2 1.12774 0.3500(30) 109948. 0.11056 0.35966
11927.1 1.12868 0.3724(30) 109411. 0.11077 0.37517
11937.1 1.12962 0.3222(30) 112644. 0.11097 0.32887
11947.0 1.13056 0.2625(29) 115800. 0.11117 0.26670
11956.9 1.13150 0.2161(29) 118099. 0.11137 0.22314
11966.8 1.13244 0.2007(29) 119478. 0.11156 0.20154
11976.8 1.13338 0.1963(29) 121263. 0.11176 0.18968
11986.7 1.13432 0.1738(29) 118744. 0.11196 0.17728
11996.7 1.13526 0.1677(29) 120693. 0.11215 0.16399
12006.7 1.13621 0.1535(29) 121096. 0.11235 0.15506
12016.6 1.13715 0.1537(29) 122051. 0.11254 0.15184
12026.6 1.13810 0.1454(29) 121456. 0.11273 0.14932
12036.6 1.13904 0.1426(29) 121898. 0.11293 0.14372
12046.6 1.13999 0.1308(29) 120395. 0.11312 0.13788
12056.6 1.14093 0.1330(29) 120629. 0.11330 0.13700
12066.6 1.14188 0.1330(29) 118968. 0.11349 0.14191
12076.7 1.14283 0.1418(29) 118844. 0.11368 0.14711
12086.7 1.14378 0.1436(29) 117884. 0.11386 0.14620
12096.7 1.14473 0.1335(29) 117628. 0.11405 0.13972
12106.8 1.14568 0.1295(29) 119254. 0.11423 0.13188
12116.9 1.14664 0.1227(29) 118562. 0.11441 0.12569
12126.9 1.14759 0.1212(29) 118417. 0.11459 0.12164
12137.0 1.14854 0.1178(29) 118157. 0.11477 0.11930
12147.1 1.14950 0.1231(29) 118891. 0.11495 0.11864
12157.2 1.15045 0.1262(29) 116948. 0.11512 0.12101
12167.3 1.15141 0.1369(29) 116970. 0.11530 0.13141
12177.4 1.15236 0.1530(30) 113913. 0.11547 0.15802
12187.5 1.15332 0.1974(30) 110942. 0.11564 0.20099
12197.6 1.15428 0.2424(30) 108590. 0.11581 0.23949
12207.8 1.15524 0.2544(30) 108196. 0.11598 0.25079
12217.9 1.15620 0.2354(30) 107686. 0.11615 0.24291
12228.1 1.15716 0.2334(30) 108783. 0.11631 0.23913
12238.2 1.15812 0.2323(30) 107743. 0.11647 0.24024
12248.4 1.15908 0.2233(30) 107927. 0.11663 0.22993
12258.6 1.16005 0.2083(30) 108725. 0.11679 0.20698
12268.8 1.16101 0.1913(30) 109508. 0.11695 0.18853
12278.9 1.16197 0.1950(30) 107956. 0.11710 0.19356
12289.2 1.16294 0.2401(31) 106516. 0.11726 0.23346
12299.4 1.16391 0.3073(31) 102758. 0.11741 0.29806
12309.6 1.16487 0.3584(32) 99427. 0.11756 0.34717
12319.8 1.16584 0.3517(32) 99272. 0.11771 0.34615
12330.0 1.16681 0.3097(32) 100659. 0.11785 0.30931
12340.3 1.16778 0.2786(31) 103558. 0.11799 0.27418
12350.5 1.16875 0.2536(31) 103940. 0.11813 0.25216
12360.8 1.16972 0.2367(31) 104017. 0.11827 0.23247
12371.1 1.17069 0.2270(31) 103867. 0.11841 0.21651
12381.4 1.17167 0.2344(31) 102753. 0.11854 0.22930
12391.6 1.17264 0.2957(32) 100425. 0.11868 0.29847
12401.9 1.17361 0.4021(33) 94345. 0.11881 0.40987
12412.2 1.17459 0.4882(33) 91094. 0.11893 0.48699
12422.6 1.17557 0.4623(33) 91498. 0.11906 0.46961
12432.9 1.17654 0.3763(32) 95890. 0.11918 0.38599
12443.2 1.17752 0.2943(32) 99703. 0.11930 0.29797
12453.6 1.17850 0.2305(31) 102252. 0.11942 0.23390
12463.9 1.17948 0.1949(31) 103141. 0.11954 0.19284
12474.3 1.18046 0.1799(31) 105531. 0.11965 0.16706
12484.6 1.18144 0.1624(31) 106001. 0.11976 0.15082
12495.0 1.18242 0.1600(31) 106644. 0.11987 0.14276
12505.4 1.18340 0.1576(31) 105296. 0.11997 0.14548
12515.8 1.18439 0.1776(31) 104358. 0.12007 0.16667
12526.2 1.18537 0.2245(31) 102379. 0.12018 0.21149
12536.6 1.18636 0.2821(32) 100094. 0.12027 0.26466
12547.0 1.18734 0.3127(32) 97654. 0.12037 0.29085
12557.4 1.18833 0.2937(32) 99055. 0.12046 0.27454
12567.8 1.18931 0.2516(31) 101848. 0.12055 0.23751
12578.3 1.19030 0.2061(31) 101712. 0.12064 0.20456
12588.7 1.19129 0.1845(31) 103520. 0.12072 0.18215
12599.2 1.19228 0.1739(31) 105725. 0.12080 0.16514
12609.7 1.19327 0.1586(31) 105809. 0.12088 0.15139
12620.1 1.19426 0.1495(31) 106249. 0.12095 0.14200
12630.6 1.19526 0.1453(31) 106148. 0.12103 0.13898
12641.1 1.19625 0.1468(31) 106159. 0.12110 0.14524
12651.6 1.19724 0.1636(31) 105544. 0.12116 0.16112
12662.1 1.19824 0.1756(31) 104521. 0.12123 0.17748
12672.7 1.19923 0.1788(31) 103525. 0.12129 0.18150
12683.2 1.20023 0.1699(31) 104515. 0.12135 0.17276
12693.7 1.20123 0.1573(31) 104088. 0.12140 0.16158
12704.3 1.20223 0.1551(31) 105909. 0.12145 0.15412
12714.8 1.20323 0.1449(31) 105551. 0.12150 0.14849
12725.4 1.20422 0.1429(31) 105305. 0.12155 0.14275
12736.0 1.20523 0.1388(31) 106825. 0.12159 0.13801
12746.6 1.20623 0.1371(31) 106254. 0.12163 0.13763
12757.2 1.20723 0.1452(31) 106751. 0.12167 0.14375
12767.8 1.20823 0.1628(31) 107275. 0.12170 0.15356
12778.4 1.20924 0.1615(31) 105749. 0.12173 0.15921
12789.0 1.21024 0.1561(31) 106250. 0.12176 0.15631
12799.6 1.21125 0.1482(31) 107458. 0.12178 0.14821
12810.2 1.21225 0.1410(30) 107685. 0.12180 0.14003
12820.9 1.21326 0.1272(31) 106413. 0.12182 0.13410
12831.5 1.21427 0.1288(30) 108024. 0.12183 0.13036
12842.2 1.21528 0.1293(30) 108477. 0.12184 0.12800
12852.9 1.21629 0.1295(30) 108397. 0.12185 0.12667
12863.5 1.21730 0.1343(30) 108985. 0.12186 0.12739
12874.2 1.21831 0.1419(30) 108592. 0.12186 0.13431
12884.9 1.21932 0.1587(30) 107661. 0.12186 0.15724
12895.6 1.22034 0.2019(31) 104760. 0.12185 0.20947
12906.4 1.22135 0.2760(31) 101312. 0.12184 0.28823
12917.1 1.22236 0.3459(32) 98876. 0.12183 0.35377
12927.8 1.22338 0.3559(32) 98558. 0.12181 0.36194
12938.6 1.22440 0.3117(31) 101282. 0.12180 0.32145
12949.3 1.22541 0.2664(31) 104463. 0.12177 0.27576
12960.1 1.22643 0.2393(31) 105505. 0.12175 0.24687
12970.8 1.22745 0.2215(31) 106975. 0.12172 0.22654
12981.6 1.22847 0.1988(30) 107678. 0.12169 0.20357
12992.4 1.22949 0.1770(30) 109640. 0.12165 0.17954
13003.2 1.23051 0.1607(30) 111851. 0.12162 0.16056
13014.0 1.23154 0.1530(30) 112436. 0.12157 0.14908
13024.8 1.23256 0.1456(30) 111502. 0.12153 0.14499
13035.6 1.23358 0.1511(30) 112188. 0.12148 0.14689
13046.5 1.23461 0.1532(30) 113096. 0.12143 0.15090
13057.3 1.23563 0.1562(30) 113247. 0.12137 0.15268
13068.2 1.23666 0.1624(30) 114813. 0.12132 0.15442
13079.0 1.23769 0.1663(30) 113994. 0.12125 0.16557
13089.9 1.23872 0.1900(30) 113530. 0.12119 0.19018
13100.8 1.23975 0.2197(30) 112693. 0.12112 0.21363
13111.6 1.24078 0.2185(30) 113257. 0.12105 0.21595
13122.5 1.24181 0.1958(30) 114521. 0.12097 0.19773
13133.4 1.24284 0.1740(29) 115855. 0.12090 0.17553
13144.4 1.24387 0.1587(29) 116998. 0.12082 0.16167
13155.3 1.24491 0.1636(29) 117733. 0.12073 0.16517
13166.2 1.24594 0.1944(29) 115654. 0.12064 0.19720
13177.1 1.24698 0.2489(30) 112830. 0.12055 0.25578
13188.1 1.24801 0.3101(30) 110208. 0.12046 0.30520
13199.1 1.24905 0.3108(30) 110619. 0.12036 0.30729
13210.0 1.25009 0.2689(30) 112685. 0.12026 0.26963
13221.0 1.25112 0.2191(29) 117252. 0.12016 0.22547
13232.0 1.25216 0.1959(29) 120061. 0.12005 0.19245
13243.0 1.25320 0.1599(29) 119731. 0.11994 0.17029
13254.0 1.25425 0.1478(29) 121463. 0.11983 0.15454
13265.0 1.25529 0.1383(29) 122858. 0.11971 0.14309
13276.0 1.25633 0.1394(28) 124732. 0.11959 0.13556
13287.0 1.25738 0.1342(28) 124560. 0.11947 0.13248
13298.1 1.25842 0.1371(28) 124561. 0.11934 0.13610
13309.1 1.25947 0.1470(28) 123341. 0.11921 0.14993
13320.2 1.26051 0.1724(29) 122815. 0.11908 0.17104
13331.3 1.26156 0.1854(29) 120926. 0.11895 0.18569
13342.3 1.26261 0.1870(29) 122556. 0.11881 0.18291
13353.4 1.26366 0.1635(28) 123804. 0.11867 0.16807
13364.5 1.26471 0.1401(28) 123686. 0.11853 0.15231
13375.6 1.26576 0.1407(28) 127033. 0.11838 0.14054
13386.7 1.26681 0.1269(28) 127904. 0.11823 0.13251
13397.9 1.26786 0.1257(28) 128125. 0.11808 0.12742
13409.0 1.26892 0.1239(28) 127793. 0.11792 0.12426
13420.1 1.26997 0.1230(28) 129318. 0.11777 0.12308
13431.3 1.27103 0.1241(28) 127655. 0.11761 0.12603
13442.4 1.27208 0.1414(28) 127045. 0.11744 0.14030
13453.6 1.27314 0.1771(28) 124893. 0.11728 0.17735
13464.8 1.27420 0.2355(29) 122514. 0.11711 0.23557
13476.0 1.27526 0.2889(29) 119109. 0.11694 0.28223
13487.2 1.27631 0.2940(29) 118021. 0.11677 0.28466
13498.4 1.27738 0.2593(29) 121654. 0.11659 0.25386
13509.6 1.27844 0.2194(28) 123305. 0.11642 0.22314
13520.8 1.27950 0.2026(28) 126166. 0.11624 0.20748
13532.1 1.28056 0.1959(28) 125521. 0.11605 0.19881
13543.3 1.28163 0.1860(28) 127427. 0.11587 0.18544
13554.6 1.28269 0.1618(28) 127917. 0.11568 0.16733
13565.8 1.28376 0.1505(28) 130230. 0.11549 0.15109
13577.1 1.28482 0.1425(28) 131500. 0.11530 0.14055
13588.4 1.28589 0.1383(28) 132193. 0.11511 0.13756
13599.7 1.28696 0.1417(28) 131187. 0.11491 0.14505
13611.0 1.28803 0.1600(28) 129742. 0.11472 0.16391
13622.3 1.28910 0.1853(28) 128898. 0.11452 0.18461
13633.6 1.29017 0.1953(28) 129196. 0.11432 0.19083
13644.9 1.29124 0.1822(28) 130923. 0.11411 0.17918
13656.3 1.29232 0.1600(27) 132686. 0.11391 0.16114
13667.6 1.29339 0.1442(27) 133725. 0.11370 0.14619
13679.0 1.29446 0.1336(27) 134680. 0.11350 0.13590
13690.3 1.29554 0.1304(27) 136582. 0.11329 0.12902
13701.7 1.29662 0.1238(27) 136253. 0.11308 0.12394
13713.1 1.29769 0.1186(27) 135824. 0.11286 0.12018
13724.5 1.29877 0.1181(27) 138280. 0.11265 0.11765
13735.9 1.29985 0.1172(27) 139326. 0.11243 0.11642
13747.3 1.30093 0.1120(27) 136989. 0.11222 0.11763
13758.7 1.30201 0.1198(27) 136081. 0.11200 0.12347
13770.2 1.30309 0.1274(27) 135842. 0.11178 0.13436
13781.6 1.30418 0.1448(27) 135853. 0.11156 0.14448
13793.0 1.30526 0.1478(27) 135873. 0.11134 0.14691
13804.5 1.30635 0.1420(27) 136143. 0.11112 0.14468
13816.0 1.30743 0.1450(27) 134717. 0.11089 0.14914
13827.5 1.30852 0.1676(27) 135830. 0.11067 0.16711
13839.0 1.30960 0.1931(27) 132280. 0.11045 0.18898
13850.4 1.31069 0.2067(27) 132704. 0.11022 0.19510
13862.0 1.31178 0.1872(27) 132535. 0.11000 0.18155
13873.5 1.31287 0.1609(27) 134041. 0.10977 0.16132
13885.0 1.31396 0.1438(27) 135973. 0.10954 0.14475
13896.5 1.31505 0.1349(27) 136735. 0.10932 0.13497
13908.1 1.31615 0.1332(27) 136561. 0.10909 0.13511
13919.6 1.31724 0.1543(27) 137324. 0.10886 0.15226
13931.2 1.31834 0.1826(27) 133994. 0.10863 0.18814
13942.8 1.31943 0.2162(28) 131733. 0.10841 0.22256
13954.4 1.32053 0.2270(28) 130356. 0.10818 0.22849
13966.0 1.32162 0.2055(27) 133410. 0.10795 0.20757
13977.6 1.32272 0.1767(27) 135048. 0.10773 0.18236
13989.2 1.32382 0.1626(27) 136580. 0.10750 0.16692
14000.8 1.32492 0.1549(27) 137687. 0.10727 0.16020
14012.4 1.32602 0.1506(27) 137789. 0.10705 0.15386
14024.1 1.32712 0.1447(27) 138414. 0.10682 0.14384
14035.7 1.32823 0.1299(27) 138856. 0.10660 0.13310
14047.4 1.32933 0.1314(27) 141299. 0.10637 0.12522
14059.1 1.33044 0.1236(27) 140861. 0.10615 0.12224
14070.8 1.33154 0.1255(27) 139681. 0.10593 0.12600
14082.4 1.33265 0.1318(27) 138545. 0.10570 0.13683
14094.1 1.33375 0.1510(27) 138396. 0.10548 0.15053
14105.9 1.33486 0.1596(27) 137353. 0.10526 0.16011
14117.6 1.33597 0.1616(27) 137254. 0.10505 0.16020
14129.3 1.33708 0.1638(27) 138406. 0.10483 0.15325
14141.0 1.33819 0.1580(27) 137423. 0.10461 0.15166
14152.8 1.33931 0.1823(27) 137055. 0.10440 0.17058
14164.6 1.34042 0.2208(27) 133749. 0.10419 0.21130
14176.3 1.34153 0.2516(28) 129095. 0.10398 0.24608
14188.1 1.34265 0.2585(28) 129961. 0.10377 0.24540
14199.9 1.34376 0.2290(27) 133077. 0.10356 0.21611
14211.7 1.34488 0.1870(27) 133365. 0.10336 0.18371
14223.5 1.34600 0.1690(27) 137246. 0.10315 0.16335
14235.3 1.34711 0.1635(27) 136836. 0.10295 0.16284
14247.1 1.34823 0.1828(27) 136568. 0.10276 0.18600
14259.0 1.34935 0.2070(28) 132059. 0.10256 0.21852
14270.8 1.35048 0.2219(28) 131883. 0.10237 0.23182
14282.7 1.35160 0.2125(27) 134265. 0.10217 0.21695
14294.6 1.35272 0.1850(27) 135990. 0.10199 0.18923
14306.4 1.35384 0.1551(27) 136672. 0.10180 0.16309
14318.3 1.35497 0.1382(27) 138564. 0.10162 0.14354
14330.2 1.35610 0.1297(27) 140923. 0.10144 0.13064
14342.1 1.35722 0.1209(27) 141365. 0.10126 0.12270
14354.0 1.35835 0.1141(27) 142352. 0.10108 0.11744
14366.0 1.35948 0.1120(27) 141389. 0.10091 0.11308
14377.9 1.36061 0.1120(27) 142201. 0.10075 0.10931
14389.9 1.36174 0.1069(26) 143050. 0.10058 0.10639
14401.8 1.36287 0.1054(27) 141077. 0.10042 0.10431
14413.8 1.36400 0.1008(26) 142863. 0.10026 0.10279
14425.8 1.36514 0.1012(27) 141918. 0.10011 0.10183
14437.7 1.36627 0.1054(26) 142801. 0.09996 0.10120
14449.7 1.36741 0.1011(27) 141170. 0.09981 0.10084
14461.7 1.36854 0.1019(26) 142692. 0.09967 0.10063
14473.8 1.36968 0.1009(26) 142681. 0.09953 0.10042
14485.8 1.37082 0.0989(27) 141738. 0.09940 0.10023
14497.8 1.37196 0.0995(26) 142591. 0.09927 0.10034
14509.9 1.37310 0.1016(26) 142794. 0.09914 0.10155
14521.9 1.37424 0.1082(27) 142270. 0.09902 0.10388
14534.0 1.37538 0.1098(26) 142636. 0.09890 0.10602
14546.1 1.37652 0.1093(27) 142229. 0.09879 0.10622
14558.2 1.37767 0.1064(27) 142276. 0.09868 0.10473
14570.3 1.37881 0.1052(26) 142434. 0.09857 0.10293
14582.4 1.37996 0.1043(27) 141128. 0.09848 0.10168
14594.5 1.38110 0.1044(26) 142735. 0.09838 0.10164
14606.6 1.38225 0.1154(26) 143406. 0.09829 0.10462
14618.7 1.38340 0.1189(27) 140976. 0.09821 0.11540
14630.9 1.38455 0.1387(27) 138940. 0.09813 0.14056
14643.0 1.38570 0.1703(27) 137024. 0.09805 0.17666
14655.2 1.38685 0.1939(27) 134248. 0.09798 0.20102
14667.4 1.38800 0.1929(27) 134480. 0.09792 0.19654
14679.6 1.38916 0.1701(27) 137046. 0.09786 0.17399
14691.8 1.39031 0.1464(27) 138779. 0.09780 0.15109
14704.0 1.39147 0.1269(27) 139155. 0.09776 0.13434
14716.2 1.39262 0.1199(27) 140529. 0.09771 0.12317
14728.4 1.39378 0.1176(26) 142566. 0.09768 0.11559
14740.7 1.39494 0.1098(27) 140394. 0.09764 0.11014
14752.9 1.39610 0.1084(26) 142880. 0.09762 0.10619
14765.2 1.39726 0.1074(27) 142301. 0.09760 0.10346
14777.4 1.39842 0.1034(26) 142554. 0.09758 0.10188
14789.7 1.39958 0.1066(26) 143253. 0.09757 0.10173
14802.0 1.40074 0.1059(27) 142229. 0.09757 0.10371
14814.3 1.40191 0.1122(26) 143532. 0.09757 0.10763
14826.6 1.40307 0.1113(27) 141451. 0.09758 0.11156
14838.9 1.40424 0.1105(27) 140152. 0.09759 0.11361
14851.3 1.40540 0.1173(26) 142529. 0.09761 0.11314
14863.6 1.40657 0.1123(26) 142680. 0.09764 0.11083
14876.0 1.40774 0.1168(26) 143123. 0.09767 0.10948
14888.3 1.40891 0.1156(27) 141794. 0.09771 0.11410
14900.7 1.41008 0.1280(27) 139702. 0.09775 0.13113
14913.1 1.41125 0.1546(27) 137970. 0.09780 0.15783
14925.5 1.41242 0.1726(27) 136683. 0.09785 0.17572
14937.9 1.41360 0.1709(27) 135935. 0.09792 0.17168
14950.3 1.41477 0.1504(27) 137836. 0.09798 0.15458
14962.7 1.41595 0.1400(27) 142257. 0.09806 0.13759
14975.1 1.41713 0.1248(27) 142380. 0.09814 0.12511
14987.6 1.41830 0.1134(27) 141404. 0.09822 0.11678
15000.0 1.41948 0.1198(26) 144509. 0.09831 0.11200
15012.5 1.42066 0.1124(27) 142332. 0.09841 0.11188
15025.0 1.42184 0.1214(26) 143402. 0.09851 0.11958
15037.4 1.42302 0.1287(27) 141022. 0.09862 0.13534
15049.9 1.42421 0.1445(27) 140751. 0.09874 0.14910
15062.4 1.42539 0.1438(27) 139093. 0.09886 0.14966
15075.0 1.42657 0.1386(27) 140950. 0.09899 0.14010
15087.5 1.42776 0.1297(27) 141093. 0.09912 0.13114
15100.0 1.42894 0.1295(27) 141183. 0.09926 0.13058
15112.6 1.43013 0.1428(27) 140749. 0.09940 0.14090
15125.1 1.43132 0.1511(27) 138092. 0.09955 0.15392
15137.7 1.43251 0.1635(27) 138329. 0.09970 0.15606
15150.3 1.43370 0.1527(27) 138945. 0.09986 0.14607
15162.9 1.43489 0.1323(27) 139651. 0.10003 0.13328
15175.5 1.43608 0.1226(27) 141542. 0.10020 0.12307
15188.1 1.43728 0.1158(26) 143478. 0.10038 0.11599
15200.7 1.43847 0.1110(26) 143102. 0.10056 0.11127
15213.3 1.43967 0.1049(26) 143606. 0.10074 0.10844
15226.0 1.44086 0.1076(26) 144310. 0.10093 0.10774
15238.6 1.44206 0.1093(26) 144237. 0.10113 0.11002
15251.3 1.44326 0.1154(26) 142895. 0.10133 0.11473
15263.9 1.44446 0.1181(27) 141773. 0.10153 0.11809
15276.6 1.44566 0.1195(26) 143203. 0.10174 0.11753
15289.3 1.44686 0.1229(26) 142779. 0.10196 0.11572
15302.0 1.44806 0.1207(27) 141702. 0.10217 0.11947
15314.7 1.44926 0.1425(27) 141134. 0.10240 0.13912
15327.5 1.45047 0.1796(27) 137637. 0.10262 0.18036
15340.2 1.45167 0.2195(27) 133817. 0.10285 0.22247
15352.9 1.45288 0.2360(28) 131645. 0.10308 0.23235
15365.7 1.45409 0.2100(27) 134469. 0.10332 0.21032
15378.5 1.45530 0.1794(27) 137681. 0.10355 0.18070
15391.2 1.45650 0.1514(27) 139657. 0.10379 0.15720
15404.0 1.45771 0.1359(27) 141099. 0.10404 0.14168
15416.8 1.45893 0.1326(27) 142075. 0.10428 0.13441
15429.6 1.46014 0.1328(26) 142788. 0.10453 0.13784
15442.5 1.46135 0.1486(27) 140534. 0.10478 0.15139
15455.3 1.46257 0.1625(27) 140028. 0.10503 0.16538
15468.1 1.46378 0.1636(27) 137360. 0.10529 0.17067
15481.0 1.46500 0.1638(27) 138733. 0.10554 0.16696
15493.9 1.46621 0.1585(27) 140322. 0.10579 0.15677
15506.7 1.46743 0.1398(27) 138823. 0.10605 0.14468
15519.6 1.46865 0.1390(27) 139604. 0.10630 0.13721
15532.5 1.46987 0.1435(27) 139040. 0.10656 0.14269
15545.4 1.47109 0.1657(27) 135802. 0.10682 0.17071
15558.3 1.47232 0.2078(27) 133367. 0.10707 0.21388
15571.3 1.47354 0.2373(28) 130180. 0.10732 0.23855
15584.2 1.47476 0.2301(28) 129235. 0.10758 0.22686
15597.1 1.47599 0.1967(28) 130391. 0.10783 0.19763
15610.1 1.47722 0.1697(27) 132772. 0.10808 0.17081
15623.1 1.47844 0.1483(27) 134037. 0.10832 0.15154
15636.1 1.47967 0.1368(27) 134015. 0.10857 0.13850
15649.0 1.48090 0.1328(27) 132446. 0.10881 0.13068
15662.1 1.48213 0.1354(28) 131050. 0.10904 0.13032
15675.1 1.48336 0.1578(28) 126904. 0.10928 0.14874
15688.1 1.48460 0.2037(29) 120476. 0.10950 0.20675
15701.1 1.48583 0.2957(30) 113694. 0.10973 0.29985
15714.2 1.48706 0.3673(31) 106515. 0.10995 0.36511
15727.2 1.48830 0.3653(31) 104533. 0.11016 0.35444
15740.3 1.48954 0.3140(31) 106449. 0.11037 0.29903
15753.4 1.49077 0.2480(30) 109185. 0.11057 0.24516
15766.5 1.49201 0.2087(30) 111260. 0.11076 0.20993
15779.6 1.49325 0.1895(30) 110850. 0.11094 0.19567
15792.7 1.49449 0.1867(30) 108212. 0.11112 0.19559
15805.8 1.49574 0.1887(30) 108256. 0.11129 0.19286
15818.9 1.49698 0.1809(31) 107446. 0.11145 0.17896
15832.1 1.49822 0.1606(31) 105361. 0.11160 0.16089
15845.2 1.49947 0.1434(31) 103980. 0.11173 0.14608
15858.4 1.50071 0.1335(31) 104705. 0.11186 0.13557
15871.6 1.50196 0.1278(31) 103131. 0.11198 0.12843
15884.8 1.50321 0.1236(31) 101961. 0.11208 0.12398
15898.0 1.50446 0.1157(32) 98137. 0.11217 0.12269
15911.2 1.50571 0.1319(32) 98333. 0.11225 0.12789
15924.4 1.50696 0.1534(32) 96446. 0.11232 0.14767
15937.6 1.50821 0.1850(33) 92193. 0.11236 0.18601
15950.9 1.50946 0.2334(33) 90505. 0.11240 0.22194
15964.1 1.51072 0.2464(34) 87860. 0.11242 0.22662
15977.4 1.51197 0.2205(34) 88005. 0.11242 0.20466
15990.7 1.51323 0.1902(34) 88912. 0.11240 0.17956
16003.9 1.51449 0.1746(33) 90098. 0.11237 0.16355
16017.2 1.51575 0.1670(34) 87767. 0.11231 0.16283
16030.5 1.51700 0.1798(34) 87186. 0.11224 0.17904
16043.9 1.51827 0.2033(34) 84569. 0.11215 0.19699
16057.2 1.51953 0.1970(35) 82351. 0.11203 0.19618
16070.5 1.52079 0.1790(35) 82132. 0.11190 0.17887
16083.9 1.52205 0.1600(35) 82259. 0.11174 0.15964
16097.3 1.52332 0.1419(35) 83543. 0.11156 0.14483
16110.6 1.52458 0.1232(35) 81989. 0.11135 0.13437
16124.0 1.52585 0.1215(35) 82017. 0.11112 0.12707
16137.4 1.52712 0.1230(35) 82910. 0.11086 0.12210
16150.8 1.52839 0.114(4) 80417. 0.1106 0.1194
16164.3 1.52966 0.117(4) 78870. 0.1103 0.1212
16177.7 1.53093 0.125(4) 75031. 0.1099 0.1329
16191.1 1.53220 0.159(4) 74411. 0.1096 0.1560
16204.6 1.53347 0.183(4) 71498. 0.1092 0.1755
16218.0 1.53475 0.175(4) 68112. 0.1087 0.1751
16231.5 1.53602 0.167(4) 69377. 0.1083 0.1607
16245.0 1.53730 0.146(4) 68333. 0.1078 0.1452
16258.5 1.53858 0.134(4) 69524. 0.1072 0.1338
16272.0 1.53986 0.113(4) 66692. 0.1067 0.1268
16285.5 1.54113 0.114(4) 66977. 0.1061 0.1239
16299.1 1.54242 0.114(4) 64378. 0.1054 0.1228
16312.6 1.54370 0.117(4) 63922. 0.1047 0.1202
16326.2 1.54498 0.114(4) 62922. 0.1040 0.1160
16339.7 1.54626 0.106(4) 59818. 0.1033 0.1118
16353.3 1.54755 0.101(4) 59250. 0.1025 0.1084
16366.9 1.54883 0.093(4) 57019. 0.1016 0.1058
16380.5 1.55012 0.092(4) 54980. 0.1007 0.1036
16394.1 1.55141 0.098(4) 53738. 0.0998 0.1019
16407.7 1.55270 0.098(4) 52507. 0.0988 0.1010
16421.4 1.55399 0.106(4) 50293. 0.0978 0.1029
16435.0 1.55528 0.121(5) 47639. 0.0967 0.1142
16448.7 1.55657 0.156(5) 44520. 0.0956 0.1438
16462.3 1.55787 0.181(5) 41249. 0.0944 0.1822
16476.0 1.55916 0.191(5) 38731. 0.0932 0.1982
16489.7 1.56046 0.193(5) 38474. 0.0919 0.1834
16503.4 1.56175 0.148(5) 36181. 0.0906 0.1582
16517.1 1.56305 0.141(5) 36450. 0.0892 0.1366
16530.8 1.56435 0.133(5) 37123. 0.0878 0.1207
16544.6 1.56565 0.112(5) 35219. 0.0863 0.1092
16558.3 1.56695 0.098(5) 34015. 0.0847 0.1006
16572.1 1.56825 0.096(5) 33691. 0.0831 0.0942
16585.8 1.56955 0.099(5) 33812. 0.0814 0.0891
16599.6 1.57086 0.095(5) 34475. 0.0797 0.0850
16613.4 . 0.108(7) . . .
16624.0 . -0.0000213(17) . . .
loop_
_refln_index_h
_refln_index_k
_refln_index_l
_refln_observed_status
_refln_F_squared_meas
_refln_F_squared_calc
_refln_phase_calc
_refln_d_spacing
_gsas_i100_meas
9 9 9 o 1107.249 1020.076 0.00 1.55557 3.46
15 3 3 o 46.957 43.260 180.00 1.55557 0.44
13 7 5 o 32.101 29.574 0.00 1.55557 0.60
11 11 1 o 1703.588 1569.467 0.00 1.55557 15.96
12 8 6 o 0.113 0.103 0.00 1.55237 0.00
12 10 2 o 9.213 36.794 180.00 1.53980 0.17
14 6 4 o 14.784 59.046 0.00 1.53980 0.27
11 11 3 o 1.059 1.157 180.00 1.53057 0.01
11 9 7 o 557.694 608.942 0.00 1.53057 9.80
15 5 1 o 61.021 66.629 0.00 1.53057 1.07
13 9 1 o 5.898 6.440 180.00 1.53057 0.10
16 0 0 o 6030.270 6247.511 0.00 1.51555 12.73
15 5 3 o 1237.279 1109.850 0.00 1.50675 20.41
13 9 3 o 105.051 94.231 180.00 1.50675 1.73
12 10 4 o 30.513 28.470 180.00 1.50385 0.50
14 8 2 o 3.483 3.654 0.00 1.49241 0.06
10 10 8 o 687.747 721.469 0.00 1.49241 5.46
16 2 2 o 384.627 403.487 0.00 1.49241 3.05
11 11 5 o 5545.128 5473.493 180.00 1.48401 43.04
13 7 7 o 223.608 220.719 180.00 1.48401 1.74
14 6 6 o 15.007 14.269 0.00 1.48124 0.12
16 4 0 o 0.329 0.332 0.00 1.47030 0.00
12 8 8 o 2848.837 2876.759 0.00 1.47030 21.31
13 9 5 o 17.204 17.834 180.00 1.46226 0.25
15 7 1 o 65.715 68.120 180.00 1.46226 0.96
15 5 5 o 379.285 393.166 180.00 1.46226 2.78
14 8 4 o 7.265 7.707 180.00 1.45961 0.11
16 4 2 o 506.693 537.485 180.00 1.45961 7.36
12 10 6 o 1501.582 1532.250 180.00 1.44915 21.19
11 9 9 o 399.750 364.311 0.00 1.44145 2.76
15 7 3 o 1.842 1.679 180.00 1.44145 0.03
12 12 0 o 2451.270 2395.382 0.00 1.42888 8.18
16 4 4 o 57.724 56.408 180.00 1.42888 0.39
13 11 1 o 147.871 157.032 0.00 1.42149 1.93
11 11 7 o 156.386 166.074 180.00 1.42149 1.02
17 1 1 o 732.468 777.844 180.00 1.42149 4.79
12 12 2 o 13.539 13.689 180.00 1.41906 0.09
14 8 6 o 943.052 955.880 180.00 1.40944 11.91
14 10 0 o 32.653 33.097 0.00 1.40944 0.21
16 6 2 o 25.123 25.464 0.00 1.40944 0.32
13 11 3 o 2.093 1.847 180.00 1.40235 0.03
13 9 7 o 15.706 13.855 180.00 1.40235 0.19
17 3 1 o 91.859 81.031 180.00 1.40235 1.14
15 7 5 o 10.380 9.156 0.00 1.40235 0.13
10 10 10 o 6.866 5.866 0.00 1.40001 0.01
14 10 2 o 153.511 131.149 180.00 1.40001 1.89
12 12 4 o 49.511 42.527 180.00 1.39077 0.30
15 9 1 o 23.524 24.210 0.00 1.38396 0.28
17 3 3 o 2641.641 2718.738 180.00 1.38396 15.51
12 10 8 o 48.240 43.118 180.00 1.38171 0.56
16 6 4 o 22.273 19.908 180.00 1.38171 0.26
14 10 4 o 156.059 104.345 0.00 1.37282 1.77
15 9 3 o 8.465 6.886 180.00 1.36627 0.09
13 11 5 o 0.151 0.123 180.00 1.36627 0.00
17 5 1 o 0.296 0.240 0.00 1.36627 0.00
16 8 0 o 122.950 119.277 180.00 1.35555 0.66
15 7 7 o 237.735 254.788 180.00 1.34924 1.26
11 11 9 o 87.034 93.277 0.00 1.34924 0.46
17 5 3 o 0.889 0.953 0.00 1.34924 0.01
12 12 6 o 374.007 398.982 0.00 1.34716 1.97
14 8 8 o 1.343 1.433 0.00 1.34716 0.01
16 8 2 o 1362.450 1453.427 0.00 1.34716 14.36
18 2 0 o 8.390 7.847 180.00 1.33892 0.04
16 6 6 o 4449.240 4160.843 0.00 1.33892 22.88
15 9 5 o 224.727 208.754 180.00 1.33284 2.27
13 9 9 o 699.970 650.217 180.00 1.33284 3.53
18 2 2 o 708.596 692.288 180.00 1.33083 3.56
14 10 6 o 37.019 36.167 180.00 1.33083 0.37
16 8 4 o 401.116 408.825 180.00 1.32288 3.93
13 11 7 o 94.412 98.285 0.00 1.31702 0.91
17 7 1 o 148.147 154.225 0.00 1.31702 1.43
13 13 1 o 535.854 557.840 0.00 1.31702 2.58
17 5 5 o 2558.176 2663.136 0.00 1.31702 12.32
14 12 2 o 899.713 870.001 0.00 1.30741 8.41
12 10 10 o 811.383 784.587 0.00 1.30741 3.79
18 4 2 o 10.813 10.456 0.00 1.30741 0.10
13 13 3 o 958.985 1041.873 0.00 1.30175 4.41
17 7 3 o 19.558 21.249 0.00 1.30175 0.18
15 11 1 o 13.546 14.717 0.00 1.30175 0.12
12 12 8 o 71.318 76.282 180.00 1.29247 0.32
15 11 3 o 1007.198 1015.920 0.00 1.28700 8.84
15 9 7 o 149.829 151.126 0.00 1.28700 1.32
16 8 6 o 4.186 4.274 180.00 1.28519 0.04
14 12 4 o 67.860 69.271 0.00 1.28519 0.59
18 4 4 o 50.091 51.132 180.00 1.28519 0.22
14 10 8 o 424.369 436.103 180.00 1.27803 3.62
18 6 0 o 48.368 49.705 180.00 1.27803 0.21
16 10 2 o 303.491 311.883 180.00 1.27803 2.59
19 1 1 o 35.526 35.107 0.00 1.27274 0.15
13 13 5 o 1035.216 1022.985 180.00 1.27274 4.35
11 11 11 o 10755.007 10627.935 0.00 1.27274 15.05
17 7 5 o 650.332 642.648 0.00 1.27274 5.46
18 6 2 o 30.495 30.381 180.00 1.27099 0.25
15 11 5 o 15.735 16.707 180.00 1.25894 0.13
19 3 1 o 339.638 360.626 180.00 1.25894 2.73
13 11 9 o 723.915 768.649 180.00 1.25894 5.82
17 9 1 o 2.978 3.162 180.00 1.25894 0.02
16 10 4 o 45.869 46.962 0.00 1.25725 0.37
14 12 6 o 14.201 15.242 0.00 1.25054 0.11
18 6 4 o 103.829 111.444 0.00 1.25054 0.81
17 9 3 o 3349.085 3415.159 180.00 1.24558 25.80
19 3 3 o 57.094 58.220 0.00 1.24558 0.22
16 8 8 o 3447.337 3423.207 0.00 1.23744 12.94
13 13 7 o 717.917 655.522 0.00 1.23264 2.65
17 7 7 o 100.187 91.479 180.00 1.23264 0.37
19 5 1 o 11.501 10.502 0.00 1.23264 0.08
15 9 9 o 52.950 48.348 0.00 1.23264 0.20
12 12 10 o 171.642 156.445 0.00 1.23105 0.63
18 8 2 o 332.999 340.761 180.00 1.22475 2.40
16 10 6 o 533.311 545.742 180.00 1.22475 3.84
14 14 0 o 289.851 296.607 0.00 1.22475 0.52
19 5 3 o 3699.540 3847.212 180.00 1.22009 26.24
17 9 5 o 9.935 10.331 0.00 1.22009 0.07
15 11 7 o 502.005 522.043 180.00 1.22009 3.56
15 13 1 o 4.768 4.958 180.00 1.22009 0.03
18 6 6 o 90.280 90.823 180.00 1.21855 0.32
14 10 10 o 777.223 781.903 180.00 1.21855 2.74
14 14 2 o 7.289 7.333 180.00 1.21855 0.03
20 0 0 o 21.046 16.662 180.00 1.21244 0.02
16 12 0 o 57.233 45.310 180.00 1.21244 0.20
15 13 3 o 80.570 79.305 0.00 1.20792 0.55
18 8 4 o 248.159 235.261 180.00 1.20643 1.68
14 12 8 o 436.584 413.892 180.00 1.20643 2.96
16 12 2 o 2.492 2.362 0.00 1.20643 0.02
20 2 2 o 360.224 364.961 180.00 1.20050 1.20
14 14 4 o 161.787 163.915 0.00 1.20050 0.54
13 11 11 o 442.207 449.651 180.00 1.19611 1.45
19 7 1 o 752.050 764.710 0.00 1.19611 4.93
17 11 1 o 144.384 146.815 180.00 1.19611 0.95
19 5 5 o 103.585 105.328 0.00 1.19611 0.34
20 4 0 o 202.299 176.022 180.00 1.18890 0.65
16 12 4 o 274.483 238.830 180.00 1.18890 1.76
19 7 3 o 473.438 418.793 180.00 1.18463 2.98
17 9 7 o 758.630 671.069 0.00 1.18463 4.78
15 13 5 o 2496.464 2208.319 0.00 1.18463 15.74
13 13 9 o 1.814 1.605 0.00 1.18463 0.01
17 11 3 o 4.462 3.947 180.00 1.18463 0.03
20 4 2 o 153.366 131.052 180.00 1.18322 0.96
16 10 8 o 204.183 174.476 0.00 1.18322 1.28
18 10 0 o 90.282 71.530 0.00 1.17763 0.28
18 8 6 o 34.099 27.017 180.00 1.17763 0.21
15 11 9 o 16.465 16.026 0.00 1.17348 0.10
18 10 2 o 19.216 19.042 180.00 1.17211 0.12
14 14 6 o 15754.642 15612.288 0.00 1.17211 47.59
12 12 12 o 5173.105 5007.921 180.00 1.16667 5.11
20 4 4 o 1188.637 1150.682 180.00 1.16667 3.52
17 11 5 o 4504.415 4364.016 180.00 1.16264 26.34
19 7 5 o 17.624 17.075 180.00 1.16264 0.10
16 12 6 o 788.289 760.209 180.00 1.16131 4.59
14 12 10 o 192.447 195.899 0.00 1.15602 1.10
18 10 4 o 0.695 0.708 180.00 1.15602 0.00
20 6 2 o 1715.547 1746.320 180.00 1.15602 9.81
15 13 7 o 102.273 102.946 0.00 1.15210 0.58
21 1 1 o 195.336 196.621 0.00 1.15210 0.55
19 9 1 o 2691.264 2708.968 0.00 1.15210 15.18
19 9 3 o 20.053 22.687 0.00 1.14183 0.11
15 15 1 o 7.039 7.963 0.00 1.14183 0.02
17 9 9 o 11.826 13.380 180.00 1.14183 0.03
21 3 1 o 31.036 35.112 180.00 1.14183 0.17
18 8 8 o 443.229 522.393 0.00 1.14057 1.20
20 6 4 o 325.270 383.366 0.00 1.14057 1.76
14 14 8 o 27.249 30.218 180.00 1.13556 0.07
16 14 2 o 448.591 497.468 0.00 1.13556 2.39
16 10 10 o 105.196 116.658 0.00 1.13556 0.28
17 11 7 o 34.465 34.725 0.00 1.13184 0.18
17 13 1 o 26.964 27.168 0.00 1.13184 0.14
15 15 3 o 76.532 77.111 0.00 1.13184 0.20
19 7 7 o 33.497 33.750 0.00 1.13184 0.09
13 13 11 o 121.792 122.713 180.00 1.13184 0.32
21 3 3 o 513.185 517.066 0.00 1.13184 1.35
18 10 6 o 674.375 677.431 180.00 1.13061 3.53
20 8 0 o 12445.651 12651.311 0.00 1.12573 31.98
16 12 8 o 9.891 10.054 180.00 1.12573 0.05
19 9 5 o 412.991 341.664 180.00 1.12210 2.10
17 13 3 o 1.436 1.188 0.00 1.12210 0.01
21 5 1 o 120.307 99.529 180.00 1.12210 0.61
15 11 11 o 31.886 26.379 0.00 1.12210 0.08
20 8 2 o 0.841 0.650 0.00 1.12090 0.00
16 14 4 o 19.260 14.882 180.00 1.12090 0.10
18 12 2 o 28.096 32.433 0.00 1.11614 0.14
20 6 6 o 0.000 0.000 180.00 1.11614 0.00
15 13 9 o 93.464 126.252 0.00 1.11261 0.46
21 5 3 o 28.359 38.308 0.00 1.11261 0.14
15 15 5 o 790.662 1068.035 0.00 1.11261 1.94
20 8 4 o 0.000 19.374 0.00 1.10680 0.00
17 13 5 o 16.124 122.345 180.00 1.10336 0.08
19 11 1 o 5.048 38.304 0.00 1.10336 0.02
14 12 12 o 10.512 43.611 180.00 1.10222 0.02
18 12 4 o 2.925 12.136 0.00 1.10222 0.01
22 2 0 o 438.420 664.069 0.00 1.09769 1.02
16 14 6 o 43.412 65.756 180.00 1.09769 0.20
18 10 8 o 12.189 18.463 180.00 1.09769 0.06
17 11 9 o 69.986 77.564 180.00 1.09434 0.32
19 9 7 o 27.867 30.884 180.00 1.09434 0.13
21 5 5 o 393.831 436.470 180.00 1.09434 0.90
19 11 3 o 604.232 669.650 0.00 1.09434 2.77
21 7 1 o 7.228 8.010 180.00 1.09434 0.03
14 14 10 o 61.582 67.673 0.00 1.09322 0.14
22 2 2 o 278.906 306.491 0.00 1.09322 0.64
15 15 7 o 361.692 414.866 180.00 1.08553 0.80
21 7 3 o 321.109 368.317 0.00 1.08553 1.43
16 12 10 o 262.292 300.030 180.00 1.08444 1.16
20 8 6 o 215.968 247.041 180.00 1.08444 0.96
20 10 2 o 21.132 23.241 180.00 1.08013 0.09
18 12 6 o 480.524 528.495 0.00 1.08013 2.09
22 4 2 o 1166.923 1283.417 0.00 1.08013 5.08
17 13 7 o 93.112 93.440 0.00 1.07693 0.40
19 11 5 o 21.401 21.476 0.00 1.07693 0.09
13 13 13 o 108.668 109.051 180.00 1.07693 0.08
16 16 0 o 6.786 7.162 0.00 1.07166 0.01
17 15 1 o 0.006 0.006 180.00 1.06853 0.00
21 7 5 o 65.005 65.876 0.00 1.06853 0.27
15 13 11 o 108.518 109.971 180.00 1.06853 0.45
16 16 2 o 5.358 5.296 180.00 1.06750 0.01
16 14 8 o 551.701 545.307 0.00 1.06750 2.29
22 4 4 o 22.031 21.776 0.00 1.06750 0.05
20 10 4 o 8.419 8.321 0.00 1.06750 0.03
22 6 0 o 2184.708 2040.345 180.00 1.06338 4.47
18 14 0 o 550.179 513.824 180.00 1.06338 1.13
21 9 1 o 584.322 550.359 180.00 1.06033 2.36
19 9 9 o 1.213 1.143 180.00 1.06033 0.00
17 15 3 o 479.834 451.944 180.00 1.06033 1.94
22 6 2 o 34.069 31.489 180.00 1.05932 0.14
18 10 10 o 0.579 0.535 0.00 1.05932 0.00
18 14 2 o 280.091 258.884 180.00 1.05932 1.13
16 16 4 o 202.390 180.900 0.00 1.05530 0.40
20 8 8 o 10.509 9.393 180.00 1.05530 0.02
19 13 1 o 630.889 603.112 180.00 1.05231 2.48
15 15 9 o 89.403 85.467 0.00 1.05231 0.18
17 11 11 o 1092.188 1044.102 180.00 1.05231 2.14
21 9 3 o 99.079 94.717 180.00 1.05231 0.39
19 11 7 o 7.895 7.548 0.00 1.05231 0.03
23 1 1 o 924.632 883.922 0.00 1.05231 1.81
18 12 8 o 0.230 0.224 0.00 1.05132 0.00
14 14 12 o 333.949 377.089 180.00 1.04739 0.64
18 14 4 o 257.067 290.275 180.00 1.04739 0.99
22 6 4 o 267.829 302.427 180.00 1.04739 1.03
20 10 6 o 0.505 0.570 180.00 1.04739 0.00
17 15 5 o 478.025 506.226 0.00 1.04447 1.82
17 13 9 o 907.864 961.423 0.00 1.04447 3.46
21 7 7 o 5.604 5.935 180.00 1.04447 0.01
19 13 3 o 14.059 14.888 0.00 1.04447 0.05
23 3 1 o 310.975 329.321 0.00 1.04447 1.18
16 12 12 o 7.730 6.083 0.00 1.03966 0.01
20 12 0 o 13.013 10.240 0.00 1.03966 0.02
21 9 5 o 132.743 106.007 180.00 1.03681 0.49
23 3 3 o 2328.712 1859.684 0.00 1.03681 4.31
16 16 6 o 1418.977 1125.900 0.00 1.03586 2.61
20 12 2 o 79.656 63.204 0.00 1.03586 0.29
16 14 10 o 25.844 22.426 0.00 1.03210 0.09
22 8 2 o 123.205 106.914 0.00 1.03210 0.45
19 13 5 o 1143.788 1091.541 180.00 1.02931 4.11
23 5 1 o 429.418 409.802 180.00 1.02931 1.54
18 14 6 o 86.104 82.610 180.00 1.02838 0.31
22 6 6 o 4966.364 4764.816 0.00 1.02838 8.89
20 12 4 o 234.014 220.874 180.00 1.02470 0.83
21 11 1 o 570.559 528.078 0.00 1.02197 1.99
15 13 13 o 37.390 34.606 180.00 1.02197 0.07
17 15 7 o 142.861 132.224 0.00 1.02197 0.50
19 11 9 o 1.339 1.239 180.00 1.02197 0.00
23 5 3 o 58.843 54.462 180.00 1.02197 0.21
22 8 4 o 52.450 46.471 180.00 1.02106 0.18
20 10 8 o 44.094 39.068 180.00 1.02106 0.15
18 12 10 o 21.614 11.666 0.00 1.01746 0.07
21 9 7 o 128.039 80.704 0.00 1.01478 0.43
21 11 3 o 1.513 0.954 0.00 1.01478 0.01
15 15 11 o 297.739 187.667 180.00 1.01478 0.51
16 16 8 o 145.373 134.832 180.00 1.01037 0.24
24 0 0 o 1057.659 980.973 0.00 1.01037 0.44
19 13 7 o 11.437 11.480 180.00 1.00775 0.04
17 17 1 o 42.011 42.168 0.00 1.00775 0.07
23 5 5 o 279.214 280.260 0.00 1.00775 0.46
17 13 11 o 201.770 202.526 0.00 1.00775 0.67
23 7 1 o 189.492 190.202 0.00 1.00775 0.63
20 12 6 o 101.591 104.570 180.00 1.00688 0.33
22 10 0 o 1807.175 1940.076 0.00 1.00343 2.93
22 8 6 o 8.856 9.507 0.00 1.00343 0.03
18 16 2 o 4.669 5.013 0.00 1.00343 0.02
18 14 8 o 398.881 428.214 0.00 1.00343 1.29
24 2 2 o 509.886 547.384 0.00 1.00343 0.83
21 11 5 o 54.457 57.846 180.00 1.00086 0.17
23 7 3 o 4.230 4.493 0.00 1.00086 0.01
17 17 3 o 0.033 0.035 180.00 1.00086 0.00
19 15 1 o 49.251 52.315 0.00 1.00086 0.16
22 10 2 o 195.838 195.450 180.00 1.00001 0.63
14 14 14 o 2.261 2.257 0.00 1.00001 0.00
24 4 0 o 298.567 193.690 180.00 0.99662 0.47
19 15 3 o 151.444 97.728 180.00 0.99411 0.47
17 15 9 o 2.116 1.365 0.00 0.99411 0.01
24 4 2 o 23.626 16.308 0.00 0.99327 0.07
18 16 4 o 11.197 7.729 180.00 0.99327 0.03
16 14 12 o 36.555 25.232 180.00 0.99327 0.11
22 10 4 o 12.573 12.960 0.00 0.98996 0.04
20 10 10 o 7.530 7.763 0.00 0.98996 0.01
20 14 2 o 277.467 286.025 0.00 0.98996 0.85
21 9 9 o 30.874 35.170 180.00 0.98749 0.05
17 17 5 o 16.526 18.825 0.00 0.98749 0.03
19 11 11 o 36.037 41.051 180.00 0.98749 0.05
23 7 5 o 916.324 1043.828 0.00 0.98749 2.79
20 12 8 o 10.896 10.648 0.00 0.98342 0.03
24 4 4 o 33.608 32.844 0.00 0.98342 0.05
19 15 5 o 203.103 200.328 180.00 0.98100 0.60
19 13 9 o 6.109 6.026 0.00 0.98100 0.02
23 9 1 o 2.036 2.008 0.00 0.98100 0.01
21 11 7 o 9.136 9.011 0.00 0.98100 0.03
21 13 1 o 21.198 20.908 180.00 0.98100 0.06
22 8 8 o 316.323 319.620 0.00 0.98020 0.47
16 16 10 o 782.151 790.303 0.00 0.98020 1.16
20 14 4 o 307.611 310.817 180.00 0.98020 0.91
18 12 12 o 157.731 159.375 0.00 0.98020 0.23
18 16 6 o 517.749 524.560 180.00 0.97701 1.51
24 6 2 o 39.472 39.992 0.00 0.97701 0.12
23 9 3 o 118.896 118.515 180.00 0.97464 0.34
21 13 3 o 193.204 192.585 0.00 0.97464 0.56
15 15 13 o 46.756 46.606 180.00 0.97464 0.07
22 10 6 o 10.707 10.656 0.00 0.97386 0.03
18 14 10 o 273.984 272.665 180.00 0.97386 0.79
17 17 7 o 1555.003 1616.077 180.00 0.96841 2.19
23 7 7 o 20.452 21.256 0.00 0.96841 0.03
25 1 1 o 0.168 0.175 180.00 0.96841 0.00
17 13 13 o 201.709 209.631 180.00 0.96841 0.28
24 6 4 o 18.177 18.385 0.00 0.96764 0.05
20 14 6 o 174.399 136.583 0.00 0.96457 0.48
22 12 2 o 235.138 184.152 180.00 0.96457 0.65
25 3 1 o 27.539 18.177 180.00 0.96229 0.08
17 15 11 o 330.119 217.895 0.00 0.96229 0.91
23 9 5 o 9.275 6.122 180.00 0.96229 0.03
21 13 5 o 14.441 9.532 180.00 0.96229 0.04
19 15 7 o 192.042 126.757 0.00 0.96229 0.53
24 8 0 o 264.815 163.709 180.00 0.95852 0.36
25 3 3 o 3.931 3.015 0.00 0.95628 0.01
21 11 9 o 256.232 196.549 0.00 0.95628 0.69
18 16 8 o 3.697 2.947 0.00 0.95554 0.01
24 8 2 o 8.251 6.577 180.00 0.95554 0.02
20 12 10 o 0.128 0.102 180.00 0.95554 0.00
22 12 4 o 23.055 18.377 180.00 0.95554 0.06
16 14 14 o 332.820 326.788 180.00 0.95259 0.44
22 10 8 o 21.234 20.849 180.00 0.95259 0.06
24 6 6 o 40.302 39.572 0.00 0.95259 0.05
18 18 0 o 61.092 59.985 0.00 0.95259 0.04
19 13 11 o 26.214 29.025 180.00 0.95039 0.07
23 11 1 o 1150.463 1273.809 180.00 0.95039 3.00
25 5 1 o 15.726 17.412 0.00 0.95039 0.04
19 17 1 o 34.571 38.277 0.00 0.95039 0.09
18 18 2 o 0.458 0.513 180.00 0.94966 0.00
20 16 0 o 0.049 0.054 0.00 0.94676 0.00
24 8 4 o 229.892 250.029 180.00 0.94676 0.59
16 16 12 o 246.726 268.338 0.00 0.94676 0.32
25 5 3 o 8.983 8.689 180.00 0.94460 0.02
17 17 9 o 49.348 47.737 0.00 0.94460 0.06
19 17 3 o 432.253 418.139 180.00 0.94460 1.10
23 9 7 o 0.317 0.307 0.00 0.94460 0.00
23 11 3 o 24.957 24.142 0.00 0.94460 0.06
21 13 7 o 139.636 135.076 180.00 0.94460 0.36
20 14 8 o 10.885 9.712 0.00 0.94389 0.03
20 16 2 o 148.347 132.366 180.00 0.94389 0.38
18 18 4 o 0.046 0.027 180.00 0.94104 0.00
22 12 6 o 94.610 56.925 180.00 0.94104 0.24
18 14 12 o 1.217 0.732 0.00 0.94104 0.00
19 15 9 o 6.031 2.906 180.00 0.93892 0.02
21 15 1 o 157.435 75.862 0.00 0.93892 0.39
20 16 4 o 1.388 0.883 0.00 0.93542 0.00
23 11 5 o 169.599 149.199 180.00 0.93334 0.41
19 17 5 o 9.598 8.443 180.00 0.93334 0.02
15 15 15 o 31.306 27.541 180.00 0.93334 0.01
21 15 3 o 114.653 100.862 0.00 0.93334 0.28
25 5 5 o 180.502 158.791 180.00 0.93334 0.22
25 7 1 o 67.218 59.133 180.00 0.93334 0.16
24 8 6 o 249.093 235.792 0.00 0.93265 0.60
22 14 0 o 5.493 5.711 0.00 0.92990 0.01
24 10 2 o 742.331 771.862 0.00 0.92990 1.78
18 16 10 o 68.432 71.154 180.00 0.92990 0.16
26 2 0 o 11.601 12.063 180.00 0.92990 0.01
25 7 3 o 51.416 51.640 180.00 0.92786 0.12
17 15 13 o 5.332 5.355 0.00 0.92786 0.01
21 11 11 o 293.355 294.631 180.00 0.92786 0.35
26 2 2 o 6.605 6.497 180.00 0.92718 0.01
22 14 2 o 1580.284 1554.456 0.00 0.92718 3.74
18 18 6 o 723.236 711.415 180.00 0.92718 0.86
22 10 10 o 0.397 0.390 180.00 0.92718 0.00
20 12 12 o 43.043 43.183 0.00 0.92448 0.05
21 13 9 o 154.838 184.479 0.00 0.92247 0.36
23 9 9 o 119.844 142.787 180.00 0.92247 0.14
21 15 5 o 64.097 76.368 0.00 0.92247 0.15
22 12 8 o 17.086 20.856 180.00 0.92180 0.04
24 10 4 o 124.835 152.378 180.00 0.92180 0.29
20 16 6 o 39.680 48.436 0.00 0.92180 0.09
20 14 10 o 160.644 158.530 0.00 0.91915 0.37
26 4 2 o 28.962 28.581 0.00 0.91915 0.07
22 14 4 o 22.834 22.534 180.00 0.91915 0.05
25 7 5 o 11.684 10.900 180.00 0.91718 0.03
19 17 7 o 4.438 4.141 0.00 0.91718 0.01
17 17 11 o 1259.666 1175.194 180.00 0.91718 1.43
19 13 13 o 91.688 85.540 0.00 0.91718 0.10
23 13 1 o 20.581 19.201 180.00 0.91718 0.05
23 11 7 o 28.144 26.257 180.00 0.91718 0.06
24 8 8 o 270.705 308.918 180.00 0.91391 0.30
25 9 1 o 569.654 631.964 0.00 0.91197 1.26
23 13 3 o 61.696 68.445 0.00 0.91197 0.14
19 15 11 o 153.915 170.750 0.00 0.91197 0.34
16 16 14 o 152.596 167.566 0.00 0.91133 0.17
26 4 4 o 0.490 0.538 0.00 0.91133 0.00
26 6 0 o 225.992 201.192 180.00 0.90876 0.25
24 10 6 o 110.552 98.420 0.00 0.90876 0.24
18 18 8 o 90.625 80.680 180.00 0.90876 0.10
25 9 3 o 10.805 10.146 0.00 0.90686 0.02
21 15 7 o 0.308 0.290 0.00 0.90686 0.00
26 6 2 o 82.676 83.427 180.00 0.90622 0.18
18 14 14 o 78.758 79.473 0.00 0.90622 0.09
22 14 6 o 0.179 0.180 0.00 0.90622 0.00
24 12 0 o 1114.836 1291.559 180.00 0.90370 1.19
20 16 8 o 34.689 40.188 0.00 0.90370 0.07
25 7 7 o 478.689 531.736 0.00 0.90182 0.51
19 19 1 o 721.102 801.012 0.00 0.90182 0.76
23 13 5 o 35.827 39.798 0.00 0.90182 0.08
24 12 2 o 331.678 360.721 180.00 0.90120 0.70
18 16 12 o 294.544 320.335 180.00 0.90120 0.62
22 12 10 o 103.390 110.387 180.00 0.89872 0.22
26 6 4 o 2.115 2.258 0.00 0.89872 0.00
20 18 2 o 9.682 10.337 0.00 0.89872 0.02
25 9 5 o 1257.485 1402.565 0.00 0.89688 2.60
19 17 9 o 111.028 123.838 180.00 0.89688 0.23
27 1 1 o 441.361 492.283 0.00 0.89688 0.46
21 17 1 o 34.870 38.893 0.00 0.89688 0.07
19 19 3 o 52.349 58.389 0.00 0.89688 0.05
21 13 11 o 94.631 105.548 0.00 0.89688 0.20
23 11 9 o 20.985 23.406 180.00 0.89688 0.04
24 12 4 o 39.809 45.878 180.00 0.89383 0.08
27 3 1 o 114.376 138.987 0.00 0.89201 0.23
21 17 3 o 90.838 110.385 0.00 0.89201 0.18
17 15 15 o 141.510 171.959 0.00 0.89201 0.14
20 14 12 o 93.156 114.863 0.00 0.89141 0.19
24 10 8 o 137.885 170.015 0.00 0.89141 0.28
20 18 4 o 91.854 113.258 0.00 0.89141 0.19
26 8 2 o 0.624 0.741 0.00 0.88901 0.00
22 16 2 o 55.820 66.251 0.00 0.88901 0.11
22 14 8 o 344.912 409.368 0.00 0.88901 0.69
19 19 5 o 946.570 1046.460 180.00 0.88722 0.94
25 11 1 o 6.365 7.037 0.00 0.88722 0.01
23 13 7 o 27.254 30.130 0.00 0.88722 0.05
27 3 3 o 745.259 823.905 0.00 0.88722 0.74
21 15 9 o 0.015 0.017 180.00 0.88722 0.00
17 17 13 o 85.501 94.524 180.00 0.88722 0.08
18 18 10 o 3.091 3.406 180.00 0.88663 0.00
26 6 6 o 13.569 14.950 0.00 0.88663 0.01
25 11 3 o 3704.569 4136.478 180.00 0.88251 7.19
25 9 7 o 0.089 0.099 0.00 0.88251 0.00
19 15 13 o 15.329 17.116 0.00 0.88251 0.03
23 15 1 o 3.398 3.794 180.00 0.88251 0.01
21 17 5 o 9.190 10.261 0.00 0.88251 0.02
27 5 1 o 390.205 435.698 180.00 0.88251 0.76
26 8 4 o 22.940 25.801 0.00 0.88192 0.04
20 16 10 o 35.609 40.050 180.00 0.88192 0.07
24 12 6 o 0.059 0.066 0.00 0.88192 0.00
22 16 4 o 18.339 20.626 180.00 0.88192 0.04
20 18 6 o 242.235 280.412 180.00 0.87960 0.46
23 15 3 o 524.781 598.921 180.00 0.87787 1.00
27 5 3 o 1.471 1.679 0.00 0.87787 0.00
16 16 16 o 382.198 333.702 180.00 0.87501 0.12
19 17 11 o 29.477 25.160 180.00 0.87330 0.05
25 11 5 o 11.073 9.452 0.00 0.87330 0.02
23 11 11 o 0.368 0.314 180.00 0.87330 0.00
19 19 7 o 273.692 233.607 180.00 0.87330 0.25
22 12 12 o 211.599 189.124 0.00 0.87274 0.20
24 14 2 o 163.404 180.916 180.00 0.87048 0.30
18 16 14 o 66.239 73.338 0.00 0.87048 0.12
24 10 10 o 290.204 321.305 180.00 0.87048 0.27
26 10 0 o 115.736 128.140 0.00 0.87048 0.11
22 16 6 o 0.457 0.506 0.00 0.87048 0.00
26 8 6 o 432.307 478.637 0.00 0.87048 0.79
27 7 1 o 27.895 32.069 180.00 0.86881 0.05
23 13 9 o 60.831 69.934 0.00 0.86881 0.11
23 15 5 o 1.546 1.778 180.00 0.86881 0.00
27 5 5 o 11.095 12.755 0.00 0.86881 0.01
21 13 13 o 716.106 823.261 180.00 0.86881 0.65
21 17 7 o 40.098 46.098 0.00 0.86881 0.07
26 10 2 o 60.331 68.375 180.00 0.86825 0.11
22 14 10 o 36.532 41.403 180.00 0.86825 0.07
28 0 0 o 7995.746 8601.379 0.00 0.86603 1.80
24 12 8 o 57.610 61.974 0.00 0.86603 0.10
27 7 3 o 49.264 56.363 180.00 0.86438 0.09
25 9 9 o 114.977 131.546 0.00 0.86438 0.10
21 15 11 o 27.953 31.981 0.00 0.86438 0.05
20 18 8 o 17.543 20.446 180.00 0.86383 0.03
24 14 4 o 193.973 226.076 180.00 0.86383 0.35
26 10 4 o 67.375 75.171 180.00 0.86165 0.12
20 14 14 o 22.079 24.634 180.00 0.86165 0.02
18 18 12 o 44.808 49.993 180.00 0.86165 0.04
28 2 2 o 877.360 978.882 0.00 0.86165 0.77
25 11 7 o 62.330 62.171 0.00 0.86002 0.11
25 13 1 o 149.494 149.114 180.00 0.86002 0.26
28 4 0 o 333.130 316.372 180.00 0.85733 0.29
20 20 0 o 2785.559 2645.437 0.00 0.85733 1.20
20 16 12 o 2.708 2.572 180.00 0.85733 0.00
17 17 15 o 0.308 0.318 180.00 0.85572 0.00
25 13 3 o 8.473 8.735 0.00 0.85572 0.01
27 7 5 o 219.877 226.659 180.00 0.85572 0.38
21 19 1 o 41.616 42.900 0.00 0.85572 0.07
23 15 7 o 2.811 2.897 0.00 0.85572 0.00
19 19 9 o 101.367 104.494 0.00 0.85572 0.09
20 20 2 o 45.260 50.207 180.00 0.85519 0.04
28 4 2 o 14.092 15.633 180.00 0.85519 0.02
26 8 8 o 38.643 42.867 180.00 0.85519 0.03
22 16 8 o 9.601 10.651 0.00 0.85519 0.02
24 14 6 o 101.394 170.071 180.00 0.85307 0.17
22 18 0 o 21.001 35.226 0.00 0.85307 0.02
19 15 15 o 81.621 135.109 0.00 0.85149 0.07
27 9 1 o 28.225 46.721 0.00 0.85149 0.05
21 17 9 o 16.511 27.332 180.00 0.85149 0.03
21 19 3 o 44.411 73.515 0.00 0.85149 0.07
26 10 6 o 81.876 127.266 180.00 0.85097 0.14
22 18 2 o 11.778 18.307 180.00 0.85097 0.02
20 20 4 o 140.039 167.321 180.00 0.84888 0.12
28 4 4 o 89.948 107.471 180.00 0.84888 0.07
27 9 3 o 114.472 132.640 0.00 0.84732 0.19
23 13 11 o 94.079 109.011 0.00 0.84732 0.16
25 13 5 o 585.226 678.108 180.00 0.84732 0.97
19 17 13 o 78.493 90.951 180.00 0.84732 0.13
23 17 1 o 83.975 97.303 0.00 0.84732 0.14
24 12 10 o 11.052 12.831 0.00 0.84681 0.02
26 12 2 o 517.694 533.561 180.00 0.84475 0.84
22 14 12 o 45.448 46.841 180.00 0.84475 0.07
28 6 2 o 0.644 0.664 180.00 0.84475 0.00
22 18 4 o 190.617 196.459 0.00 0.84475 0.31
20 18 10 o 36.234 37.344 180.00 0.84475 0.06
27 7 7 o 366.072 348.930 180.00 0.84322 0.30
23 17 3 o 1.746 1.665 0.00 0.84322 0.00
21 19 5 o 106.359 101.379 180.00 0.84322 0.17
25 11 9 o 841.858 802.438 180.00 0.84322 1.36
24 16 0 o 202.060 195.000 180.00 0.84068 0.16
23 15 9 o 3.846 3.680 180.00 0.83917 0.01
21 15 13 o 32.459 31.059 0.00 0.83917 0.05
27 9 5 o 68.415 65.465 0.00 0.83917 0.11
26 12 4 o 87.055 84.162 0.00 0.83866 0.14
18 16 16 o 880.277 851.024 0.00 0.83866 0.70
24 16 2 o 502.215 485.525 0.00 0.83866 0.80
28 6 4 o 243.528 235.435 180.00 0.83866 0.39
24 14 8 o 9.287 8.979 0.00 0.83866 0.01
20 20 6 o 6.540 6.323 180.00 0.83866 0.01
26 10 8 o 25.551 27.143 180.00 0.83667 0.04
22 16 10 o 646.106 686.376 0.00 0.83667 1.01
23 17 5 o 21.088 20.980 0.00 0.83518 0.03
19 19 11 o 313.208 311.595 180.00 0.83518 0.24
29 1 1 o 305.348 303.776 180.00 0.83518 0.24
25 13 7 o 59.203 58.898 0.00 0.83518 0.09
22 18 6 o 0.523 0.500 180.00 0.83468 0.00
18 18 14 o 237.957 227.298 180.00 0.83468 0.18
24 16 4 o 0.426 0.393 0.00 0.83271 0.00
28 8 0 o 24.732 22.829 0.00 0.83271 0.02
27 11 1 o 575.985 555.118 0.00 0.83124 0.88
21 19 7 o 2.152 2.074 180.00 0.83124 0.00
29 3 1 o 28.841 27.796 0.00 0.83124 0.04
21 17 11 o 38.736 37.333 0.00 0.83124 0.06
25 15 1 o 48.831 47.062 180.00 0.83124 0.07
20 16 14 o 459.601 448.431 180.00 0.83075 0.70
28 8 2 o 157.954 154.115 0.00 0.83075 0.24
28 6 6 o 1907.510 1931.183 180.00 0.82881 1.44
26 12 6 o 4.029 4.079 0.00 0.82881 0.01
27 11 3 o 60.783 58.356 180.00 0.82736 0.09
27 9 7 o 23.159 22.235 0.00 0.82736 0.03
25 15 3 o 0.023 0.022 180.00 0.82736 0.00
29 3 3 o 527.146 506.103 180.00 0.82736 0.40
24 12 12 o 0.789 0.678 180.00 0.82496 0.00
20 20 8 o 0.647 0.555 0.00 0.82496 0.00
28 8 4 o 175.099 150.369 0.00 0.82496 0.26
23 13 13 o 447.883 366.780 0.00 0.82353 0.33
25 11 11 o 2.843 2.328 0.00 0.82353 0.00
17 17 17 o 10693.352 8756.989 0.00 0.82353 2.62
23 17 7 o 6.008 4.920 0.00 0.82353 0.01
29 5 1 o 47.671 39.039 0.00 0.82353 0.07
20 18 12 o 6.175 5.036 180.00 0.82306 0.01
24 16 6 o 31.168 25.417 0.00 0.82306 0.05
24 14 10 o 83.405 69.096 180.00 0.82117 0.12
26 14 0 o 501.101 415.130 180.00 0.82117 0.36
22 18 8 o 230.468 190.928 180.00 0.82117 0.34
27 11 5 o 3.546 2.982 180.00 0.81976 0.01
25 15 5 o 130.638 109.884 0.00 0.81976 0.19
19 17 15 o 205.689 173.012 180.00 0.81976 0.30
25 13 9 o 119.257 100.311 180.00 0.81976 0.17
23 15 11 o 28.004 23.555 0.00 0.81976 0.04
29 5 3 o 7.076 5.952 180.00 0.81976 0.01
22 14 14 o 7751.259 6605.098 0.00 0.81929 5.59
26 14 2 o 0.537 0.457 180.00 0.81929 0.00
26 10 10 o 156.285 133.176 180.00 0.81929 0.11
21 21 1 o 0.031 0.029 0.00 0.81604 0.00
21 19 9 o 149.366 139.395 180.00 0.81604 0.21
26 12 8 o 354.301 335.845 180.00 0.81558 0.50
28 8 6 o 0.018 0.017 0.00 0.81558 0.00
22 16 12 o 335.647 318.163 180.00 0.81558 0.48
28 10 2 o 328.110 323.570 0.00 0.81374 0.46
26 14 4 o 280.994 277.107 180.00 0.81374 0.39
22 20 2 o 1410.026 1390.519 0.00 0.81374 1.98
21 21 3 o 869.339 819.251 0.00 0.81237 0.61
23 19 1 o 73.576 69.337 0.00 0.81237 0.10
27 9 9 o 289.833 273.134 0.00 0.81237 0.20
21 15 15 o 13.639 12.853 0.00 0.81237 0.01
29 7 1 o 67.522 63.631 0.00 0.81237 0.09
29 5 5 o 1169.404 1102.026 180.00 0.81237 0.82
19 19 13 o 18.471 17.406 0.00 0.81237 0.01
24 16 8 o 193.003 162.964 0.00 0.81010 0.27
27 11 7 o 19.004 15.790 180.00 0.80874 0.03
25 15 7 o 371.785 308.910 0.00 0.80874 0.51
27 13 1 o 70.725 58.764 0.00 0.80874 0.10
23 19 3 o 1814.657 1507.770 0.00 0.80874 2.48
23 17 9 o 35.440 29.447 0.00 0.80874 0.05
29 7 3 o 182.784 151.872 0.00 0.80874 0.25
21 17 13 o 695.922 578.230 180.00 0.80874 0.95
28 10 4 o 0.335 0.277 0.00 0.80830 0.00
20 20 10 o 25.530 21.151 0.00 0.80830 0.02
22 20 4 o 131.664 109.079 0.00 0.80830 0.18
24 18 2 o 303.044 244.405 180.00 0.80651 0.41
30 2 0 o 82.074 66.193 0.00 0.80651 0.06
18 18 16 o 917.025 739.580 0.00 0.80651 0.62
27 13 3 o 240.914 193.034 180.00 0.80517 0.32
21 21 5 o 9.196 7.369 180.00 0.80517 0.01
22 18 10 o 93.114 75.169 180.00 0.80473 0.12
30 2 2 o 40.820 32.952 180.00 0.80473 0.03
26 14 6 o 758.538 612.346 0.00 0.80473 1.02
28 8 8 o 2808.667 2414.776 0.00 0.80296 1.87
20 16 16 o 383.715 329.902 180.00 0.80296 0.26
23 19 5 o 0.573 0.497 180.00 0.80164 0.00
25 13 11 o 661.009 573.303 180.00 0.80164 0.87
25 17 1 o 22.754 19.735 0.00 0.80164 0.03
29 7 5 o 36.687 31.819 180.00 0.80164 0.05
24 18 4 o 0.005 0.004 180.00 0.80121 0.00
24 14 12 o 49.384 42.632 180.00 0.80121 0.07
20 18 14 o 113.239 97.753 180.00 0.79946 0.15
22 20 6 o 24.400 21.063 0.00 0.79946 0.03
26 12 10 o 4.888 4.219 180.00 0.79946 0.01
28 10 6 o 6.251 5.396 180.00 0.79946 0.01
30 4 2 o 0.427 0.369 180.00 0.79946 0.00
21 19 11 o 385.715 340.218 0.00 0.79816 0.50
29 9 1 o 44.368 39.134 0.00 0.79816 0.06
27 13 5 o 7.788 6.869 0.00 0.79816 0.01
25 17 3 o 3694.438 3258.660 180.00 0.79816 4.80
23 15 13 o 879.707 775.941 0.00 0.79816 1.14
28 12 0 o 3541.389 3372.361 0.00 0.79601 2.28
25 15 9 o 68.228 65.773 0.00 0.79472 0.09
21 21 7 o 69.159 66.671 0.00 0.79472 0.04
27 11 9 o 46.054 44.398 0.00 0.79472 0.06
29 9 3 o 106.971 103.123 0.00 0.79472 0.14
30 4 4 o 181.229 173.152 180.00 0.79430 0.12
24 16 10 o 1.905 1.820 0.00 0.79430 0.00
28 12 2 o 9.762 9.327 180.00 0.79430 0.01
24 18 6 o 4.770 4.391 0.00 0.79260 0.01
30 6 0 o 82.941 76.341 0.00 0.79260 0.05
26 16 2 o 539.109 496.213 180.00 0.79260 0.68
26 14 8 o 23.811 21.916 0.00 0.79260 0.03
22 16 14 o 2.242 2.063 0.00 0.79260 0.00
19 17 17 o 3.789 3.493 0.00 0.79133 0.00
23 17 11 o 1745.481 1609.210 180.00 0.79133 2.19
25 17 5 o 0.101 0.093 180.00 0.79133 0.00
23 19 7 o 67.217 61.969 180.00 0.79133 0.08
29 7 7 o 0.122 0.113 180.00 0.79133 0.00
30 6 2 o 141.327 130.830 0.00 0.79091 0.18
20 20 12 o 758.318 689.573 0.00 0.78923 0.47
28 12 4 o 11.370 10.340 180.00 0.78923 0.01
27 13 7 o 112.733 94.832 180.00 0.78798 0.14
19 19 15 o 158.695 133.496 180.00 0.78798 0.10
29 9 5 o 5.930 4.989 180.00 0.78798 0.01
26 16 4 o 78.812 64.709 180.00 0.78757 0.10
22 20 8 o 86.374 70.917 180.00 0.78757 0.11
28 10 8 o 6.455 5.300 0.00 0.78757 0.01
22 18 12 o 253.426 207.637 180.00 0.78591 0.31
30 6 4 o 137.506 112.662 180.00 0.78591 0.17
21 17 15 o 124.657 111.177 0.00 0.78467 0.15
27 15 1 o 121.705 108.544 0.00 0.78467 0.15
25 13 13 o 0.787 0.636 0.00 0.78141 0.00
25 17 7 o 411.140 332.139 0.00 0.78141 0.49
31 1 1 o 62.174 50.227 0.00 0.78141 0.04
21 21 9 o 7.639 6.171 0.00 0.78141 0.00
29 11 1 o 702.319 567.367 0.00 0.78141 0.84
27 15 3 o 29.936 24.184 180.00 0.78141 0.04
28 12 6 o 66.729 52.927 180.00 0.78100 0.08
24 18 8 o 102.180 81.046 0.00 0.78100 0.12
26 12 12 o 0.086 0.068 0.00 0.78100 0.00
26 16 6 o 132.617 98.096 180.00 0.77939 0.16
22 22 0 o 1470.746 1087.905 180.00 0.77939 0.43
30 8 2 o 90.117 66.659 0.00 0.77939 0.11
24 14 14 o 155.830 115.267 0.00 0.77939 0.09
23 21 1 o 85.087 64.352 180.00 0.77818 0.10
29 9 7 o 56.792 42.953 0.00 0.77818 0.07
27 11 11 o 45.961 34.761 0.00 0.77818 0.03
23 19 9 o 9.999 7.562 0.00 0.77818 0.01
21 19 13 o 0.007 0.005 180.00 0.77818 0.00
31 3 1 o 53.530 40.485 180.00 0.77818 0.06
29 11 3 o 182.937 138.358 0.00 0.77818 0.21
25 15 11 o 92.366 69.858 180.00 0.77818 0.11
22 22 2 o 39.365 30.593 180.00 0.77778 0.02
26 14 10 o 326.279 253.574 180.00 0.77778 0.38
30 6 6 o 41.762 32.457 180.00 0.77778 0.02
18 18 18 o 9.457 7.350 180.00 0.77778 0.00
24 20 0 o 14.648 13.521 0.00 0.77619 0.01
24 16 12 o 378.423 349.312 180.00 0.77619 0.44
27 13 9 o 36.416 40.430 180.00 0.77500 0.04
31 3 3 o 5.451 6.051 0.00 0.77500 0.00
23 21 3 o 42.800 47.518 180.00 0.77500 0.05
23 15 15 o 222.731 247.283 180.00 0.77500 0.13
27 15 5 o 1.185 1.315 180.00 0.77500 0.00
30 8 4 o 30.152 34.890 0.00 0.77460 0.03
24 20 2 o 17.721 20.506 0.00 0.77460 0.02
20 18 16 o 0.126 0.146 180.00 0.77460 0.00
22 22 4 o 48.070 54.761 0.00 0.77303 0.03
28 14 2 o 201.805 229.896 180.00 0.77303 0.23
22 20 10 o 28.287 32.224 0.00 0.77303 0.03
28 10 10 o 49.250 56.105 0.00 0.77303 0.03
25 19 1 o 66.707 70.008 180.00 0.77185 0.08
23 17 13 o 16.415 17.228 180.00 0.77185 0.02
31 5 1 o 12.349 12.960 0.00 0.77185 0.01
29 11 5 o 0.579 0.608 0.00 0.77185 0.00
28 12 8 o 10.185 9.602 180.00 0.76990 0.01
24 20 4 o 277.450 261.585 180.00 0.76990 0.31
23 21 5 o 462.723 439.490 0.00 0.76874 0.52
25 19 3 o 12.460 11.835 0.00 0.76874 0.01
31 5 3 o 54.985 52.225 180.00 0.76874 0.06
25 17 9 o 600.807 570.641 0.00 0.76874 0.67
28 14 4 o 154.304 148.804 0.00 0.76835 0.17
20 20 14 o 21.764 20.988 180.00 0.76835 0.01
22 16 16 o 383.253 369.590 0.00 0.76835 0.21
26 16 8 o 876.705 845.452 0.00 0.76835 0.98
30 10 0 o 10.465 10.810 0.00 0.76682 0.01
24 18 10 o 138.184 142.738 0.00 0.76682 0.15
26 18 0 o 3.624 3.743 0.00 0.76682 0.00
30 8 6 o 1021.598 1055.265 180.00 0.76682 1.13
21 21 11 o 127.082 136.879 180.00 0.76567 0.07
27 15 7 o 130.671 140.745 0.00 0.76567 0.14
29 9 9 o 272.693 293.716 180.00 0.76567 0.15
30 10 2 o 16.420 18.045 0.00 0.76529 0.02
22 18 14 o 34.047 37.416 180.00 0.76529 0.04
22 22 6 o 2308.598 2537.026 0.00 0.76529 1.27
26 18 2 o 395.600 434.742 180.00 0.76529 0.43
31 7 1 o 6.116 7.996 0.00 0.76263 0.01
29 13 1 o 0.061 0.079 0.00 0.76263 0.00
31 5 5 o 2.659 3.476 0.00 0.76263 0.00
19 19 17 o 107.122 140.050 0.00 0.76263 0.06
29 11 7 o 7.620 9.963 180.00 0.76263 0.01
25 19 5 o 221.002 288.935 180.00 0.76263 0.24
23 19 11 o 30.950 40.463 0.00 0.76263 0.03
24 20 6 o 224.273 298.632 180.00 0.76226 0.24
26 18 4 o 113.367 176.971 0.00 0.76075 0.12
30 10 4 o 207.305 323.612 0.00 0.76075 0.22
28 14 6 o 1.040 1.624 180.00 0.76075 0.00
26 14 12 o 38.480 60.068 0.00 0.76075 0.04
29 13 3 o 0.171 0.378 0.00 0.75963 0.00
31 7 3 o 0.814 1.799 180.00 0.75963 0.00
27 13 11 o 0.748 1.654 0.00 0.75963 0.00
25 15 13 o 27.626 61.075 0.00 0.75963 0.03
21 17 17 o 12.246 27.073 0.00 0.75963 0.01
27 17 1 o 58.485 129.296 0.00 0.75963 0.06
23 21 7 o 1.321 2.921 0.00 0.75963 0.00
32 0 0 o 49.005 250.316 0.00 0.75778 0.01
21 19 15 o 15.897 55.152 180.00 0.75667 0.02
27 17 3 o 0.908 3.148 0.00 0.75667 0.00
28 12 10 o 28.093 81.894 180.00 0.75630 0.03
24 16 14 o 7.297 21.272 0.00 0.75630 0.01
22 20 12 o 6.988 20.371 180.00 0.75630 0.01
30 8 8 o 27.052 78.858 0.00 0.75630 0.01
26 16 10 o 15.104 26.058 0.00 0.75483 0.02
32 2 2 o 142.673 246.144 0.00 0.75483 0.07
22 22 8 o 12.399 21.390 0.00 0.75483 0.01
29 13 5 o 0.341 0.463 0.00 0.75374 0.00
25 17 11 o 4.588 6.235 180.00 0.75374 0.00
31 7 5 o 80.103 108.856 180.00 0.75374 0.08
25 19 7 o 120.432 163.661 180.00 0.75374 0.12
27 15 9 o 30.975 42.093 180.00 0.75374 0.03
26 18 6 o 10.479 13.518 180.00 0.75338 0.01
30 10 6 o 126.219 162.825 180.00 0.75338 0.13
24 20 8 o 0.526 0.609 0.00 0.75193 0.00
28 16 0 o 2165.087 2505.496 0.00 0.75193 1.11
32 4 0 o 225.723 261.213 180.00 0.75193 0.12
31 9 1 o 30.825 34.249 180.00 0.75084 0.03
29 11 9 o 1.107 1.230 180.00 0.75084 0.00
23 17 15 o 28.028 31.140 180.00 0.75084 0.03
27 17 5 o 1029.630 1143.973 180.00 0.75084 1.05
28 14 8 o 15.064 16.479 0.00 0.75048 0.02
32 4 2 o 2.444 2.674 180.00 0.75048 0.00
24 18 12 o 8.349 9.134 180.00 0.75048 0.01
28 16 2 o 2.789 3.051 0.00 0.75048 0.00
20 18 18 o 206.133 212.339 0.00 0.74905 0.10
30 12 2 o 1400.905 1443.076 0.00 0.74905 1.41
21 21 13 o 93.709 95.924 0.00 0.74798 0.05
31 9 3 o 44.854 45.914 0.00 0.74798 0.04
23 21 9 o 66.217 67.781 0.00 0.74798 0.07
28 16 4 o 766.271 772.269 180.00 0.74621 0.76
20 20 16 o 659.669 664.832 0.00 0.74621 0.33
32 4 4 o 34.544 34.815 0.00 0.74621 0.02
29 13 7 o 33.040 34.689 0.00 0.74515 0.03
23 19 13 o 366.978 385.284 180.00 0.74515 0.36
31 7 7 o 274.596 288.294 180.00 0.74515 0.14
23 23 1 o 282.809 296.916 0.00 0.74515 0.14
30 12 4 o 119.364 127.245 0.00 0.74480 0.12
30 10 8 o 2.493 2.728 0.00 0.74340 0.00
22 18 16 o 434.426 475.401 180.00 0.74340 0.42
32 6 2 o 1.840 2.013 180.00 0.74340 0.00
24 22 2 o 72.039 78.834 0.00 0.74340 0.07
26 18 8 o 32.712 35.797 180.00 0.74340 0.03
27 13 13 o 456.204 519.861 180.00 0.74235 0.22
31 9 5 o 792.017 902.532 180.00 0.74235 0.77
25 21 1 o 41.357 47.127 180.00 0.74235 0.04
25 19 9 o 17.593 20.047 0.00 0.74235 0.02
23 23 3 o 20.139 22.949 0.00 0.74235 0.01
27 17 7 o 641.123 730.583 0.00 0.74235 0.62
29 15 1 o 0.015 0.017 0.00 0.74235 0.00
22 22 10 o 24.846 29.119 0.00 0.74200 0.01
26 14 14 o 0.004 0.005 180.00 0.74200 0.00
28 12 12 o 82.120 106.928 180.00 0.74062 0.04
27 15 11 o 45.218 56.630 0.00 0.73958 0.04
25 21 3 o 70.257 87.987 180.00 0.73958 0.07
25 15 15 o 206.542 258.666 0.00 0.73958 0.10
29 15 3 o 254.795 319.096 0.00 0.73958 0.24
28 16 6 o 15.339 18.571 0.00 0.73924 0.01
24 20 10 o 1.305 1.580 180.00 0.73924 0.00
32 6 4 o 0.017 0.021 180.00 0.73924 0.00
26 16 12 o 5.590 6.768 0.00 0.73924 0.01
24 22 4 o 9.546 11.557 180.00 0.73924 0.01
22 20 14 o 175.074 186.947 180.00 0.73787 0.17
30 12 6 o 3.073 3.282 180.00 0.73787 0.00
28 14 10 o 0.137 0.146 180.00 0.73787 0.00
26 20 2 o 0.259 0.276 180.00 0.73787 0.00
25 17 13 o 347.715 357.228 0.00 0.73685 0.33
19 19 19 o 21.592 22.183 180.00 0.73685 0.00
29 11 11 o 17.706 18.190 180.00 0.73685 0.01
31 11 1 o 161.313 165.726 0.00 0.73685 0.15
23 23 5 o 11.677 11.996 0.00 0.73685 0.01
32 8 0 o 131.922 138.342 180.00 0.73515 0.06
24 16 16 o 25.739 26.991 180.00 0.73515 0.01
23 21 11 o 668.799 726.829 0.00 0.73414 0.62
33 1 1 o 0.035 0.038 0.00 0.73414 0.00
27 19 1 o 16.637 18.081 0.00 0.73414 0.02
21 19 17 o 107.759 117.109 0.00 0.73414 0.10
25 21 5 o 255.761 277.953 180.00 0.73414 0.24
31 9 7 o 206.642 224.571 0.00 0.73414 0.19
31 11 3 o 2758.785 2998.158 0.00 0.73414 2.56
29 13 9 o 51.212 55.655 180.00 0.73414 0.05
29 15 5 o 27.580 29.973 180.00 0.73414 0.03
26 20 4 o 63.493 69.968 180.00 0.73380 0.06
32 8 2 o 0.691 0.761 0.00 0.73380 0.00
24 22 6 o 323.592 376.893 180.00 0.73246 0.30
24 18 14 o 0.743 0.865 0.00 0.73246 0.00
32 6 6 o 5.258 6.124 0.00 0.73246 0.00
30 14 0 o 137.612 160.279 0.00 0.73246 0.06
27 17 9 o 4.622 5.564 180.00 0.73146 0.00
33 3 1 o 16.869 20.305 0.00 0.73146 0.02
27 19 3 o 186.221 224.150 0.00 0.73146 0.17
30 14 2 o 123.739 150.065 180.00 0.73113 0.11
26 18 10 o 21.251 25.772 180.00 0.73113 0.02
30 10 10 o 37.325 45.266 0.00 0.73113 0.02
28 16 8 o 10.341 12.317 180.00 0.72981 0.01
32 8 4 o 51.854 61.765 180.00 0.72981 0.05
31 11 5 o 26.362 29.287 180.00 0.72882 0.02
23 23 7 o 333.843 370.886 180.00 0.72882 0.15
25 19 11 o 1396.447 1551.399 180.00 0.72882 1.26
21 21 15 o 64.097 71.209 180.00 0.72882 0.03
23 17 17 o 867.165 963.387 180.00 0.72882 0.39
33 3 3 o 330.455 367.123 180.00 0.72882 0.15
30 12 8 o 144.400 156.301 180.00 0.72849 0.13
26 20 6 o 40.142 41.273 180.00 0.72718 0.04
30 14 4 o 233.964 240.556 0.00 0.72718 0.21
28 18 2 o 10.169 10.456 0.00 0.72718 0.01
22 22 12 o 4495.002 4621.638 0.00 0.72718 2.01
33 5 1 o 238.015 258.283 0.00 0.72620 0.21
29 15 7 o 0.449 0.488 0.00 0.72620 0.00
25 21 7 o 37.355 40.536 0.00 0.72620 0.03
27 19 5 o 6.807 7.387 0.00 0.72620 0.01
23 19 15 o 0.098 0.106 180.00 0.72620 0.00
24 20 12 o 235.261 283.006 180.00 0.72457 0.21
33 5 3 o 14.446 17.770 0.00 0.72360 0.01
27 15 13 o 20.517 25.237 180.00 0.72360 0.02
31 9 9 o 5.731 7.049 180.00 0.72360 0.00
32 8 6 o 2.570 3.183 180.00 0.72328 0.00
24 22 8 o 53.524 66.282 0.00 0.72328 0.05
28 18 4 o 0.845 1.046 180.00 0.72328 0.00
28 14 12 o 131.995 163.459 180.00 0.72328 0.12
20 20 18 o 4.116 5.097 180.00 0.72328 0.00
32 10 2 o 114.477 145.998 0.00 0.72200 0.10
26 16 14 o 86.686 110.554 0.00 0.72200 0.08
29 13 11 o 3.377 4.438 0.00 0.72104 0.00
31 11 7 o 1.652 2.171 0.00 0.72104 0.00
31 13 1 o 63.702 83.716 0.00 0.72104 0.06
29 17 1 o 273.946 360.017 180.00 0.72104 0.24
30 14 6 o 370.371 488.158 0.00 0.72072 0.32
22 18 18 o 80.745 106.424 180.00 0.72072 0.03
27 19 7 o 295.533 348.485 180.00 0.71850 0.25
23 21 13 o 80.545 94.977 0.00 0.71850 0.07
25 17 15 o 0.236 0.279 180.00 0.71850 0.00
33 7 1 o 28.653 33.787 180.00 0.71850 0.02
27 17 11 o 27.869 32.862 180.00 0.71850 0.02
31 13 3 o 148.762 175.416 180.00 0.71850 0.13
23 23 9 o 0.774 0.913 0.00 0.71850 0.00
29 17 3 o 1.350 1.592 0.00 0.71850 0.00
33 5 5 o 113.312 133.614 180.00 0.71850 0.05
28 16 10 o 76.566 88.832 0.00 0.71819 0.07
26 20 8 o 1.818 2.110 180.00 0.71819 0.00
32 10 4 o 34.927 40.523 0.00 0.71819 0.03
22 20 16 o 6.578 7.632 0.00 0.71819 0.01
26 18 12 o 75.859 84.866 180.00 0.71693 0.06
28 18 6 o 1331.881 1490.023 0.00 0.71693 1.13
30 12 10 o 28.338 31.703 0.00 0.71693 0.02
25 21 9 o 44.095 51.549 180.00 0.71599 0.04
33 7 3 o 87.549 102.348 0.00 0.71599 0.07
29 15 9 o 2.533 2.961 180.00 0.71599 0.00
24 24 0 o 9.739 12.354 0.00 0.71444 0.00
32 8 8 o 52.011 65.974 180.00 0.71444 0.02
31 13 5 o 111.207 134.091 0.00 0.71351 0.09
25 19 13 o 3.136 3.782 180.00 0.71351 0.00
29 17 5 o 599.854 723.293 0.00 0.71351 0.50
25 23 1 o 23.739 28.624 0.00 0.71351 0.02
24 24 2 o 31.684 37.234 0.00 0.71320 0.01
24 18 16 o 48.331 56.798 0.00 0.71320 0.04
30 14 8 o 70.817 76.765 180.00 0.71197 0.06
24 22 10 o 118.133 128.056 0.00 0.71197 0.10
32 10 6 o 149.837 162.423 0.00 0.71197 0.12
30 16 2 o 875.773 949.334 0.00 0.71197 0.72
26 22 0 o 48.059 52.096 180.00 0.71197 0.02
34 2 0 o 1.023 1.109 180.00 0.71197 0.00
25 23 3 o 6.346 6.720 0.00 0.71105 0.01
21 19 19 o 0.473 0.501 180.00 0.71105 0.00
33 7 5 o 384.052 406.697 0.00 0.71105 0.31
31 11 9 o 25.049 26.526 180.00 0.71105 0.02
34 2 2 o 25.220 26.624 180.00 0.71075 0.01
22 22 14 o 16.840 17.777 180.00 0.71075 0.01
26 22 2 o 2.747 2.899 0.00 0.71075 0.00
24 24 4 o 70.175 74.877 0.00 0.70953 0.03
32 12 0 o 532.125 567.780 180.00 0.70953 0.22
27 19 9 o 684.286 731.145 0.00 0.70862 0.55
27 21 1 o 52.556 56.155 180.00 0.70862 0.04
21 21 17 o 143.713 153.554 180.00 0.70862 0.06
33 9 1 o 17.303 18.488 180.00 0.70862 0.01
24 20 14 o 43.565 46.378 0.00 0.70832 0.04
32 12 2 o 20.722 22.060 0.00 0.70832 0.02
28 18 8 o 5.680 6.046 0.00 0.70832 0.00
30 16 4 o 204.534 217.739 180.00 0.70832 0.16
28 14 14 o 198.980 212.068 0.00 0.70711 0.08
34 4 2 o 37.826 40.314 180.00 0.70711 0.03
26 20 10 o 283.670 302.329 180.00 0.70711 0.23
26 22 4 o 9.444 10.065 0.00 0.70711 0.01
25 23 5 o 1.804 2.021 0.00 0.70621 0.00
33 9 3 o 75.214 84.277 180.00 0.70621 0.06
27 21 3 o 0.822 0.921 180.00 0.70621 0.00
29 17 7 o 308.460 345.628 0.00 0.70621 0.25
27 15 15 o 0.801 0.897 0.00 0.70621 0.00
23 23 11 o 1820.746 2040.139 0.00 0.70621 0.72
29 13 13 o 6.075 6.807 0.00 0.70621 0.00
31 13 7 o 0.227 0.254 180.00 0.70621 0.00
23 19 17 o 12.915 14.471 0.00 0.70621 0.01
28 16 12 o 8.379 11.985 180.00 0.70472 0.01
28 20 0 o 20.394 29.172 0.00 0.70472 0.01
32 12 4 o 176.751 252.828 180.00 0.70472 0.14
29 15 11 o 2.553 5.238 180.00 0.70383 0.00
27 17 13 o 15.727 32.264 0.00 0.70383 0.01
25 21 11 o 17.980 36.886 180.00 0.70383 0.01
31 15 1 o 2.407 4.937 180.00 0.70383 0.00
33 7 7 o 5.283 10.837 180.00 0.70383 0.00
30 12 12 o 1.451 3.718 180.00 0.70353 0.00
28 20 2 o 35.410 90.704 180.00 0.70353 0.03
32 10 8 o 0.009 0.024 180.00 0.70353 0.00
34 4 4 o 12.555 32.159 180.00 0.70353 0.00
24 24 6 o 0.121 0.311 0.00 0.70353 0.00
26 16 16 o 17.380 44.520 180.00 0.70353 0.01
34 6 0 o 21.818 238.624 0.00 0.70235 0.01
30 16 6 o 1.972 21.569 0.00 0.70235 0.00
31 15 3 o 29.851 129.215 0.00 0.70147 0.02
23 21 15 o 22.990 99.514 0.00 0.70147 0.02
33 9 5 o 1.373 5.945 0.00 0.70147 0.00
27 21 5 o 0.556 2.405 180.00 0.70147 0.00
26 18 14 o 38.037 110.672 180.00 0.70117 0.03
26 22 6 o 2.298 6.687 180.00 0.70117 0.00
34 6 2 o 0.116 0.336 0.00 0.70117 0.00
30 14 10 o 3.217 9.361 0.00 0.70117 0.00
28 20 4 o 85.898 99.705 180.00 0.70000 0.07
20 20 20 o 198.580 230.499 0.00 0.70000 0.03
25 23 7 o 29.118 27.069 180.00 0.69913 0.02
31 11 11 o 2.711 2.520 180.00 0.69913 0.00
25 17 17 o 0.373 0.347 0.00 0.69913 0.00
29 19 1 o 16.825 15.640 180.00 0.69913 0.01
32 12 6 o 19.815 18.082 180.00 0.69884 0.02
24 22 12 o 0.579 0.528 0.00 0.69884 0.00
22 20 18 o 0.931 0.866 0.00 0.69768 0.00
28 18 10 o 1.526 1.420 180.00 0.69768 0.00
34 6 4 o 87.219 81.154 0.00 0.69768 0.07
25 19 15 o 11.440 10.699 180.00 0.69682 0.01
31 15 5 o 44.768 41.866 180.00 0.69682 0.03
33 11 1 o 1655.765 1548.416 180.00 0.69682 1.25
27 19 11 o 343.873 321.578 180.00 0.69682 0.26
29 19 3 o 124.383 116.319 180.00 0.69682 0.09
31 13 9 o 156.784 146.619 0.00 0.69682 0.12
29 17 9 o 78.595 73.499 0.00 0.69682 0.06
24 24 8 o 752.052 717.279 180.00 0.69538 0.28
27 21 7 o 4.272 4.022 180.00 0.69453 0.00
33 11 3 o 2.361 2.223 180.00 0.69453 0.00
33 9 7 o 55.322 52.091 180.00 0.69453 0.04
28 20 6 o 5.982 5.535 180.00 0.69424 0.00
30 16 8 o 124.825 115.493 0.00 0.69424 0.09
26 20 12 o 30.150 27.896 0.00 0.69424 0.02
30 18 0 o 351.261 296.916 180.00 0.69311 0.13
22 22 16 o 36.579 30.920 0.00 0.69311 0.01
34 8 2 o 27.899 23.582 0.00 0.69311 0.02
26 22 8 o 750.938 634.756 180.00 0.69311 0.55
24 18 18 o 158.280 133.792 180.00 0.69311 0.06
32 14 2 o 164.093 138.705 180.00 0.69311 0.12
32 10 10 o 67.258 56.853 0.00 0.69311 0.02
23 23 13 o 119.803 98.892 180.00 0.69226 0.04
35 1 1 o 79.168 65.349 180.00 0.69226 0.03
29 19 5 o 10.725 8.853 0.00 0.69226 0.01
34 6 6 o 1452.677 1203.840 0.00 0.69198 0.53
30 18 2 o 0.071 0.059 0.00 0.69198 0.00
24 20 16 o 53.101 46.037 180.00 0.69085 0.04
32 12 8 o 18.172 15.755 180.00 0.69085 0.01
35 3 1 o 69.593 60.976 180.00 0.69001 0.05
33 11 5 o 29.600 25.935 180.00 0.69001 0.02
31 15 7 o 357.025 312.819 180.00 0.69001 0.26
25 23 9 o 957.283 838.755 180.00 0.69001 0.69
29 15 13 o 63.715 55.826 0.00 0.69001 0.05
25 21 13 o 1.221 1.070 0.00 0.69001 0.00
34 8 4 o 118.072 103.073 180.00 0.68973 0.09
28 16 14 o 54.727 47.775 0.00 0.68973 0.04
32 14 4 o 0.002 0.001 180.00 0.68973 0.00
30 18 4 o 153.790 133.925 180.00 0.68862 0.11
30 14 12 o 31.821 27.711 180.00 0.68862 0.02
27 17 15 o 60.449 54.231 0.00 0.68779 0.04
21 21 19 o 8.500 7.625 0.00 0.68779 0.00
35 3 3 o 141.439 126.890 180.00 0.68779 0.05
28 20 8 o 4269.912 4064.795 0.00 0.68641 3.03
29 17 11 o 147.548 144.882 180.00 0.68559 0.10
25 25 1 o 336.892 330.805 0.00 0.68559 0.12
35 5 1 o 98.556 96.776 0.00 0.68559 0.07
33 9 9 o 1350.095 1325.700 0.00 0.68559 0.48
27 21 9 o 262.831 258.082 0.00 0.68559 0.19
23 19 19 o 256.142 251.514 0.00 0.68559 0.09
31 17 1 o 94.295 92.591 0.00 0.68559 0.07
31 13 11 o 72.193 70.889 180.00 0.68559 0.05
29 19 7 o 347.318 341.043 0.00 0.68559 0.25
28 18 12 o 45.415 45.112 180.00 0.68531 0.03
24 24 10 o 103.090 102.400 0.00 0.68531 0.04
30 16 10 o 9.302 9.657 180.00 0.68422 0.01
32 14 6 o 172.528 179.111 180.00 0.68422 0.12
24 22 14 o 169.072 175.522 0.00 0.68422 0.12
34 10 0 o 2501.912 2597.372 180.00 0.68422 0.88
34 8 6 o 45.116 46.838 180.00 0.68422 0.03
26 24 2 o 22.402 23.257 0.00 0.68422 0.02
26 18 16 o 23.394 24.287 180.00 0.68422 0.02
27 23 1 o 23.445 24.153 180.00 0.68341 0.02
27 19 13 o 220.771 227.443 180.00 0.68341 0.15
23 21 17 o 2.397 2.469 180.00 0.68341 0.00
33 11 7 o 45.566 46.943 180.00 0.68341 0.03
25 25 3 o 17.567 18.098 0.00 0.68341 0.01
33 13 1 o 1.905 1.962 0.00 0.68341 0.00
31 17 3 o 1497.350 1542.602 180.00 0.68341 1.05
35 5 3 o 50.976 52.516 180.00 0.68341 0.04
30 18 6 o 0.800 0.808 180.00 0.68313 0.00
26 22 10 o 46.976 47.462 180.00 0.68313 0.03
34 10 2 o 61.146 61.779 180.00 0.68313 0.04
31 15 9 o 0.940 0.772 180.00 0.68124 0.00
33 13 3 o 7.684 6.311 180.00 0.68124 0.01
27 23 3 o 8.259 6.784 180.00 0.68124 0.01
32 12 10 o 0.129 0.105 180.00 0.68098 0.00
26 24 4 o 0.125 0.102 180.00 0.68098 0.00
34 10 4 o 1.346 1.137 0.00 0.67990 0.00
26 20 14 o 62.525 52.810 180.00 0.67990 0.04
28 22 2 o 0.260 0.219 180.00 0.67990 0.00
35 5 5 o 310.733 279.805 0.00 0.67910 0.11
35 7 1 o 75.129 67.652 0.00 0.67910 0.05
25 25 5 o 483.768 435.618 0.00 0.67910 0.16
31 17 5 o 9.209 8.293 180.00 0.67910 0.01
25 23 11 o 10.473 9.431 0.00 0.67910 0.01
25 19 17 o 1332.317 1199.710 180.00 0.67910 0.91
32 14 8 o 7.195 6.721 180.00 0.67672 0.00
28 22 4 o 75.394 70.429 180.00 0.67672 0.05
34 8 8 o 147.908 138.168 0.00 0.67672 0.05
28 20 10 o 10.787 10.077 180.00 0.67672 0.01
22 20 20 o 8.831 8.249 180.00 0.67672 0.00
32 16 2 o 32.272 30.147 180.00 0.67672 0.02
32 16 0 o 15.280 14.914 0.00 0.67778 0.01
30 18 8 o 90.948 80.972 0.00 0.67567 0.06
26 24 6 o 117.068 104.227 0.00 0.67567 0.08
27 23 5 o 437.216 414.671 180.00 0.67698 0.29
29 19 9 o 721.882 684.659 0.00 0.67698 0.49
33 13 5 o 232.300 220.322 180.00 0.67698 0.16
35 7 3 o 118.426 112.320 180.00 0.67698 0.08
23 23 15 o 36.496 34.614 0.00 0.67698 0.01
29 21 1 o 50.731 48.115 180.00 0.67698 0.03
29 15 15 o 8.178 7.107 0.00 0.67488 0.00
25 21 15 o 230.315 200.148 0.00 0.67488 0.15
27 21 11 o 4.315 3.750 180.00 0.67488 0.00
29 21 3 o 9.661 8.396 0.00 0.67488 0.01
33 11 9 o 6.862 5.963 180.00 0.67488 0.00
22 22 18 o 0.786 0.678 0.00 0.67462 0.00
30 14 14 o 0.169 0.146 180.00 0.67462 0.00
34 10 6 o 33.489 28.866 180.00 0.67462 0.02
28 16 16 o 2534.146 2165.084 0.00 0.67358 0.83
32 16 4 o 53.908 46.057 180.00 0.67358 0.04
36 0 0 o 26.361 22.522 180.00 0.67358 0.00
24 24 12 o 20.746 17.724 0.00 0.67358 0.01
29 17 13 o 15.921 14.095 180.00 0.67280 0.01
25 25 7 o 53.299 47.185 0.00 0.67280 0.02
31 17 7 o 49.710 44.008 0.00 0.67280 0.03
31 13 13 o 1.545 1.368 0.00 0.67280 0.00
35 7 5 o 1.395 1.235 180.00 0.67280 0.00
24 20 18 o 6.925 6.209 180.00 0.67254 0.00
30 16 12 o 1.477 1.324 180.00 0.67254 0.00
28 18 14 o 194.482 170.111 180.00 0.67151 0.13
28 22 6 o 788.800 689.952 180.00 0.67151 0.51
30 20 2 o 16.443 14.382 0.00 0.67151 0.01
26 22 12 o 0.004 0.004 0.00 0.67151 0.00
34 12 2 o 111.795 97.785 0.00 0.67151 0.07
36 2 2 o 95.114 83.194 180.00 0.67151 0.03
31 15 11 o 9.242 7.351 180.00 0.67074 0.01
29 21 5 o 7.651 6.085 180.00 0.67074 0.00
27 17 17 o 1328.491 1056.575 0.00 0.67074 0.43
35 9 1 o 163.797 130.271 0.00 0.67074 0.11
33 13 7 o 13.236 10.527 180.00 0.67074 0.01
27 23 7 o 95.084 75.622 180.00 0.67074 0.06
36 4 0 o 11.054 8.138 180.00 0.66946 0.00
32 12 12 o 359.910 264.980 0.00 0.66946 0.12
27 19 15 o 56.623 43.382 180.00 0.66870 0.04
35 9 3 o 25.261 19.354 180.00 0.66870 0.02
33 15 1 o 5.184 3.972 0.00 0.66870 0.00
30 20 4 o 19.296 15.077 180.00 0.66844 0.01
24 22 16 o 17.444 13.629 0.00 0.66844 0.01
32 16 6 o 3.870 3.024 180.00 0.66844 0.00
36 4 2 o 1.483 1.158 0.00 0.66844 0.00
34 12 4 o 0.463 0.362 180.00 0.66844 0.00
26 24 8 o 3.657 2.857 180.00 0.66844 0.00
32 14 10 o 136.764 115.742 180.00 0.66743 0.09
34 10 8 o 407.357 344.741 0.00 0.66743 0.26
29 19 11 o 82.695 74.683 0.00 0.66667 0.05
25 23 13 o 428.831 387.278 0.00 0.66667 0.27
31 19 1 o 99.158 89.550 0.00 0.66667 0.06
33 15 3 o 215.524 194.641 0.00 0.66667 0.14
21 21 21 o 336.595 303.980 180.00 0.66667 0.04
35 7 7 o 122.193 110.353 0.00 0.66667 0.04
26 18 18 o 0.732 0.679 180.00 0.66642 0.00
30 18 10 o 5.967 5.534 0.00 0.66642 0.00
36 4 4 o 159.356 165.789 180.00 0.66541 0.05
28 20 12 o 52.069 54.171 180.00 0.66541 0.03
29 21 7 o 26.548 28.723 180.00 0.66466 0.02
35 9 5 o 22.979 24.861 0.00 0.66466 0.01
33 11 11 o 16.179 17.504 0.00 0.66466 0.01
25 25 9 o 112.331 121.530 0.00 0.66466 0.04
31 17 9 o 9.095 9.839 180.00 0.66466 0.01
31 19 3 o 42.406 45.878 180.00 0.66466 0.03
23 21 19 o 25.931 28.054 180.00 0.66466 0.02
28 22 8 o 10.659 11.511 0.00 0.66441 0.01
26 20 16 o 81.714 88.248 180.00 0.66441 0.05
36 6 2 o 397.445 405.439 180.00 0.66342 0.25
34 12 6 o 217.716 222.094 180.00 0.66342 0.13
30 20 6 o 13.179 13.444 180.00 0.66342 0.01
33 15 5 o 92.805 89.245 0.00 0.66268 0.06
33 13 9 o 8.898 8.557 0.00 0.66268 0.01
27 21 13 o 104.872 100.849 180.00 0.66268 0.06
27 23 9 o 7.312 7.031 0.00 0.66268 0.00
32 16 8 o 32.206 29.055 180.00 0.66144 0.02
25 19 19 o 123.949 113.749 0.00 0.66071 0.04
35 11 1 o 605.673 555.833 0.00 0.66071 0.37
23 23 17 o 32.689 29.999 0.00 0.66071 0.01
31 19 5 o 147.304 135.183 180.00 0.66071 0.09
24 24 14 o 20.615 19.174 0.00 0.66046 0.01
36 6 4 o 38.260 35.586 180.00 0.66046 0.02
30 16 14 o 89.120 86.991 180.00 0.65948 0.05
26 24 10 o 4.085 3.987 0.00 0.65948 0.00
32 18 2 o 12.425 12.128 180.00 0.65948 0.01
34 14 0 o 3.044 2.972 180.00 0.65948 0.00
26 26 0 o 326.387 318.592 0.00 0.65948 0.05
27 25 1 o 15.309 15.110 0.00 0.65875 0.01
25 21 17 o 5.624 5.551 0.00 0.65875 0.00
35 9 7 o 13.970 13.788 0.00 0.65875 0.01
29 17 15 o 77.981 76.964 0.00 0.65875 0.05
35 11 3 o 38.503 38.001 180.00 0.65875 0.02
31 15 13 o 9.241 9.120 0.00 0.65875 0.01
34 10 10 o 104.655 103.244 180.00 0.65851 0.03
26 22 14 o 493.514 486.860 0.00 0.65851 0.30
34 14 2 o 351.989 347.243 0.00 0.65851 0.21
26 26 2 o 16.374 16.153 0.00 0.65851 0.00
28 24 0 o 186.020 181.877 180.00 0.65754 0.06
36 8 0 o 3621.403 3540.750 0.00 0.65754 1.08
33 15 7 o 187.535 183.026 180.00 0.65682 0.11
27 25 3 o 1.173 1.145 0.00 0.65682 0.00
29 21 9 o 157.233 153.453 180.00 0.65682 0.09
32 14 12 o 7.610 7.429 0.00 0.65657 0.00
30 20 8 o 19.320 18.861 180.00 0.65657 0.01
34 12 8 o 0.777 0.759 0.00 0.65657 0.00
32 18 4 o 29.421 28.723 180.00 0.65657 0.02
28 18 16 o 50.210 49.019 0.00 0.65657 0.03
36 8 2 o 0.424 0.414 0.00 0.65657 0.00
28 24 2 o 0.048 0.047 180.00 0.65657 0.00
22 22 20 o 2.145 2.062 0.00 0.65561 0.00
28 22 10 o 123.664 118.919 180.00 0.65561 0.07
26 26 4 o 176.512 169.738 0.00 0.65561 0.05
36 6 6 o 33.227 31.952 0.00 0.65561 0.01
34 14 4 o 53.916 51.847 0.00 0.65561 0.03
30 18 12 o 80.327 77.244 0.00 0.65561 0.05
25 25 11 o 409.182 375.674 180.00 0.65490 0.12
31 17 11 o 0.536 0.492 180.00 0.65490 0.00
29 23 1 o 0.125 0.115 180.00 0.65490 0.00
35 11 5 o 39.306 36.087 180.00 0.65490 0.02
37 1 1 o 62.727 57.591 180.00 0.65490 0.02
29 19 13 o 165.649 152.084 180.00 0.65490 0.10
31 19 7 o 0.708 0.650 180.00 0.65490 0.00
28 24 4 o 22.762 18.819 180.00 0.65371 0.01
24 20 20 o 498.663 412.269 180.00 0.65371 0.15
36 8 4 o 22.303 18.439 0.00 0.65371 0.01
37 3 1 o 0.433 0.358 180.00 0.65299 0.00
33 17 1 o 0.020 0.017 0.00 0.65299 0.00
29 23 3 o 0.405 0.335 0.00 0.65299 0.00
27 23 11 o 2.509 2.077 180.00 0.65299 0.00
33 13 11 o 304.512 252.079 0.00 0.65299 0.18
25 23 15 o 22.696 18.788 0.00 0.65299 0.01
27 19 17 o 52.742 43.661 0.00 0.65299 0.03
27 25 5 o 59.055 48.887 0.00 0.65299 0.03
28 20 14 o 110.147 93.266 180.00 0.65276 0.06
32 16 10 o 43.745 37.041 0.00 0.65276 0.03
30 22 0 o 44.764 44.752 0.00 0.65181 0.01
32 18 6 o 0.001 0.001 180.00 0.65181 0.00
24 22 18 o 11.444 11.441 0.00 0.65181 0.01
37 3 3 o 41.204 44.974 180.00 0.65111 0.01
35 9 9 o 266.708 291.112 0.00 0.65111 0.08
33 17 3 o 2.360 2.576 0.00 0.65111 0.00
30 22 2 o 172.064 188.744 0.00 0.65087 0.10
26 26 6 o 68.914 75.595 180.00 0.65087 0.02
34 14 6 o 2.890 3.170 0.00 0.65087 0.00
29 23 5 o 8.366 8.011 180.00 0.64924 0.00
37 5 1 o 2.141 2.050 0.00 0.64924 0.00
33 15 9 o 183.076 175.295 180.00 0.64924 0.10
35 11 7 o 24.539 23.496 180.00 0.64924 0.01
35 13 1 o 45.902 43.951 180.00 0.64924 0.03
27 21 15 o 17.672 16.921 180.00 0.64924 0.01
36 8 6 o 267.327 253.645 0.00 0.64901 0.15
26 24 12 o 97.527 92.536 180.00 0.64901 0.06
28 24 6 o 49.585 47.047 0.00 0.64901 0.03
26 20 18 o 291.486 289.284 0.00 0.64808 0.16
34 12 10 o 287.665 285.492 0.00 0.64808 0.16
36 10 2 o 36.109 35.836 180.00 0.64808 0.02
30 20 10 o 219.907 218.245 0.00 0.64808 0.12
30 22 4 o 67.676 67.165 0.00 0.64808 0.04
35 13 3 o 347.684 381.756 0.00 0.64738 0.20
37 5 3 o 250.583 275.140 180.00 0.64738 0.14
29 21 11 o 0.004 0.004 180.00 0.64738 0.00
27 25 7 o 115.091 126.369 180.00 0.64738 0.06
31 19 9 o 30.603 33.602 0.00 0.64738 0.02
33 17 5 o 5.901 6.479 180.00 0.64738 0.00
31 21 1 o 134.903 148.123 0.00 0.64738 0.08
24 24 16 o 188.387 208.414 0.00 0.64623 0.05
23 21 21 o 60.351 59.218 0.00 0.64555 0.02
31 15 15 o 34.963 34.307 180.00 0.64555 0.01
31 21 3 o 32.210 31.606 0.00 0.64555 0.02
28 22 12 o 10.621 10.093 180.00 0.64532 0.01
32 18 8 o 4.796 4.557 180.00 0.64532 0.00
36 10 4 o 87.430 83.082 180.00 0.64532 0.05
30 16 16 o 5.959 5.662 0.00 0.64532 0.00
32 14 14 o 104.461 98.812 0.00 0.64441 0.03
26 22 16 o 128.585 121.630 180.00 0.64441 0.07
34 14 8 o 432.297 408.915 180.00 0.64441 0.24
34 16 2 o 4.358 4.122 180.00 0.64441 0.00
26 26 8 o 335.409 317.267 180.00 0.64441 0.09
37 5 5 o 0.766 0.812 180.00 0.64372 0.00
23 23 19 o 2.831 3.000 180.00 0.64372 0.00
37 7 1 o 71.394 75.658 0.00 0.64372 0.04
35 13 5 o 112.694 119.424 180.00 0.64372 0.06
29 17 17 o 396.154 419.813 180.00 0.64372 0.11
31 17 13 o 78.681 83.380 180.00 0.64372 0.04
25 25 13 o 422.818 448.070 180.00 0.64372 0.12
29 23 7 o 119.114 126.227 0.00 0.64372 0.07
30 22 6 o 61.596 68.425 180.00 0.64350 0.03
30 18 14 o 79.460 88.269 180.00 0.64350 0.04
32 20 0 o 15.276 19.408 0.00 0.64259 0.00
28 24 8 o 34.208 43.462 180.00 0.64259 0.02
36 8 8 o 48.077 61.084 180.00 0.64259 0.01
32 16 12 o 12.682 16.113 180.00 0.64259 0.01
33 17 7 o 32.808 41.321 180.00 0.64192 0.02
27 23 13 o 30.011 37.798 0.00 0.64192 0.02
33 13 13 o 190.553 239.995 180.00 0.64192 0.05
37 7 3 o 36.078 45.439 0.00 0.64192 0.02
25 21 19 o 47.347 59.632 180.00 0.64192 0.03
35 11 9 o 19.963 25.142 0.00 0.64192 0.01
29 19 15 o 5.904 7.436 0.00 0.64192 0.00
31 21 5 o 25.888 32.604 0.00 0.64192 0.01
34 16 4 o 0.243 0.302 0.00 0.64169 0.00
32 20 2 o 0.565 0.702 180.00 0.64169 0.00
28 18 18 o 306.410 358.336 180.00 0.64080 0.08
36 10 6 o 38.958 45.560 180.00 0.64080 0.02
33 15 11 o 25.660 27.014 0.00 0.64013 0.01
27 25 9 o 128.667 135.456 180.00 0.64013 0.07
28 20 16 o 0.704 0.633 0.00 0.63901 0.00
36 12 0 o 15.980 14.365 180.00 0.63901 0.00
32 20 4 o 59.055 53.086 180.00 0.63901 0.03
25 23 17 o 47.773 44.220 0.00 0.63835 0.03
37 7 5 o 68.279 63.202 0.00 0.63835 0.04
31 19 11 o 719.028 665.555 0.00 0.63835 0.38
35 13 7 o 9.730 9.007 180.00 0.63835 0.01
34 12 12 o 137.032 130.345 0.00 0.63813 0.04
36 12 2 o 154.794 147.240 180.00 0.63813 0.08
30 20 12 o 39.911 37.964 0.00 0.63813 0.02
34 16 6 o 126.596 141.025 180.00 0.63725 0.07
32 18 10 o 69.552 77.479 180.00 0.63725 0.04
38 2 0 o 14.619 16.285 0.00 0.63725 0.00
30 22 8 o 662.731 738.268 0.00 0.63725 0.35
26 24 14 o 34.504 38.436 180.00 0.63725 0.02
31 21 7 o 55.754 69.665 0.00 0.63659 0.03
35 15 1 o 9.393 11.737 180.00 0.63659 0.00
29 23 9 o 0.253 0.316 0.00 0.63659 0.00
27 19 19 o 27.031 33.776 180.00 0.63659 0.01
37 9 1 o 341.763 427.030 180.00 0.63659 0.18
29 21 13 o 9.217 11.516 180.00 0.63659 0.00
33 19 1 o 33.475 41.826 0.00 0.63659 0.02
38 2 2 o 71.696 91.618 0.00 0.63637 0.02
26 26 10 o 48.263 61.675 180.00 0.63637 0.01
22 22 22 o 1109.118 1417.313 0.00 0.63637 0.10
34 14 10 o 42.144 53.854 180.00 0.63637 0.02
36 12 4 o 31.913 39.286 0.00 0.63549 0.02
37 9 3 o 13.508 14.895 180.00 0.63484 0.01
33 19 3 o 831.291 916.692 180.00 0.63484 0.43
33 17 9 o 7.354 8.109 180.00 0.63484 0.00
27 27 1 o 170.278 187.771 0.00 0.63484 0.04
35 15 3 o 15.425 17.010 180.00 0.63484 0.01
27 21 17 o 0.019 0.021 180.00 0.63484 0.00
32 20 6 o 19.345 20.632 0.00 0.63462 0.01
24 22 20 o 120.477 128.488 180.00 0.63462 0.06
28 24 10 o 9.950 10.612 0.00 0.63462 0.01
36 10 8 o 99.171 105.766 0.00 0.63462 0.05
38 4 2 o 1.340 1.352 0.00 0.63375 0.00
28 22 14 o 5.228 5.277 0.00 0.63375 0.00
28 26 2 o 0.017 0.018 0.00 0.63375 0.00
37 7 7 o 0.475 0.505 180.00 0.63311 0.00
35 11 11 o 136.741 145.388 0.00 0.63311 0.04
29 25 1 o 1.059 1.126 180.00 0.63311 0.00
27 27 3 o 78.803 83.786 180.00 0.63311 0.02
35 13 9 o 95.066 93.266 180.00 0.63139 0.05
31 17 15 o 23.595 23.148 0.00 0.63139 0.01
25 25 15 o 135.786 133.214 0.00 0.63139 0.03
35 15 5 o 1.149 1.127 0.00 0.63139 0.00
33 19 5 o 0.405 0.397 0.00 0.63139 0.00
37 9 5 o 2.416 2.370 0.00 0.63139 0.00
29 25 3 o 19.699 19.326 0.00 0.63139 0.01
27 25 11 o 0.011 0.011 180.00 0.63139 0.00
34 16 8 o 0.923 0.876 0.00 0.63117 0.00
32 16 14 o 1.540 1.463 0.00 0.63117 0.00
38 4 4 o 431.012 409.269 0.00 0.63117 0.11
28 26 4 o 9.878 9.379 180.00 0.63117 0.01
24 24 18 o 31.291 29.713 0.00 0.63117 0.01
26 20 20 o 6.917 6.568 0.00 0.63117 0.00
36 12 6 o 37.673 35.773 180.00 0.63117 0.02
34 18 0 o 27.032 23.804 0.00 0.63032 0.01
30 24 2 o 0.207 0.182 0.00 0.63032 0.00
38 6 0 o 8.549 7.528 0.00 0.63032 0.00
30 18 16 o 22.908 20.172 0.00 0.63032 0.01
33 15 13 o 626.569 536.942 0.00 0.62968 0.32
27 23 15 o 89.368 76.584 180.00 0.62968 0.04
27 27 5 o 19.770 16.942 0.00 0.62968 0.00
31 21 9 o 118.226 101.315 0.00 0.62968 0.06
30 22 10 o 78.636 66.739 180.00 0.62947 0.04
34 18 2 o 30.453 25.846 180.00 0.62947 0.02
26 22 18 o 7.933 6.733 180.00 0.62947 0.00
38 6 2 o 223.714 189.870 180.00 0.62947 0.11
32 20 8 o 33.163 27.503 0.00 0.62862 0.02
37 11 1 o 33.995 28.532 180.00 0.62799 0.02
29 25 5 o 3.958 3.322 180.00 0.62799 0.00
29 23 11 o 10.456 8.776 0.00 0.62799 0.01
31 19 13 o 3.996 3.354 180.00 0.62799 0.00
29 19 17 o 3.913 3.284 180.00 0.62799 0.00
31 23 1 o 5.351 4.491 0.00 0.62799 0.00
30 24 4 o 145.088 122.237 0.00 0.62778 0.07
32 18 12 o 18.176 15.313 0.00 0.62778 0.01
36 10 10 o 95.521 78.790 180.00 0.62694 0.02
34 18 4 o 132.607 109.381 180.00 0.62694 0.07
34 14 12 o 4.307 3.553 0.00 0.62694 0.00
36 14 2 o 198.814 163.992 0.00 0.62694 0.10
26 26 12 o 10.401 8.580 180.00 0.62694 0.00
28 26 6 o 109.415 90.251 0.00 0.62694 0.05
38 6 4 o 143.768 118.587 180.00 0.62694 0.07
30 20 14 o 28.831 23.781 0.00 0.62694 0.01
37 9 7 o 63.580 50.277 180.00 0.62631 0.03
33 17 11 o 1391.650 1100.475 180.00 0.62631 0.69
23 23 21 o 20.576 16.271 180.00 0.62631 0.01
37 11 3 o 46.729 36.952 180.00 0.62631 0.02
35 15 7 o 17.513 13.849 180.00 0.62631 0.01
31 23 3 o 121.922 96.412 0.00 0.62631 0.06
33 19 7 o 10.111 7.995 180.00 0.62631 0.00
28 24 12 o 5.132 3.862 0.00 0.62527 0.00
36 12 8 o 44.769 33.694 0.00 0.62527 0.02
27 27 7 o 249.050 189.787 0.00 0.62465 0.06
25 21 21 o 0.266 0.203 0.00 0.62465 0.00
29 21 15 o 56.341 42.935 0.00 0.62465 0.03
26 24 16 o 113.529 87.775 0.00 0.62444 0.06
36 14 4 o 47.417 36.660 180.00 0.62444 0.02
28 20 18 o 3.452 2.669 180.00 0.62444 0.00
38 8 2 o 267.921 231.651 0.00 0.62361 0.13
34 16 10 o 140.032 121.073 180.00 0.62361 0.07
30 24 6 o 129.714 112.152 180.00 0.62361 0.06
32 22 2 o 184.379 159.416 0.00 0.62361 0.09
37 11 5 o 58.856 56.176 0.00 0.62300 0.03
25 23 19 o 118.471 113.077 180.00 0.62300 0.06
31 23 5 o 15.028 14.344 180.00 0.62300 0.01
35 17 1 o 1.224 1.169 0.00 0.62300 0.00
35 13 11 o 2.842 2.712 180.00 0.62300 0.00
29 25 7 o 16.479 15.728 180.00 0.62300 0.01
38 6 6 o 2.458 2.389 180.00 0.62279 0.00
34 18 6 o 53.813 52.302 180.00 0.62279 0.03
31 21 11 o 93.103 82.667 180.00 0.62136 0.04
35 17 3 o 92.069 81.749 0.00 0.62136 0.04
39 1 1 o 572.833 508.622 0.00 0.62136 0.14
27 25 13 o 0.276 0.245 180.00 0.62136 0.00
32 22 4 o 11.849 10.440 0.00 0.62115 0.01
28 26 8 o 47.604 41.946 0.00 0.62115 0.02
28 22 16 o 0.293 0.258 0.00 0.62115 0.00
38 8 4 o 7.633 6.726 180.00 0.62115 0.00
32 20 10 o 8.844 7.793 180.00 0.62115 0.00
30 22 12 o 31.408 28.015 180.00 0.62034 0.01
36 14 6 o 172.194 153.588 0.00 0.62034 0.08
27 21 19 o 138.420 124.815 0.00 0.61973 0.07
37 9 9 o 0.000 0.000 180.00 0.61973 0.00
33 19 9 o 263.881 237.945 180.00 0.61973 0.12
35 15 9 o 58.233 52.509 0.00 0.61973 0.03
33 21 1 o 330.059 297.619 0.00 0.61973 0.16
39 3 1 o 43.018 38.790 0.00 0.61973 0.02
32 16 16 o 4.631 4.069 0.00 0.61872 0.00
33 15 15 o 126.953 110.220 0.00 0.61812 0.03
35 17 5 o 2.265 1.967 0.00 0.61812 0.00
31 17 17 o 0.032 0.028 180.00 0.61812 0.00
29 23 13 o 14.814 12.862 0.00 0.61812 0.01
37 11 7 o 31.421 27.279 0.00 0.61812 0.01
25 25 17 o 466.475 404.989 0.00 0.61812 0.11
31 23 7 o 121.464 105.454 0.00 0.61812 0.06
33 21 3 o 0.300 0.261 0.00 0.61812 0.00
39 3 3 o 556.304 482.978 0.00 0.61812 0.13
37 13 1 o 97.082 84.285 0.00 0.61812 0.05
27 27 9 o 186.215 161.670 0.00 0.61812 0.04
30 24 8 o 5.486 4.758 0.00 0.61792 0.00
36 12 10 o 76.751 66.565 180.00 0.61792 0.04
38 10 0 o 9.522 8.317 0.00 0.61712 0.00
38 8 6 o 5.368 4.689 180.00 0.61712 0.00
34 18 8 o 23.905 20.881 180.00 0.61712 0.01
32 22 6 o 60.468 52.819 180.00 0.61712 0.03
24 22 22 o 96.300 84.119 180.00 0.61712 0.02
32 18 14 o 21.006 18.349 0.00 0.61712 0.01
29 25 9 o 210.574 185.955 0.00 0.61652 0.10
37 13 3 o 41.682 36.809 0.00 0.61652 0.02
31 19 15 o 166.521 147.052 0.00 0.61652 0.08
39 5 1 o 30.571 26.997 180.00 0.61652 0.01
27 23 17 o 10.523 9.293 0.00 0.61652 0.00
33 17 13 o 0.323 0.285 180.00 0.61652 0.00
38 10 2 o 28.618 25.379 180.00 0.61632 0.01
30 18 18 o 1.830 1.623 180.00 0.61632 0.00
26 26 14 o 14.164 12.561 180.00 0.61632 0.00
34 14 14 o 2407.589 2135.085 0.00 0.61632 0.56
24 24 20 o 9.059 8.286 180.00 0.61552 0.00
36 16 0 o 80.121 73.287 180.00 0.61552 0.02
33 21 5 o 148.899 141.743 180.00 0.61493 0.07
39 5 3 o 0.105 0.100 0.00 0.61493 0.00
36 16 2 o 393.557 379.532 0.00 0.61473 0.18
34 16 12 o 150.044 144.697 180.00 0.61473 0.07
36 14 8 o 15.641 15.083 0.00 0.61473 0.01
30 20 16 o 8.198 7.906 180.00 0.61473 0.00
28 24 14 o 45.060 43.455 180.00 0.61473 0.02
26 22 20 o 0.619 0.615 0.00 0.61394 0.00
38 10 4 o 28.038 27.838 0.00 0.61394 0.01
28 26 10 o 16.141 16.026 0.00 0.61394 0.01
34 20 2 o 295.351 293.242 180.00 0.61394 0.13
35 17 7 o 0.177 0.176 180.00 0.61336 0.00
35 13 13 o 23.879 23.795 0.00 0.61336 0.01
37 13 5 o 8.664 8.634 0.00 0.61336 0.00
29 19 19 o 61.702 61.486 0.00 0.61335 0.01
28 28 0 o 1801.053 1807.488 0.00 0.61238 0.20
36 16 4 o 157.504 158.066 0.00 0.61238 0.07
32 20 12 o 496.357 498.130 180.00 0.61238 0.22
29 27 1 o 36.218 36.133 0.00 0.61179 0.02
31 23 9 o 398.639 397.700 180.00 0.61179 0.18
37 11 9 o 43.175 43.073 180.00 0.61179 0.02
33 19 11 o 0.147 0.147 0.00 0.61179 0.00
29 21 17 o 0.498 0.497 180.00 0.61179 0.00
35 15 11 o 0.741 0.739 0.00 0.61179 0.00
31 21 13 o 123.550 123.260 180.00 0.61179 0.06
39 7 1 o 0.695 0.693 0.00 0.61179 0.00
39 5 5 o 2229.601 2224.351 180.00 0.61179 0.50
32 22 8 o 21.905 21.721 180.00 0.61160 0.01
38 8 8 o 10.981 10.888 0.00 0.61160 0.00
28 28 2 o 9.569 9.488 180.00 0.61160 0.00
34 20 4 o 85.179 84.463 0.00 0.61160 0.04
30 24 10 o 17.284 16.394 0.00 0.61082 0.01
30 26 0 o 575.326 545.706 180.00 0.61082 0.13
26 24 18 o 5.963 5.656 0.00 0.61082 0.00
27 25 15 o 217.434 198.579 180.00 0.61024 0.10
29 27 3 o 0.066 0.060 180.00 0.61024 0.00
27 27 11 o 198.882 181.636 180.00 0.61024 0.04
39 7 3 o 150.977 137.885 0.00 0.61024 0.07
33 21 7 o 19.747 18.035 0.00 0.61024 0.01
34 18 10 o 117.806 106.570 180.00 0.61005 0.05
30 26 2 o 23.057 20.858 180.00 0.61005 0.01
38 10 6 o 0.065 0.059 180.00 0.61005 0.00
30 22 14 o 436.619 394.975 0.00 0.61005 0.19
28 28 4 o 303.818 270.107 0.00 0.60928 0.07
36 12 12 o 10.960 9.744 180.00 0.60928 0.00
28 20 20 o 612.881 544.877 0.00 0.60928 0.14
29 25 11 o 1.897 1.681 180.00 0.60870 0.00
31 25 1 o 413.323 366.354 180.00 0.60870 0.18
23 23 23 o 965.269 855.577 180.00 0.60870 0.07
37 13 7 o 48.520 43.007 0.00 0.60870 0.02
35 19 1 o 3.162 2.803 0.00 0.60870 0.00
36 16 6 o 14.008 12.405 0.00 0.60851 0.01
38 12 2 o 0.348 0.313 0.00 0.60774 0.00
30 26 4 o 191.938 172.421 180.00 0.60774 0.08
34 20 6 o 16.580 14.894 180.00 0.60774 0.01
36 14 10 o 129.074 115.948 0.00 0.60774 0.06
28 22 18 o 93.537 84.026 0.00 0.60774 0.04
35 17 9 o 6.830 6.488 0.00 0.60717 0.00
31 25 3 o 0.013 0.012 0.00 0.60717 0.00
35 19 3 o 52.788 50.145 180.00 0.60717 0.02
25 23 21 o 99.954 94.950 0.00 0.60717 0.04
29 23 15 o 25.323 24.055 0.00 0.60717 0.01
29 27 5 o 78.079 74.170 0.00 0.60717 0.03
37 15 1 o 58.090 55.182 0.00 0.60717 0.03
39 7 5 o 193.680 183.982 0.00 0.60717 0.08
32 24 0 o 122.696 136.606 180.00 0.60622 0.03
40 0 0 o 768.735 855.884 0.00 0.60622 0.04
37 15 3 o 167.264 201.241 0.00 0.60565 0.07
39 9 1 o 93.420 112.398 0.00 0.60565 0.04
33 17 15 o 3.916 4.712 0.00 0.60565 0.00
28 28 6 o 16.069 19.688 180.00 0.60547 0.00
28 26 12 o 0.569 0.697 180.00 0.60547 0.00
38 12 4 o 8.495 10.409 180.00 0.60547 0.00
32 24 2 o 14.610 17.901 0.00 0.60547 0.01
32 18 16 o 0.697 0.854 0.00 0.60547 0.00
26 26 16 o 2.630 3.351 180.00 0.60471 0.00
34 16 14 o 20.126 25.645 180.00 0.60471 0.01
38 10 8 o 3.936 5.015 0.00 0.60471 0.00
32 22 10 o 85.179 108.537 0.00 0.60471 0.04
40 2 2 o 20.611 26.264 0.00 0.60471 0.00
37 11 11 o 1.196 1.536 0.00 0.60415 0.00
25 25 19 o 15.779 20.262 180.00 0.60415 0.00
31 25 5 o 228.757 293.748 180.00 0.60415 0.10
39 9 3 o 494.156 634.549 180.00 0.60415 0.21
31 19 17 o 383.081 491.917 180.00 0.60415 0.16
33 21 9 o 9.577 12.298 180.00 0.60415 0.00
27 21 21 o 70.969 91.132 180.00 0.60415 0.02
31 23 11 o 12.458 15.998 0.00 0.60415 0.01
35 19 5 o 20.406 26.204 180.00 0.60415 0.01
30 26 6 o 0.270 0.347 0.00 0.60396 0.00
40 4 0 o 7.769 9.674 0.00 0.60321 0.00
32 24 4 o 23.991 29.875 0.00 0.60321 0.01
36 16 8 o 44.587 55.521 0.00 0.60321 0.02
28 24 16 o 102.293 127.378 180.00 0.60321 0.04
35 15 13 o 5.709 6.626 180.00 0.60265 0.00
29 27 7 o 102.568 119.051 180.00 0.60265 0.04
27 23 19 o 1.534 1.781 0.00 0.60265 0.00
33 23 1 o 99.026 114.940 0.00 0.60265 0.04
39 7 7 o 29.659 34.426 0.00 0.60265 0.01
33 19 13 o 352.651 409.325 180.00 0.60265 0.15
37 13 9 o 4.448 5.163 180.00 0.60265 0.00
37 15 5 o 50.379 58.476 0.00 0.60265 0.02
34 20 8 o 25.248 28.374 180.00 0.60247 0.01
40 4 2 o 23.041 25.894 0.00 0.60247 0.01
30 24 12 o 57.366 64.468 180.00 0.60247 0.02
32 20 14 o 73.975 83.134 180.00 0.60247 0.03
30 20 18 o 186.719 182.028 180.00 0.60173 0.08
36 18 2 o 0.115 0.112 0.00 0.60173 0.00
38 12 6 o 206.044 200.867 180.00 0.60173 0.09
34 18 12 o 94.376 92.005 0.00 0.60173 0.04
31 21 15 o 64.764 59.248 0.00 0.60117 0.03
39 9 5 o 0.044 0.040 0.00 0.60117 0.00
33 23 3 o 26.163 23.935 0.00 0.60117 0.01
27 27 13 o 2.258 2.065 180.00 0.60117 0.00
40 4 4 o 61.363 61.750 180.00 0.60025 0.01
28 28 8 o 26.443 26.609 180.00 0.60025 0.01
35 17 11 o 65.845 75.753 0.00 0.59970 0.03
31 25 7 o 91.702 105.501 0.00 0.59970 0.04
29 25 13 o 31.102 35.782 180.00 0.59970 0.01
35 19 7 o 5.142 5.916 0.00 0.59970 0.00
32 24 6 o 0.847 1.014 0.00 0.59951 0.00
24 24 22 o 7.736 9.263 0.00 0.59951 0.00
36 18 4 o 11.111 13.304 180.00 0.59951 0.00
36 14 12 o 151.302 181.179 180.00 0.59951 0.06
30 22 16 o 72.697 95.739 0.00 0.59878 0.03
34 22 0 o 636.938 838.825 0.00 0.59878 0.13
30 26 8 o 66.604 87.715 0.00 0.59878 0.03
38 14 0 o 45.918 60.472 0.00 0.59878 0.01
40 6 2 o 16.155 21.275 0.00 0.59878 0.01
33 23 5 o 23.389 31.420 0.00 0.59824 0.01
27 25 17 o 29.089 39.077 180.00 0.59824 0.01
37 15 7 o 5.016 6.738 180.00 0.59824 0.00
39 11 1 o 59.668 80.155 180.00 0.59824 0.02
29 21 19 o 21.805 29.292 0.00 0.59824 0.01
38 10 10 o 93.553 125.726 0.00 0.59805 0.02
26 22 22 o 5.061 6.801 180.00 0.59805 0.00
38 14 2 o 2.032 2.731 180.00 0.59805 0.00
34 22 2 o 11.669 15.682 180.00 0.59805 0.00
39 11 3 o 2.978 3.636 0.00 0.59679 0.00
33 21 11 o 120.967 147.714 0.00 0.59679 0.05
39 9 7 o 93.132 113.724 0.00 0.59679 0.04
29 27 9 o 22.364 27.309 0.00 0.59679 0.01
36 16 10 o 64.869 77.585 0.00 0.59660 0.03
40 6 4 o 19.349 23.142 180.00 0.59660 0.01
32 22 12 o 24.147 28.880 180.00 0.59660 0.01
38 12 8 o 21.030 25.153 180.00 0.59660 0.01
26 24 20 o 22.058 26.382 0.00 0.59660 0.01
34 22 4 o 14.220 16.023 180.00 0.59588 0.01
34 20 10 o 32.069 36.135 0.00 0.59588 0.01
38 14 4 o 122.645 138.195 0.00 0.59588 0.05
28 26 14 o 165.916 186.953 180.00 0.59588 0.07
36 18 6 o 73.545 82.870 180.00 0.59588 0.03
37 13 11 o 2.560 2.826 180.00 0.59534 0.00
29 23 17 o 58.275 64.345 0.00 0.59534 0.02
37 17 1 o 22.593 24.946 0.00 0.59534 0.01
31 23 13 o 152.129 167.975 0.00 0.59534 0.06
40 8 0 o 23.515 25.139 180.00 0.59445 0.00
32 24 8 o 134.540 143.831 180.00 0.59445 0.05
33 17 17 o 801.099 835.916 0.00 0.59391 0.16
35 21 1 o 1.279 1.334 0.00 0.59391 0.00
39 11 5 o 742.460 774.728 180.00 0.59391 0.30
31 25 9 o 7.696 8.031 180.00 0.59391 0.00
35 19 9 o 16.329 17.038 0.00 0.59391 0.01
37 17 3 o 51.002 53.219 180.00 0.59391 0.02
33 23 7 o 108.872 113.604 0.00 0.59391 0.04
40 8 2 o 12.123 12.551 180.00 0.59374 0.00
28 22 20 o 20.416 21.137 180.00 0.59374 0.01
34 16 16 o 155.232 160.718 0.00 0.59374 0.03
28 28 10 o 2.577 2.668 0.00 0.59374 0.00
30 24 14 o 22.634 22.838 0.00 0.59303 0.01
32 18 18 o 34.299 34.608 0.00 0.59303 0.01
40 6 6 o 1419.361 1432.153 0.00 0.59303 0.28
33 19 15 o 29.694 29.479 180.00 0.59249 0.01
35 21 3 o 82.918 82.316 0.00 0.59249 0.03
37 15 9 o 0.576 0.571 180.00 0.59249 0.00
35 15 15 o 35.992 35.731 180.00 0.59249 0.01
38 14 6 o 20.480 20.197 180.00 0.59232 0.01
26 26 18 o 317.186 312.800 180.00 0.59232 0.06
34 18 14 o 4.644 4.579 180.00 0.59232 0.00
30 26 10 o 4.410 4.349 0.00 0.59232 0.00
34 22 6 o 669.487 660.230 0.00 0.59232 0.26
32 20 16 o 314.138 299.382 180.00 0.59161 0.12
40 8 4 o 298.959 284.916 180.00 0.59161 0.12
37 17 5 o 18.709 17.505 0.00 0.59108 0.01
39 9 9 o 269.406 252.066 0.00 0.59108 0.05
35 17 13 o 115.050 107.645 0.00 0.59108 0.04
41 1 1 o 66.681 62.389 0.00 0.59108 0.01
31 19 19 o 65.378 61.170 180.00 0.59108 0.01
27 27 15 o 0.005 0.004 180.00 0.59108 0.00
25 23 23 o 7.322 6.850 180.00 0.59108 0.00
29 29 1 o 45.038 42.139 180.00 0.59108 0.01
28 24 18 o 9.956 9.292 0.00 0.59091 0.00
36 18 8 o 276.210 257.787 0.00 0.59091 0.11
38 12 10 o 1.551 1.437 0.00 0.59021 0.00
30 28 2 o 0.550 0.509 0.00 0.59021 0.00
36 14 14 o 20.816 19.280 180.00 0.59021 0.00
25 25 21 o 9.969 8.993 180.00 0.58968 0.00
29 27 11 o 469.922 423.907 0.00 0.58968 0.18
35 21 5 o 20.206 18.228 180.00 0.58968 0.01
29 29 3 o 61.020 55.045 180.00 0.58968 0.01
39 13 1 o 54.100 48.803 180.00 0.58968 0.02
31 21 17 o 18.335 16.540 180.00 0.58968 0.01
29 25 15 o 48.798 44.020 180.00 0.58968 0.02
31 27 1 o 30.853 27.832 0.00 0.58968 0.01
41 3 1 o 1.302 1.175 0.00 0.58968 0.00
39 11 7 o 202.238 182.435 180.00 0.58968 0.08
36 20 0 o 508.416 438.207 0.00 0.58881 0.10
36 16 12 o 9.705 8.365 180.00 0.58881 0.00
33 21 13 o 21.618 19.146 180.00 0.58829 0.01
27 23 21 o 13.230 11.717 0.00 0.58829 0.01
39 13 3 o 1.832 1.623 180.00 0.58829 0.00
31 27 3 o 10.489 9.290 0.00 0.58829 0.00
33 23 9 o 38.322 33.940 0.00 0.58829 0.01
41 3 3 o 109.947 97.375 0.00 0.58829 0.02
30 20 20 o 11.995 10.855 180.00 0.58812 0.00
40 8 6 o 0.021 0.019 180.00 0.58812 0.00
36 20 2 o 22.209 20.098 180.00 0.58812 0.01
34 20 12 o 18.368 16.622 180.00 0.58812 0.01
30 28 4 o 35.253 31.903 180.00 0.58812 0.01
32 24 10 o 5.947 5.382 180.00 0.58812 0.00
34 22 8 o 15.147 15.535 180.00 0.58743 0.01
38 14 8 o 176.925 181.460 180.00 0.58743 0.07
38 16 2 o 16.743 17.173 0.00 0.58743 0.01
32 26 2 o 4.753 4.875 0.00 0.58743 0.00
32 22 14 o 135.241 138.708 0.00 0.58743 0.05
40 10 2 o 35.425 36.333 180.00 0.58743 0.01
37 13 13 o 109.834 123.134 180.00 0.58691 0.02
37 17 7 o 66.443 74.488 0.00 0.58691 0.03
31 25 11 o 133.089 149.205 180.00 0.58691 0.05
41 5 1 o 24.667 27.654 180.00 0.58691 0.01
29 29 5 o 362.870 406.811 180.00 0.58691 0.07
35 19 11 o 31.482 35.294 180.00 0.58691 0.01
30 22 18 o 0.364 0.417 0.00 0.58674 0.00
36 20 4 o 63.806 78.050 180.00 0.58606 0.02
28 28 12 o 825.424 1009.689 0.00 0.58606 0.16
33 25 1 o 16.992 21.445 0.00 0.58554 0.01
31 23 15 o 2.257 2.848 0.00 0.58554 0.00
27 25 19 o 0.752 0.950 180.00 0.58554 0.00
37 15 11 o 84.341 106.443 180.00 0.58554 0.03
41 5 3 o 119.475 150.783 0.00 0.58554 0.04
35 21 7 o 46.165 58.262 180.00 0.58554 0.02
39 13 5 o 2.366 2.986 0.00 0.58554 0.00
31 27 5 o 47.121 59.469 0.00 0.58554 0.02
38 16 4 o 1.091 1.383 0.00 0.58537 0.00
28 26 16 o 1.580 2.003 0.00 0.58537 0.00
40 10 4 o 0.020 0.026 180.00 0.58537 0.00
32 26 4 o 20.399 25.858 0.00 0.58537 0.01
36 18 10 o 9.184 11.496 0.00 0.58469 0.00
30 26 12 o 0.050 0.062 180.00 0.58469 0.00
30 28 6 o 108.529 135.852 180.00 0.58469 0.04
29 21 21 o 14.312 17.836 0.00 0.58418 0.00
33 25 3 o 9.284 11.570 0.00 0.58418 0.00
39 11 9 o 5.239 6.529 0.00 0.58418 0.00
24 24 24 o 3.397 4.250 0.00 0.58334 0.00
40 8 8 o 294.102 367.899 0.00 0.58334 0.05
37 19 1 o 27.959 33.598 0.00 0.58283 0.01
29 29 7 o 16.362 19.662 180.00 0.58283 0.00
41 5 5 o 6.122 7.357 180.00 0.58283 0.00
41 7 1 o 26.047 31.300 180.00 0.58283 0.01
29 23 19 o 0.772 0.927 0.00 0.58283 0.00
36 20 6 o 90.745 107.305 180.00 0.58266 0.03
38 12 12 o 23.513 27.804 0.00 0.58266 0.00
30 24 16 o 79.259 93.722 0.00 0.58266 0.03
34 24 2 o 8.988 10.386 0.00 0.58199 0.00
40 10 6 o 119.427 138.008 180.00 0.58199 0.04
38 16 6 o 202.011 233.440 0.00 0.58199 0.07
32 26 6 o 48.410 55.942 0.00 0.58199 0.02
26 24 22 o 102.632 118.600 180.00 0.58199 0.04
34 18 16 o 116.965 135.163 0.00 0.58199 0.04
41 7 3 o 1.623 1.978 180.00 0.58149 0.00
35 17 15 o 5.276 6.431 0.00 0.58149 0.00
39 13 7 o 5.964 7.269 180.00 0.58149 0.00
37 17 9 o 121.060 147.567 0.00 0.58149 0.04
33 19 17 o 17.898 21.817 0.00 0.58149 0.01
29 27 13 o 6.724 8.196 180.00 0.58149 0.00
33 25 5 o 34.220 41.713 180.00 0.58149 0.01
31 27 7 o 5.244 6.392 0.00 0.58149 0.00
33 23 11 o 887.124 1081.371 180.00 0.58149 0.32
37 19 3 o 17.596 21.449 180.00 0.58149 0.01
34 22 10 o 0.223 0.279 180.00 0.58132 0.00
38 14 10 o 96.849 121.623 180.00 0.58132 0.04
32 24 12 o 6.634 9.485 180.00 0.58066 0.00
40 12 0 o 83.483 119.367 180.00 0.58066 0.02
27 27 17 o 171.776 252.493 180.00 0.58016 0.03
39 15 1 o 0.002 0.003 180.00 0.58016 0.00
35 21 9 o 10.374 15.248 180.00 0.58016 0.00
34 24 4 o 0.020 0.028 0.00 0.57999 0.00
36 16 14 o 42.864 61.960 0.00 0.57999 0.02
40 12 2 o 8.940 12.922 180.00 0.57999 0.00
32 20 18 o 4.597 6.644 0.00 0.57999 0.00
30 28 8 o 0.955 1.380 0.00 0.57999 0.00
34 20 14 o 62.881 76.826 0.00 0.57933 0.02
28 22 22 o 332.499 406.238 0.00 0.57933 0.06
26 26 20 o 11.459 14.001 0.00 0.57933 0.00
39 15 3 o 171.610 183.126 0.00 0.57883 0.06
35 23 1 o 1.575 1.681 180.00 0.57883 0.00
33 21 15 o 3.378 3.605 0.00 0.57883 0.00
35 19 13 o 27.382 29.219 0.00 0.57883 0.01
41 7 5 o 3.182 3.396 180.00 0.57883 0.00
31 25 13 o 87.223 93.076 0.00 0.57883 0.03
37 19 5 o 310.600 331.442 180.00 0.57883 0.11
29 25 17 o 52.586 56.114 0.00 0.57883 0.02
28 24 20 o 63.497 66.168 0.00 0.57801 0.02
40 12 4 o 46.298 48.245 180.00 0.57801 0.02
36 20 8 o 32.737 34.114 180.00 0.57801 0.01
39 11 11 o 56.077 66.504 0.00 0.57752 0.01
31 21 19 o 2.143 2.541 180.00 0.57752 0.00
29 29 9 o 21.132 25.061 180.00 0.57752 0.00
35 23 3 o 37.769 44.792 0.00 0.57752 0.01
41 9 1 o 84.283 99.954 0.00 0.57752 0.03
37 15 13 o 12.079 14.326 0.00 0.57752 0.00
33 25 7 o 1.772 2.101 0.00 0.57752 0.00
36 18 12 o 2.105 2.637 180.00 0.57735 0.00
32 22 16 o 0.107 0.134 180.00 0.57735 0.00
28 28 14 o 0.001 0.002 0.00 0.57735 0.00
32 26 8 o 6.631 8.307 0.00 0.57735 0.00
40 10 8 o 0.617 0.774 180.00 0.57735 0.00
38 16 8 o 14.987 18.776 0.00 0.57735 0.01
42 2 0 o 99.836 146.040 0.00 0.57670 0.02
34 24 6 o 32.314 47.269 0.00 0.57670 0.01
38 18 0 o 63.101 92.304 180.00 0.57670 0.01
39 13 9 o 101.268 146.516 180.00 0.57621 0.04
41 9 3 o 1.244 1.800 180.00 0.57621 0.00
39 15 5 o 44.609 64.541 0.00 0.57621 0.02
31 27 9 o 2.180 3.155 180.00 0.57621 0.00
38 18 2 o 0.093 0.132 180.00 0.57605 0.00
30 26 14 o 11.961 17.024 180.00 0.57605 0.00
42 2 2 o 49.750 70.807 180.00 0.57605 0.01
41 7 7 o 24.248 33.445 180.00 0.57491 0.00
37 19 7 o 46.857 64.631 0.00 0.57491 0.02
37 17 11 o 14.911 20.567 180.00 0.57491 0.01
31 23 17 o 0.051 0.070 0.00 0.57491 0.00
25 25 23 o 70.858 97.735 180.00 0.57491 0.01
35 23 5 o 164.650 227.104 0.00 0.57491 0.06
40 12 6 o 14.511 20.139 0.00 0.57475 0.01
30 22 20 o 11.038 15.431 0.00 0.57411 0.00
30 28 10 o 10.027 14.018 0.00 0.57411 0.00
42 4 2 o 32.537 45.489 0.00 0.57411 0.01
34 22 12 o 814.071 1138.123 180.00 0.57411 0.28
36 22 2 o 178.255 249.212 0.00 0.57411 0.06
38 18 4 o 13.039 18.229 0.00 0.57411 0.00
38 14 12 o 0.599 0.838 180.00 0.57411 0.00
28 26 18 o 35.597 49.767 180.00 0.57411 0.01
33 23 13 o 3.195 4.354 180.00 0.57363 0.00
41 9 5 o 66.214 90.236 0.00 0.57363 0.02
27 23 23 o 94.518 128.809 0.00 0.57363 0.02
35 21 11 o 1.532 2.087 180.00 0.57363 0.00
29 27 15 o 2.570 2.734 180.00 0.57235 0.00
39 15 7 o 0.186 0.198 0.00 0.57235 0.00
33 25 9 o 318.054 338.309 0.00 0.57235 0.11
27 25 21 o 0.001 0.001 0.00 0.57235 0.00
34 24 8 o 17.432 17.837 0.00 0.57219 0.01
42 4 4 o 0.624 0.638 180.00 0.57219 0.00
36 22 4 o 3.000 3.070 180.00 0.57219 0.00
32 24 14 o 0.415 0.425 180.00 0.57219 0.00
36 20 10 o 9.163 9.376 180.00 0.57219 0.00
32 26 10 o 25.900 23.208 0.00 0.57155 0.01
42 6 0 o 24.622 22.063 180.00 0.57155 0.00
38 16 10 o 26.270 23.540 0.00 0.57155 0.01
30 30 0 o 533.662 478.202 0.00 0.57155 0.05
30 24 18 o 8.224 7.369 180.00 0.57155 0.00
40 14 2 o 165.230 148.059 0.00 0.57155 0.06
40 10 10 o 30.617 27.435 180.00 0.57155 0.01
35 17 17 o 0.956 0.790 180.00 0.57108 0.00
31 29 1 o 32.903 27.204 0.00 0.57108 0.01
29 29 11 o 328.389 271.508 0.00 0.57108 0.06
35 23 7 o 8.400 6.945 180.00 0.57108 0.00
41 11 1 o 29.320 24.242 0.00 0.57108 0.01
38 18 6 o 49.167 39.683 180.00 0.57092 0.02
30 30 2 o 36.042 29.090 180.00 0.57092 0.01
42 6 2 o 316.982 255.841 0.00 0.57092 0.11
34 18 18 o 87.502 70.624 180.00 0.57092 0.01
36 16 16 o 214.222 161.136 180.00 0.57029 0.04
40 12 8 o 7.077 5.323 0.00 0.57029 0.00
32 28 0 o 206.425 155.271 180.00 0.57029 0.03
33 19 19 o 762.968 569.045 180.00 0.56981 0.13
37 21 1 o 19.012 14.180 180.00 0.56981 0.01
37 19 9 o 7.917 5.905 0.00 0.56981 0.00
41 11 3 o 116.163 86.638 180.00 0.56981 0.04
41 9 7 o 4.411 3.290 0.00 0.56981 0.00
29 23 21 o 10.461 7.802 0.00 0.56981 0.00
35 19 15 o 18.961 14.142 180.00 0.56981 0.01
39 17 1 o 54.022 40.291 180.00 0.56981 0.02
31 29 3 o 1.678 1.251 0.00 0.56981 0.00
39 13 11 o 16.655 12.422 0.00 0.56981 0.01
31 27 11 o 19.716 14.705 180.00 0.56981 0.01
31 25 15 o 31.837 23.745 0.00 0.56981 0.01
32 28 2 o 6.199 4.659 0.00 0.56966 0.00
40 14 4 o 66.136 49.698 0.00 0.56966 0.02
34 20 16 o 1.378 1.036 0.00 0.56966 0.00
42 6 4 o 246.957 200.706 180.00 0.56903 0.08
30 30 4 o 376.503 305.991 0.00 0.56903 0.06
36 22 6 o 1.491 1.211 180.00 0.56903 0.00
36 18 14 o 88.758 72.135 180.00 0.56903 0.03
33 27 1 o 265.811 239.002 180.00 0.56856 0.09
27 27 19 o 16.594 14.921 180.00 0.56856 0.00
37 21 3 o 12.639 11.364 0.00 0.56856 0.00
37 15 15 o 101.486 91.251 180.00 0.56856 0.02
39 17 3 o 4.211 3.787 0.00 0.56856 0.00
33 21 17 o 66.270 59.586 0.00 0.56856 0.02
32 20 20 o 127.456 144.204 180.00 0.56778 0.02
32 28 4 o 32.969 37.302 180.00 0.56778 0.01
28 28 16 o 206.957 234.151 180.00 0.56778 0.03
37 17 13 o 0.828 1.060 0.00 0.56731 0.00
29 25 19 o 0.755 0.966 0.00 0.56731 0.00
31 29 5 o 56.598 72.473 0.00 0.56731 0.02
33 27 3 o 11.606 14.862 0.00 0.56731 0.00
41 11 5 o 2.405 3.079 180.00 0.56731 0.00
39 15 9 o 4.318 5.530 0.00 0.56731 0.00
30 28 12 o 5.839 7.652 180.00 0.56716 0.00
26 24 24 o 29.399 38.528 0.00 0.56716 0.00
32 22 18 o 0.011 0.013 0.00 0.56654 0.00
38 18 8 o 29.318 37.059 0.00 0.56654 0.01
34 24 10 o 85.190 107.683 180.00 0.56654 0.03
30 26 16 o 0.076 0.096 180.00 0.56654 0.00
42 8 2 o 67.318 85.092 0.00 0.56654 0.02
40 14 6 o 4.573 5.780 180.00 0.56654 0.00
34 26 0 o 34.831 44.028 180.00 0.56654 0.01
35 21 13 o 0.000 0.000 180.00 0.56607 0.00
37 21 5 o 4.609 5.172 180.00 0.56607 0.00
35 23 9 o 1.740 1.953 180.00 0.56607 0.00
33 25 11 o 1.328 1.490 0.00 0.56607 0.00
39 17 5 o 58.033 65.122 0.00 0.56607 0.02
30 30 6 o 85.226 91.457 0.00 0.56592 0.01
38 14 14 o 8.768 9.409 180.00 0.56592 0.00
34 22 14 o 0.332 0.357 0.00 0.56592 0.00
26 26 22 o 6.563 7.043 180.00 0.56592 0.00
42 6 6 o 0.003 0.003 180.00 0.56592 0.00
34 26 2 o 25.829 27.718 180.00 0.56592 0.01
36 20 12 o 648.109 588.395 0.00 0.56530 0.21
33 27 5 o 378.486 311.886 180.00 0.56484 0.12
41 9 9 o 19.745 16.271 180.00 0.56484 0.00
33 23 15 o 3.344 2.756 0.00 0.56484 0.00
31 21 21 o 38.477 31.706 0.00 0.56484 0.01
38 16 12 o 61.454 49.399 180.00 0.56469 0.02
28 24 22 o 10.031 8.064 0.00 0.56469 0.00
32 28 6 o 66.780 53.680 180.00 0.56469 0.02
42 8 4 o 31.590 25.393 180.00 0.56469 0.01
40 12 10 o 31.267 25.134 0.00 0.56469 0.01
36 22 8 o 85.208 68.493 0.00 0.56469 0.03
32 26 12 o 14.456 11.620 0.00 0.56469 0.00
38 20 2 o 0.001 0.001 0.00 0.56408 0.00
34 26 4 o 89.734 68.457 180.00 0.56408 0.03
31 23 19 o 16.267 12.538 0.00 0.56362 0.01
37 19 11 o 220.757 170.142 0.00 0.56362 0.07
43 1 1 o 14.679 11.314 180.00 0.56362 0.00
29 29 13 o 34.025 26.224 0.00 0.56362 0.01
31 29 7 o 29.336 22.610 180.00 0.56362 0.01
41 13 1 o 18.941 14.598 0.00 0.56362 0.01
41 11 7 o 59.337 45.732 0.00 0.56362 0.02
35 25 1 o 8.155 6.285 0.00 0.56362 0.00
32 24 16 o 72.879 58.856 0.00 0.56286 0.02
40 16 0 o 214.249 173.026 180.00 0.56286 0.03
35 25 3 o 32.082 25.743 180.00 0.56241 0.01
39 13 13 o 0.145 0.116 180.00 0.56241 0.00
39 17 7 o 189.355 151.941 180.00 0.56241 0.06
43 3 1 o 46.471 37.289 180.00 0.56241 0.01
31 27 13 o 4.715 3.783 0.00 0.56241 0.00
41 13 3 o 191.866 153.955 0.00 0.56241 0.06
37 21 7 o 25.516 20.474 0.00 0.56241 0.01
29 27 17 o 62.732 50.337 180.00 0.56241 0.02
38 20 4 o 0.252 0.200 180.00 0.56226 0.00
40 14 8 o 39.125 31.050 180.00 0.56226 0.01
40 16 2 o 1.882 1.494 180.00 0.56226 0.00
28 26 20 o 25.778 20.458 180.00 0.56226 0.01
30 30 8 o 83.269 61.255 180.00 0.56165 0.01
42 10 0 o 380.786 280.118 0.00 0.56165 0.06
42 8 6 o 53.452 39.321 0.00 0.56165 0.02
43 3 3 o 24.919 17.120 180.00 0.56120 0.00
33 27 7 o 0.848 0.583 0.00 0.56120 0.00
39 15 11 o 0.051 0.035 180.00 0.56120 0.00
42 10 2 o 7.038 4.733 0.00 0.56105 0.00
38 18 10 o 97.257 65.412 0.00 0.56105 0.03
30 22 22 o 78.510 52.804 180.00 0.56105 0.01
34 26 6 o 13.978 9.401 0.00 0.56105 0.00
