#------------------------------------------------------------------------------
#$Date: 2016-02-12 10:25:14 +0200 (Fri, 12 Feb 2016) $
#$Revision: 176403 $
#$URL: svn://www.crystallography.net/cod/cif/7/22/42/7224241.cif $
#------------------------------------------------------------------------------
#
# This file is available in the Crystallography Open Database (COD),
# http://www.crystallography.net/
#
# All data on this site have been placed in the public domain by the
# contributors.
#
data_7224241
loop_
_publ_author_name
'Attfield, Martin'
'Feygenson, Mikhail'
'Neuefeind, Joerg C.'
'Proffen, Thomas E.'
'Hriljac, J. A.'
'Lucas, Timothy C.'
_publ_section_title
;
 Reprobing the mechanism of negative thermal expansion in siliceous
 faujasite
;
_journal_name_full               'RSC Adv.'
_journal_paper_doi               10.1039/C5RA23827G
_journal_year                    2016
_chemical_formula_sum            'O2 Si'
_chemical_formula_weight         60.08
_chemical_name_systematic        ' ?'
_space_group_IT_number           227
_symmetry_cell_setting           cubic
_symmetry_space_group_name_Hall  '-F 4vw 2vw 3'
_symmetry_space_group_name_H-M   'F d -3 m :2'
_audit_creation_date             2015-07-02T12:47
_audit_creation_method           'from EXP file using GSAS2CIF'
_audit_update_record
' 2015-07-02T12:47  Initial CIF as created by GSAS2CIF'
_cell_angle_alpha                90.0
_cell_angle_beta                 90.0
_cell_angle_gamma                90.0
_cell_formula_units_Z            192
_cell_length_a                   24.2704(9)
_cell_length_b                   24.2704
_cell_length_c                   24.2704
_cell_volume                     14296.5(5)
_computing_structure_refinement  GSAS
_diffrn_radiation_probe          neutron
_exptl_absorpt_correction_T_max  1.00000
_exptl_absorpt_correction_T_min  1.00000
_exptl_absorpt_process_details
;   GSAS Absorption/surface roughness correction: function number 0
 No correction is applied.
;
_pd_block_id
2015-07-02T12:47|ZDDAYC35A7200KBANK5|zdday|nomad
_pd_calc_method                  'Rietveld Refinement'
_pd_instr_location               ' ?'
_pd_meas_2theta_fixed            154.000
_pd_meas_number_of_points        3000
_pd_phase_name                   zdday
_pd_proc_info_datetime           2015-07-02T12:47:50
_pd_proc_info_excluded_regions   ' ?'
_pd_proc_ls_background_function
;   GSAS Background function number 1 with 12 terms.
 Shifted Chebyshev function of 1st kind
      1:   8.430820E-02 2:   4.487630E-03 3:  -8.566830E-04 4:  -2.085300E-04
      5:  -2.269090E-03 6:   5.036520E-03 7:  -2.170820E-03 8:  -8.890100E-03
      9:  -5.732080E-0310:   1.657800E-0311:  -8.331330E-0412:  -4.930250E-04
;
_pd_proc_ls_peak_cutoff          0.00200
_pd_proc_ls_profile_function
;
 TOF Profile function number-3 with  21 terms
 Profile coefficients for exponential pseudovoigt
  convolution Von Dreele, 1990 (unpublished)
 Peak tails are ignored  where the intensity is below 0.0020 times the peak
   Aniso. broadening axis   0.0   0.0   1.0
;
_pd_proc_ls_prof_R_factor        0.0307
_pd_proc_ls_prof_wR_expected     0.0204
_pd_proc_ls_prof_wR_factor       0.0371
_pd_proc_number_of_points        3000
_pd_spec_mounting                ' ?'
_refine_ls_goodness_of_fit_all   1.85
_refine_ls_matrix_type           full
_refine_ls_number_parameters     32
_refine_ls_number_restraints     0
_refine_ls_R_Fsqd_factor         0.06904
_refine_ls_shift/su_max          0.06
_refine_ls_shift/su_mean         0.01
_reflns_d_resolution_high        0.560
_reflns_d_resolution_low         1.557
_reflns_limit_h_max              43
_reflns_limit_h_min              1
_reflns_limit_k_max              30
_reflns_limit_k_min              0
_reflns_limit_l_max              25
_reflns_limit_l_min              0
_reflns_number_total             1940
_cod_data_source_file            c5ra23827g3.cif
_cod_data_source_block           ZDDAYC35A7200KBANK5_publ
_cod_depositor_comments
;
The following automatic conversions were performed:

'_geom_bond_publ_flag' value 'N' changed to 'n' according to
/usr/data/users/saulius/crontab/automatic-downloads/rss-feeds/RSC/lib/dictionaries/cif_core.dic
dictionary named 'cif_core.dic' version 2.4.2 from 2011-04-26 (40
times).

'_geom_angle_publ_flag' value 'N' changed to 'n' according to
/usr/data/users/saulius/crontab/automatic-downloads/rss-feeds/RSC/lib/dictionaries/cif_core.dic
dictionary named 'cif_core.dic' version 2.4.2 from 2011-04-26 (10
times).

Automatic conversion script
Id: cif_fix_values 4268 2015-11-12 08:31:59Z antanas 
;
_cod_original_cell_volume        14296.5(16)
_cod_original_sg_symbol_H-M      'F d -3 m'
_cod_database_code               7224241
_gsas_exptl_extinct_corr_t_min   1.00000
_gsas_exptl_extinct_corr_t_max   1.00000
loop_
_symmetry_equiv_pos_site_id
_symmetry_equiv_pos_as_xyz
1 +x,+y,+z
2 +z,+x,+y
3 +y,+z,+x
4 +x+1/4,+y+1/4,-z
5 -z,+x+1/4,+y+1/4
6 +y+1/4,-z,+x+1/4
7 -z+1/4,+x+1/2,-y+3/4
8 -y+3/4,-z+1/4,+x+1/2
9 +y+1/2,-z+1/4,-x+3/4
10 -x+3/4,+y+1/2,-z+1/4
11 -z+1/4,-x+3/4,+y+1/2
12 +x+1/2,-y+3/4,-z+1/4
13 +y,+x,+z
14 +z,+y,+x
15 +x,+z,+y
16 +y+1/4,+x+1/4,-z
17 -z,+y+1/4,+x+1/4
18 +x+1/4,-z,+y+1/4
19 -z+1/4,+y+1/2,-x+3/4
20 -x+3/4,-z+1/4,+y+1/2
21 +x+1/2,-z+1/4,-y+3/4
22 -y+3/4,+x+1/2,-z+1/4
23 -z+1/4,-y+3/4,+x+1/2
24 +y+1/2,-x+3/4,-z+1/4
-1 -x,-y,-z
-2 -z,-x,-y
-3 -y,-z,-x
-4 -x+3/4,-y+3/4,+z
-5 +z,-x+3/4,-y+3/4
-6 -y+3/4,+z,-x+3/4
-7 +z+3/4,-x+1/2,+y+1/4
-8 +y+1/4,+z+3/4,-x+1/2
-9 -y+1/2,+z+3/4,+x+1/4
-10 +x+1/4,-y+1/2,+z+3/4
-11 +z+3/4,+x+1/4,-y+1/2
-12 -x+1/2,+y+1/4,+z+3/4
-13 -y,-x,-z
-14 -z,-y,-x
-15 -x,-z,-y
-16 -y+3/4,-x+3/4,+z
-17 +z,-y+3/4,-x+3/4
-18 -x+3/4,+z,-y+3/4
-19 +z+3/4,-y+1/2,+x+1/4
-20 +x+1/4,+z+3/4,-y+1/2
-21 -x+1/2,+z+3/4,+y+1/4
-22 +y+1/4,-x+1/2,+z+3/4
-23 +z+3/4,+y+1/4,-x+1/2
-24 -y+1/2,+x+1/4,+z+3/4
101 +x,+y+1/2,+z+1/2
102 +z,+x+1/2,+y+1/2
103 +y,+z+1/2,+x+1/2
104 +x+1/4,+y+3/4,-z+1/2
105 -z,+x+3/4,+y+3/4
106 +y+1/4,-z+1/2,+x+3/4
107 -z+1/4,+x,-y+1/4
108 -y+3/4,-z+3/4,+x
109 +y+1/2,-z+3/4,-x+1/4
110 -x+3/4,+y,-z+3/4
111 -z+1/4,-x+1/4,+y
112 +x+1/2,-y+1/4,-z+3/4
113 +y,+x+1/2,+z+1/2
114 +z,+y+1/2,+x+1/2
115 +x,+z+1/2,+y+1/2
116 +y+1/4,+x+3/4,-z+1/2
117 -z,+y+3/4,+x+3/4
118 +x+1/4,-z+1/2,+y+3/4
119 -z+1/4,+y,-x+1/4
120 -x+3/4,-z+3/4,+y
121 +x+1/2,-z+3/4,-y+1/4
122 -y+3/4,+x,-z+3/4
123 -z+1/4,-y+1/4,+x
124 +y+1/2,-x+1/4,-z+3/4
-101 -x,-y+1/2,-z+1/2
-102 -z,-x+1/2,-y+1/2
-103 -y,-z+1/2,-x+1/2
-104 -x+3/4,-y+1/4,+z+1/2
-105 +z,-x+1/4,-y+1/4
-106 -y+3/4,+z+1/2,-x+1/4
-107 +z+3/4,-x,+y+3/4
-108 +y+1/4,+z+1/4,-x
-109 -y+1/2,+z+1/4,+x+3/4
-110 +x+1/4,-y,+z+1/4
-111 +z+3/4,+x+3/4,-y
-112 -x+1/2,+y+3/4,+z+1/4
-113 -y,-x+1/2,-z+1/2
-114 -z,-y+1/2,-x+1/2
-115 -x,-z+1/2,-y+1/2
-116 -y+3/4,-x+1/4,+z+1/2
-117 +z,-y+1/4,-x+1/4
-118 -x+3/4,+z+1/2,-y+1/4
-119 +z+3/4,-y,+x+3/4
-120 +x+1/4,+z+1/4,-y
-121 -x+1/2,+z+1/4,+y+3/4
-122 +y+1/4,-x,+z+1/4
-123 +z+3/4,+y+3/4,-x
-124 -y+1/2,+x+3/4,+z+1/4
201 +x+1/2,+y,+z+1/2
202 +z+1/2,+x,+y+1/2
203 +y+1/2,+z,+x+1/2
204 +x+3/4,+y+1/4,-z+1/2
205 -z+1/2,+x+1/4,+y+3/4
206 +y+3/4,-z,+x+3/4
207 -z+3/4,+x+1/2,-y+1/4
208 -y+1/4,-z+1/4,+x
209 +y,-z+1/4,-x+1/4
210 -x+1/4,+y+1/2,-z+3/4
211 -z+3/4,-x+3/4,+y
212 +x,-y+3/4,-z+3/4
213 +y+1/2,+x,+z+1/2
214 +z+1/2,+y,+x+1/2
215 +x+1/2,+z,+y+1/2
216 +y+3/4,+x+1/4,-z+1/2
217 -z+1/2,+y+1/4,+x+3/4
218 +x+3/4,-z,+y+3/4
219 -z+3/4,+y+1/2,-x+1/4
220 -x+1/4,-z+1/4,+y
221 +x,-z+1/4,-y+1/4
222 -y+1/4,+x+1/2,-z+3/4
223 -z+3/4,-y+3/4,+x
224 +y,-x+3/4,-z+3/4
-201 -x+1/2,-y,-z+1/2
-202 -z+1/2,-x,-y+1/2
-203 -y+1/2,-z,-x+1/2
-204 -x+1/4,-y+3/4,+z+1/2
-205 +z+1/2,-x+3/4,-y+1/4
-206 -y+1/4,+z,-x+1/4
-207 +z+1/4,-x+1/2,+y+3/4
-208 +y+3/4,+z+3/4,-x
-209 -y,+z+3/4,+x+3/4
-210 +x+3/4,-y+1/2,+z+1/4
-211 +z+1/4,+x+1/4,-y
-212 -x,+y+1/4,+z+1/4
-213 -y+1/2,-x,-z+1/2
-214 -z+1/2,-y,-x+1/2
-215 -x+1/2,-z,-y+1/2
-216 -y+1/4,-x+3/4,+z+1/2
-217 +z+1/2,-y+3/4,-x+1/4
-218 -x+1/4,+z,-y+1/4
-219 +z+1/4,-y+1/2,+x+3/4
-220 +x+3/4,+z+3/4,-y
-221 -x,+z+3/4,+y+3/4
-222 +y+3/4,-x+1/2,+z+1/4
-223 +z+1/4,+y+1/4,-x
-224 -y,+x+1/4,+z+1/4
301 +x+1/2,+y+1/2,+z
302 +z+1/2,+x+1/2,+y
303 +y+1/2,+z+1/2,+x
304 +x+3/4,+y+3/4,-z
305 -z+1/2,+x+3/4,+y+1/4
306 +y+3/4,-z+1/2,+x+1/4
307 -z+3/4,+x,-y+3/4
308 -y+1/4,-z+3/4,+x+1/2
309 +y,-z+3/4,-x+3/4
310 -x+1/4,+y,-z+1/4
311 -z+3/4,-x+1/4,+y+1/2
312 +x,-y+1/4,-z+1/4
313 +y+1/2,+x+1/2,+z
314 +z+1/2,+y+1/2,+x
315 +x+1/2,+z+1/2,+y
316 +y+3/4,+x+3/4,-z
317 -z+1/2,+y+3/4,+x+1/4
318 +x+3/4,-z+1/2,+y+1/4
319 -z+3/4,+y,-x+3/4
320 -x+1/4,-z+3/4,+y+1/2
321 +x,-z+3/4,-y+3/4
322 -y+1/4,+x,-z+1/4
323 -z+3/4,-y+1/4,+x+1/2
324 +y,-x+1/4,-z+1/4
-301 -x+1/2,-y+1/2,-z
-302 -z+1/2,-x+1/2,-y
-303 -y+1/2,-z+1/2,-x
-304 -x+1/4,-y+1/4,+z
-305 +z+1/2,-x+1/4,-y+3/4
-306 -y+1/4,+z+1/2,-x+3/4
-307 +z+1/4,-x,+y+1/4
-308 +y+3/4,+z+1/4,-x+1/2
-309 -y,+z+1/4,+x+1/4
-310 +x+3/4,-y,+z+3/4
-311 +z+1/4,+x+3/4,-y+1/2
-312 -x,+y+3/4,+z+3/4
-313 -y+1/2,-x+1/2,-z
-314 -z+1/2,-y+1/2,-x
-315 -x+1/2,-z+1/2,-y
-316 -y+1/4,-x+1/4,+z
-317 +z+1/2,-y+1/4,-x+3/4
-318 -x+1/4,+z+1/2,-y+3/4
-319 +z+1/4,-y,+x+1/4
-320 +x+3/4,+z+1/4,-y+1/2
-321 -x,+z+1/4,+y+1/4
-322 +y+3/4,-x,+z+3/4
-323 +z+1/4,+y+3/4,-x+1/2
-324 -y,+x+3/4,+z+3/4
loop_
_atom_site_type_symbol
_atom_site_label
_atom_site_fract_x
_atom_site_fract_y
_atom_site_fract_z
_atom_site_occupancy
_atom_site_thermal_displace_type
_atom_site_U_iso_or_equiv
_atom_site_symmetry_multiplicity
Si Si1 0.94632(12) 0.12602(12) 0.03576(17) 1.0 Uiso 0.0063(4) 192
O O1 0.0 -0.10618(11) 0.10618(11) 1.0 Uiso 0.0104(10) 96
O O2 -0.00349(10) -0.00349(10) 0.14110(16) 1.0 Uiso 0.0117(9) 96
O O3 0.07598(11) 0.07598(11) -0.03594(15) 1.0 Uiso 0.0133(8) 96
O O4 0.07072(12) 0.07072(12) 0.32067(16) 1.0 Uiso 0.0111(8) 96
loop_
_atom_type_symbol
_atom_type_number_in_cell
_atom_type_scat_length_neutron
_atom_type_scat_source
Si 192.0 0.4149 International_Tables_Vol_C
O 384.0 0.5803 International_Tables_Vol_C
loop_
_geom_angle_atom_site_label_1
_geom_angle_atom_site_label_2
_geom_angle_atom_site_label_3
_geom_angle
_geom_angle_site_symmetry_1
_geom_angle_site_symmetry_3
_geom_angle_publ_flag
O1 Si1 O2 110.56(26) 3_655 3_655 n
O1 Si1 O3 108.11(26) 3_655 2_655 n
O1 Si1 O4 108.80(28) 3_655 111_533 n
O2 Si1 O3 109.33(26) 3_655 2_655 n
O2 Si1 O4 109.23(29) 3_655 111_533 n
O3 Si1 O4 110.81(31) 2_655 111_533 n
Si1 O1 Si1 139.4(4) 2_545 -14_556 n
Si1 O2 Si1 149.99(34) 2_545 15_455 n
Si1 O3 Si1 146.77(34) 3_554 14_554 n
Si1 O4 Si1 142.2(4) -117_446 -206_446 n
loop_
_geom_bond_atom_site_label_1
_geom_bond_atom_site_label_2
_geom_bond_distance
_geom_bond_site_symmetry_2
_geom_bond_publ_flag
Si1 Si1 3.070(7) 14_654 n
Si1 Si1 3.098(7) 15_555 n
Si1 Si1 3.030(7) -13_665 n
Si1 Si1 3.028(7) 221_555 n
Si1 O1 1.615(4) 3_655 n
Si1 O2 1.589(4) 3_655 n
Si1 O3 1.6164(34) 2_655 n
Si1 O4 1.600(4) 111_655 n
O1 Si1 1.615(4) 2_545 n
O1 Si1 1.615(4) -14_556 n
O1 O2 2.6339(28) 1_555 n
O1 O2 2.6339(28) -3_555 n
O1 O3 2.616(5) 3_555 n
O1 O3 2.616(5) -1_555 n
O1 O4 2.6146(19) 209_555 n
O1 O4 2.6146(19) -312_434 n
O2 Si1 1.589(4) 2_545 n
O2 Si1 1.589(4) 15_455 n
O2 O1 2.6339(28) 1_555 n
O2 O1 2.6339(28) 13_555 n
O2 O3 2.6151(32) 2_555 n
O2 O3 2.6151(32) 3_555 n
O2 O4 2.600(4) 107_555 n
O2 O4 2.600(4) 209_555 n
O3 Si1 1.6164(34) 3_554 n
O3 Si1 1.6164(34) 14_554 n
O3 O1 2.616(5) 2_555 n
O3 O1 2.616(5) 15_555 n
O3 O2 2.6151(32) 2_555 n
O3 O2 2.6151(32) 3_555 n
O3 O4 2.648(4) 310_555 n
O3 O4 2.648(4) 312_555 n
O4 Si1 1.600(4) -117_545 n
O4 Si1 1.600(4) -206_455 n
O4 O1 2.6146(19) 107_555 n
O4 O1 2.6146(19) 221_555 n
O4 O2 2.600(4) 107_555 n
O4 O2 2.600(4) 209_555 n
O4 O3 2.648(4) 310_555 n
O4 O3 2.648(4) 312_555 n
loop_
_pd_meas_time_of_flight
_pd_proc_d_spacing
_pd_meas_intensity_total
_pd_proc_ls_weight
_pd_proc_intensity_bkg_calc
_pd_calc_intensity_total
1377.39 . 0.091(5) . . .
1378.53 . 0.088(5) . . .
1379.68 . 0.082(5) . . .
1380.82 . 0.080(5) . . .
1381.97 . 0.086(5) . . .
1383.12 . 0.082(5) . . .
1384.27 . 0.088(5) . . .
1385.42 . 0.090(5) . . .
1386.57 . 0.084(5) . . .
1387.72 . 0.077(5) . . .
1388.88 . 0.085(5) . . .
1390.03 . 0.082(5) . . .
1391.18 . 0.079(5) . . .
1392.34 . 0.085(5) . . .
1393.50 . 0.084(5) . . .
1394.66 . 0.080(5) . . .
1395.81 . 0.082(5) . . .
1396.97 . 0.085(5) . . .
1398.13 . 0.077(5) . . .
1399.30 . 0.086(5) . . .
1400.46 . 0.086(5) . . .
1401.62 . 0.085(5) . . .
1402.79 . 0.078(4) . . .
1403.95 . 0.083(5) . . .
1405.12 . 0.089(4) . . .
1406.29 . 0.078(5) . . .
1407.46 . 0.092(4) . . .
1408.62 . 0.078(5) . . .
1409.80 . 0.083(5) . . .
1410.97 . 0.085(5) . . .
1412.14 . 0.088(4) . . .
1413.31 . 0.082(5) . . .
1414.49 . 0.083(5) . . .
1415.66 . 0.082(5) . . .
1416.84 . 0.087(4) . . .
1418.02 . 0.084(5) . . .
1419.19 . 0.081(5) . . .
1420.37 . 0.084(5) . . .
1421.55 . 0.087(4) . . .
1422.73 . 0.073(5) . . .
1423.92 . 0.076(5) . . .
1425.10 . 0.073(5) . . .
1426.28 . 0.081(5) . . .
1427.47 . 0.084(5) . . .
1428.65 . 0.086(4) . . .
1429.84 . 0.084(4) . . .
1431.03 . 0.089(4) . . .
1432.22 . 0.090(4) . . .
1433.41 . 0.083(4) . . .
1434.60 . 0.076(5) . . .
1435.79 . 0.085(4) . . .
1436.99 . 0.086(4) . . .
1438.18 . 0.080(4) . . .
1439.37 . 0.086(4) . . .
1440.57 . 0.089(4) . . .
1441.77 . 0.079(4) . . .
1442.97 . 0.075(5) . . .
1444.16 . 0.082(4) . . .
1445.36 . 0.084(4) . . .
1446.57 . 0.081(4) . . .
1447.77 . 0.088(4) . . .
1448.97 . 0.081(4) . . .
1450.17 . 0.079(4) . . .
1451.38 . 0.082(4) . . .
1452.59 . 0.079(4) . . .
1453.79 . 0.075(4) . . .
1455.00 . 0.080(4) . . .
1456.21 . 0.088(4) . . .
1457.42 . 0.080(4) . . .
1458.63 . 0.073(4) . . .
1459.84 . 0.088(4) . . .
1461.05 . 0.083(4) . . .
1462.27 . 0.084(4) . . .
1463.48 . 0.082(4) . . .
1464.70 . 0.086(4) . . .
1465.92 . 0.087(4) . . .
1467.13 . 0.080(4) . . .
1468.35 . 0.089(4) . . .
1469.57 . 0.085(4) . . .
1470.80 . 0.081(4) . . .
1472.02 . 0.082(4) . . .
1473.24 . 0.079(4) . . .
1474.46 . 0.084(4) . . .
1475.69 . 0.087(4) . . .
1476.92 . 0.081(4) . . .
1478.14 . 0.080(4) . . .
1479.37 . 0.091(4) . . .
1480.60 . 0.087(4) . . .
1481.83 . 0.084(4) . . .
1483.06 . 0.089(4) . . .
1484.29 . 0.083(4) . . .
1485.53 . 0.084(4) . . .
1486.76 . 0.084(4) . . .
1488.00 . 0.091(4) . . .
1489.23 . 0.081(4) . . .
1490.47 . 0.080(4) . . .
1491.71 . 0.094(4) . . .
1492.95 . 0.086(4) . . .
1494.19 . 0.085(4) . . .
1495.43 . 0.078(4) . . .
1496.67 . 0.080(4) . . .
1497.92 . 0.082(4) . . .
1499.16 . 0.085(4) . . .
1500.41 . 0.083(4) . . .
1501.65 . 0.085(4) . . .
1502.90 . 0.087(4) . . .
1504.15 . 0.080(4) . . .
1505.40 . 0.080(4) . . .
1506.65 . 0.081(4) . . .
1507.90 . 0.090(4) . . .
1509.16 . 0.088(4) . . .
1510.41 . 0.085(4) . . .
1511.66 . 0.091(4) . . .
1512.92 . 0.089(4) . . .
1514.18 . 0.083(4) . . .
1515.44 . 0.081(4) . . .
1516.70 . 0.090(4) . . .
1517.96 . 0.084(4) . . .
1519.22 . 0.083(4) . . .
1520.48 . 0.080(4) . . .
1521.74 . 0.086(4) . . .
1523.01 . 0.079(4) . . .
1524.27 . 0.087(4) . . .
1525.54 . 0.085(4) . . .
1526.81 . 0.074(4) . . .
1528.08 . 0.085(4) . . .
1529.34 . 0.079(4) . . .
1530.62 . 0.088(4) . . .
1531.89 . 0.091(4) . . .
1533.16 . 0.077(4) . . .
1534.43 . 0.088(4) . . .
1535.71 . 0.076(4) . . .
1536.99 . 0.083(4) . . .
1538.26 . 0.083(4) . . .
1539.54 . 0.082(4) . . .
1540.82 . 0.089(4) . . .
1542.10 . 0.075(4) . . .
1543.38 . 0.083(4) . . .
1544.66 . 0.083(4) . . .
1545.95 . 0.082(4) . . .
1547.23 . 0.095(4) . . .
1548.52 . 0.080(4) . . .
1549.80 . 0.080(4) . . .
1551.09 . 0.086(4) . . .
1552.38 . 0.082(4) . . .
1553.67 . 0.090(4) . . .
1554.96 . 0.076(4) . . .
1556.25 . 0.075(4) . . .
1557.55 . 0.083(4) . . .
1558.84 . 0.082(4) . . .
1560.14 . 0.078(4) . . .
1561.43 . 0.085(4) . . .
1562.73 . 0.078(4) . . .
1564.03 . 0.087(4) . . .
1565.33 . 0.080(4) . . .
1566.63 . 0.090(4) . . .
1567.93 . 0.083(4) . . .
1569.23 . 0.087(4) . . .
1570.54 . 0.080(4) . . .
1571.84 . 0.087(4) . . .
1573.15 . 0.082(4) . . .
1574.45 . 0.089(4) . . .
1575.76 . 0.080(4) . . .
1577.07 . 0.082(4) . . .
1578.38 . 0.075(4) . . .
1579.69 . 0.083(4) . . .
1581.01 . 0.083(4) . . .
1582.32 . 0.078(4) . . .
1583.64 . 0.073(4) . . .
1584.95 . 0.080(4) . . .
1586.27 . 0.077(4) . . .
1587.59 . 0.086(4) . . .
1588.91 . 0.079(4) . . .
1590.23 . 0.090(4) . . .
1591.55 . 0.088(4) . . .
1592.87 . 0.083(4) . . .
1594.19 . 0.086(4) . . .
1595.52 . 0.089(4) . . .
1596.84 . 0.080(4) . . .
1598.17 . 0.074(4) . . .
1599.50 . 0.083(4) . . .
1600.83 . 0.079(4) . . .
1602.16 . 0.087(4) . . .
1603.49 . 0.083(4) . . .
1604.82 . 0.081(4) . . .
1606.15 . 0.077(4) . . .
1607.49 . 0.086(4) . . .
1608.82 . 0.082(4) . . .
1610.16 . 0.084(4) . . .
1611.50 . 0.091(4) . . .
1612.84 . 0.079(4) . . .
1614.18 . 0.093(4) . . .
1615.52 . 0.079(4) . . .
1616.86 . 0.090(4) . . .
1618.21 . 0.078(4) . . .
1619.55 . 0.079(4) . . .
1620.90 . 0.089(4) . . .
1622.24 . 0.090(4) . . .
1623.59 . 0.091(4) . . .
1624.94 . 0.078(4) . . .
1626.29 . 0.086(4) . . .
1627.64 . 0.081(4) . . .
1628.99 . 0.089(4) . . .
1630.35 . 0.081(4) . . .
1631.70 . 0.082(4) . . .
1633.06 . 0.076(4) . . .
1634.41 . 0.079(4) . . .
1635.77 . 0.084(4) . . .
1637.13 . 0.079(4) . . .
1638.49 . 0.085(4) . . .
1639.85 . 0.077(4) . . .
1641.22 . 0.087(4) . . .
1642.58 . 0.084(4) . . .
1643.94 . 0.081(4) . . .
1645.31 . 0.085(4) . . .
1646.68 . 0.087(4) . . .
1648.05 . 0.078(4) . . .
1649.41 . 0.077(4) . . .
1650.79 . 0.088(4) . . .
1652.16 . 0.073(4) . . .
1653.53 . 0.086(4) . . .
1654.90 . 0.084(4) . . .
1656.28 . 0.090(4) . . .
1657.65 . 0.090(4) . . .
1659.03 . 0.078(4) . . .
1660.41 . 0.089(4) . . .
1661.79 . 0.079(4) . . .
1663.17 . 0.082(4) . . .
1664.55 . 0.088(4) . . .
1665.94 . 0.084(4) . . .
1667.32 . 0.080(4) . . .
1668.71 . 0.078(4) . . .
1670.09 . 0.081(4) . . .
1671.48 . 0.079(4) . . .
1672.87 . 0.090(4) . . .
1674.26 . 0.080(4) . . .
1675.65 . 0.075(4) . . .
1677.04 . 0.083(4) . . .
1678.44 . 0.076(4) . . .
1679.83 . 0.076(4) . . .
1681.23 . 0.089(4) . . .
1682.62 . 0.092(4) . . .
1684.02 . 0.079(4) . . .
1685.42 . 0.088(4) . . .
1686.82 . 0.086(4) . . .
1688.22 . 0.086(4) . . .
1689.63 . 0.081(4) . . .
1691.03 . 0.079(4) . . .
1692.43 . 0.093(4) . . .
1693.84 . 0.077(4) . . .
1695.25 . 0.085(4) . . .
1696.66 . 0.082(4) . . .
1698.07 . 0.081(4) . . .
1699.48 . 0.084(4) . . .
1700.89 . 0.086(4) . . .
1702.30 . 0.076(4) . . .
1703.72 . 0.082(4) . . .
1705.13 . 0.088(4) . . .
1706.55 . 0.077(4) . . .
1707.97 . 0.080(4) . . .
1709.39 . 0.085(4) . . .
1710.81 . 0.080(4) . . .
1712.23 . 0.085(4) . . .
1713.65 . 0.086(4) . . .
1715.08 . 0.081(4) . . .
1716.50 . 0.084(4) . . .
1717.93 . 0.093(4) . . .
1719.35 . 0.076(4) . . .
1720.78 . 0.095(4) . . .
1722.21 . 0.076(4) . . .
1723.64 . 0.085(4) . . .
1725.08 . 0.078(4) . . .
1726.51 . 0.081(4) . . .
1727.94 . 0.086(4) . . .
1729.38 . 0.083(4) . . .
1730.82 . 0.084(4) . . .
1732.25 . 0.075(4) . . .
1733.69 . 0.085(4) . . .
1735.13 . 0.081(4) . . .
1736.58 . 0.081(4) . . .
1738.02 . 0.079(4) . . .
1739.46 . 0.083(4) . . .
1740.91 . 0.080(4) . . .
1742.35 . 0.080(4) . . .
1743.80 . 0.090(4) . . .
1745.25 . 0.077(4) . . .
1746.70 . 0.080(4) . . .
1748.15 . 0.084(4) . . .
1749.61 . 0.084(4) . . .
1751.06 . 0.086(4) . . .
1752.51 . 0.086(4) . . .
1753.97 . 0.077(4) . . .
1755.43 . 0.081(4) . . .
1756.89 . 0.080(4) . . .
1758.35 . 0.078(4) . . .
1759.81 . 0.085(4) . . .
1761.27 . 0.082(4) . . .
1762.73 . 0.083(4) . . .
1764.20 . 0.076(4) . . .
1765.66 . 0.084(4) . . .
1767.13 . 0.082(4) . . .
1768.60 . 0.086(4) . . .
1770.07 . 0.081(4) . . .
1771.54 . 0.087(4) . . .
1773.01 . 0.083(4) . . .
1774.48 . 0.082(4) . . .
1775.96 . 0.078(4) . . .
1777.43 . 0.076(4) . . .
1778.91 . 0.079(4) . . .
1780.39 . 0.088(4) . . .
1781.87 . 0.080(4) . . .
1783.35 . 0.087(4) . . .
1784.83 . 0.085(4) . . .
1786.31 . 0.090(4) . . .
1787.80 . 0.083(4) . . .
1789.28 . 0.080(4) . . .
1790.77 . 0.084(4) . . .
1792.26 . 0.071(4) . . .
1793.75 . 0.088(4) . . .
1795.24 . 0.084(4) . . .
1796.73 . 0.085(4) . . .
1798.22 . 0.081(4) . . .
1799.72 . 0.087(4) . . .
1801.21 . 0.086(4) . . .
1802.71 . 0.080(4) . . .
1804.21 . 0.083(4) . . .
1805.71 . 0.081(4) . . .
1807.21 . 0.086(4) . . .
1808.71 . 0.081(4) . . .
1810.21 . 0.076(4) . . .
1811.71 . 0.083(4) . . .
1813.22 . 0.081(4) . . .
1814.73 . 0.087(4) . . .
1816.23 . 0.081(4) . . .
1817.74 . 0.089(4) . . .
1819.25 . 0.078(4) . . .
1820.77 . 0.085(4) . . .
1822.28 . 0.087(4) . . .
1823.79 . 0.086(4) . . .
1825.31 . 0.087(4) . . .
1826.83 . 0.085(4) . . .
1828.34 . 0.084(4) . . .
1829.86 . 0.080(4) . . .
1831.38 . 0.086(4) . . .
1832.90 . 0.088(4) . . .
1834.43 . 0.085(4) . . .
1835.95 . 0.088(4) . . .
1837.48 . 0.080(4) . . .
1839.00 . 0.081(4) . . .
1840.53 . 0.077(4) . . .
1842.06 . 0.084(4) . . .
1843.59 . 0.082(4) . . .
1845.12 . 0.087(4) . . .
1846.66 . 0.081(4) . . .
1848.19 . 0.083(4) . . .
1849.73 . 0.081(4) . . .
1851.26 . 0.087(4) . . .
1852.80 . 0.080(4) . . .
1854.34 . 0.083(4) . . .
1855.88 . 0.080(4) . . .
1857.42 . 0.078(4) . . .
1858.97 . 0.082(4) . . .
1860.51 . 0.080(4) . . .
1862.06 . 0.087(4) . . .
1863.60 . 0.088(4) . . .
1865.15 . 0.081(4) . . .
1866.70 . 0.083(4) . . .
1868.25 . 0.078(4) . . .
1869.81 . 0.083(4) . . .
1871.36 . 0.083(4) . . .
1872.92 . 0.080(4) . . .
1874.47 . 0.078(4) . . .
1876.03 . 0.082(4) . . .
1877.59 . 0.081(4) . . .
1879.15 . 0.075(4) . . .
1880.71 . 0.079(4) . . .
1882.27 . 0.080(4) . . .
1883.84 . 0.084(4) . . .
1885.40 . 0.086(4) . . .
1886.97 . 0.081(4) . . .
1888.54 . 0.082(4) . . .
1890.11 . 0.085(4) . . .
1891.68 . 0.080(4) . . .
1893.25 . 0.072(4) . . .
1894.82 . 0.077(4) . . .
1896.39 . 0.085(4) . . .
1897.97 . 0.085(4) . . .
1899.55 . 0.084(4) . . .
1901.13 . 0.078(4) . . .
1902.71 . 0.081(4) . . .
1904.29 . 0.082(4) . . .
1905.87 . 0.075(4) . . .
1907.45 . 0.084(4) . . .
1909.04 . 0.080(4) . . .
1910.62 . 0.080(4) . . .
1912.21 . 0.083(4) . . .
1913.80 . 0.087(4) . . .
1915.39 . 0.080(4) . . .
1916.98 . 0.086(4) . . .
1918.57 . 0.078(4) . . .
1920.17 . 0.082(4) . . .
1921.76 . 0.079(4) . . .
1923.36 . 0.077(4) . . .
1924.96 . 0.079(4) . . .
1926.56 . 0.076(4) . . .
1928.16 . 0.080(4) . . .
1929.76 . 0.075(4) . . .
1931.37 . 0.075(4) . . .
1932.97 . 0.082(4) . . .
1934.58 . 0.082(4) . . .
1936.18 . 0.076(4) . . .
1937.79 . 0.082(4) . . .
1939.40 . 0.085(4) . . .
1941.01 . 0.085(4) . . .
1942.63 . 0.085(4) . . .
1944.24 . 0.083(4) . . .
1945.86 . 0.080(4) . . .
1947.47 . 0.087(4) . . .
1949.09 . 0.080(4) . . .
1950.71 . 0.084(4) . . .
1952.33 . 0.080(4) . . .
1953.95 . 0.085(4) . . .
1955.58 . 0.074(4) . . .
1957.20 . 0.084(4) . . .
1958.83 . 0.085(4) . . .
1960.46 . 0.082(4) . . .
1962.08 . 0.082(4) . . .
1963.72 . 0.082(4) . . .
1965.35 . 0.084(4) . . .
1966.98 . 0.081(4) . . .
1968.61 . 0.086(4) . . .
1970.25 . 0.081(4) . . .
1971.89 . 0.082(4) . . .
1973.53 . 0.083(4) . . .
1975.17 . 0.075(4) . . .
1976.81 . 0.084(4) . . .
1978.45 . 0.080(4) . . .
1980.09 . 0.082(4) . . .
1981.74 . 0.075(4) . . .
1983.39 . 0.086(4) . . .
1985.03 . 0.085(4) . . .
1986.68 . 0.088(4) . . .
1988.33 . 0.084(4) . . .
1989.99 . 0.082(4) . . .
1991.64 . 0.086(4) . . .
1993.29 . 0.084(4) . . .
1994.95 . 0.086(4) . . .
1996.61 . 0.084(4) . . .
1998.27 . 0.084(4) . . .
1999.93 . 0.075(4) . . .
2001.59 . 0.079(4) . . .
2003.25 . 0.084(4) . . .
2004.92 . 0.086(4) . . .
2006.58 . 0.085(4) . . .
2008.25 . 0.077(4) . . .
2009.92 . 0.080(4) . . .
2011.59 . 0.085(4) . . .
2013.26 . 0.082(4) . . .
2014.93 . 0.082(4) . . .
2016.61 . 0.083(4) . . .
2018.28 . 0.081(4) . . .
2019.96 . 0.080(4) . . .
2021.64 . 0.079(4) . . .
2023.32 . 0.090(4) . . .
2025.00 . 0.078(4) . . .
2026.68 . 0.083(4) . . .
2028.37 . 0.089(4) . . .
2030.05 . 0.084(4) . . .
2031.74 . 0.079(4) . . .
2033.43 . 0.077(4) . . .
2035.12 . 0.085(4) . . .
2036.81 . 0.080(4) . . .
2038.50 . 0.081(4) . . .
2040.19 . 0.087(4) . . .
2041.89 . 0.080(4) . . .
2043.58 . 0.085(4) . . .
2045.28 . 0.083(4) . . .
2046.98 . 0.086(4) . . .
2048.68 . 0.090(4) . . .
2050.38 . 0.082(4) . . .
2052.09 . 0.083(4) . . .
2053.79 . 0.086(4) . . .
2055.50 . 0.083(4) . . .
2057.21 . 0.090(4) . . .
2058.92 . 0.091(4) . . .
2060.63 . 0.089(4) . . .
2062.34 . 0.080(4) . . .
2064.05 . 0.090(4) . . .
2065.77 . 0.081(4) . . .
2067.49 . 0.091(4) . . .
2069.20 . 0.083(4) . . .
2070.92 . 0.085(4) . . .
2072.64 . 0.083(4) . . .
2074.37 . 0.088(4) . . .
2076.09 . 0.076(4) . . .
2077.81 . 0.078(4) . . .
2079.54 . 0.079(4) . . .
2081.27 . 0.073(4) . . .
2083.00 . 0.085(4) . . .
2084.73 . 0.089(4) . . .
2086.46 . 0.086(4) . . .
2088.19 . 0.087(4) . . .
2089.93 . 0.086(4) . . .
2091.67 . 0.085(4) . . .
2093.40 . 0.085(4) . . .
2095.14 . 0.082(4) . . .
2096.88 . 0.078(4) . . .
2098.63 . 0.088(4) . . .
2100.37 . 0.085(4) . . .
2102.12 . 0.083(4) . . .
2103.86 . 0.091(4) . . .
2105.61 . 0.082(4) . . .
2107.36 . 0.084(4) . . .
2109.11 . 0.086(4) . . .
2110.86 . 0.081(4) . . .
2112.62 . 0.084(4) . . .
2114.37 . 0.086(4) . . .
2116.13 . 0.080(4) . . .
2117.89 . 0.081(4) . . .
2119.65 . 0.085(4) . . .
2121.41 . 0.079(4) . . .
2123.17 . 0.080(4) . . .
2124.94 . 0.077(4) . . .
2126.70 . 0.085(4) . . .
2128.47 . 0.082(4) . . .
2130.24 . 0.089(4) . . .
2132.01 . 0.082(4) . . .
2133.78 . 0.078(4) . . .
2135.55 . 0.082(4) . . .
2137.33 . 0.080(4) . . .
2139.10 . 0.085(4) . . .
2140.88 . 0.078(4) . . .
2142.66 . 0.084(4) . . .
2144.44 . 0.075(4) . . .
2146.22 . 0.083(4) . . .
2148.00 . 0.082(4) . . .
2149.79 . 0.080(4) . . .
2151.57 . 0.081(4) . . .
2153.36 . 0.081(4) . . .
2155.15 . 0.077(4) . . .
2156.94 . 0.086(4) . . .
2158.73 . 0.080(4) . . .
2160.53 . 0.079(4) . . .
2162.32 . 0.078(4) . . .
2164.12 . 0.079(4) . . .
2165.92 . 0.079(4) . . .
2167.72 . 0.077(4) . . .
2169.52 . 0.080(4) . . .
2171.32 . 0.078(4) . . .
2173.13 . 0.078(4) . . .
2174.93 . 0.079(4) . . .
2176.74 . 0.075(4) . . .
2178.55 . 0.085(4) . . .
2180.36 . 0.079(4) . . .
2182.17 . 0.082(4) . . .
2183.98 . 0.078(4) . . .
2185.80 . 0.084(4) . . .
2187.61 . 0.078(4) . . .
2189.43 . 0.081(4) . . .
2191.25 . 0.079(4) . . .
2193.07 . 0.084(4) . . .
2194.89 . 0.083(4) . . .
2196.72 . 0.081(4) . . .
2198.54 . 0.076(4) . . .
2200.37 . 0.083(4) . . .
2202.20 . 0.080(4) . . .
2204.03 . 0.080(4) . . .
2205.86 . 0.077(4) . . .
2207.69 . 0.088(4) . . .
2209.53 . 0.086(4) . . .
2211.36 . 0.079(4) . . .
2213.20 . 0.083(4) . . .
2215.04 . 0.084(4) . . .
2216.88 . 0.079(4) . . .
2218.72 . 0.085(4) . . .
2220.56 . 0.081(4) . . .
2222.41 . 0.077(4) . . .
2224.26 . 0.074(4) . . .
2226.10 . 0.083(4) . . .
2227.95 . 0.080(4) . . .
2229.80 . 0.078(4) . . .
2231.66 . 0.084(4) . . .
2233.51 . 0.084(4) . . .
2235.37 . 0.084(4) . . .
2237.23 . 0.077(4) . . .
2239.08 . 0.083(4) . . .
2240.94 . 0.079(4) . . .
2242.81 . 0.078(4) . . .
2244.67 . 0.081(4) . . .
2246.54 . 0.082(4) . . .
2248.40 . 0.078(4) . . .
2250.27 . 0.079(4) . . .
2252.14 . 0.079(4) . . .
2254.01 . 0.089(4) . . .
2255.88 . 0.083(4) . . .
2257.76 . 0.086(4) . . .
2259.63 . 0.083(4) . . .
2261.51 . 0.083(4) . . .
2263.39 . 0.082(4) . . .
2265.27 . 0.081(4) . . .
2267.15 . 0.084(4) . . .
2269.04 . 0.089(4) . . .
2270.92 . 0.084(4) . . .
2272.81 . 0.082(4) . . .
2274.70 . 0.084(4) . . .
2276.59 . 0.083(4) . . .
2278.48 . 0.083(4) . . .
2280.37 . 0.074(4) . . .
2282.27 . 0.085(4) . . .
2284.16 . 0.087(4) . . .
2286.06 . 0.093(4) . . .
2287.96 . 0.083(4) . . .
2289.86 . 0.091(4) . . .
2291.77 . 0.086(4) . . .
2293.67 . 0.089(4) . . .
2295.58 . 0.087(4) . . .
2297.48 . 0.088(4) . . .
2299.39 . 0.092(4) . . .
2301.30 . 0.088(4) . . .
2303.21 . 0.085(4) . . .
2305.13 . 0.092(4) . . .
2307.04 . 0.090(4) . . .
2308.96 . 0.086(4) . . .
2310.88 . 0.088(4) . . .
2312.80 . 0.083(4) . . .
2314.72 . 0.083(4) . . .
2316.64 . 0.087(4) . . .
2318.57 . 0.080(4) . . .
2320.50 . 0.084(4) . . .
2322.42 . 0.083(4) . . .
2324.35 . 0.082(4) . . .
2326.29 . 0.085(4) . . .
2328.22 . 0.086(4) . . .
2330.15 . 0.086(4) . . .
2332.09 . 0.080(4) . . .
2334.03 . 0.083(4) . . .
2335.97 . 0.083(4) . . .
2337.91 . 0.087(4) . . .
2339.85 . 0.085(4) . . .
2341.79 . 0.080(4) . . .
2343.74 . 0.081(4) . . .
2345.69 . 0.087(4) . . .
2347.64 . 0.089(4) . . .
2349.59 . 0.084(4) . . .
2351.54 . 0.082(4) . . .
2353.49 . 0.081(4) . . .
2355.45 . 0.086(4) . . .
2357.41 . 0.084(4) . . .
2359.36 . 0.077(4) . . .
2361.32 . 0.088(4) . . .
2363.29 . 0.085(4) . . .
2365.25 . 0.084(4) . . .
2367.22 . 0.082(4) . . .
2369.18 . 0.081(4) . . .
2371.15 . 0.075(4) . . .
2373.12 . 0.082(4) . . .
2375.09 . 0.082(4) . . .
2377.07 . 0.083(4) . . .
2379.04 . 0.084(4) . . .
2381.02 . 0.085(4) . . .
2383.00 . 0.078(4) . . .
2384.98 . 0.086(4) . . .
2386.96 . 0.084(4) . . .
2388.94 . 0.084(4) . . .
2390.93 . 0.082(4) . . .
2392.91 . 0.0925(35) . . .
2394.90 . 0.0879(35) . . .
2396.89 . 0.081(4) . . .
2398.88 . 0.078(4) . . .
2400.88 . 0.084(4) . . .
2402.87 . 0.081(4) . . .
2404.87 . 0.079(4) . . .
2406.87 . 0.082(4) . . .
2408.87 . 0.083(4) . . .
2410.87 . 0.0849(35) . . .
2412.87 . 0.079(4) . . .
2414.88 . 0.083(4) . . .
2416.88 . 0.0860(35) . . .
2418.89 . 0.077(4) . . .
2420.90 . 0.0768(35) . . .
2422.91 . 0.0841(35) . . .
2424.93 . 0.079(4) . . .
2426.94 . 0.077(4) . . .
2428.96 . 0.084(4) . . .
2430.97 . 0.0822(35) . . .
2432.99 . 0.0848(35) . . .
2435.02 . 0.0847(34) . . .
2437.04 . 0.0810(35) . . .
2439.06 . 0.081(4) . . .
2441.09 . 0.0794(35) . . .
2443.12 . 0.0808(35) . . .
2445.15 . 0.0850(35) . . .
2447.18 . 0.078(4) . . .
2449.21 . 0.0819(35) . . .
2451.25 . 0.076(4) . . .
2453.29 . 0.0864(34) . . .
2455.32 . 0.0881(35) . . .
2457.37 . 0.0806(35) . . .
2459.41 . 0.0830(35) . . .
2461.45 . 0.080(4) . . .
2463.50 . 0.0782(35) . . .
2465.54 . 0.0777(35) . . .
2467.59 . 0.0806(35) . . .
2469.64 . 0.0801(35) . . .
2471.69 . 0.0864(34) . . .
2473.75 . 0.0854(34) . . .
2475.80 . 0.0871(34) . . .
2477.86 . 0.0769(35) . . .
2479.92 . 0.0857(35) . . .
2481.98 . 0.0863(34) . . .
2484.04 . 0.0776(35) . . .
2486.11 . 0.0796(35) . . .
2488.17 . 0.0907(34) . . .
2490.24 . 0.0820(35) . . .
2492.31 . 0.0817(34) . . .
2494.38 . 0.0782(35) . . .
2496.45 . 0.0822(35) . . .
2498.53 . 0.0777(35) . . .
2500.60 . 0.0830(34) . . .
2502.68 . 0.0799(34) . . .
2504.76 . 0.0801(34) . . .
2506.84 . 0.0828(34) . . .
2508.92 . 0.0781(34) . . .
2511.01 . 0.0803(34) . . .
2513.09 . 0.0838(34) . . .
2515.18 . 0.0825(34) . . .
2517.27 . 0.0809(34) . . .
2519.36 . 0.0828(34) . . .
2521.46 . 0.0863(34) . . .
2523.55 . 0.0788(35) . . .
2525.65 . 0.0786(34) . . .
2527.75 . 0.0871(34) . . .
2529.85 . 0.0819(34) . . .
2531.95 . 0.0822(34) . . .
2534.05 . 0.0731(35) . . .
2536.16 . 0.0799(34) . . .
2538.27 . 0.0823(34) . . .
2540.38 . 0.0778(35) . . .
2542.49 . 0.0826(34) . . .
2544.60 . 0.0761(34) . . .
2546.71 . 0.0827(34) . . .
2548.83 . 0.0779(34) . . .
2550.95 . 0.0782(34) . . .
2553.07 . 0.0839(34) . . .
2555.19 . 0.0780(34) . . .
2557.31 . 0.0840(34) . . .
2559.44 . 0.0826(34) . . .
2561.56 . 0.0828(34) . . .
2563.69 . 0.0840(34) . . .
2565.82 . 0.0845(34) . . .
2567.95 . 0.0802(34) . . .
2570.09 . 0.0777(34) . . .
2572.22 . 0.0817(34) . . .
2574.36 . 0.0745(35) . . .
2576.50 . 0.0770(35) . . .
2578.64 . 0.0813(34) . . .
2580.78 . 0.0856(34) . . .
2582.93 . 0.0825(34) . . .
2585.07 . 0.0852(34) . . .
2587.22 . 0.0815(34) . . .
2589.37 . 0.0834(34) . . .
2591.52 . 0.0831(34) . . .
2593.68 . 0.0857(34) . . .
2595.83 . 0.0861(34) . . .
2597.99 . 0.0816(34) . . .
2600.15 . 0.0858(34) . . .
2602.31 . 0.0845(34) . . .
2604.47 . 0.0795(35) . . .
2606.63 . 0.0829(34) . . .
2608.80 . 0.0881(34) . . .
2610.97 . 0.0879(34) . . .
2613.14 . 0.0897(34) . . .
2615.31 . 0.0808(35) . . .
2617.48 . 0.0888(34) . . .
2619.66 . 0.0904(34) . . .
2621.83 . 0.0836(35) . . .
2624.01 . 0.0893(34) . . .
2626.19 . 0.0858(35) . . .
2628.37 . 0.0885(34) . . .
2630.56 . 0.0813(35) . . .
2632.74 . 0.0831(35) . . .
2634.93 . 0.0779(35) . . .
2637.12 . 0.0873(34) . . .
2639.31 . 0.0925(34) . . .
2641.50 . 0.0849(35) . . .
2643.70 . 0.0844(34) . . .
2645.90 . 0.0912(34) . . .
2648.09 . 0.0843(34) . . .
2650.29 . 0.0815(35) . . .
2652.50 . 0.0866(35) . . .
2654.70 . 0.0893(34) . . .
2656.91 . 0.0870(35) . . .
2659.11 . 0.0852(35) . . .
2661.32 . 0.0889(35) . . .
2663.53 . 0.0829(35) . . .
2665.75 . 0.0877(35) . . .
2667.96 . 0.0891(34) . . .
2670.18 . 0.0880(35) . . .
2672.40 . 0.0899(34) . . .
2674.62 . 0.0926(34) . . .
2676.84 . 0.0901(35) . . .
2679.07 . 0.0832(35) . . .
2681.29 . 0.0853(35) . . .
2683.52 . 0.0873(35) . . .
2685.75 . 0.0853(35) . . .
2687.98 . 0.0897(35) . . .
2690.21 . 0.0873(35) . . .
2692.45 . 0.084(4) . . .
2694.69 . 0.0880(35) . . .
2696.93 . 0.0949(34) . . .
2699.17 . 0.0901(35) . . .
2701.41 . 0.087(4) . . .
2703.65 . 0.0874(35) . . .
2705.90 . 0.0882(34) . . .
2708.15 . 0.0871(34) . . .
2710.40 . 0.0903(35) . . .
2712.65 . 0.0856(35) . . .
2714.91 . 0.0869(34) . . .
2717.16 . 0.0904(35) . . .
2719.42 . 0.0843(35) . . .
2721.68 . 0.0894(35) . . .
2723.94 . 0.0847(35) . . .
2726.20 . 0.0950(34) . . .
2728.47 . 0.0911(35) . . .
2730.74 . 0.0925(34) . . .
2733.00 . 0.0867(35) . . .
2735.28 . 0.0890(34) . . .
2737.55 . 0.0836(35) . . .
2739.82 . 0.0897(34) . . .
2742.10 . 0.0920(34) . . .
2744.38 . 0.0882(34) . . .
2746.66 . 0.0894(34) . . .
2748.94 . 0.0950(34) . . .
2751.22 . 0.0876(35) . . .
2753.51 . 0.0823(35) . . .
2755.80 . 0.0909(34) . . .
2758.09 . 0.0934(34) . . .
2760.38 . 0.0864(34) . . .
2762.67 . 0.0886(34) . . .
2764.97 . 0.0947(34) . . .
2767.27 . 0.0868(34) . . .
2769.57 . 0.0866(34) . . .
2771.87 . 0.0841(34) . . .
2774.17 . 0.0882(34) . . .
2776.47 . 0.0865(34) . . .
2778.78 . 0.0904(34) . . .
2781.09 . 0.0864(34) . . .
2783.40 . 0.0848(34) . . .
2785.71 . 0.0798(34) . . .
2788.03 . 0.0890(34) . . .
2790.35 . 0.0852(34) . . .
2792.66 . 0.0851(34) . . .
2794.98 . 0.0878(34) . . .
2797.31 . 0.0868(34) . . .
2799.63 . 0.0780(34) . . .
2801.96 . 0.0846(34) . . .
2804.29 . 0.0844(34) . . .
2806.62 . 0.0870(34) . . .
2808.95 . 0.0802(34) . . .
2811.28 . 0.0850(34) . . .
2813.62 . 0.0854(33) . . .
2815.96 . 0.0843(34) . . .
2818.30 . 0.0841(34) . . .
2820.64 . 0.0833(33) . . .
2822.98 . 0.0845(34) . . .
2825.33 . 0.0863(33) . . .
2827.67 . 0.0807(33) . . .
2830.02 . 0.0827(34) . . .
2832.38 . 0.0803(34) . . .
2834.73 . 0.0851(33) . . .
2837.08 . 0.0809(33) . . .
2839.44 . 0.0859(33) . . .
2841.80 . 0.0774(34) . . .
2844.16 . 0.0787(34) . . .
2846.52 . 0.0848(33) . . .
2848.89 . 0.0845(33) . . .
2851.26 . 0.0863(33) . . .
2853.63 . 0.0882(33) . . .
2856.00 . 0.0806(33) . . .
2858.37 . 0.0825(33) . . .
2860.75 . 0.0818(33) . . .
2863.12 . 0.0871(33) . . .
2865.50 . 0.0856(33) . . .
2867.88 . 0.0806(33) . . .
2870.27 . 0.0816(33) . . .
2872.65 . 0.0868(33) . . .
2875.04 . 0.0881(33) . . .
2877.43 . 0.0907(33) . . .
2879.82 . 0.0817(33) . . .
2882.21 . 0.0846(33) . . .
2884.60 . 0.0825(33) . . .
2887.00 . 0.0809(34) . . .
2889.40 . 0.0934(33) . . .
2891.80 . 0.0822(33) . . .
2894.20 . 0.0789(33) . . .
2896.61 . 0.0803(33) . . .
2899.02 . 0.0913(33) . . .
2901.42 . 0.0778(33) . . .
2903.84 . 0.0847(33) . . .
2906.25 . 0.0824(33) . . .
2908.66 . 0.0820(33) . . .
2911.08 . 0.0836(33) . . .
2913.50 . 0.0825(33) . . .
2915.92 . 0.0868(33) . . .
2918.34 . 0.0854(33) . . .
2920.77 . 0.0861(33) . . .
2923.19 . 0.0843(33) . . .
2925.62 . 0.0822(33) . . .
2928.05 . 0.0871(33) . . .
2930.49 . 0.0849(33) . . .
2932.92 . 0.0774(33) . . .
2935.36 . 0.0829(33) . . .
2937.80 . 0.0817(33) . . .
2940.24 . 0.0882(33) . . .
2942.68 . 0.0848(33) . . .
2945.13 . 0.0872(33) . . .
2947.57 . 0.0830(33) . . .
2950.02 . 0.0845(33) . . .
2952.47 . 0.0790(33) . . .
2954.93 . 0.0844(33) . . .
2957.38 . 0.0838(33) . . .
2959.84 . 0.0881(33) . . .
2962.30 . 0.0822(33) . . .
2964.76 . 0.0841(33) . . .
2967.22 . 0.0835(33) . . .
2969.69 . 0.0880(33) . . .
2972.16 . 0.0884(33) . . .
2974.63 . 0.0824(33) . . .
2977.10 . 0.0820(33) . . .
2979.57 . 0.0839(33) . . .
2982.05 . 0.0863(33) . . .
2984.53 . 0.0898(33) . . .
2987.01 . 0.0837(33) . . .
2989.49 . 0.0811(33) . . .
2991.97 . 0.0871(33) . . .
2994.46 . 0.0843(33) . . .
2996.95 . 0.0857(33) . . .
2999.44 . 0.0882(33) . . .
3001.93 . 0.0901(33) . . .
3004.42 . 0.0900(33) . . .
3006.92 . 0.0940(32) . . .
3009.42 . 0.0791(33) . . .
3011.92 . 0.0847(33) . . .
3014.42 . 0.0866(33) . . .
3016.93 . 0.0889(33) . . .
3019.43 . 0.0839(33) . . .
3021.94 . 0.0808(33) . . .
3024.45 . 0.0874(33) . . .
3026.97 . 0.0835(33) . . .
3029.48 . 0.0847(33) . . .
3032.00 . 0.0879(33) . . .
3034.52 . 0.0791(33) . . .
3037.04 . 0.0919(33) . . .
3039.56 . 0.0899(33) . . .
3042.09 . 0.0926(32) . . .
3044.61 . 0.0817(33) . . .
3047.14 . 0.0853(33) . . .
3049.68 . 0.0932(32) . . .
3052.21 . 0.0830(33) . . .
3054.75 . 0.0877(33) . . .
3057.29 . 0.0930(33) . . .
3059.83 . 0.0865(33) . . .
3062.37 . 0.0891(33) . . .
3064.91 . 0.0833(33) . . .
3067.46 . 0.0879(33) . . .
3070.01 . 0.0897(33) . . .
3072.56 . 0.0817(33) . . .
3075.11 . 0.0889(33) . . .
3077.67 . 0.0878(33) . . .
3080.22 . 0.0869(33) . . .
3082.78 . 0.0843(33) . . .
3085.34 . 0.0846(33) . . .
3087.91 . 0.0886(33) . . .
3090.47 . 0.0870(33) . . .
3093.04 . 0.0868(33) . . .
3095.61 . 0.0828(33) . . .
3098.18 . 0.0851(33) . . .
3100.76 . 0.0900(33) . . .
3103.33 . 0.0829(33) . . .
3105.91 . 0.0913(33) . . .
3108.49 . 0.0890(33) . . .
3111.08 . 0.0876(33) . . .
3113.66 . 0.0925(32) . . .
3116.25 . 0.0887(33) . . .
3118.84 . 0.0883(33) . . .
3121.43 . 0.0871(33) . . .
3124.02 . 0.0903(33) . . .
3126.62 . 0.0855(33) . . .
3129.22 . 0.0860(33) . . .
3131.82 . 0.0892(33) . . .
3134.42 . 0.0879(33) . . .
3137.02 . 0.0838(33) . . .
3139.63 . 0.0907(32) . . .
3142.24 . 0.0878(33) . . .
3144.85 . 0.0896(33) . . .
3147.46 . 0.0884(33) . . .
3150.08 . 0.0888(32) . . .
3152.70 . 0.0919(33) . . .
3155.32 . 0.0931(32) . . .
3157.94 . 0.0883(33) . . .
3160.56 . 0.0924(33) . . .
3163.19 . 0.0883(33) . . .
3165.82 . 0.0884(33) . . .
3168.45 . 0.0861(33) . . .
3171.08 . 0.0899(33) . . .
3173.71 . 0.0918(33) . . .
3176.35 . 0.0906(33) . . .
3178.99 . 0.0929(32) . . .
3181.63 . 0.0919(32) . . .
3184.28 . 0.0906(32) . . .
3186.92 . 0.0883(32) . . .
3189.57 . 0.0850(33) . . .
3192.22 . 0.0898(33) . . .
3194.87 . 0.0893(33) . . .
3197.53 . 0.0915(33) . . .
3200.18 . 0.0897(32) . . .
3202.84 . 0.0977(32) . . .
3205.50 . 0.0852(33) . . .
3208.17 . 0.0883(33) . . .
3210.83 . 0.0851(33) . . .
3213.50 . 0.0926(32) . . .
3216.17 . 0.0841(33) . . .
3218.84 . 0.0820(33) . . .
3221.52 . 0.0880(33) . . .
3224.19 . 0.0816(33) . . .
3226.87 . 0.0836(33) . . .
3229.55 . 0.0879(33) . . .
3232.24 . 0.0945(32) . . .
3234.92 . 0.0884(32) . . .
3237.61 . 0.0912(32) . . .
3240.30 . 0.0922(32) . . .
3242.99 . 0.0875(33) . . .
3245.69 . 0.0951(32) . . .
3248.39 . 0.0944(32) . . .
3251.08 . 0.0888(33) . . .
3253.79 . 0.0891(33) . . .
3256.49 . 0.0931(32) . . .
3259.20 . 0.0948(32) . . .
3261.90 . 0.0872(33) . . .
3264.61 . 0.0926(33) . . .
3267.33 . 0.0926(33) . . .
3270.04 . 0.0911(33) . . .
3272.76 . 0.0976(32) . . .
3275.48 . 0.0939(33) . . .
3278.20 . 0.0926(33) . . .
3280.92 . 0.0896(33) . . .
3283.65 . 0.0929(33) . . .
3286.38 . 0.0932(33) . . .
3289.11 . 0.0967(33) . . .
3291.84 . 0.0915(33) . . .
3294.58 . 0.0993(32) . . .
3297.31 . 0.0952(33) . . .
3300.05 . 0.0952(32) . . .
3302.80 . 0.0988(32) . . .
3305.54 . 0.0898(33) . . .
3308.29 . 0.0901(33) . . .
3311.04 . 0.0970(33) . . .
3313.79 . 0.0957(32) . . .
3316.54 . 0.0893(33) . . .
3319.30 . 0.0892(32) . . .
3322.05 . 0.0977(32) . . .
3324.81 . 0.0975(32) . . .
3327.58 . 0.0971(32) . . .
3330.34 . 0.0943(32) . . .
3333.11 . 0.0907(32) . . .
3335.88 . 0.0868(33) . . .
3338.65 . 0.0906(32) . . .
3341.43 . 0.0959(32) . . .
3344.20 . 0.0913(32) . . .
3346.98 . 0.0965(32) . . .
3349.76 . 0.0955(32) . . .
3352.54 . 0.0971(32) . . .
3355.33 . 0.0905(32) . . .
3358.12 . 0.0937(32) . . .
3360.91 . 0.0905(32) . . .
3363.70 . 0.0936(32) . . .
3366.50 . 0.0878(32) . . .
3369.29 . 0.0877(32) . . .
3372.09 . 0.0951(32) . . .
3374.89 . 0.0917(32) . . .
3377.70 . 0.0890(32) . . .
3380.50 . 0.0914(32) . . .
3383.31 . 0.0915(32) . . .
3386.13 . 0.0901(32) . . .
3388.94 . 0.0913(32) . . .
3391.75 . 0.0868(32) . . .
3394.57 . 0.0913(32) . . .
3397.39 . 0.0910(32) . . .
3400.22 . 0.0955(32) . . .
3403.04 . 0.0877(32) . . .
3405.87 . 0.0936(31) . . .
3408.70 . 0.0898(32) . . .
3411.53 . 0.0836(31) . . .
3414.37 . 0.0921(31) . . .
3417.20 . 0.0912(31) . . .
3420.04 . 0.0972(31) . . .
3422.88 . 0.0884(31) . . .
3425.73 . 0.0884(31) . . .
3428.57 . 0.0880(31) . . .
3431.42 . 0.0875(31) . . .
3434.27 . 0.0866(31) . . .
3437.13 . 0.0856(31) . . .
3439.98 . 0.0901(31) . . .
3442.84 . 0.0844(31) . . .
3445.70 . 0.0842(31) . . .
3448.57 . 0.0901(31) . . .
3451.43 . 0.0852(31) . . .
3454.30 . 0.0891(31) . . .
3457.17 . 0.0886(31) . . .
3460.04 . 0.0851(31) . . .
3462.92 . 0.0849(31) . . .
3465.79 . 0.0881(31) . . .
3468.67 . 0.0847(31) . . .
3471.56 . 0.0868(31) . . .
3474.44 . 0.0895(30) . . .
3477.33 . 0.0854(31) . . .
3480.22 . 0.0870(31) . . .
3483.11 . 0.0852(31) . . .
3486.00 . 0.0957(30) . . .
3488.90 . 0.0834(31) . . .
3491.80 . 0.0838(30) . . .
3494.70 . 0.0848(30) . . .
3497.60 . 0.0910(30) . . .
3500.51 . 0.0870(30) . . .
3503.42 . 0.0877(30) . . .
3506.33 . 0.0870(30) . . .
3509.2 . 0.0865(30) . . .
3512.2 . 0.0859(30) . . .
3515.1 . 0.0841(30) . . .
3518.0 . 0.0842(30) . . .
3520.9 . 0.0846(30) . . .
3523.8 . 0.0889(30) . . .
3526.8 . 0.0784(31) . . .
3529.7 . 0.0778(30) . . .
3532.6 . 0.0831(30) . . .
3535.6 . 0.0833(30) . . .
3538.5 . 0.0857(30) . . .
3541.5 . 0.0856(30) . . .
3544.4 . 0.0856(30) . . .
3547.3 . 0.0860(30) . . .
3550.3 . 0.0807(30) . . .
3553.2 . 0.0801(30) . . .
3556.2 . 0.0807(30) . . .
3559.1 . 0.0830(30) . . .
3562.1 . 0.0884(30) . . .
3565.1 . 0.0836(30) . . .
3568.0 . 0.0841(30) . . .
3571.0 . 0.0908(29) . . .
3574.0 . 0.0811(30) . . .
3576.9 . 0.0858(30) . . .
3579.9 . 0.0845(30) . . .
3582.9 . 0.0846(30) . . .
3585.8 . 0.0897(29) . . .
3588.8 . 0.0861(30) . . .
3591.8 . 0.0824(30) . . .
3594.8 . 0.0804(30) . . .
3597.8 . 0.0851(30) . . .
3600.8 . 0.0860(29) . . .
3603.8 . 0.0808(30) . . .
3606.8 . 0.0823(30) . . .
3609.8 . 0.0841(30) . . .
3612.8 . 0.0800(30) . . .
3615.8 . 0.0806(30) . . .
3618.8 . 0.0891(30) . . .
3621.8 . 0.0836(30) . . .
3624.8 . 0.0848(30) . . .
3627.8 . 0.0851(30) . . .
3630.8 . 0.0901(30) . . .
3633.8 . 0.0870(30) . . .
3636.8 . 0.0822(30) . . .
3639.9 . 0.0890(30) . . .
3642.9 . 0.0886(30) . . .
3645.9 . 0.0849(30) . . .
3648.9 . 0.0890(30) . . .
3652.0 . 0.0872(30) . . .
3655.0 . 0.0944(30) . . .
3658.0 . 0.0894(30) . . .
3661.1 . 0.0877(30) . . .
3664.1 . 0.0855(30) . . .
3667.2 . 0.0891(30) . . .
3670.2 . 0.0838(30) . . .
3673.3 . 0.0848(30) . . .
3676.3 . 0.0861(30) . . .
3679.4 . 0.0904(30) . . .
3682.4 . 0.0907(30) . . .
3685.5 . 0.0812(31) . . .
3688.6 . 0.0832(30) . . .
3691.6 . 0.0885(30) . . .
3694.7 . 0.0842(31) . . .
3697.8 . 0.0838(31) . . .
3700.8 . 0.0856(30) . . .
3703.9 . 0.0837(31) . . .
3707.0 . 0.0876(30) . . .
3710.1 . 0.0898(30) . . .
3713.1 . 0.0890(30) . . .
3716.2 . 0.0941(30) . . .
3719.3 . 0.0900(30) . . .
3722.4 . 0.0884(30) . . .
3725.5 . 0.0867(31) . . .
3728.6 . 0.0912(30) . . .
3731.7 . 0.0906(31) . . .
3734.8 . 0.0935(30) . . .
3737.9 . 0.0945(30) . . .
3741.0 . 0.0943(30) . . .
3744.1 . 0.0878(31) . . .
3747.2 . 0.0899(31) . . .
3750.3 . 0.0905(31) . . .
3753.5 . 0.0930(31) . . .
3756.6 . 0.0971(30) . . .
3759.7 . 0.0912(31) . . .
3762.8 . 0.0973(31) . . .
3765.9 . 0.0942(31) . . .
3769.1 . 0.0948(31) . . .
3772.2 . 0.0930(31) . . .
3775.3 . 0.0946(31) . . .
3778.5 . 0.0982(30) . . .
3781.6 . 0.0934(31) . . .
3784.8 . 0.0939(31) . . .
3787.9 . 0.0945(31) . . .
3791.0 . 0.0882(31) . . .
3794.2 . 0.0937(31) . . .
3797.4 . 0.0844(31) . . .
3800.5 . 0.0889(31) . . .
3803.7 . 0.0945(31) . . .
3806.8 . 0.0949(31) . . .
3810.0 . 0.0977(31) . . .
3813.2 . 0.0917(31) . . .
3816.3 . 0.0961(31) . . .
3819.5 . 0.0912(31) . . .
3822.7 . 0.0966(31) . . .
3825.8 . 0.0934(31) . . .
3829.0 . 0.1012(30) . . .
3832.2 . 0.0975(31) . . .
3835.4 . 0.0933(31) . . .
3838.6 . 0.0990(31) . . .
3841.8 . 0.0984(31) . . .
3845.0 . 0.0959(31) . . .
3848.2 . 0.0972(31) . . .
3851.3 . 0.0997(31) . . .
3854.5 . 0.0928(31) . . .
3857.8 . 0.1029(31) . . .
3861.0 . 0.0970(31) . . .
3864.2 . 0.0980(31) . . .
3867.4 . 0.0975(31) . . .
3870.6 . 0.1010(31) . . .
3873.8 . 0.0931(31) . . .
3877.0 . 0.1037(31) . . .
3880.2 . 0.0979(31) . . .
3883.5 . 0.0997(31) . . .
3886.7 . 0.0981(31) . . .
3889.9 . 0.0926(31) . . .
3893.2 . 0.0977(31) . . .
3896.4 . 0.0952(31) . . .
3899.6 . 0.0994(31) . . .
3902.9 . 0.0980(31) . . .
3906.1 . 0.0987(31) . . .
3909.4 . 0.1016(31) . . .
3912.6 . 0.0944(31) . . .
3915.9 . 0.0968(31) . . .
3919.1 . 0.0956(31) . . .
3922.4 . 0.1001(31) . . .
3925.6 . 0.1019(31) . . .
3928.9 . 0.0942(31) . . .
3932.2 . 0.0912(31) . . .
3935.4 . 0.1003(31) . . .
3938.7 . 0.0967(31) . . .
3942.0 . 0.0913(31) . . .
3945.2 . 0.1004(31) . . .
3948.5 . 0.0985(31) . . .
3951.8 . 0.0965(31) . . .
3955.1 . 0.0958(31) . . .
3958.4 . 0.0981(30) . . .
3961.7 . 0.0945(31) . . .
3964.9 . 0.0998(31) . . .
3968.2 . 0.1000(30) . . .
3971.5 . 0.0975(31) . . .
3974.8 . 0.1000(31) . . .
3978.1 . 0.0964(31) . . .
3981.4 . 0.1016(30) . . .
3984.8 . 0.0969(30) . . .
3988.1 . 0.0982(31) . . .
3991.4 . 0.0978(31) . . .
3994.7 . 0.0987(31) . . .
3998.0 . 0.0995(31) . . .
4001.3 . 0.1019(31) . . .
4004.7 . 0.0966(31) . . .
4008.0 . 0.1005(30) . . .
4011.3 . 0.0945(31) . . .
4014.7 . 0.0968(30) . . .
4018.0 . 0.0944(31) . . .
4021.3 . 0.0933(31) . . .
4024.7 . 0.0967(30) . . .
4028.0 . 0.0916(31) . . .
4031.4 . 0.0951(30) . . .
4034.7 . 0.0929(31) . . .
4038.1 . 0.0991(30) . . .
4041.4 . 0.0935(30) . . .
4044.8 . 0.0980(30) . . .
4048.1 . 0.0970(30) . . .
4051.5 . 0.1017(30) . . .
4054.9 . 0.0997(30) . . .
4058.2 . 0.0939(30) . . .
4061.6 . 0.0928(30) . . .
4065.0 . 0.0901(30) . . .
4068.4 . 0.0906(30) . . .
4071.7 . 0.0952(30) . . .
4075.1 . 0.0966(30) . . .
4078.5 . 0.0912(30) . . .
4081.9 . 0.0924(30) . . .
4085.3 . 0.0857(30) . . .
4088.7 . 0.0968(30) . . .
4092.1 . 0.0911(30) . . .
4095.5 . 0.0862(30) . . .
4098.9 . 0.0937(30) . . .
4102.3 . 0.0935(30) . . .
4105.7 . 0.0908(30) . . .
4109.1 . 0.0952(30) . . .
4112.5 . 0.0915(30) . . .
4115.9 . 0.0900(30) . . .
4119.4 . 0.0974(30) . . .
4122.8 . 0.0953(30) . . .
4126.2 . 0.0935(30) . . .
4129.6 . 0.0901(30) . . .
4133.1 . 0.0877(30) . . .
4136.5 . 0.0885(30) . . .
4139.9 . 0.0941(30) . . .
4143.4 . 0.0881(29) . . .
4146.8 . 0.0892(30) . . .
4150.3 . 0.0891(29) . . .
4153.7 . 0.0837(30) . . .
4157.2 . 0.0864(30) . . .
4160.6 . 0.0872(30) . . .
4164.1 . 0.0870(30) . . .
4167.5 . 0.0906(30) . . .
4171.0 . 0.0837(30) . . .
4174.5 . 0.0869(30) . . .
4177.9 . 0.0849(30) . . .
4181.4 . 0.0931(30) . . .
4184.9 . 0.0887(30) . . .
4188.4 . 0.0887(30) . . .
4191.8 . 0.0858(30) . . .
4195.3 . 0.0867(30) . . .
4198.8 . 0.0845(30) . . .
4202.3 . 0.0908(30) . . .
4205.8 . 0.0875(30) . . .
4209.3 . 0.0955(30) . . .
4212.8 . 0.0922(30) . . .
4216.3 . 0.0925(30) . . .
4219.8 . 0.0940(30) . . .
4223.3 . 0.0938(30) . . .
4226.8 . 0.0921(30) . . .
4230.3 . 0.0932(30) . . .
4233.8 . 0.0970(30) . . .
4237.3 . 0.0925(30) . . .
4240.9 . 0.0911(30) . . .
4244.4 . 0.0935(30) . . .
4247.9 . 0.0902(30) . . .
4251.4 . 0.0968(30) . . .
4255.0 . 0.0941(30) . . .
4258.5 . 0.0904(30) . . .
4262.1 . 0.0897(30) . . .
4265.6 . 0.0934(30) . . .
4269.1 . 0.0895(30) . . .
4272.7 . 0.0910(30) . . .
4276.2 . 0.1012(30) . . .
4279.8 . 0.0984(30) . . .
4283.3 . 0.1017(30) . . .
4286.9 . 0.0980(30) . . .
4290.5 . 0.1024(30) . . .
4294.0 . 0.0965(30) . . .
4297.6 . 0.1006(30) . . .
4301.2 . 0.1065(30) . . .
4304.7 . 0.1110(29) . . .
4308.3 . 0.1003(30) . . .
4311.9 . 0.1026(30) . . .
4315.5 . 0.0965(30) . . .
4319.1 . 0.1000(30) . . .
4322.7 . 0.0975(30) . . .
4326.3 . 0.0924(30) . . .
4329.8 . 0.0938(30) . . .
4333.4 . 0.0930(30) . . .
4337.0 . 0.0988(30) . . .
4340.6 . 0.0977(30) . . .
4344.3 . 0.0954(30) . . .
4347.9 . 0.0958(30) . . .
4351.5 . 0.1045(29) . . .
4355.1 . 0.0914(30) . . .
4358.7 . 0.1008(30) . . .
4362.3 . 0.1014(30) . . .
4366.0 . 0.0996(30) . . .
4369.6 . 0.1001(30) . . .
4373.2 . 0.0908(30) . . .
4376.9 . 0.0998(30) . . .
4380.5 . 0.0947(30) . . .
4384.1 . 0.0903(30) . . .
4387.8 . 0.0936(30) . . .
4391.4 . 0.0969(30) . . .
4395.1 . 0.1000(30) . . .
4398.7 . 0.0971(30) . . .
4402.4 . 0.0958(30) . . .
4406.0 . 0.1010(30) . . .
4409.7 . 0.0996(30) . . .
4413.4 . 0.0946(30) . . .
4417.0 . 0.0992(30) . . .
4420.7 . 0.0975(30) . . .
4424.4 . 0.0963(30) . . .
4428.0 . 0.1013(29) . . .
4431.7 . 0.0951(30) . . .
4435.4 . 0.0955(30) . . .
4439.1 . 0.0888(30) . . .
4442.8 . 0.0972(30) . . .
4446.5 . 0.0947(30) . . .
4450.2 . 0.0953(30) . . .
4453.9 . 0.0934(30) . . .
4457.6 . 0.0939(30) . . .
4461.3 . 0.0955(30) . . .
4465.0 . 0.0930(30) . . .
4468.7 . 0.0937(30) . . .
4472.4 . 0.0946(30) . . .
4476.1 . 0.0925(30) . . .
4479.8 . 0.0964(30) . . .
4483.6 . 0.0916(30) . . .
4487.3 . 0.0884(30) . . .
4491.0 . 0.0981(29) . . .
4494.7 . 0.0973(29) . . .
4498.5 . 0.0945(29) . . .
4502.2 . 0.0923(29) . . .
4506.0 . 0.0868(30) . . .
4509.7 . 0.0919(30) . . .
4513.4 . 0.0969(29) . . .
4517.2 . 0.0903(30) . . .
4520.9 . 0.0897(30) . . .
4524.7 . 0.0884(30) . . .
4528.5 . 0.0871(30) . . .
4532.2 . 0.0888(29) . . .
4536.0 . 0.0873(29) . . .
4539.8 . 0.0931(29) . . .
4543.5 . 0.0937(29) . . .
4547.3 . 0.0861(30) . . .
4551.1 . 0.0877(30) . . .
4554.9 . 0.0911(30) . . .
4558.7 . 0.0949(29) . . .
4562.4 . 0.0923(30) . . .
4566.2 . 0.0906(30) . . .
4570.0 . 0.0962(29) . . .
4573.8 . 0.0976(29) . . .
4577.6 . 0.0943(29) . . .
4581.4 . 0.0936(29) . . .
4585.2 . 0.0891(30) . . .
4589.0 . 0.0954(29) . . .
4592.9 . 0.0958(29) . . .
4596.7 . 0.0949(29) . . .
4600.5 . 0.0952(29) . . .
4604.3 . 0.0954(29) . . .
4608.1 . 0.0939(29) . . .
4612.0 . 0.0929(30) . . .
4615.8 . 0.0914(29) . . .
4619.6 . 0.0954(29) . . .
4623.5 . 0.0941(29) . . .
4627.3 . 0.0925(29) . . .
4631.2 . 0.0894(29) . . .
4635.0 . 0.0886(29) . . .
4638.9 . 0.0866(29) . . .
4642.7 . 0.0925(29) . . .
4646.6 . 0.0919(29) . . .
4650.4 . 0.0918(29) . . .
4654.3 . 0.0875(29) . . .
4658.2 . 0.0866(29) . . .
4662.0 . 0.0877(29) . . .
4665.9 . 0.0880(29) . . .
4669.8 . 0.0899(29) . . .
4673.7 . 0.0928(29) . . .
4677.6 . 0.0965(29) . . .
4681.4 . 0.0950(29) . . .
4685.3 . 0.0977(29) . . .
4689.2 . 0.0926(29) . . .
4693.1 . 0.0909(29) . . .
4697.0 . 0.0935(29) . . .
4700.9 . 0.0924(29) . . .
4704.8 . 0.0873(29) . . .
4708.7 . 0.0895(29) . . .
4712.6 . 0.0913(29) . . .
4716.6 . 0.0907(29) . . .
4720.5 . 0.0830(29) . . .
4724.4 . 0.0902(29) . . .
4728.3 . 0.0877(29) . . .
4732.3 . 0.0916(29) . . .
4736.2 . 0.0835(29) . . .
4740.1 . 0.0853(29) . . .
4744.1 . 0.0889(29) . . .
4748.0 . 0.0873(29) . . .
4751.9 . 0.0878(29) . . .
4755.9 . 0.0937(29) . . .
4759.9 . 0.0949(29) . . .
4763.8 . 0.0954(29) . . .
4767.8 . 0.0987(29) . . .
4771.7 . 0.0907(29) . . .
4775.7 . 0.0977(29) . . .
4779.7 . 0.0906(30) . . .
4783.6 . 0.0940(29) . . .
4787.6 . 0.0907(29) . . .
4791.6 . 0.0870(29) . . .
4795.6 . 0.0877(29) . . .
4799.5 . 0.0884(29) . . .
4803.5 . 0.0906(30) . . .
4807.5 . 0.0861(30) . . .
4811.5 . 0.0978(29) . . .
4815.5 . 0.0974(29) . . .
4819.5 . 0.0977(30) . . .
4823.5 . 0.1018(29) . . .
4827.5 . 0.0922(29) . . .
4831.5 . 0.0908(29) . . .
4835.6 . 0.0857(29) . . .
4839.6 . 0.0902(30) . . .
4843.6 . 0.0915(30) . . .
4847.6 . 0.0941(29) . . .
4851.7 . 0.0974(29) . . .
4855.7 . 0.0945(29) . . .
4859.7 . 0.0953(30) . . .
4863.8 . 0.0946(30) . . .
4867.8 . 0.0934(30) . . .
4871.8 . 0.0908(30) . . .
4875.9 . 0.0894(30) . . .
4879.9 . 0.0887(30) . . .
4884.0 . 0.0903(30) . . .
4888.1 . 0.0880(30) . . .
4892.1 . 0.0921(30) . . .
4896.2 . 0.0963(30) . . .
4900.2 . 0.0975(30) . . .
4904.3 . 0.0943(30) . . .
4908.4 . 0.0953(30) . . .
4912.5 . 0.1008(30) . . .
4916.6 . 0.0990(30) . . .
4920.6 . 0.0983(30) . . .
4924.7 . 0.0966(30) . . .
4928.8 . 0.0971(30) . . .
4932.9 . 0.0891(31) . . .
4937.0 . 0.0997(30) . . .
4941.1 . 0.0996(30) . . .
4945.2 . 0.1046(30) . . .
4949.3 . 0.1032(30) . . .
4953.4 . 0.0974(30) . . .
4957.6 . 0.1019(30) . . .
4961.7 . 0.0927(30) . . .
4965.8 . 0.0896(30) . . .
4969.9 . 0.1001(30) . . .
4974.1 . 0.0986(30) . . .
4978.2 . 0.1032(31) . . .
4982.3 . 0.0952(31) . . .
4986.5 . 0.0998(31) . . .
4990.6 . 0.1078(31) . . .
4994.8 . 0.1089(31) . . .
4998.9 . 0.1078(31) . . .
5003.1 . 0.1009(31) . . .
5007.2 . 0.0966(31) . . .
5011.4 . 0.1000(31) . . .
5015.5 . 0.1027(31) . . .
5019.7 . 0.0992(31) . . .
5023.9 . 0.1016(31) . . .
5028.1 . 0.1026(31) . . .
5032.2 . 0.0994(31) . . .
5036.4 . 0.0975(31) . . .
5040.6 . 0.1022(31) . . .
5044.8 . 0.1041(31) . . .
5049.0 . 0.1031(31) . . .
5053.2 . 0.1039(31) . . .
5057.4 . 0.1055(31) . . .
5061.6 . 0.1065(31) . . .
5065.8 . 0.1003(32) . . .
5070.0 . 0.1053(31) . . .
5074.2 . 0.1072(31) . . .
5078.4 . 0.0989(32) . . .
5082.6 . 0.0967(32) . . .
5086.9 . 0.0976(32) . . .
5091.1 . 0.1021(31) . . .
5095.3 . 0.1009(32) . . .
5099.6 . 0.1025(32) . . .
5103.8 . 0.1058(32) . . .
5108.0 . 0.1070(32) . . .
5112.3 . 0.1057(32) . . .
5116.5 . 0.1099(32) . . .
5120.8 . 0.1102(32) . . .
5125.0 . 0.1145(32) . . .
5129.3 . 0.1140(32) . . .
5133.5 . 0.1154(32) . . .
5137.8 . 0.1163(32) . . .
5142.1 . 0.1186(32) . . .
5146.4 . 0.1065(32) . . .
5150.6 . 0.1146(32) . . .
5154.9 . 0.1190(32) . . .
5159.2 . 0.1154(32) . . .
5163.5 . 0.1115(32) . . .
5167.8 . 0.1126(32) . . .
5172.1 . 0.1088(32) . . .
5176.4 . 0.1038(33) . . .
5180.7 . 0.1114(32) . . .
5185.0 . 0.1201(32) . . .
5189.3 . 0.1169(33) . . .
5193.6 . 0.1163(32) . . .
5197.9 . 0.1202(32) . . .
5202.2 . 0.1135(32) . . .
5206.5 . 0.1176(32) . . .
5210.9 . 0.1164(32) . . .
5215.2 . 0.1059(32) . . .
5219.5 . 0.1070(32) . . .
5223.9 . 0.1157(32) . . .
5228.2 . 0.1060(32) . . .
5232.6 . 0.1059(33) . . .
5236.9 . 0.1129(32) . . .
5241.3 . 0.1141(32) . . .
5245.6 . 0.1108(32) . . .
5250.0 . 0.1156(32) . . .
5254.3 . 0.1098(32) . . .
5258.7 . 0.1106(33) . . .
5263.1 . 0.1212(33) . . .
5267.4 . 0.1175(33) . . .
5271.8 . 0.1182(32) . . .
5276.2 . 0.1154(32) . . .
5280.6 . 0.1160(33) . . .
5285.0 . 0.1157(33) . . .
5289.4 . 0.1109(33) . . .
5293.8 . 0.1190(33) . . .
5298.2 . 0.1195(33) . . .
5302.6 . 0.1245(33) . . .
5307.0 . 0.1241(33) . . .
5311.4 . 0.1285(33) . . .
5315.8 . 0.1308(33) . . .
5320.2 . 0.1191(33) . . .
5324.6 . 0.1204(32) . . .
5329.0 . 0.1156(32) . . .
5333.5 . 0.1136(32) . . .
5337.9 . 0.1190(33) . . .
5342.3 . 0.1234(32) . . .
5346.8 . 0.1146(33) . . .
5351.2 . 0.1145(32) . . .
5355.7 . 0.1172(32) . . .
5360.1 . 0.1127(32) . . .
5364.6 . 0.1135(33) . . .
5369.0 . 0.1137(32) . . .
5373.5 . 0.1126(32) . . .
5378.0 . 0.1126(33) . . .
5382.4 . 0.1145(32) . . .
5386.9 . 0.1118(32) . . .
5391.4 . 0.1177(32) . . .
5395.9 . 0.1203(32) . . .
5400.3 . 0.1248(32) . . .
5404.8 . 0.1236(32) . . .
5409.3 . 0.1165(32) . . .
5413.8 . 0.1148(32) . . .
5418.3 . 0.1103(32) . . .
5422.8 . 0.1005(32) . . .
5427.3 . 0.1054(31) . . .
5431.8 . 0.0972(32) . . .
5436.3 . 0.1006(32) . . .
5440.9 . 0.1123(31) . . .
5445.4 . 0.1063(32) . . .
5449.9 . 0.1022(32) . . .
5454.4 . 0.1040(32) . . .
5459.0 . 0.1030(32) . . .
5463.5 . 0.1120(31) . . .
5468.0 . 0.1002(32) . . .
5472.6 . 0.1003(31) . . .
5477.1 . 0.1037(31) . . .
5481.7 . 0.0997(31) . . .
5486.2 . 0.1064(31) . . .
5490.8 . 0.1025(31) . . .
5495.4 . 0.1066(31) . . .
5499.9 . 0.1096(31) . . .
5504.5 . 0.1167(31) . . .
5509.1 . 0.1120(31) . . .
5513.6 . 0.1084(31) . . .
5518.2 . 0.1117(31) . . .
5522.8 . 0.1095(31) . . .
5527.4 . 0.1086(31) . . .
5532.0 . 0.1084(31) . . .
5536.6 . 0.1143(31) . . .
5541.2 . 0.1137(31) . . .
5545.8 . 0.1175(31) . . .
5550.4 . 0.1222(31) . . .
5555.0 . 0.1205(30) . . .
5559.6 . 0.1150(30) . . .
5564.2 . 0.1160(30) . . .
5568.9 . 0.1077(30) . . .
5573.5 . 0.1085(30) . . .
5578.1 . 0.1108(30) . . .
5582.8 . 0.1179(30) . . .
5587.4 . 0.1205(30) . . .
5592.0 . 0.1182(30) . . .
5596.7 . 0.1099(30) . . .
5601.3 . 0.1053(30) . . .
5606.0 . 0.1006(30) . . .
5610.7 . 0.1048(30) . . .
5615.3 . 0.1013(30) . . .
5620.0 . 0.0955(30) . . .
5624.7 . 0.0975(30) . . .
5629.3 . 0.0928(30) . . .
5634.0 . 0.0974(29) . . .
5638.7 . 0.1000(29) . . .
5643.4 . 0.0992(29) . . .
5648.1 . 0.0977(29) . . .
5652.8 . 0.0893(29) . . .
5657.4 . 0.0908(29) . . .
5662.1 . 0.0884(29) . . .
5666.9 . 0.0861(29) . . .
5671.6 . 0.0891(29) . . .
5676.3 . 0.0907(29) . . .
5681.0 . 0.0860(29) . . .
5685.7 . 0.0937(29) . . .
5690.4 . 0.0944(29) . . .
5695.2 . 0.0878(29) . . .
5699.9 . 0.0933(29) . . .
5704.6 . 0.0952(29) . . .
5709.4 . 0.0956(29) . . .
5714.1 . 0.0869(29) . . .
5718.9 . 0.0908(29) . . .
5723.6 . 0.0903(29) . . .
5728.4 . 0.0859(29) . . .
5733.1 . 0.0812(29) . . .
5737.9 . 0.0913(28) . . .
5742.7 . 0.0976(29) . . .
5747.4 . 0.1007(29) . . .
5752.2 . 0.1103(29) . . .
5757.0 . 0.1101(29) . . .
5761.8 . 0.1002(29) . . .
5766.6 . 0.0956(28) . . .
5771.4 . 0.0898(29) . . .
5776.1 . 0.0916(28) . . .
5780.9 . 0.0897(29) . . .
5785.8 . 0.0984(28) . . .
5790.6 . 0.0968(28) . . .
5795.4 . 0.0930(28) . . .
5800.2 . 0.0975(28) . . .
5805.0 . 0.0976(28) . . .
5809.8 . 0.0915(29) . . .
5814.7 . 0.0952(28) . . .
5819.5 . 0.1020(28) . . .
5824.3 . 0.0903(29) . . .
5829.2 . 0.0925(28) . . .
5834.0 . 0.0924(28) . . .
5838.9 . 0.0888(28) . . .
5843.7 . 0.0931(28) . . .
5848.6 . 0.0916(28) . . .
5853.4 . 0.0859(28) . . .
5858.3 . 0.0862(28) . . .
5863.2 . 0.0880(28) . . .
5868.0 . 0.0805(28) . . .
5872.9 . 0.0852(28) . . .
5877.8 . 0.0800(28) . . .
5882.7 . 0.0862(28) . . .
5887.5 . 0.0852(28) . . .
5892.4 . 0.0843(28) . . .
5897.3 . 0.0851(28) . . .
5902.2 . 0.0842(28) . . .
5907.1 . 0.0848(28) . . .
5912.0 . 0.0831(28) . . .
5917.0 . 0.0854(28) . . .
5921.9 . 0.0901(28) . . .
5926.8 . 0.0872(28) . . .
5931.7 0.56121 0.0925(28) 127174. 0.07086 0.08857
5936.7 0.56168 0.0886(28) 126553. 0.07116 0.08868
5941.6 0.56215 0.0860(28) 127435. 0.07146 0.08695
5946.5 0.56261 0.0902(28) 130077. 0.07176 0.08483
5951.5 0.56308 0.0833(28) 124335. 0.07205 0.08387
5956.4 0.56355 0.0872(28) 128344. 0.07234 0.08427
5961.4 0.56402 0.0892(28) 127733. 0.07262 0.08512
5966.3 0.56449 0.0870(28) 127033. 0.07289 0.08570
5971.3 0.56496 0.0902(28) 127523. 0.07316 0.08634
5976.2 0.56543 0.0881(28) 125424. 0.07343 0.08785
5981.2 0.56590 0.0925(28) 127970. 0.07369 0.09047
5986.2 0.56637 0.0924(28) 125152. 0.07394 0.09320
5991.1 0.56684 0.0987(28) 126807. 0.07419 0.09422
5996.1 0.56731 0.0933(28) 126851. 0.07444 0.09284
6001.1 0.56778 0.0889(28) 125088. 0.07468 0.09024
6006.1 0.56825 0.0870(28) 126735. 0.07491 0.08802
6011.1 0.56872 0.0877(28) 126589. 0.07514 0.08701
6016.1 0.56920 0.0897(28) 126856. 0.07537 0.08740
6021.1 0.56967 0.0888(28) 126534. 0.07559 0.08912
6026.1 0.57014 0.0938(28) 127022. 0.07581 0.09174
6031.1 0.57062 0.0937(28) 126608. 0.07602 0.09443
6036.1 0.57109 0.0943(28) 125599. 0.07623 0.09652
6041.1 0.57156 0.1033(28) 127560. 0.07643 0.09793
6046.1 0.57204 0.1035(28) 128978. 0.07663 0.09886
6051.1 0.57252 0.0984(28) 125128. 0.07683 0.09923
6056.2 0.57299 0.1000(28) 125764. 0.07702 0.09855
6061.2 0.57347 0.0947(28) 124515. 0.07721 0.09683
6066.2 0.57394 0.0979(28) 127088. 0.07739 0.09503
6071.3 0.57442 0.0935(28) 125835. 0.07757 0.09481
6076.3 0.57490 0.0923(28) 124325. 0.07775 0.09746
6081.4 0.57538 0.0944(28) 123289. 0.07792 0.10191
6086.4 0.57585 0.0954(28) 123448. 0.07809 0.10462
6091.5 0.57633 0.0994(28) 124744. 0.07825 0.10321
6096.6 0.57681 0.0932(28) 126249. 0.07841 0.09896
6101.6 0.57729 0.0893(28) 124323. 0.07857 0.09479
6106.7 0.57777 0.0966(28) 125162. 0.07872 0.09228
6111.8 0.57825 0.0958(28) 127555. 0.07887 0.09130
6116.8 0.57873 0.0921(28) 126241. 0.07901 0.09135
6121.9 0.57921 0.0920(28) 125492. 0.07916 0.09232
6127.0 0.57969 0.0936(28) 124385. 0.07929 0.09427
6132.1 0.58018 0.0957(28) 126080. 0.07943 0.09665
6137.2 0.58066 0.0968(28) 124197. 0.07956 0.09805
6142.3 0.58114 0.0964(28) 124896. 0.07969 0.09781
6147.4 0.58162 0.0930(28) 125980. 0.07981 0.09748
6152.5 0.58211 0.0997(28) 124480. 0.07994 0.09951
6157.6 0.58259 0.1020(29) 122871. 0.08005 0.10462
6162.7 0.58308 0.1120(28) 123682. 0.08017 0.11014
6167.9 0.58356 0.1061(29) 120636. 0.08028 0.11223
6173.0 0.58404 0.1033(29) 119887. 0.08039 0.10968
6178.1 0.58453 0.1034(29) 122969. 0.08050 0.10432
6183.2 0.58502 0.0985(29) 120213. 0.08060 0.09857
6188.4 0.58550 0.0958(28) 124324. 0.08070 0.09426
6193.5 0.58599 0.0906(28) 123397. 0.08080 0.09267
6198.7 0.58648 0.0929(28) 124380. 0.08090 0.09440
6203.8 0.58696 0.1054(28) 126058. 0.08099 0.09871
6209.0 0.58745 0.0986(29) 119953. 0.08108 0.10371
6214.1 0.58794 0.1063(29) 121186. 0.08116 0.10734
6219.3 0.58843 0.1073(29) 120275. 0.08125 0.10848
6224.5 0.58892 0.1041(29) 120561. 0.08133 0.10729
6229.6 0.58941 0.1037(29) 121964. 0.08141 0.10478
6234.8 0.58990 0.1008(29) 121260. 0.08149 0.10274
6240.0 0.59039 0.1013(29) 119553. 0.08156 0.10223
6245.2 0.59088 0.0955(29) 119296. 0.08163 0.10289
6250.4 0.59137 0.1040(29) 119080. 0.08170 0.10389
6255.6 0.59186 0.1085(29) 122150. 0.08177 0.10532
6260.8 0.59235 0.1036(29) 118173. 0.08183 0.10828
6266.0 0.59284 0.1140(29) 118574. 0.08189 0.11332
6271.2 0.59334 0.1194(29) 117450. 0.08195 0.11955
6276.4 0.59383 0.1240(29) 115627. 0.08201 0.12532
6281.6 0.59432 0.1300(29) 118042. 0.08207 0.12928
6286.8 0.59482 0.1258(30) 114130. 0.08212 0.13142
6292.0 0.59531 0.1275(30) 114094. 0.08217 0.13140
6297.3 0.59581 0.1229(30) 113918. 0.08222 0.12768
6302.5 0.59630 0.1234(29) 117006. 0.08227 0.12039
6307.7 0.59680 0.1122(29) 117240. 0.08232 0.11275
6313.0 0.59729 0.1084(29) 116333. 0.08236 0.10753
6318.2 0.59779 0.1040(29) 116331. 0.08240 0.10447
6323.5 0.59829 0.1057(29) 120387. 0.08245 0.10198
6328.7 0.59878 0.1019(29) 119153. 0.08248 0.09958
6334.0 0.59928 0.0935(29) 117371. 0.08252 0.09809
6339.2 0.59978 0.0951(29) 117986. 0.08256 0.09831
6344.5 0.60028 0.0995(29) 120366. 0.08259 0.09937
6349.8 0.60078 0.0978(29) 115564. 0.08262 0.09970
6355.1 0.60128 0.0983(29) 117268. 0.08265 0.09846
6360.3 0.60178 0.0960(29) 117028. 0.08268 0.09636
6365.6 0.60228 0.0964(29) 119148. 0.08271 0.09507
6370.9 0.60278 0.0930(30) 114093. 0.08273 0.09617
6376.2 0.60328 0.0954(29) 116285. 0.08276 0.09973
6381.5 0.60378 0.1063(29) 116129. 0.08278 0.10442
6386.8 0.60428 0.1121(29) 117291. 0.08280 0.10886
6392.1 0.60478 0.1062(30) 112958. 0.08282 0.11278
6397.4 0.60529 0.1189(29) 116303. 0.08284 0.11640
6402.7 0.60579 0.1204(29) 115131. 0.08286 0.11825
6408.1 0.60629 0.1148(30) 114068. 0.08288 0.11622
6413.4 0.60680 0.1054(30) 113298. 0.08289 0.11103
6418.7 0.60730 0.1055(29) 116021. 0.08291 0.10572
6424.0 0.60780 0.1061(29) 115766. 0.08292 0.10211
6429.4 0.60831 0.1049(29) 116421. 0.08293 0.10040
6434.7 0.60882 0.1047(29) 115996. 0.08294 0.10031
6440.1 0.60932 0.1009(30) 113042. 0.08295 0.10166
6445.4 0.60983 0.1021(30) 113075. 0.08296 0.10449
6450.8 0.61033 0.1161(30) 113448. 0.08297 0.10872
6456.1 0.61084 0.1159(30) 111644. 0.08298 0.11336
6461.5 0.61135 0.1207(30) 111409. 0.08298 0.11721
6466.9 0.61186 0.1191(30) 108613. 0.08299 0.12040
6472.2 0.61237 0.1309(30) 111294. 0.08299 0.12463
6477.6 0.61287 0.1338(30) 111889. 0.08300 0.13155
6483.0 0.61338 0.1412(30) 109514. 0.08300 0.13890
6488.4 0.61389 0.1422(30) 107872. 0.08300 0.14078
6493.8 0.61440 0.1327(30) 108986. 0.08300 0.13442
6499.2 0.61491 0.1266(30) 110527. 0.08300 0.12419
6504.6 0.61543 0.1179(30) 110876. 0.08300 0.11655
6510.0 0.61594 0.1140(30) 109699. 0.08300 0.11385
6515.4 0.61645 0.1129(30) 108378. 0.08300 0.11465
6520.8 0.61696 0.1232(30) 112321. 0.08300 0.11764
6526.2 0.61747 0.1267(30) 111535. 0.08299 0.12236
6531.7 0.61799 0.1321(30) 109496. 0.08299 0.12648
6537.1 0.61850 0.1277(30) 109070. 0.08299 0.12669
6542.5 0.61901 0.1220(30) 107756. 0.08298 0.12340
6547.9 0.61953 0.1198(30) 109382. 0.08298 0.11955
6553.4 0.62004 0.1209(30) 111567. 0.08297 0.11587
6558.8 0.62056 0.1134(30) 111086. 0.08297 0.11199
6564.3 0.62108 0.1069(30) 110179. 0.08296 0.10876
6569.7 0.62159 0.1072(30) 111912. 0.08295 0.10647
6575.2 0.62211 0.1025(30) 110773. 0.08295 0.10440
6580.7 0.62263 0.1006(30) 111251. 0.08294 0.10245
6586.1 0.62314 0.1025(30) 110882. 0.08293 0.10070
6591.6 0.62366 0.1019(30) 111607. 0.08293 0.09944
6597.1 0.62418 0.0999(30) 112248. 0.08292 0.09986
6602.6 0.62470 0.1068(30) 112265. 0.08291 0.10201
6608.0 0.62522 0.1058(30) 110783. 0.08290 0.10407
6613.5 0.62574 0.1052(30) 109408. 0.08289 0.10444
6619.0 0.62626 0.1115(30) 112137. 0.08288 0.10377
6624.5 0.62678 0.1034(30) 110388. 0.08288 0.10489
6630.0 0.62730 0.1113(30) 109936. 0.08287 0.10979
6635.5 0.62782 0.1248(30) 110260. 0.08286 0.11622
6641.1 0.62834 0.1199(30) 108082. 0.08285 0.11886
6646.6 0.62886 0.1227(30) 109923. 0.08284 0.11522
6652.1 0.62939 0.1058(30) 109022. 0.08283 0.10819
6657.6 0.62991 0.1031(30) 111946. 0.08282 0.10276
6663.2 0.63043 0.0996(30) 110627. 0.08281 0.10173
6668.7 0.63096 0.1050(30) 110931. 0.08280 0.10413
6674.2 0.63148 0.1105(30) 111125. 0.08279 0.10624
6679.8 0.63201 0.1023(30) 108402. 0.08278 0.10528
6685.3 0.63253 0.1039(30) 111848. 0.08277 0.10188
6690.9 0.63306 0.0981(30) 112830. 0.08277 0.09790
6696.4 0.63358 0.0978(30) 112231. 0.08276 0.09417
6702.0 0.63411 0.0991(30) 114325. 0.08275 0.09150
6707.6 0.63464 0.0936(30) 113017. 0.08274 0.09088
6713.1 0.63516 0.0924(30) 111325. 0.08273 0.09335
6718.7 0.63569 0.0990(30) 112346. 0.08272 0.09923
6724.3 0.63622 0.1078(30) 111396. 0.08271 0.10663
6729.9 0.63675 0.1142(30) 109392. 0.08271 0.11218
6735.5 0.63728 0.1111(30) 110298. 0.08270 0.11532
6741.1 0.63781 0.1114(30) 109115. 0.08269 0.11862
6746.7 0.63834 0.1144(30) 109237. 0.08268 0.12320
6752.3 0.63887 0.1199(30) 107788. 0.08268 0.12685
6757.9 0.63940 0.1247(31) 106567. 0.08267 0.12709
6763.5 0.63993 0.1218(30) 107608. 0.08266 0.12329
6769.1 0.64046 0.1151(31) 106913. 0.08266 0.11610
6774.8 0.64099 0.1071(30) 110331. 0.08265 0.10759
6780.4 0.64153 0.0984(30) 109154. 0.08265 0.10061
6786.0 0.64206 0.0980(30) 112275. 0.08264 0.09660
6791.7 0.64259 0.0974(30) 112321. 0.08264 0.09537
6797.3 0.64313 0.0871(30) 109355. 0.08263 0.09582
6803.0 0.64366 0.0970(30) 110790. 0.08263 0.09699
6808.6 0.64420 0.0999(30) 111559. 0.08262 0.09876
6814.3 0.64473 0.0992(30) 110085. 0.08262 0.10179
6819.9 0.64527 0.1004(30) 109929. 0.08262 0.10578
6825.6 0.64580 0.1077(30) 109905. 0.08261 0.10861
6831.3 0.64634 0.1114(30) 109475. 0.08261 0.10811
6836.9 0.64688 0.1051(30) 109829. 0.08261 0.10465
6842.6 0.64742 0.1000(30) 110210. 0.08261 0.10097
6848.3 0.64795 0.0983(30) 109232. 0.08261 0.10011
6854.0 0.64849 0.1064(30) 111580. 0.08261 0.10362
6859.7 0.64903 0.1075(30) 108152. 0.08261 0.11008
6865.4 0.64957 0.1123(31) 107315. 0.08261 0.11578
6871.1 0.65011 0.1118(30) 108378. 0.08261 0.11762
6876.8 0.65065 0.1189(30) 109348. 0.08261 0.11504
6882.5 0.65119 0.1052(30) 108388. 0.08261 0.10954
6888.2 0.65173 0.1078(30) 111173. 0.08262 0.10326
6894.0 0.65227 0.1015(30) 111224. 0.08262 0.09842
6899.7 0.65282 0.0983(30) 111917. 0.08262 0.09566
6905.4 0.65336 0.0975(30) 112147. 0.08263 0.09452
6911.2 0.65390 0.0933(30) 111247. 0.08263 0.09484
6916.9 0.65445 0.1032(30) 112826. 0.08264 0.09625
6922.7 0.65499 0.1028(30) 111284. 0.08264 0.09789
6928.4 0.65553 0.1037(30) 112102. 0.08265 0.09904
6934.2 0.65608 0.1035(30) 112159. 0.08266 0.10027
6939.9 0.65662 0.1056(30) 109985. 0.08267 0.10201
6945.7 0.65717 0.1059(30) 110056. 0.08267 0.10422
6951.5 0.65772 0.1057(30) 108479. 0.08268 0.10821
6957.2 0.65826 0.1208(30) 110682. 0.08269 0.11631
6963.0 0.65881 0.1235(31) 105921. 0.08270 0.12824
6968.8 0.65936 0.1459(30) 108279. 0.08271 0.13917
6974.6 0.65990 0.1423(31) 106269. 0.08272 0.14334
6980.4 0.66045 0.1373(31) 106078. 0.08274 0.13901
6986.2 0.66100 0.1322(31) 107226. 0.08275 0.12941
6992.0 0.66155 0.1144(30) 108652. 0.08276 0.12006
6997.8 0.66210 0.1097(30) 108260. 0.08277 0.11390
7003.6 0.66265 0.1028(30) 107550. 0.08279 0.10959
7009.4 0.66320 0.1080(30) 110063. 0.08280 0.10506
7015.3 0.66375 0.0972(30) 110857. 0.08282 0.10116
7021.1 0.66431 0.1034(30) 110684. 0.08284 0.09997
7026.9 0.66486 0.1030(30) 111313. 0.08285 0.10096
7032.8 0.66541 0.1064(30) 111804. 0.08287 0.10221
7038.6 0.66596 0.1049(30) 111416. 0.08289 0.10202
7044.5 0.66652 0.1000(30) 110838. 0.08291 0.10113
7050.3 0.66707 0.1028(30) 111124. 0.08293 0.10102
7056.2 0.66762 0.1041(30) 111307. 0.08295 0.10300
7062.0 0.66818 0.1099(30) 111152. 0.08297 0.10647
7067.9 0.66873 0.1073(31) 107212. 0.08299 0.10862
7073.8 0.66929 0.1102(30) 110286. 0.08301 0.10696
7079.6 0.66985 0.1021(30) 110033. 0.08303 0.10236
7085.5 0.67040 0.0940(30) 109311. 0.08305 0.09775
7091.4 0.67096 0.1004(30) 113049. 0.08308 0.09574
7097.3 0.67152 0.0990(30) 110781. 0.08310 0.09748
7103.2 0.67208 0.1052(30) 110735. 0.08313 0.10294
7109.1 0.67263 0.1144(30) 108890. 0.08315 0.10975
7115.0 0.67319 0.1202(30) 109271. 0.08318 0.11406
7120.9 0.67375 0.1139(30) 107866. 0.08321 0.11393
7126.8 0.67431 0.1132(30) 109787. 0.08323 0.11185
7132.8 0.67487 0.1123(30) 109031. 0.08326 0.11066
7138.7 0.67543 0.1109(30) 109921. 0.08329 0.11022
7144.6 0.67600 0.1089(30) 109298. 0.08332 0.10855
7150.6 0.67656 0.1076(30) 110279. 0.08335 0.10592
7156.5 0.67712 0.1064(30) 109532. 0.08338 0.10497
7162.5 0.67768 0.1108(30) 111392. 0.08341 0.10812
7168.4 0.67825 0.1197(30) 111491. 0.08344 0.11510
7174.4 0.67881 0.1240(30) 108743. 0.08347 0.12120
7180.3 0.67937 0.1216(31) 107069. 0.08351 0.12303
7186.3 0.67994 0.1220(30) 109389. 0.08354 0.12273
7192.3 0.68050 0.1255(30) 109921. 0.08357 0.12349
7198.2 0.68107 0.1226(30) 108230. 0.08361 0.12311
7204.2 0.68163 0.1213(30) 110729. 0.08364 0.11733
7210.2 0.68220 0.1107(30) 111537. 0.08368 0.10766
7216.2 0.68277 0.1002(30) 110431. 0.08371 0.09948
7222.2 0.68334 0.0984(30) 111883. 0.08375 0.09717
7228.2 0.68390 0.1092(30) 112205. 0.08379 0.10334
7234.2 0.68447 0.1145(30) 108598. 0.08383 0.11937
7240.2 0.68504 0.1392(31) 107234. 0.08387 0.14060
7246.2 0.68561 0.1606(31) 105192. 0.08390 0.15879
7252.2 0.68618 0.1683(31) 103897. 0.08394 0.17057
7258.3 0.68675 0.1796(31) 105243. 0.08398 0.18279
7264.3 0.68732 0.1978(31) 102343. 0.08402 0.20100
7270.3 0.68789 0.2160(32) 100157. 0.08406 0.21764
7276.4 0.68846 0.2178(32) 100465. 0.08411 0.21638
7282.4 0.68904 0.1910(31) 102121. 0.08415 0.19220
7288.5 0.68961 0.1520(31) 105319. 0.08419 0.15864
7294.5 0.69018 0.1287(31) 106368. 0.08423 0.13256
7300.6 0.69076 0.1180(30) 108866. 0.08428 0.12040
7306.7 0.69133 0.1177(30) 109836. 0.08432 0.11917
7312.7 0.69190 0.1262(30) 110771. 0.08437 0.12155
7318.8 0.69248 0.1244(30) 110142. 0.08441 0.12195
7324.9 0.69305 0.1248(30) 111458. 0.08446 0.12108
7331.0 0.69363 0.1224(30) 108513. 0.08450 0.12173
7337.1 0.69421 0.1259(30) 110229. 0.08455 0.12436
7343.2 0.69478 0.1310(30) 112443. 0.08459 0.12498
7349.3 0.69536 0.1273(30) 110551. 0.08464 0.12177
7355.4 0.69594 0.1167(30) 109826. 0.08469 0.11603
7361.5 0.69652 0.1138(30) 111247. 0.08474 0.11133
7367.6 0.69710 0.1044(30) 111435. 0.08478 0.11081
7373.7 0.69768 0.1093(30) 110513. 0.08483 0.11633
7379.8 0.69826 0.1229(30) 111043. 0.08488 0.12488
7386.0 0.69884 0.1295(30) 109685. 0.08493 0.12945
7392.1 0.69942 0.1279(30) 110741. 0.08498 0.12486
7398.3 0.70000 0.1212(30) 114670. 0.08503 0.11413
7404.4 0.70058 0.0997(30) 112810. 0.08508 0.10356
7410.6 0.70116 0.0943(30) 114108. 0.08513 0.09695
7416.7 0.70174 0.0877(30) 113759. 0.08518 0.09409
7422.9 0.70233 0.0925(30) 113884. 0.08523 0.09387
7429.0 0.70291 0.0921(30) 114834. 0.08528 0.09497
7435.2 0.70350 0.0953(29) 114975. 0.08533 0.09582
7441.4 0.70408 0.0888(30) 113915. 0.08539 0.09549
7447.6 0.70467 0.0851(30) 112498. 0.08544 0.09522
7453.8 0.70525 0.0913(30) 112643. 0.08549 0.09582
7460.0 0.70584 0.0995(29) 116729. 0.08554 0.09800
7466.2 0.70642 0.0969(30) 112551. 0.08560 0.10237
7472.4 0.70701 0.1125(29) 116225. 0.08565 0.10973
7478.6 0.70760 0.1174(30) 110321. 0.08570 0.11949
7484.8 0.70819 0.1316(30) 110602. 0.08576 0.12779
7491.0 0.70877 0.1292(30) 109371. 0.08581 0.13099
7497.2 0.70936 0.1231(30) 108296. 0.08586 0.13044
7503.5 0.70995 0.1235(30) 109525. 0.08592 0.12984
7509.7 0.71054 0.1287(30) 112176. 0.08597 0.12910
7515.9 0.71113 0.1231(30) 111672. 0.08603 0.12584
7522.2 0.71172 0.1219(30) 112778. 0.08608 0.12110
7528.4 0.71232 0.1197(30) 113247. 0.08613 0.11943
7534.7 0.71291 0.1279(30) 113515. 0.08619 0.12315
7540.9 0.71350 0.1318(30) 113617. 0.08624 0.12929
7547.2 0.71409 0.1305(30) 109829. 0.08630 0.13301
7553.5 0.71469 0.1335(30) 111095. 0.08635 0.13176
7559.8 0.71528 0.1283(30) 113070. 0.08641 0.12656
7566.0 0.71588 0.1168(30) 111873. 0.08646 0.11905
7572.3 0.71647 0.1111(30) 112903. 0.08652 0.11138
7578.6 0.71707 0.1120(30) 114362. 0.08657 0.10701
7584.9 0.71766 0.1031(30) 112425. 0.08663 0.10880
7591.2 0.71826 0.1167(30) 112335. 0.08668 0.11600
7597.5 0.71886 0.1221(30) 110595. 0.08674 0.12424
7603.8 0.71945 0.1286(30) 110632. 0.08679 0.12869
7610.2 0.72005 0.1292(30) 112737. 0.08685 0.12868
7616.5 0.72065 0.1200(30) 112223. 0.08690 0.12474
7622.8 0.72125 0.1167(30) 111670. 0.08696 0.11932
7629.1 0.72185 0.1122(30) 113072. 0.08701 0.11571
7635.5 0.72245 0.1104(30) 112098. 0.08707 0.11556
7641.8 0.72305 0.1130(30) 112750. 0.08712 0.11610
7648.2 0.72365 0.1152(30) 113501. 0.08718 0.11428
7654.5 0.72425 0.1072(30) 112078. 0.08723 0.11011
7660.9 0.72485 0.1053(30) 113001. 0.08728 0.10630
7667.3 0.72545 0.0995(30) 113145. 0.08734 0.10362
7673.6 0.72606 0.1013(30) 110678. 0.08739 0.10278
7680.0 0.72666 0.1057(30) 113292. 0.08745 0.10366
7686.4 0.72726 0.1029(30) 110606. 0.08750 0.10826
7692.8 0.72787 0.1157(30) 109683. 0.08755 0.11954
7699.2 0.72847 0.1358(31) 107174. 0.08760 0.13772
7705.6 0.72908 0.1599(31) 104837. 0.08766 0.15705
7712.0 0.72968 0.1711(31) 105195. 0.08771 0.17113
7718.4 0.73029 0.1728(31) 104157. 0.08776 0.17746
7724.8 0.73090 0.1721(31) 104548. 0.08781 0.17418
7731.2 0.73151 0.1532(31) 104425. 0.08787 0.15968
7737.6 0.73211 0.1314(31) 107310. 0.08792 0.13979
7744.1 0.73272 0.1218(30) 110553. 0.08797 0.12373
7750.5 0.73333 0.1177(30) 111981. 0.08802 0.11634
7756.9 0.73394 0.1184(30) 110004. 0.08807 0.11859
7763.4 0.73455 0.1246(31) 107224. 0.08812 0.13169
7769.8 0.73516 0.1518(31) 105947. 0.08817 0.15755
7776.3 0.73577 0.1812(31) 101407. 0.08822 0.18553
7782.7 0.73638 0.2053(31) 100900. 0.08827 0.19798
7789.2 0.73699 0.1814(31) 102981. 0.08832 0.18424
7795.7 0.73761 0.1536(31) 106334. 0.08837 0.15691
7802.2 0.73822 0.1290(30) 107999. 0.08841 0.13333
7808.6 0.73883 0.1234(30) 110664. 0.08846 0.11922
7815.1 0.73945 0.1134(30) 110311. 0.08851 0.11134
7821.6 0.74006 0.1046(30) 109216. 0.08855 0.10696
7828.1 0.74068 0.1040(30) 109969. 0.08860 0.10528
7834.6 0.74129 0.1005(30) 108518. 0.08865 0.10448
7841.1 0.74191 0.1037(30) 109670. 0.08869 0.10584
7847.6 0.74253 0.1054(30) 110009. 0.08874 0.10840
7854.2 0.74314 0.1122(30) 108707. 0.08878 0.11603
7860.7 0.74376 0.1256(30) 108122. 0.08882 0.12955
7867.2 0.74438 0.1425(31) 106654. 0.08887 0.14224
7873.8 0.74500 0.1439(31) 106214. 0.08891 0.14603
7880.3 0.74562 0.1402(30) 107825. 0.08895 0.14083
7886.9 0.74624 0.1277(31) 105588. 0.08899 0.13385
7893.4 0.74686 0.1279(30) 107595. 0.08903 0.13088
7900.0 0.74748 0.1345(31) 106376. 0.08907 0.13162
7906.5 0.74810 0.1314(31) 106276. 0.08911 0.13145
7913.1 0.74872 0.1304(31) 106728. 0.08915 0.12786
7919.7 0.74934 0.1189(31) 106565. 0.08919 0.12321
7926.3 0.74996 0.1155(31) 104515. 0.08923 0.12443
7932.8 0.75059 0.1345(31) 106168. 0.08926 0.13097
7939.4 0.75121 0.1434(31) 105548. 0.08930 0.13787
7946.0 0.75184 0.1390(31) 104735. 0.08934 0.14103
7952.6 0.75246 0.1440(31) 104945. 0.08937 0.14281
7959.2 0.75309 0.1467(31) 105877. 0.08941 0.14597
7965.9 0.75371 0.1451(31) 102522. 0.08944 0.14725
7972.5 0.75434 0.1391(31) 103037. 0.08947 0.14302
7979.1 0.75497 0.1267(31) 102802. 0.08950 0.13329
7985.7 0.75559 0.1185(31) 104332. 0.08954 0.12234
7992.4 0.75622 0.1090(31) 106719. 0.08957 0.11263
7999.0 0.75685 0.0995(31) 106624. 0.08960 0.10599
8005.6 0.75748 0.0927(31) 106043. 0.08962 0.10160
8012.3 0.75811 0.0983(30) 108634. 0.08965 0.09879
8019.0 0.75874 0.0945(30) 108456. 0.08968 0.09713
8025.6 0.75937 0.0910(31) 107376. 0.08971 0.09530
8032.3 0.76000 0.0919(30) 107844. 0.08973 0.09459
8039.0 0.76063 0.0929(31) 105838. 0.08976 0.09545
8045.6 0.76126 0.0979(31) 107363. 0.08978 0.09856
8052.3 0.76190 0.1047(31) 107223. 0.08981 0.10344
8059.0 0.76253 0.1111(31) 107068. 0.08983 0.10871
8065.7 0.76316 0.1073(31) 104154. 0.08985 0.11308
8072.4 0.76380 0.1135(31) 104229. 0.08987 0.11625
8079.1 0.76443 0.1174(31) 103917. 0.08989 0.11806
8085.8 0.76507 0.1206(31) 104114. 0.08991 0.11831
8092.6 0.76570 0.1201(31) 104243. 0.08993 0.12015
8099.3 0.76634 0.1185(31) 101201. 0.08995 0.12883
8106.0 0.76698 0.1362(31) 101011. 0.08996 0.14401
8112.7 0.76761 0.1591(31) 102062. 0.08998 0.15796
8119.5 0.76825 0.1545(32) 97126. 0.08999 0.16435
8126.2 0.76889 0.1617(32) 99012. 0.09001 0.16620
8133.0 0.76953 0.1641(32) 98122. 0.09002 0.16948
8139.7 0.77017 0.1708(32) 97706. 0.09003 0.17524
8146.5 0.77081 0.1755(32) 97352. 0.09004 0.17621
8153.3 0.77145 0.1694(32) 98635. 0.09005 0.16532
8160.0 0.77209 0.1488(32) 99693. 0.09006 0.14583
8166.8 0.77273 0.1247(31) 102082. 0.09007 0.12611
8173.6 0.77337 0.1125(31) 101336. 0.09007 0.11327
8180.4 0.77402 0.1058(31) 103088. 0.09008 0.10650
8187.2 0.77466 0.1046(31) 102503. 0.09008 0.10360
8194.0 0.77530 0.1046(31) 104458. 0.09009 0.10238
8200.8 0.77595 0.1038(31) 101882. 0.09009 0.10203
8207.6 0.77659 0.0985(32) 100555. 0.09009 0.10284
8214.5 0.77724 0.1055(31) 103023. 0.09009 0.10446
8221.3 0.77788 0.1051(31) 102975. 0.09009 0.10630
8228.1 0.77853 0.1152(31) 103312. 0.09009 0.10825
8234.9 0.77918 0.1151(31) 101812. 0.09009 0.11090
8241.8 0.77982 0.1152(31) 101191. 0.09008 0.11428
8248.6 0.78047 0.1210(32) 99672. 0.09008 0.11672
8255.5 0.78112 0.1168(32) 99319. 0.09007 0.11715
8262.3 0.78177 0.1294(31) 101653. 0.09007 0.11723
8269.2 0.78242 0.1244(32) 99782. 0.09006 0.11949
8276.1 0.78307 0.1290(32) 100317. 0.09005 0.12325
8283.0 0.78372 0.1262(32) 98960. 0.09004 0.12387
8289.8 0.78437 0.1225(32) 100529. 0.09003 0.11855
8296.7 0.78502 0.1102(31) 101505. 0.09001 0.11040
8303.6 0.78568 0.1049(31) 102475. 0.09000 0.10450
8310.5 0.78633 0.1040(31) 102875. 0.08999 0.10282
8317.4 0.78698 0.0996(32) 100397. 0.08997 0.10413
8324.3 0.78764 0.1018(31) 101455. 0.08995 0.10613
8331.3 0.78829 0.1016(32) 100393. 0.08994 0.10721
8338.2 0.78895 0.1082(31) 102611. 0.08992 0.10745
8345.1 0.78960 0.1064(31) 100862. 0.08990 0.10797
8352.0 0.79026 0.1122(31) 101364. 0.08988 0.10947
8359.0 0.79092 0.1127(31) 101219. 0.08985 0.11234
8365.9 0.79157 0.1255(31) 102463. 0.08983 0.11737
8372.9 0.79223 0.1318(31) 101944. 0.08980 0.12670
8379.8 0.79289 0.1419(32) 97781. 0.08978 0.13997
8386.8 0.79355 0.1572(32) 97786. 0.08975 0.15034
8393.8 0.79421 0.1531(32) 98445. 0.08972 0.15026
8400.7 0.79487 0.1500(32) 99703. 0.08969 0.14051
8407.7 0.79553 0.1334(32) 100708. 0.08966 0.12911
8414.7 0.79619 0.1264(31) 102474. 0.08963 0.12377
8421.7 0.79685 0.1337(31) 101300. 0.08960 0.12847
8428.7 0.79751 0.1475(32) 99956. 0.08956 0.14215
8435.7 0.79818 0.1592(32) 99176. 0.08953 0.15988
8442.7 0.79884 0.1862(32) 96917. 0.08949 0.17997
8449.7 0.79950 0.2072(32) 95215. 0.08945 0.20437
8456.7 0.80017 0.2372(33) 94238. 0.08941 0.22455
8463.8 0.80083 0.2385(33) 93596. 0.08937 0.22268
8470.8 0.80150 0.2093(32) 96097. 0.08933 0.19563
8477.8 0.80216 0.1721(32) 100455. 0.08929 0.16222
8484.9 0.80283 0.1526(31) 102233. 0.08925 0.14042
8491.9 0.80350 0.1451(31) 101657. 0.08920 0.13475
8499.0 0.80417 0.1403(32) 100142. 0.08916 0.14049
8506.1 0.80483 0.1552(31) 101470. 0.08911 0.14953
8513.1 0.80550 0.1579(32) 100325. 0.08906 0.15453
8520.2 0.80617 0.1629(31) 100969. 0.08901 0.15376
8527.3 0.80684 0.1604(31) 101137. 0.08896 0.14930
8534.4 0.80751 0.1578(31) 101867. 0.08891 0.14255
8541.5 0.80818 0.1463(31) 102464. 0.08886 0.13616
8548.6 0.80885 0.1393(31) 103611. 0.08880 0.13412
8555.7 0.80953 0.1434(31) 101848. 0.08875 0.14147
8562.8 0.81020 0.1644(31) 101631. 0.08869 0.15805
8569.9 0.81087 0.1839(32) 100531. 0.08863 0.17252
8577.0 0.81155 0.1881(31) 101967. 0.08857 0.17103
8584.1 0.81222 0.1560(31) 102278. 0.08851 0.15441
8591.3 0.81290 0.1430(31) 104794. 0.08845 0.13788
8598.4 0.81357 0.1387(31) 106277. 0.08839 0.13331
8605.5 0.81425 0.1442(31) 104968. 0.08833 0.14207
8612.7 0.81492 0.1653(31) 105146. 0.08826 0.15682
8619.8 0.81560 0.1763(31) 105128. 0.08820 0.16809
8627.0 0.81628 0.1715(31) 104997. 0.08813 0.16943
8634.2 0.81696 0.1596(31) 105686. 0.08806 0.16102
8641.4 0.81764 0.1486(30) 107527. 0.08799 0.14804
8648.5 0.81832 0.1461(30) 109554. 0.08792 0.13557
8655.7 0.81900 0.1351(30) 110583. 0.08785 0.12691
8662.9 0.81968 0.1369(30) 110197. 0.08778 0.12989
8670.1 0.82036 0.1499(31) 107260. 0.08771 0.15128
8677.3 0.82104 0.1947(31) 105378. 0.08763 0.18422
8684.5 0.82172 0.2191(31) 103027. 0.08756 0.20604
8691.7 0.82241 0.2123(31) 103760. 0.08748 0.20055
8699.0 0.82309 0.1868(30) 108147. 0.08740 0.17575
8706.2 0.82377 0.1586(30) 110706. 0.08732 0.15216
8713.4 0.82446 0.1490(30) 110502. 0.08724 0.14170
8720.7 0.82514 0.1475(30) 109914. 0.08716 0.14382
8727.9 0.82583 0.1618(30) 112476. 0.08708 0.14763
8735.2 0.82651 0.1555(30) 113579. 0.08700 0.14277
8742.4 0.82720 0.1372(30) 114693. 0.08691 0.12973
8749.7 0.82789 0.1186(29) 115178. 0.08683 0.11640
8757.0 0.82858 0.1090(29) 116834. 0.08674 0.10835
8764.2 0.82927 0.1118(29) 119618. 0.08665 0.10737
8771.5 0.82995 0.1138(29) 118396. 0.08656 0.11101
8778.8 0.83064 0.1155(29) 118788. 0.08647 0.11631
8786.1 0.83133 0.1276(29) 119955. 0.08638 0.12133
8793.4 0.83203 0.1310(29) 118453. 0.08629 0.12628
8800.7 0.83272 0.1350(29) 119928. 0.08620 0.13136
8808.0 0.83341 0.1377(29) 118098. 0.08611 0.13326
8815.3 0.83410 0.1312(29) 121013. 0.08601 0.12759
8822.7 0.83479 0.1142(29) 120358. 0.08592 0.11697
8830.0 0.83549 0.1056(28) 123278. 0.08582 0.10817
8837.3 0.83618 0.1056(28) 124309. 0.08572 0.10559
8844.7 0.83688 0.1097(28) 123592. 0.08563 0.10893
8852.0 0.83757 0.1156(28) 124033. 0.08553 0.11515
8859.4 0.83827 0.1216(28) 124209. 0.08543 0.12123
8866.7 0.83897 0.1187(29) 122380. 0.08533 0.12634
8874.1 0.83966 0.1241(28) 123473. 0.08522 0.13106
8881.5 0.84036 0.1350(28) 124792. 0.08512 0.13598
8888.9 0.84106 0.1367(28) 124489. 0.08502 0.13753
8896.2 0.84176 0.1341(28) 126601. 0.08491 0.13131
8903.6 0.84246 0.1155(28) 127216. 0.08481 0.11978
8911.0 0.84316 0.1039(28) 127394. 0.08470 0.11040
8918.4 0.84386 0.1022(28) 127487. 0.08459 0.10901
8925.8 0.84456 0.1149(28) 128557. 0.08449 0.11701
8933.3 0.84526 0.1341(28) 128849. 0.08438 0.12998
8940.7 0.84596 0.1386(28) 127337. 0.08427 0.13956
8948.1 0.84667 0.1415(28) 128428. 0.08416 0.14117
8955.5 0.84737 0.1315(28) 129500. 0.08405 0.13625
8963.0 0.84807 0.1248(28) 130707. 0.08394 0.13016
8970.4 0.84878 0.1229(27) 133244. 0.08382 0.12836
8977.9 0.84949 0.1277(27) 133640. 0.08371 0.12935
8985.3 0.85019 0.1221(27) 134067. 0.08360 0.12699
8992.8 0.85090 0.1125(27) 132835. 0.08348 0.11916
9000.3 0.85160 0.1019(27) 135338. 0.08337 0.10996
9007.8 0.85231 0.1030(27) 139578. 0.08325 0.10358
9015.2 0.85302 0.0962(27) 137940. 0.08313 0.10134
9022.7 0.85373 0.1001(27) 140523. 0.08302 0.10048
9030.2 0.85444 0.0951(27) 140142. 0.08290 0.09913
9037.7 0.85515 0.0927(26) 143596. 0.08278 0.09688
9045.3 0.85586 0.0894(26) 142598. 0.08266 0.09506
9052.8 0.85657 0.0880(27) 141787. 0.08254 0.09514
9060.3 0.85728 0.0941(27) 141991. 0.08242 0.09882
9067.8 0.85800 0.1037(26) 143180. 0.08230 0.10586
9075.4 0.85871 0.1188(26) 143163. 0.08218 0.11484
9082.9 0.85942 0.1215(27) 139881. 0.08206 0.12178
9090.4 0.86014 0.1229(27) 139576. 0.08194 0.12186
9098.0 0.86085 0.1142(27) 141275. 0.08181 0.11511
9105.6 0.86157 0.1070(26) 145009. 0.08169 0.10725
9113.1 0.86228 0.0905(27) 139324. 0.08157 0.10321
9120.7 0.86300 0.0971(27) 141991. 0.08144 0.10359
9128.3 0.86372 0.1042(26) 145198. 0.08132 0.10570
9135.9 0.86443 0.1092(26) 146270. 0.08119 0.10661
9143.4 0.86515 0.1037(26) 146767. 0.08107 0.10613
9151.0 0.86587 0.1048(26) 147464. 0.08094 0.10688
9158.6 0.86659 0.1048(26) 146377. 0.08081 0.11076
9166.3 0.86731 0.1169(26) 148056. 0.08069 0.11862
9173.9 0.86803 0.1239(26) 144958. 0.08056 0.12713
9181.5 0.86875 0.1273(26) 143906. 0.08043 0.13023
9189.1 0.86948 0.1245(26) 147562. 0.08030 0.12613
9196.8 0.87020 0.1178(26) 147420. 0.08018 0.12063
9204.4 0.87092 0.1153(26) 147845. 0.08005 0.11866
9212.0 0.87164 0.1174(26) 149629. 0.07992 0.11993
9219.7 0.87237 0.1144(26) 146684. 0.07979 0.12108
9227.4 0.87309 0.1137(26) 148799. 0.07966 0.11886
9235.0 0.87382 0.1088(26) 149640. 0.07953 0.11253
9242.7 0.87455 0.1020(26) 150545. 0.07940 0.10488
9250.4 0.87527 0.0936(26) 150155. 0.07927 0.09856
9258.1 0.87600 0.0968(25) 156001. 0.07914 0.09431
9265.8 0.87673 0.0940(25) 154957. 0.07901 0.09070
9273.5 0.87746 0.0898(25) 155136. 0.07888 0.08793
9281.2 0.87819 0.0875(25) 158140. 0.07875 0.08697
9288.9 0.87892 0.0852(25) 155271. 0.07862 0.08906
9296.6 0.87965 0.0909(25) 158519. 0.07849 0.09351
9304.3 0.88038 0.0925(25) 155829. 0.07836 0.09834
9312.1 0.88111 0.0965(25) 156229. 0.07823 0.10114
9319.8 0.88184 0.0987(26) 152395. 0.07810 0.10384
9327.5 0.88257 0.1091(25) 155275. 0.07797 0.11351
9335.3 0.88331 0.1316(26) 150921. 0.07784 0.14029
9343.0 0.88404 0.1755(26) 143806. 0.07771 0.18538
9350.8 0.88478 0.2254(27) 140266. 0.07758 0.22655
9358.6 0.88551 0.2280(27) 137993. 0.07745 0.23283
9366.3 0.88625 0.1927(27) 142008. 0.07732 0.20152
9374.1 0.88698 0.1545(26) 150168. 0.07719 0.15893
9381.9 0.88772 0.1205(26) 153465. 0.07706 0.12879
9389.7 0.88846 0.1129(25) 154849. 0.07693 0.11660
9397.5 0.88920 0.1155(25) 155786. 0.07680 0.11645
9405.3 0.88994 0.1164(25) 154761. 0.07667 0.11883
9413.1 0.89067 0.1167(25) 155387. 0.07654 0.11752
9421.0 0.89142 0.1092(25) 158849. 0.07641 0.11105
9428.8 0.89216 0.1040(25) 159505. 0.07629 0.10681
9436.6 0.89290 0.0988(25) 158968. 0.07616 0.10472
9444.5 0.89364 0.0973(25) 158367. 0.07603 0.10507
9452.3 0.89438 0.1006(25) 160951. 0.07590 0.10451
9460.2 0.89513 0.0979(25) 157895. 0.07578 0.10042
9468.0 0.89587 0.0913(25) 161916. 0.07565 0.09467
9475.9 0.89661 0.0920(25) 163210. 0.07552 0.09155
9483.8 0.89736 0.0969(25) 162809. 0.07540 0.09640
9491.6 0.89810 0.1073(25) 157854. 0.07527 0.11137
9499.5 0.89885 0.1260(25) 155394. 0.07514 0.13152
9507.4 0.89960 0.1388(26) 152225. 0.07502 0.14285
9515.3 0.90035 0.1356(25) 154721. 0.07490 0.13705
9523.2 0.90109 0.1215(25) 157580. 0.07477 0.12203
9531.1 0.90184 0.1049(25) 157695. 0.07465 0.11156
9539.1 0.90259 0.1127(25) 159362. 0.07453 0.11299
9547.0 0.90334 0.1228(25) 157362. 0.07440 0.12385
9554.9 0.90409 0.1357(25) 156020. 0.07428 0.13418
9562.9 0.90484 0.1327(25) 155365. 0.07416 0.13586
9570.8 0.90560 0.1279(25) 159443. 0.07404 0.12958
9578.8 0.90635 0.1115(25) 158763. 0.07392 0.11916
9586.7 0.90710 0.1081(25) 163255. 0.07380 0.10849
9594.7 0.90786 0.0949(25) 162010. 0.07368 0.09869
9602.7 0.90861 0.0927(25) 164831. 0.07357 0.09156
9610.6 0.90936 0.0873(25) 166122. 0.07345 0.08706
9618.6 0.91012 0.0867(25) 164814. 0.07333 0.08420
9626.6 0.91088 0.0804(25) 163520. 0.07322 0.08320
9634.6 0.91163 0.0875(25) 166411. 0.07310 0.08401
9642.6 0.91239 0.0894(24) 168157. 0.07299 0.08712
9650.6 0.91315 0.0867(25) 160745. 0.07288 0.09426
9658.7 0.91391 0.1067(25) 164708. 0.07276 0.10426
9666.7 0.91467 0.1105(25) 161699. 0.07265 0.11022
9674.7 0.91543 0.1112(25) 163126. 0.07254 0.10756
9682.7 0.91619 0.0997(25) 165385. 0.07243 0.09942
9690.8 0.91695 0.0914(25) 164960. 0.07232 0.09192
9698.8 0.91771 0.0886(24) 168002. 0.07221 0.08930
9706.9 0.91847 0.0889(25) 163984. 0.07211 0.09327
9715.0 0.91924 0.1005(25) 163554. 0.07200 0.10089
9723.0 0.92000 0.1064(25) 162841. 0.07190 0.10567
9731.1 0.92077 0.1049(25) 165327. 0.07179 0.10377
9739.2 0.92153 0.0977(25) 165286. 0.07169 0.09762
9747.3 0.92230 0.0899(25) 166277. 0.07159 0.09174
9755.4 0.92306 0.0869(24) 167573. 0.07149 0.08892
9763.5 0.92383 0.0876(24) 168195. 0.07139 0.08995
9771.6 0.92460 0.0925(24) 167300. 0.07129 0.09212
9779.7 0.92537 0.0909(25) 166405. 0.07119 0.09180
9787.9 0.92614 0.0862(24) 166832. 0.07110 0.08863
9796.0 0.92691 0.0889(24) 169730. 0.07100 0.08678
9804.1 0.92768 0.0925(24) 168903. 0.07091 0.09247
9812.3 0.92845 0.1099(25) 166184. 0.07081 0.10966
9820.4 0.92922 0.1376(25) 163089. 0.07072 0.13370
9828.6 0.92999 0.1541(25) 159036. 0.07063 0.15001
9836.8 0.93076 0.1510(25) 158714. 0.07054 0.14953
9844.9 0.93154 0.1369(25) 159784. 0.07046 0.13871
9853.1 0.93231 0.1228(25) 163337. 0.07037 0.12709
9861.3 0.93309 0.1221(24) 168161. 0.07028 0.11670
9869.5 0.93386 0.1073(24) 167298. 0.07020 0.10813
9877.7 0.93464 0.1048(24) 167878. 0.07012 0.10386
9885.9 0.93541 0.1035(24) 167831. 0.07004 0.10289
9894.1 0.93619 0.1007(24) 167042. 0.06996 0.10035
9902.3 0.93697 0.0987(24) 171186. 0.06988 0.09384
9910.6 0.93775 0.0883(24) 170879. 0.06980 0.08575
9918.8 0.93853 0.0784(24) 170958. 0.06973 0.07901
9927.0 0.93931 0.0768(24) 174106. 0.06965 0.07513
9935.3 0.94009 0.0752(24) 174824. 0.06958 0.07342
9943.5 0.94087 0.0753(24) 174468. 0.06951 0.07314
9951.8 0.94165 0.0736(24) 172890. 0.06944 0.07350
9960.1 0.94243 0.0756(24) 174381. 0.06937 0.07421
9968.4 0.94322 0.0793(24) 172765. 0.06930 0.07501
9976.6 0.94400 0.0841(24) 175496. 0.06924 0.07600
9984.9 0.94479 0.0809(24) 173898. 0.06917 0.07830
9993.2 0.94557 0.0865(24) 172907. 0.06911 0.08383
10001.5 0.94636 0.0911(24) 172914. 0.06905 0.09230
10009.8 0.94714 0.1009(24) 170374. 0.06899 0.09975
10018.2 0.94793 0.0995(24) 170020. 0.06894 0.10244
10026.5 0.94872 0.1028(24) 172561. 0.06888 0.10090
10034.8 0.94951 0.1018(24) 175412. 0.06883 0.09746
10043.1 0.95029 0.0931(24) 172416. 0.06877 0.09421
10051.5 0.95108 0.0944(24) 173823. 0.06872 0.09507
10059.8 0.95188 0.0988(24) 169435. 0.06868 0.10333
10068.2 0.95267 0.1099(25) 165303. 0.06863 0.11501
10076.6 0.95346 0.1181(24) 166782. 0.06858 0.12029
10084.9 0.95425 0.1113(24) 167887. 0.06854 0.11491
10093.3 0.95504 0.1017(24) 171022. 0.06850 0.10385
10101.7 0.95584 0.0975(24) 174705. 0.06846 0.09306
10110.1 0.95663 0.0873(24) 173591. 0.06842 0.08524
10118.5 0.95743 0.0847(24) 174286. 0.06838 0.08096
10126.9 0.95822 0.0801(24) 173347. 0.06835 0.07964
10135.3 0.95902 0.0805(24) 173892. 0.06831 0.07955
10143.7 0.95982 0.0777(24) 175125. 0.06828 0.07905
10152.2 0.96061 0.0855(24) 176193. 0.06825 0.07801
10160.6 0.96141 0.0787(24) 173507. 0.06823 0.07679
10169.1 0.96221 0.0783(24) 176178. 0.06820 0.07576
10177.5 0.96301 0.0802(24) 177115. 0.06818 0.07656
10186.0 0.96381 0.0806(24) 176153. 0.06816 0.08005
10194.4 0.96461 0.0893(24) 174880. 0.06814 0.08511
10202.9 0.96541 0.0899(24) 174018. 0.06812 0.08870
10211.4 0.96621 0.0967(24) 176719. 0.06810 0.08960
10219.9 0.96702 0.0912(24) 175962. 0.06809 0.08866
10228.3 0.96782 0.0926(24) 175356. 0.06808 0.08667
10236.8 0.96863 0.0882(24) 174440. 0.06806 0.08546
10245.4 0.96943 0.0864(24) 176654. 0.06806 0.08834
10253.9 0.97024 0.0937(24) 174028. 0.06805 0.09596
10262.4 0.97104 0.0999(24) 173937. 0.06805 0.10283
10270.9 0.97185 0.1020(24) 173418. 0.06804 0.10230
10279.4 0.97266 0.0897(24) 173438. 0.06804 0.09471
10288.0 0.97347 0.0867(24) 177184. 0.06804 0.08598
10296.5 0.97427 0.0828(24) 174969. 0.06805 0.08130
10305.1 0.97508 0.0832(24) 175972. 0.06805 0.08261
10313.7 0.97589 0.0898(24) 175742. 0.06806 0.08940
10322.2 0.97671 0.0976(24) 173791. 0.06807 0.09793
10330.8 0.97752 0.1052(24) 172194. 0.06808 0.10300
10339.4 0.97833 0.1029(24) 169904. 0.06809 0.10359
10348.0 0.97914 0.1045(24) 173962. 0.06811 0.10248
10356.6 0.97996 0.1054(24) 174956. 0.06813 0.10113
10365.2 0.98077 0.1030(24) 176326. 0.06815 0.10122
10373.8 0.98159 0.1084(24) 175314. 0.06817 0.10619
10382.4 0.98240 0.1144(24) 171789. 0.06819 0.11618
10391.0 0.98322 0.1191(24) 168388. 0.06822 0.12318
10399.7 0.98403 0.1197(24) 168460. 0.06825 0.11965
10408.3 0.98485 0.1076(24) 172075. 0.06828 0.10787
10417.0 0.98567 0.1023(24) 176490. 0.06831 0.09529
10425.6 0.98649 0.0931(24) 176734. 0.06834 0.08635
10434.3 0.98731 0.0834(24) 175807. 0.06838 0.08232
10442.9 0.98813 0.0809(24) 173145. 0.06842 0.08448
10451.6 0.98895 0.0974(24) 175118. 0.06846 0.09434
10460.3 0.98977 0.1039(24) 171229. 0.06850 0.10772
10469.0 0.99060 0.1144(24) 171089. 0.06854 0.11560
10477.7 0.99142 0.1101(24) 168622. 0.06859 0.11316
10486.4 0.99224 0.1035(24) 172165. 0.06864 0.10509
10495.1 0.99307 0.0955(24) 171885. 0.06869 0.09626
10503.8 0.99389 0.0897(24) 175179. 0.06874 0.08839
10512.6 0.99472 0.0807(24) 174053. 0.06880 0.08250
10521.3 0.99554 0.0836(24) 175854. 0.06886 0.07933
10530.0 0.99637 0.0806(24) 176572. 0.06892 0.07821
10538.8 0.99720 0.0766(24) 172592. 0.06898 0.07778
10547.5 0.99803 0.0798(24) 175197. 0.06904 0.07742
10556.3 0.99886 0.0795(24) 175303. 0.06911 0.07694
10565.1 0.99969 0.0801(24) 175707. 0.06917 0.07683
10573.9 1.00052 0.0807(24) 175913. 0.06924 0.07665
10582.7 1.00135 0.0806(24) 174923. 0.06931 0.07735
10591.4 1.00218 0.0773(24) 173969. 0.06939 0.07998
10600.2 1.00302 0.0856(24) 172991. 0.06946 0.08434
10609.1 1.00385 0.0946(24) 173622. 0.06954 0.09161
10617.9 1.00468 0.1070(24) 172672. 0.06962 0.10509
10626.7 1.00552 0.1225(24) 166721. 0.06970 0.12366
10635.5 1.00635 0.1378(25) 165151. 0.06979 0.13648
10644.4 1.00719 0.1405(24) 167180. 0.06988 0.13395
10653.2 1.00803 0.1205(24) 168909. 0.06996 0.12107
10662.1 1.00886 0.1094(24) 169712. 0.07005 0.11014
10670.9 1.00970 0.1043(24) 168470. 0.07015 0.10620
10679.8 1.01054 0.1063(24) 169788. 0.07024 0.10522
10688.7 1.01138 0.1087(24) 170434. 0.07034 0.10202
10697.5 1.01222 0.0976(24) 171262. 0.07044 0.09655
10706.4 1.01306 0.0891(24) 168700. 0.07054 0.09102
10715.3 1.01391 0.0916(24) 174184. 0.07064 0.08606
10724.2 1.01475 0.0809(24) 168813. 0.07074 0.08120
10733.1 1.01559 0.0844(24) 173106. 0.07085 0.07868
10742.0 1.01644 0.0800(24) 172514. 0.07096 0.07815
10751.0 1.01728 0.0804(24) 172645. 0.07107 0.07874
10759.9 1.01813 0.0761(24) 169575. 0.07118 0.07874
10768.8 1.01897 0.0780(24) 170984. 0.07130 0.07734
10777.8 1.01982 0.0724(24) 168793. 0.07141 0.07579
10786.8 1.02067 0.0798(24) 173464. 0.07153 0.07484
10795.7 1.02151 0.0789(24) 170215. 0.07165 0.07546
10804.7 1.02236 0.0846(24) 172537. 0.07177 0.07938
10813.7 1.02321 0.0897(24) 168223. 0.07190 0.08785
10822.6 1.02406 0.0979(25) 164957. 0.07202 0.09906
10831.6 1.02491 0.1094(25) 166396. 0.07215 0.10703
10840.6 1.02577 0.1110(25) 165863. 0.07228 0.10759
10849.6 1.02662 0.1039(25) 164173. 0.07241 0.10338
10858.7 1.02747 0.1033(25) 163864. 0.07254 0.09995
10867.7 1.02832 0.1100(24) 167378. 0.07268 0.10244
10876.7 1.02918 0.1237(25) 165185. 0.07282 0.11924
10885.8 1.03003 0.1588(25) 158911. 0.07296 0.15810
10894.8 1.03089 0.2073(26) 150058. 0.07310 0.20929
10903.9 1.03175 0.2453(26) 146651. 0.07324 0.24252
10912.9 1.03260 0.2406(26) 147460. 0.07338 0.23618
10922.0 1.03346 0.1965(26) 151565. 0.07353 0.20058
10931.1 1.03432 0.1573(25) 156545. 0.07368 0.16137
10940.1 1.03518 0.1356(25) 162462. 0.07383 0.13214
10949.2 1.03604 0.1186(25) 164297. 0.07398 0.11492
10958.3 1.03690 0.1171(25) 165687. 0.07413 0.11029
10967.4 1.03776 0.1245(25) 162576. 0.07428 0.11944
10976.5 1.03863 0.1432(25) 159448. 0.07444 0.13746
10985.7 1.03949 0.1635(25) 159071. 0.07460 0.15090
10994.8 1.04035 0.1586(25) 156597. 0.07476 0.14825
11003.9 1.04122 0.1392(25) 158402. 0.07492 0.13183
11013.1 1.04208 0.1181(25) 160535. 0.07508 0.11242
11022.2 1.04295 0.1007(25) 161400. 0.07524 0.09822
11031.4 1.04382 0.0959(25) 163838. 0.07541 0.09119
11040.5 1.04468 0.1025(25) 166549. 0.07558 0.09253
11049.7 1.04555 0.1058(25) 162188. 0.07574 0.10549
11058.9 1.04642 0.1237(25) 159030. 0.07591 0.12937
11068.1 1.04729 0.1519(25) 156950. 0.07609 0.15243
11077.3 1.04816 0.1599(25) 156931. 0.07626 0.16063
11086.5 1.04903 0.1472(25) 155702. 0.07643 0.15474
11095.7 1.04990 0.1374(25) 157172. 0.07661 0.14459
11104.9 1.05078 0.1301(25) 159235. 0.07678 0.13352
11114.1 1.05165 0.1188(25) 160078. 0.07696 0.12170
11123.4 1.05252 0.1161(25) 161589. 0.07714 0.11434
11132.6 1.05340 0.1192(25) 160689. 0.07732 0.11935
11141.9 1.05427 0.1291(25) 156600. 0.07751 0.13743
11151.1 1.05515 0.1556(25) 155330. 0.07769 0.15566
11160.4 1.05603 0.1549(26) 153338. 0.07787 0.15770
11169.7 1.05690 0.1379(26) 153117. 0.07806 0.14275
11179.0 1.05778 0.1220(25) 158259. 0.07825 0.12307
11188.2 1.05866 0.1147(25) 161028. 0.07843 0.10758
11197.5 1.05954 0.0979(25) 158012. 0.07862 0.09908
11206.8 1.06042 0.1000(25) 161389. 0.07881 0.09842
11216.2 1.06130 0.1072(25) 159192. 0.07901 0.10749
11225.5 1.06218 0.1228(25) 157677. 0.07920 0.12507
11234.8 1.06307 0.1403(26) 153341. 0.07939 0.14247
11244.1 1.06395 0.1511(25) 155202. 0.07959 0.15144
11253.5 1.06483 0.1535(26) 153216. 0.07978 0.15469
11262.8 1.06572 0.1592(26) 153040. 0.07998 0.15839
11272.2 1.06660 0.1580(26) 149980. 0.08018 0.15823
11281.6 1.06749 0.1539(26) 150753. 0.08037 0.14884
11290.9 1.06838 0.1359(25) 154725. 0.08057 0.13565
11300.3 1.06927 0.1319(25) 155798. 0.08077 0.12852
11309.7 1.07015 0.1264(25) 154086. 0.08098 0.12827
11319.1 1.07104 0.1287(25) 157286. 0.08118 0.12734
11328.5 1.07193 0.1182(25) 154981. 0.08138 0.12049
11337.9 1.07282 0.1065(25) 155413. 0.08158 0.10981
11347.3 1.07372 0.0987(25) 158674. 0.08179 0.09999
11356.8 1.07461 0.0912(25) 158419. 0.08199 0.09290
11366.2 1.07550 0.0907(25) 159811. 0.08220 0.08874
11375.6 1.07639 0.0888(25) 158560. 0.08240 0.08654
11385.1 1.07729 0.0834(25) 157818. 0.08261 0.08572
11394.6 1.07818 0.0876(25) 158240. 0.08281 0.08697
11404.0 1.07908 0.0961(25) 157827. 0.08302 0.09033
11413.5 1.07998 0.0928(25) 153839. 0.08323 0.09684
11423.0 1.08087 0.1068(26) 152847. 0.08344 0.11022
11432.5 1.08177 0.1237(26) 149518. 0.08365 0.13448
11442.0 1.08267 0.1601(26) 147833. 0.08386 0.16326
11451.5 1.08357 0.1733(26) 144426. 0.08407 0.17808
11461.0 1.08447 0.1688(26) 145735. 0.08428 0.17056
11470.5 1.08537 0.1410(26) 146460. 0.08449 0.15406
11480.1 1.08628 0.1357(26) 147685. 0.08470 0.14587
11489.6 1.08718 0.1429(26) 147355. 0.08491 0.14959
11499.1 1.08808 0.1457(26) 145084. 0.08512 0.15541
11508.7 1.08899 0.1465(26) 146746. 0.08533 0.15214
11518.3 1.08989 0.1371(26) 148200. 0.08554 0.13855
11527.8 1.09080 0.1210(26) 151013. 0.08575 0.12194
11537.4 1.09170 0.1049(26) 150165. 0.08596 0.10868
11547.0 1.09261 0.0974(26) 148933. 0.08617 0.10036
11556.6 1.09352 0.0924(26) 148461. 0.08639 0.09672
11566.2 1.09443 0.0936(26) 147276. 0.08660 0.09820
11575.8 1.09534 0.1111(26) 150431. 0.08681 0.10780
11585.4 1.09625 0.1205(26) 146091. 0.08702 0.12443
11595.0 1.09716 0.1375(26) 144543. 0.08723 0.14026
11604.7 1.09807 0.1397(27) 141944. 0.08744 0.14518
11614.3 1.09898 0.1338(26) 143674. 0.08765 0.13961
11624.0 1.09989 0.1243(26) 144218. 0.08786 0.13126
11633.6 1.10081 0.1195(26) 143633. 0.08807 0.12438
11643.3 1.10172 0.1100(26) 144427. 0.08828 0.11711
11653.0 1.10264 0.1018(26) 143373. 0.08849 0.10920
11662.6 1.10356 0.0958(26) 145824. 0.08870 0.10279
11672.3 1.10447 0.0909(26) 143830. 0.08891 0.09926
11682.0 1.10539 0.0920(26) 143633. 0.08912 0.09821
11691.7 1.10631 0.0911(26) 144385. 0.08933 0.09805
11701.5 1.10723 0.0874(26) 143899. 0.08954 0.09724
11711.2 1.10815 0.0869(27) 142043. 0.08974 0.09538
11720.9 1.10907 0.0863(27) 142277. 0.08995 0.09391
11730.7 1.10999 0.0847(27) 141316. 0.09016 0.09289
11740.4 1.11091 0.0867(27) 141691. 0.09036 0.09242
11750.2 1.11184 0.0897(27) 142248. 0.09057 0.09278
11759.9 1.11276 0.0890(27) 140796. 0.09077 0.09558
11769.7 1.11369 0.0986(27) 140263. 0.09097 0.10313
11779.5 1.11461 0.1082(27) 137863. 0.09117 0.11607
11789.3 1.11554 0.1281(27) 138207. 0.09138 0.12870
11799.1 1.11646 0.1286(27) 135971. 0.09158 0.13253
11808.9 1.11739 0.1247(27) 136021. 0.09178 0.12654
11818.7 1.11832 0.1132(27) 135936. 0.09198 0.11728
11828.5 1.11925 0.1115(27) 136282. 0.09217 0.10966
11838.3 1.12018 0.1011(27) 135578. 0.09237 0.10432
11848.2 1.12111 0.0986(27) 134063. 0.09257 0.10089
11858.0 1.12204 0.0993(27) 134830. 0.09276 0.09989
11867.9 1.12297 0.1045(27) 133193. 0.09295 0.10283
11877.7 1.12391 0.1190(27) 133200. 0.09315 0.11135
11887.6 1.12484 0.1335(28) 129073. 0.09334 0.12621
11897.5 1.12578 0.1650(28) 127081. 0.09353 0.15307
11907.3 1.12671 0.2112(28) 123270. 0.09372 0.21122
11917.2 1.12765 0.3013(29) 116148. 0.09391 0.31493
11927.1 1.12859 0.4091(30) 108241. 0.09409 0.42395
11937.1 1.12952 0.4544(31) 106836. 0.09428 0.46186
11947.0 1.13046 0.3981(30) 109414. 0.09446 0.40974
11956.9 1.13140 0.3149(30) 114782. 0.09464 0.32338
11966.8 1.13234 0.2396(29) 117287. 0.09482 0.25618
11976.8 1.13328 0.2145(29) 120725. 0.09500 0.21986
11986.7 1.13422 0.2049(29) 120679. 0.09518 0.20078
11996.7 1.13517 0.1901(29) 120656. 0.09536 0.18396
12006.7 1.13611 0.1702(29) 121342. 0.09553 0.16596
12016.6 1.13705 0.1538(29) 122464. 0.09571 0.15297
12026.6 1.13800 0.1477(29) 120945. 0.09588 0.14763
12036.6 1.13894 0.1421(29) 121730. 0.09605 0.14454
12046.6 1.13989 0.1378(29) 122062. 0.09622 0.13519
12056.6 1.14084 0.1271(29) 121933. 0.09638 0.12843
12066.6 1.14179 0.1206(29) 120109. 0.09655 0.12686
12076.7 1.14274 0.1303(29) 119614. 0.09671 0.13299
12086.7 1.14368 0.1431(29) 118931. 0.09687 0.14065
12096.7 1.14464 0.1433(29) 118610. 0.09703 0.14109
12106.8 1.14559 0.1327(29) 118568. 0.09719 0.13313
12116.9 1.14654 0.1222(29) 118886. 0.09735 0.12244
12126.9 1.14749 0.1134(29) 118412. 0.09750 0.11356
12137.0 1.14844 0.1065(29) 118297. 0.09765 0.10765
12147.1 1.14940 0.1080(29) 118388. 0.09780 0.10421
12157.2 1.15035 0.1084(29) 119061. 0.09795 0.10287
12167.3 1.15131 0.1107(29) 117345. 0.09809 0.10510
12177.4 1.15227 0.1190(30) 114877. 0.09824 0.11649
12187.5 1.15322 0.1550(30) 114737. 0.09838 0.14758
12197.6 1.15418 0.2031(30) 111281. 0.09852 0.20134
12207.8 1.15514 0.2589(31) 106564. 0.09865 0.25496
12217.9 1.15610 0.2787(31) 105272. 0.09879 0.27606
12228.1 1.15706 0.2652(31) 105643. 0.09892 0.26682
12238.2 1.15802 0.2490(31) 105942. 0.09905 0.25742
12248.4 1.15899 0.2398(31) 104491. 0.09918 0.25615
12258.6 1.15995 0.2502(31) 106301. 0.09931 0.24499
12268.8 1.16091 0.2173(31) 104863. 0.09943 0.21782
12278.9 1.16188 0.2033(30) 108401. 0.09955 0.19308
12289.2 1.16284 0.2016(31) 105640. 0.09967 0.19520
12299.4 1.16381 0.2421(31) 103918. 0.09978 0.24068
12309.6 1.16478 0.3241(32) 99564. 0.09990 0.32168
12319.8 1.16575 0.4045(32) 95993. 0.10001 0.39164
12330.0 1.16671 0.4110(32) 95309. 0.10012 0.40092
12340.3 1.16768 0.3600(32) 96116. 0.10022 0.35676
12350.5 1.16865 0.3075(32) 99527. 0.10033 0.30578
12360.8 1.16963 0.2702(32) 100058. 0.10043 0.27225
12371.1 1.17060 0.2638(31) 101899. 0.10053 0.24600
12381.4 1.17157 0.2442(31) 101421. 0.10062 0.22544
12391.6 1.17254 0.2535(32) 100678. 0.10071 0.23785
12401.9 1.17352 0.3286(32) 97279. 0.10080 0.32214
12412.2 1.17449 0.4594(33) 90810. 0.10089 0.47080
12422.6 1.17547 0.5928(34) 86406. 0.10098 0.59165
12432.9 1.17645 0.5923(34) 86065. 0.10106 0.59099
12443.2 1.17742 0.4795(33) 90356. 0.10114 0.48751
12453.6 1.17840 0.3608(32) 95370. 0.10122 0.36465
12463.9 1.17938 0.2667(32) 98884. 0.10129 0.27014
12474.3 1.18036 0.2227(31) 101533. 0.10136 0.20951
12484.6 1.18134 0.1863(31) 102720. 0.10143 0.17134
12495.0 1.18232 0.1702(31) 104292. 0.10149 0.14727
12505.4 1.18331 0.1623(31) 105563. 0.10156 0.13372
12515.8 1.18429 0.1574(31) 103915. 0.10162 0.13367
12526.2 1.18527 0.1743(31) 102614. 0.10167 0.15534
12536.6 1.18626 0.2197(31) 100907. 0.10173 0.20676
12547.0 1.18724 0.2902(32) 97371. 0.10178 0.27384
12557.4 1.18823 0.3358(32) 95217. 0.10182 0.31222
12567.8 1.18922 0.3215(32) 95956. 0.10187 0.30099
12578.3 1.19021 0.2664(32) 98177. 0.10191 0.25698
12588.7 1.19120 0.2162(32) 100257. 0.10195 0.21394
12599.2 1.19219 0.1862(31) 101675. 0.10198 0.18335
12609.7 1.19318 0.1702(31) 102850. 0.10202 0.16083
12620.1 1.19417 0.1486(31) 103934. 0.10205 0.14279
12630.6 1.19516 0.1350(31) 104524. 0.10207 0.13007
12641.1 1.19615 0.1279(31) 103754. 0.10210 0.12502
12651.6 1.19715 0.1323(31) 104313. 0.10212 0.13134
12662.1 1.19814 0.1520(31) 103704. 0.10213 0.15047
12672.7 1.19914 0.1736(31) 102875. 0.10215 0.17273
12683.2 1.20013 0.1780(31) 102111. 0.10216 0.18106
12693.7 1.20113 0.1732(31) 104082. 0.10217 0.17062
12704.3 1.20213 0.1520(31) 103045. 0.10217 0.15549
12714.8 1.20313 0.1424(31) 104123. 0.10217 0.14405
12725.4 1.20413 0.1376(31) 104544. 0.10217 0.13612
12736.0 1.20513 0.1283(31) 105446. 0.10217 0.12867
12746.6 1.20613 0.1307(31) 106826. 0.10216 0.12280
12757.2 1.20713 0.1272(31) 106536. 0.10215 0.12229
12767.8 1.20814 0.1326(31) 106681. 0.10214 0.13046
12778.4 1.20914 0.1436(31) 104899. 0.10212 0.14471
12789.0 1.21014 0.1589(31) 104663. 0.10210 0.15473
12799.6 1.21115 0.1540(31) 104878. 0.10207 0.15283
12810.2 1.21216 0.1375(31) 106362. 0.10205 0.14210
12820.9 1.21316 0.1272(31) 107402. 0.10202 0.12974
12831.5 1.21417 0.1181(30) 107953. 0.10198 0.12063
12842.2 1.21518 0.1117(30) 108313. 0.10195 0.11469
12852.9 1.21619 0.1142(30) 109104. 0.10191 0.11092
12863.5 1.21720 0.1111(30) 107928. 0.10187 0.10855
12874.2 1.21821 0.1137(30) 108039. 0.10182 0.10859
12884.9 1.21923 0.1222(30) 107804. 0.10177 0.11501
12895.6 1.22024 0.1442(30) 107904. 0.10172 0.13829
12906.4 1.22125 0.1857(31) 104134. 0.10166 0.19432
12917.1 1.22227 0.2697(31) 102124. 0.10161 0.28471
12927.8 1.22328 0.3577(32) 97683. 0.10154 0.36892
12938.6 1.22430 0.3831(32) 96716. 0.10148 0.39155
12949.3 1.22532 0.3454(32) 99827. 0.10141 0.35047
12960.1 1.22634 0.2769(31) 102308. 0.10134 0.29415
12970.8 1.22735 0.2367(31) 103149. 0.10127 0.25546
12981.6 1.22837 0.2224(31) 105256. 0.10119 0.22978
12992.4 1.22940 0.1943(31) 106490. 0.10111 0.20290
13003.2 1.23042 0.1677(30) 108514. 0.10102 0.17413
13014.0 1.23144 0.1516(30) 111476. 0.10094 0.15037
13024.8 1.23246 0.1351(30) 112509. 0.10085 0.13525
13035.6 1.23349 0.1332(30) 114246. 0.10076 0.12907
13046.5 1.23451 0.1362(30) 114745. 0.10066 0.13059
13057.3 1.23554 0.1368(30) 113940. 0.10056 0.13553
13068.2 1.23656 0.1386(30) 113633. 0.10046 0.13650
13079.0 1.23759 0.1489(29) 116467. 0.10035 0.13816
13089.9 1.23862 0.1475(29) 116200. 0.10025 0.14729
13100.8 1.23965 0.1650(29) 115853. 0.10013 0.17068
13111.6 1.24068 0.1919(29) 115269. 0.10002 0.19643
13122.5 1.24171 0.2021(29) 115504. 0.09990 0.20241
13133.4 1.24274 0.1882(29) 117467. 0.09978 0.18590
13144.4 1.24378 0.1624(29) 119309. 0.09966 0.16225
13155.3 1.24481 0.1471(29) 120116. 0.09954 0.14659
13166.2 1.24584 0.1557(29) 122066. 0.09941 0.15068
13177.1 1.24688 0.1955(29) 121047. 0.09928 0.18966
13188.1 1.24792 0.2619(29) 116062. 0.09914 0.26561
13199.1 1.24895 0.3376(30) 110979. 0.09901 0.33799
13210.0 1.24999 0.3531(30) 109196. 0.09887 0.35292
13221.0 1.25103 0.3049(30) 112967. 0.09872 0.30913
13232.0 1.25207 0.2434(29) 118222. 0.09858 0.24893
13243.0 1.25311 0.1888(29) 121498. 0.09843 0.20096
13254.0 1.25415 0.1603(28) 123948. 0.09828 0.16844
13265.0 1.25519 0.1408(28) 125111. 0.09813 0.14601
13276.0 1.25623 0.1300(28) 127711. 0.09797 0.13008
13287.0 1.25728 0.1177(28) 128053. 0.09781 0.11922
13298.1 1.25832 0.1154(28) 128152. 0.09765 0.11392
13309.1 1.25937 0.1160(28) 129294. 0.09749 0.11590
13320.2 1.26042 0.1263(28) 127933. 0.09732 0.12887
13331.3 1.26146 0.1538(28) 128807. 0.09716 0.15137
13342.3 1.26251 0.1740(28) 125911. 0.09698 0.16976
13353.4 1.26356 0.1679(28) 124597. 0.09681 0.17000
13364.5 1.26461 0.1530(28) 127226. 0.09664 0.15420
13375.6 1.26566 0.1305(28) 128235. 0.09646 0.13655
13386.7 1.26671 0.1130(28) 127919. 0.09628 0.12273
13397.9 1.26777 0.1078(28) 130766. 0.09610 0.11334
13409.0 1.26882 0.1045(28) 132177. 0.09591 0.10719
13420.1 1.26987 0.1019(27) 133857. 0.09572 0.10333
13431.3 1.27093 0.1025(27) 134381. 0.09554 0.10178
13442.4 1.27199 0.1067(27) 133843. 0.09534 0.10471
13453.6 1.27304 0.1269(27) 134036. 0.09515 0.11964
13464.8 1.27410 0.1615(28) 131360. 0.09496 0.15942
13476.0 1.27516 0.2225(28) 126656. 0.09476 0.22544
13487.2 1.27622 0.2922(29) 122636. 0.09456 0.28475
13498.4 1.27728 0.3052(29) 122627. 0.09436 0.29604
13509.6 1.27834 0.2654(28) 124877. 0.09416 0.26307
13520.8 1.27940 0.2170(28) 128950. 0.09395 0.22356
13532.1 1.28047 0.1935(28) 131243. 0.09375 0.19947
13543.3 1.28153 0.1763(27) 132299. 0.09354 0.18626
13554.6 1.28259 0.1718(27) 133861. 0.09333 0.17116
13565.8 1.28366 0.1531(27) 135199. 0.09312 0.15162
13577.1 1.28473 0.1314(27) 136830. 0.09290 0.13354
13588.4 1.28579 0.1173(27) 137644. 0.09269 0.12135
13599.7 1.28686 0.1124(27) 138455. 0.09247 0.11743
13611.0 1.28793 0.1253(27) 138958. 0.09226 0.12562
13622.3 1.28900 0.1443(27) 136907. 0.09204 0.14845
13633.6 1.29007 0.1737(27) 136114. 0.09182 0.17644
13644.9 1.29115 0.1906(27) 134873. 0.09160 0.18899
13656.3 1.29222 0.1758(27) 136611. 0.09137 0.17716
13667.6 1.29329 0.1506(27) 138413. 0.09115 0.15512
13679.0 1.29437 0.1302(27) 141872. 0.09092 0.13547
13690.3 1.29544 0.1186(27) 142176. 0.09070 0.12195
13701.7 1.29652 0.1044(27) 142338. 0.09047 0.11276
13713.1 1.29760 0.1009(26) 143373. 0.09024 0.10573
13724.5 1.29868 0.1030(26) 146213. 0.09001 0.10057
13735.9 1.29975 0.0946(26) 147114. 0.08979 0.09696
13747.3 1.30083 0.0921(26) 146549. 0.08956 0.09504
13758.7 1.30192 0.0960(26) 147029. 0.08932 0.09586
13770.2 1.30300 0.0994(26) 146562. 0.08909 0.10193
13781.6 1.30408 0.1075(26) 144941. 0.08886 0.11437
13793.0 1.30516 0.1181(26) 142578. 0.08863 0.12730
13804.5 1.30625 0.1324(26) 144387. 0.08839 0.13149
13816.0 1.30733 0.1264(26) 143535. 0.08816 0.12916
13827.5 1.30842 0.1329(26) 144594. 0.08793 0.13219
13839.0 1.30951 0.1454(26) 142790. 0.08769 0.15034
13850.4 1.31060 0.1771(26) 142939. 0.08746 0.17568
13862.0 1.31168 0.1885(27) 138658. 0.08722 0.18624
13873.5 1.31278 0.1804(26) 142543. 0.08699 0.17360
13885.0 1.31387 0.1487(26) 143133. 0.08675 0.15054
13896.5 1.31496 0.1287(26) 145425. 0.08652 0.13031
13908.1 1.31605 0.1161(26) 147480. 0.08629 0.11761
13919.6 1.31714 0.1152(26) 147501. 0.08605 0.11567
13931.2 1.31824 0.1321(26) 147133. 0.08582 0.13193
13942.8 1.31933 0.1670(26) 144145. 0.08558 0.17010
13954.4 1.32043 0.2043(27) 139371. 0.08535 0.21134
13966.0 1.32153 0.2236(27) 138427. 0.08512 0.22394
13977.6 1.32263 0.2077(27) 140711. 0.08489 0.20410
13989.2 1.32373 0.1660(26) 142409. 0.08465 0.17546
14000.8 1.32483 0.1524(26) 145505. 0.08442 0.15692
14012.4 1.32593 0.1404(26) 146446. 0.08419 0.14948
14024.1 1.32703 0.1447(26) 149985. 0.08396 0.14296
14035.7 1.32813 0.1320(26) 147459. 0.08374 0.13195
14047.4 1.32923 0.1196(26) 150091. 0.08351 0.11867
14059.1 1.33034 0.1041(26) 149403. 0.08328 0.10809
14070.8 1.33144 0.1070(26) 152327. 0.08306 0.10294
14082.4 1.33255 0.1053(26) 150097. 0.08283 0.10530
14094.1 1.33366 0.1211(26) 150787. 0.08261 0.11604
14105.9 1.33477 0.1332(26) 150211. 0.08239 0.13173
14117.6 1.33588 0.1471(26) 147791. 0.08217 0.14479
14129.3 1.33699 0.1558(26) 147857. 0.08195 0.14705
14141.0 1.33810 0.1482(26) 146906. 0.08173 0.14028
14152.8 1.33921 0.1472(26) 147283. 0.08152 0.13620
14164.6 1.34032 0.1576(26) 146621. 0.08130 0.15238
14176.3 1.34144 0.1964(26) 142714. 0.08109 0.19380
14188.1 1.34255 0.2405(27) 138478. 0.08088 0.23463
14199.9 1.34367 0.2503(27) 137590. 0.08068 0.24042
14211.7 1.34478 0.2242(27) 140886. 0.08047 0.21165
14223.5 1.34590 0.1865(26) 145780. 0.08027 0.17529
14235.3 1.34702 0.1618(26) 148212. 0.08007 0.15081
14247.1 1.34814 0.1482(26) 148032. 0.07987 0.14853
14259.0 1.34926 0.1664(26) 143507. 0.07967 0.17437
14270.8 1.35038 0.2074(27) 141682. 0.07948 0.21449
14282.7 1.35150 0.2329(27) 139390. 0.07928 0.23506
14294.6 1.35262 0.2190(27) 141730. 0.07910 0.21996
14306.4 1.35375 0.1766(26) 143076. 0.07891 0.18660
14318.3 1.35487 0.1501(26) 149352. 0.07873 0.15422
14330.2 1.35600 0.1270(26) 150758. 0.07854 0.12976
14342.1 1.35713 0.1082(26) 151212. 0.07837 0.11294
14354.0 1.35825 0.1022(26) 153279. 0.07819 0.10073
14366.0 1.35938 0.0929(26) 152626. 0.07802 0.09362
14377.9 1.36051 0.0880(25) 154429. 0.07785 0.08863
14389.9 1.36164 0.0870(25) 154454. 0.07769 0.08503
14401.8 1.36277 0.0878(25) 155885. 0.07753 0.08246
14413.8 1.36391 0.0818(25) 155886. 0.07737 0.08067
14425.8 1.36504 0.0813(25) 156465. 0.07721 0.07943
14437.7 1.36617 0.0751(25) 154719. 0.07706 0.07856
14449.7 1.36731 0.0784(25) 154997. 0.07692 0.07797
14461.7 1.36845 0.0767(25) 154650. 0.07677 0.07759
14473.8 1.36958 0.0776(25) 155644. 0.07663 0.07701
14485.8 1.37072 0.0769(25) 155762. 0.07650 0.07692
14497.8 1.37186 0.0811(25) 156247. 0.07637 0.07685
14509.9 1.37300 0.0783(25) 154862. 0.07624 0.07719
14521.9 1.37414 0.0852(25) 156332. 0.07612 0.07859
14534.0 1.37528 0.0833(25) 155618. 0.07600 0.08139
14546.1 1.37643 0.0853(25) 153826. 0.07588 0.08423
14558.2 1.37757 0.0871(25) 154348. 0.07577 0.08495
14570.3 1.37871 0.0895(25) 155708. 0.07567 0.08341
14582.4 1.37986 0.0867(25) 155981. 0.07556 0.08124
14594.5 1.38101 0.0816(25) 155213. 0.07547 0.07966
14606.6 1.38215 0.0871(25) 156582. 0.07538 0.07954
14618.7 1.38330 0.0856(25) 154273. 0.07529 0.08309
14630.9 1.38445 0.0966(26) 152291. 0.07521 0.09607
14643.0 1.38560 0.1272(26) 150694. 0.07513 0.12702
14655.2 1.38675 0.1698(26) 146954. 0.07506 0.17403
14667.4 1.38791 0.2024(26) 143825. 0.07499 0.21046
14679.6 1.38906 0.2041(27) 141892. 0.07493 0.21037
14691.8 1.39021 0.1735(26) 144163. 0.07488 0.18262
14704.0 1.39137 0.1524(26) 150069. 0.07483 0.15115
14716.2 1.39253 0.1208(26) 151397. 0.07478 0.12724
14728.4 1.39368 0.1051(26) 152713. 0.07474 0.11113
14740.7 1.39484 0.0980(25) 154442. 0.07471 0.10024
14752.9 1.39600 0.0931(25) 155455. 0.07468 0.09253
14765.2 1.39716 0.0884(25) 156749. 0.07466 0.08693
14777.4 1.39832 0.0878(25) 156961. 0.07464 0.08305
14789.7 1.39948 0.0831(25) 156978. 0.07463 0.08074
14802.0 1.40065 0.0854(25) 158413. 0.07462 0.08036
14814.3 1.40181 0.0865(25) 157396. 0.07462 0.08283
14826.6 1.40297 0.0879(25) 155210. 0.07463 0.08799
14838.9 1.40414 0.0945(25) 154799. 0.07464 0.09295
14851.3 1.40531 0.0996(25) 157868. 0.07466 0.09489
14863.6 1.40647 0.0954(25) 156228. 0.07469 0.09310
14876.0 1.40764 0.0921(25) 155983. 0.07472 0.09010
14888.3 1.40881 0.0909(25) 156642. 0.07476 0.08808
14900.7 1.40998 0.0981(25) 157625. 0.07480 0.09212
14913.1 1.41116 0.1093(25) 154314. 0.07486 0.10895
14925.5 1.41233 0.1381(26) 151657. 0.07491 0.13768
14937.9 1.41350 0.1591(26) 148654. 0.07498 0.16011
14950.3 1.41468 0.1594(26) 149652. 0.07505 0.15937
14962.7 1.41585 0.1444(26) 150266. 0.07513 0.14176
14975.1 1.41703 0.1173(26) 152054. 0.07521 0.12231
14987.6 1.41821 0.1079(25) 155314. 0.07530 0.10753
15000.0 1.41938 0.0976(25) 156016. 0.07540 0.09752
15012.5 1.42056 0.0903(25) 157077. 0.07551 0.09155
15025.0 1.42174 0.0924(25) 157401. 0.07562 0.09036
15037.4 1.42293 0.0984(25) 157214. 0.07574 0.09677
15049.9 1.42411 0.1087(25) 154883. 0.07586 0.11182
15062.4 1.42529 0.1251(25) 154624. 0.07599 0.12674
15075.0 1.42648 0.1289(25) 154486. 0.07613 0.12950
15087.5 1.42766 0.1203(25) 155466. 0.07628 0.12088
15100.0 1.42885 0.1142(25) 155777. 0.07643 0.11162
15112.6 1.43004 0.1187(25) 158582. 0.07659 0.11115
15125.1 1.43122 0.1231(25) 155302. 0.07676 0.12355
15137.7 1.43241 0.1416(26) 152027. 0.07694 0.14066
15150.3 1.43360 0.1569(26) 152296. 0.07712 0.14662
15162.9 1.43479 0.1361(26) 150914. 0.07731 0.13668
15175.5 1.43599 0.1222(25) 154517. 0.07750 0.12106
15188.1 1.43718 0.1069(25) 156216. 0.07771 0.10783
15200.7 1.43837 0.0955(25) 157493. 0.07791 0.09849
15213.3 1.43957 0.0895(25) 158140. 0.07813 0.09223
15226.0 1.44077 0.0876(25) 160465. 0.07836 0.08835
15238.6 1.44196 0.0852(25) 159886. 0.07859 0.08687
15251.3 1.44316 0.0861(25) 159170. 0.07882 0.08865
15263.9 1.44436 0.0864(25) 158336. 0.07907 0.09316
15276.6 1.44556 0.0981(25) 158715. 0.07932 0.09723
15289.3 1.44676 0.0956(25) 156689. 0.07958 0.09729
15302.0 1.44796 0.0974(25) 156940. 0.07984 0.09551
15314.7 1.44917 0.1016(25) 156665. 0.08011 0.09893
15327.5 1.45037 0.1190(25) 154091. 0.08039 0.11900
15340.2 1.45158 0.1557(26) 151104. 0.08067 0.16361
15352.9 1.45278 0.2069(26) 146209. 0.08096 0.21445
15365.7 1.45399 0.2325(26) 143827. 0.08126 0.23278
15378.5 1.45520 0.2156(26) 146430. 0.08156 0.21178
15391.2 1.45641 0.1738(26) 150907. 0.08187 0.17748
15404.0 1.45762 0.1426(25) 154074. 0.08219 0.14869
15416.8 1.45883 0.1227(25) 155313. 0.08251 0.12916
15429.6 1.46004 0.1127(25) 155892. 0.08284 0.11920
15442.5 1.46126 0.1142(25) 156598. 0.08317 0.12129
15455.3 1.46247 0.1272(26) 153350. 0.08351 0.13551
15468.1 1.46368 0.1427(26) 149808. 0.08385 0.15186
15481.0 1.46490 0.1529(26) 149498. 0.08420 0.15897
15493.9 1.46612 0.1518(26) 149911. 0.08455 0.15529
15506.7 1.46734 0.1392(26) 150687. 0.08491 0.14419
15519.6 1.46856 0.1291(26) 152485. 0.08527 0.13060
15532.5 1.46978 0.1254(26) 153580. 0.08564 0.12146
15545.4 1.47100 0.1267(26) 152559. 0.08601 0.12585
15558.3 1.47222 0.1473(26) 147767. 0.08639 0.15423
15571.3 1.47344 0.1957(26) 142703. 0.08677 0.20349
15584.2 1.47467 0.2379(27) 138281. 0.08715 0.23741
15597.1 1.47589 0.2294(27) 134068. 0.08753 0.23021
15610.1 1.47712 0.1987(27) 139423. 0.08792 0.19815
15623.1 1.47835 0.1595(27) 140594. 0.08831 0.16610
15636.1 1.47958 0.1328(27) 141757. 0.08871 0.14238
15649.0 1.48081 0.1216(26) 142772. 0.08910 0.12622
15662.1 1.48204 0.1173(26) 143040. 0.08950 0.11591
15675.1 1.48327 0.1182(27) 139285. 0.08990 0.11408
15688.1 1.48450 0.1423(27) 136340. 0.09030 0.13127
15701.1 1.48573 0.1920(28) 127843. 0.09070 0.19046
15714.2 1.48697 0.2884(29) 118235. 0.09110 0.29257
15727.2 1.48820 0.3883(30) 109531. 0.09150 0.37533
15740.3 1.48944 0.3992(31) 106506. 0.09190 0.37658
15753.4 1.49068 0.3379(30) 108886. 0.09230 0.31870
15766.5 1.49192 0.2700(30) 113131. 0.09270 0.25571
15779.6 1.49316 0.2116(29) 114917. 0.09309 0.21158
15792.7 1.49440 0.1870(29) 115698. 0.09349 0.19282
15805.8 1.49564 0.1890(29) 115154. 0.09388 0.19210
15818.9 1.49688 0.1863(30) 110872. 0.09426 0.19100
15832.1 1.49813 0.1723(30) 108572. 0.09464 0.17707
15845.2 1.49937 0.1561(30) 108725. 0.09502 0.15647
15858.4 1.50062 0.1401(30) 109394. 0.09539 0.13848
15871.6 1.50186 0.1248(30) 110218. 0.09576 0.12553
15884.8 1.50311 0.1164(30) 108946. 0.09612 0.11672
15898.0 1.50436 0.1069(31) 106400. 0.09647 0.11110
15911.2 1.50561 0.1149(31) 106317. 0.09682 0.10880
15924.4 1.50686 0.1198(31) 103052. 0.09715 0.11293
15937.6 1.50811 0.1416(31) 101403. 0.09748 0.13194
15950.9 1.50937 0.1770(32) 96472. 0.09780 0.17086
15964.1 1.51062 0.2236(33) 93300. 0.09810 0.21298
15977.4 1.51188 0.2363(34) 88895. 0.09839 0.22457
15990.7 1.51313 0.2215(33) 90248. 0.09867 0.20458
16003.9 1.51439 0.1911(33) 91505. 0.09894 0.17698
16017.2 1.51565 0.1600(33) 91327. 0.09919 0.15777
16030.5 1.51691 0.1574(33) 91920. 0.09943 0.15416
16043.9 1.51817 0.1681(33) 89121. 0.09965 0.16859
16057.2 1.51943 0.1902(34) 85859. 0.09985 0.18826
16070.5 1.52069 0.1958(34) 84207. 0.10004 0.19088
16083.9 1.52196 0.1800(34) 84308. 0.10020 0.17479
16097.3 1.52322 0.1576(34) 85012. 0.10034 0.15441
16110.6 1.52449 0.1289(34) 84527. 0.10046 0.13814
16124.0 1.52575 0.1213(34) 85137. 0.10056 0.12665
16137.4 1.52702 0.1119(35) 82828. 0.10063 0.11872
16150.8 1.52829 0.101(4) 80090. 0.1007 0.1134
16164.3 1.52956 0.109(4) 79297. 0.1007 0.1107
16177.7 1.53083 0.107(4) 77387. 0.1007 0.1127
16191.1 1.53210 0.127(4) 75640. 0.1006 0.1254
16204.6 1.53338 0.156(4) 73267. 0.1006 0.1526
16218.0 1.53465 0.183(4) 70422. 0.1005 0.1788
16231.5 1.53593 0.190(4) 68116. 0.1003 0.1828
16245.0 1.53720 0.168(4) 66748. 0.1002 0.1675
16258.5 1.53848 0.150(4) 69007. 0.0999 0.1486
16272.0 1.53976 0.122(4) 67651. 0.0997 0.1341
16285.5 1.54104 0.118(4) 68038. 0.0994 0.1246
16299.1 1.54232 0.103(4) 64729. 0.0990 0.1204
16312.6 1.54360 0.101(4) 63169. 0.0987 0.1188
16326.2 1.54488 0.108(4) 63619. 0.0982 0.1163
16339.7 1.54617 0.103(4) 60851. 0.0977 0.1120
16353.3 1.54745 0.095(4) 58978. 0.0972 0.1075
16366.9 1.54874 0.096(4) 58514. 0.0966 0.1038
16380.5 1.55002 0.095(4) 56786. 0.0960 0.1009
16394.1 1.55131 0.092(4) 55461. 0.0953 0.0988
16407.7 1.55260 0.092(4) 52025. 0.0945 0.0971
16421.4 1.55389 0.105(4) 51836. 0.0937 0.0962
16435.0 1.55518 0.105(5) 48965. 0.0928 0.0982
16448.7 1.55648 0.119(5) 46139. 0.0918 0.1096
16462.3 1.55777 0.152(5) 42828. 0.0908 0.1410
16476.0 1.55906 0.182(5) 39241. 0.0897 0.1850
16489.7 1.56036 0.218(5) 37933. 0.0885 0.2086
16503.4 1.56166 0.201(5) 35598. 0.0872 0.1964
16517.1 1.56295 0.171(5) 35756. 0.0859 0.1682
16530.8 1.56425 0.143(5) 35899. 0.0844 0.1425
16544.6 1.56555 0.115(5) 34199. 0.0829 0.1233
16558.3 1.56685 0.108(5) 34445. 0.0813 0.1094
16572.1 1.56815 0.096(5) 34139. 0.0796 0.0991
16585.8 1.56946 0.088(5) 34204. 0.0777 0.0914
16599.6 1.57076 0.098(5) 35413. 0.0758 0.0853
16613.4 1.57207 0.110(7) 20700. 0.0740 0.0809
16624.0 . -0.0000230(17) . . .
loop_
_refln_index_h
_refln_index_k
_refln_index_l
_refln_observed_status
_refln_F_squared_meas
_refln_F_squared_calc
_refln_phase_calc
_refln_d_spacing
_gsas_i100_meas
11 11 1 o 2017.466 1848.081 0.00 1.55694 11.77
9 9 9 o 1086.748 995.506 0.00 1.55694 2.11
15 3 3 o 90.913 83.280 180.00 1.55694 0.53
13 7 5 o 51.674 47.335 0.00 1.55694 0.60
12 8 6 o 3.927 2.789 0.00 1.55375 0.05
12 10 2 o 11.856 44.522 180.00 1.54117 0.13
14 6 4 o 16.104 60.477 0.00 1.54117 0.18
11 11 3 o 0.705 0.784 0.00 1.53193 0.00
15 5 1 o 90.005 100.153 0.00 1.53193 0.98
13 9 1 o 4.534 5.045 180.00 1.53193 0.05
11 9 7 o 669.865 745.390 0.00 1.53193 7.33
16 0 0 o 6434.585 6726.072 0.00 1.51690 8.46
13 9 3 o 139.379 126.198 180.00 1.50809 1.43
15 5 3 o 1352.218 1224.337 0.00 1.50809 13.89
12 10 4 o 19.973 16.886 180.00 1.50518 0.20
16 2 2 o 490.968 497.184 0.00 1.49374 2.43
10 10 8 o 862.624 873.544 0.00 1.49374 4.26
14 8 2 o 0.036 0.037 0.00 1.49374 0.00
13 7 7 o 242.953 233.357 180.00 1.48532 1.17
11 11 5 o 6634.897 6372.828 180.00 1.48532 32.07
14 6 6 o 5.843 5.471 0.00 1.48255 0.03
16 4 0 o 0.001 0.001 180.00 1.47161 0.00
12 8 8 o 3309.275 3408.804 0.00 1.47161 15.41
15 7 1 o 50.094 52.254 180.00 1.46356 0.46
13 9 5 o 22.084 23.036 180.00 1.46356 0.20
15 5 5 o 439.333 458.281 180.00 1.46356 2.00
14 8 4 o 5.127 5.609 180.00 1.46090 0.05
16 4 2 o 586.978 642.138 180.00 1.46090 5.31
12 10 6 o 1732.466 1819.609 180.00 1.45043 15.23
15 7 3 o 7.548 8.063 180.00 1.44272 0.06
11 9 9 o 367.105 392.154 0.00 1.44272 1.58
12 12 0 o 3028.366 3001.078 0.00 1.43015 6.29
16 4 4 o 94.164 93.315 180.00 1.43015 0.39
11 11 7 o 141.131 139.409 180.00 1.42275 0.57
17 1 1 o 877.466 866.757 180.00 1.42275 3.57
13 11 1 o 156.956 155.040 0.00 1.42275 1.28
12 12 2 o 20.944 20.647 180.00 1.42032 0.08
14 10 0 o 21.285 21.185 0.00 1.41069 0.08
14 8 6 o 1106.067 1100.883 180.00 1.41069 8.70
16 6 2 o 20.892 20.794 0.00 1.41069 0.16
15 7 5 o 2.797 2.444 0.00 1.40359 0.02
13 9 7 o 26.175 22.871 180.00 1.40359 0.20
13 11 3 o 2.306 2.015 180.00 1.40359 0.02
17 3 1 o 80.487 70.328 180.00 1.40359 0.62
14 10 2 o 232.888 200.182 180.00 1.40125 1.78
10 10 10 o 0.995 0.855 0.00 1.40125 0.00
12 12 4 o 63.208 56.741 180.00 1.39200 0.24
15 9 1 o 28.871 29.828 0.00 1.38518 0.21
17 3 3 o 3586.437 3705.365 180.00 1.38518 13.11
16 6 4 o 35.370 34.241 180.00 1.38293 0.26
12 10 8 o 64.742 62.675 180.00 1.38293 0.47
14 10 4 o 212.617 130.277 0.00 1.37404 1.51
17 5 1 o 10.196 3.400 0.00 1.36748 0.07
13 11 5 o 1.913 0.638 180.00 1.36748 0.01
15 9 3 o 1.294 0.432 180.00 1.36748 0.01
16 8 0 o 36.798 31.380 180.00 1.35675 0.12
15 7 7 o 196.241 202.683 180.00 1.35044 0.65
17 5 3 o 0.018 0.018 180.00 1.35044 0.00
11 11 9 o 62.885 64.949 0.00 1.35044 0.21
16 8 2 o 1761.366 1823.582 0.00 1.34835 11.56
14 8 8 o 0.139 0.144 0.00 1.34835 0.00
12 12 6 o 508.204 526.156 0.00 1.34835 1.67
18 2 0 o 8.873 8.367 180.00 1.34011 0.03
16 6 6 o 4960.565 4677.469 0.00 1.34011 15.89
13 9 9 o 848.145 770.951 180.00 1.33402 2.67
15 9 5 o 311.015 282.708 180.00 1.33402 1.96
18 2 2 o 858.559 790.174 180.00 1.33201 2.68
14 10 6 o 23.372 21.511 180.00 1.33201 0.15
16 8 4 o 536.401 543.796 180.00 1.32406 3.27
13 13 1 o 513.726 529.927 0.00 1.31819 1.54
17 7 1 o 223.353 230.397 0.00 1.31819 1.34
17 5 5 o 2908.941 3000.677 0.00 1.31819 8.72
13 11 7 o 166.018 171.254 0.00 1.31819 1.00
12 10 10 o 899.213 898.535 0.00 1.30857 2.62
14 12 2 o 1043.845 1043.057 0.00 1.30857 6.08
18 4 2 o 4.805 4.801 0.00 1.30857 0.03
13 13 3 o 1168.575 1280.103 0.00 1.30290 3.34
15 11 1 o 24.200 26.510 0.00 1.30290 0.14
17 7 3 o 21.345 23.382 0.00 1.30290 0.12
12 12 8 o 102.408 126.434 180.00 1.29361 0.28
15 11 3 o 1291.538 1379.727 0.00 1.28814 7.06
15 9 7 o 145.719 155.669 0.00 1.28814 0.80
14 12 4 o 84.495 90.052 0.00 1.28633 0.46
16 8 6 o 4.324 4.608 180.00 1.28633 0.02
18 4 4 o 13.557 14.448 180.00 1.28633 0.04
14 10 8 o 406.325 427.466 180.00 1.27916 2.16
16 10 2 o 323.232 340.050 180.00 1.27916 1.72
18 6 0 o 45.435 47.799 180.00 1.27916 0.12
17 7 5 o 729.146 724.771 0.00 1.27386 3.81
13 13 5 o 1457.172 1448.429 180.00 1.27386 3.81
11 11 11 o 12403.968 12329.541 0.00 1.27386 10.81
19 1 1 o 36.220 36.003 0.00 1.27386 0.09
18 6 2 o 75.048 72.037 180.00 1.27211 0.39
19 3 1 o 359.733 381.028 180.00 1.26005 1.80
13 11 9 o 859.819 910.717 180.00 1.26005 4.31
17 9 1 o 10.830 11.471 180.00 1.26005 0.05
15 11 5 o 5.245 5.555 180.00 1.26005 0.03
16 10 4 o 37.039 38.050 0.00 1.25836 0.18
14 12 6 o 21.467 22.886 0.00 1.25165 0.10
18 6 4 o 103.272 110.098 0.00 1.25165 0.50
19 3 3 o 117.987 120.592 0.00 1.24669 0.28
17 9 3 o 4548.997 4649.445 180.00 1.24669 21.83
16 8 8 o 3693.671 3697.492 0.00 1.23854 8.63
19 5 1 o 11.609 10.767 0.00 1.23373 0.05
13 13 7 o 885.833 821.552 0.00 1.23373 2.04
17 7 7 o 121.787 112.949 180.00 1.23373 0.28
15 9 9 o 92.071 85.390 0.00 1.23373 0.21
12 12 10 o 188.277 172.614 0.00 1.23214 0.43
14 14 0 o 344.168 360.523 0.00 1.22584 0.39
16 10 6 o 618.679 648.078 180.00 1.22584 2.77
18 8 2 o 382.420 400.592 180.00 1.22584 1.72
17 9 5 o 7.168 7.523 0.00 1.22117 0.03
15 11 7 o 677.313 710.828 180.00 1.22117 2.99
19 5 3 o 4403.667 4621.573 180.00 1.22117 19.45
15 13 1 o 3.789 3.977 180.00 1.22117 0.02
14 14 2 o 1.081 1.100 180.00 1.21963 0.00
14 10 10 o 937.490 953.415 180.00 1.21963 2.06
18 6 6 o 59.992 61.011 180.00 1.21963 0.13
16 12 0 o 56.690 45.988 180.00 1.21352 0.12
20 0 0 o 75.740 61.442 180.00 1.21352 0.04
15 13 3 o 118.904 119.399 0.00 1.20899 0.50
18 8 4 o 366.673 360.422 180.00 1.20750 1.55
16 12 2 o 4.884 4.801 0.00 1.20750 0.02
14 12 8 o 593.542 583.424 180.00 1.20750 2.51
14 14 4 o 197.708 184.240 0.00 1.20156 0.41
20 2 2 o 433.764 404.216 180.00 1.20156 0.90
19 5 5 o 85.655 84.756 0.00 1.19717 0.17
17 11 1 o 198.560 196.476 180.00 1.19717 0.81
13 11 11 o 596.703 590.440 180.00 1.19717 1.22
19 7 1 o 1056.989 1045.896 0.00 1.19717 4.31
20 4 0 o 165.666 151.341 180.00 1.18995 0.33
16 12 4 o 356.343 325.529 180.00 1.18995 1.42
19 7 3 o 498.077 449.988 180.00 1.18569 1.96
17 11 3 o 5.945 5.371 180.00 1.18569 0.02
17 9 7 o 957.305 864.878 0.00 1.18569 3.76
15 13 5 o 3228.823 2917.085 0.00 1.18569 12.67
13 13 9 o 3.065 2.769 0.00 1.18569 0.01
20 4 2 o 164.717 140.730 180.00 1.18427 0.64
16 10 8 o 271.797 232.217 0.00 1.18427 1.06
18 8 6 o 52.658 39.135 180.00 1.17867 0.20
18 10 0 o 135.462 100.674 0.00 1.17867 0.26
15 11 9 o 6.127 5.806 0.00 1.17453 0.02
14 14 6 o 22292.531 21642.318 0.00 1.17315 41.93
18 10 2 o 55.947 54.315 180.00 1.17315 0.21
12 12 12 o 6063.835 5707.895 180.00 1.16771 3.73
20 4 4 o 1552.295 1461.176 180.00 1.16771 2.87
19 7 5 o 12.266 11.898 180.00 1.16368 0.04
17 11 5 o 5905.087 5727.749 180.00 1.16368 21.51
16 12 6 o 1097.857 1064.530 180.00 1.16234 3.98
14 12 10 o 199.938 199.389 0.00 1.15704 0.71
18 10 4 o 0.000 0.000 0.00 1.15704 0.00
20 6 2 o 2229.055 2222.928 180.00 1.15704 7.93
15 13 7 o 162.928 160.496 0.00 1.15312 0.57
21 1 1 o 301.742 297.238 0.00 1.15312 0.53
19 9 1 o 3641.990 3587.605 0.00 1.15312 12.79
17 9 9 o 0.589 0.549 180.00 1.14285 0.00
21 3 1 o 63.751 59.428 180.00 1.14285 0.22
19 9 3 o 9.092 8.475 0.00 1.14285 0.03
15 15 1 o 1.074 1.001 0.00 1.14285 0.00
20 6 4 o 512.492 497.113 0.00 1.14158 1.73
18 8 8 o 827.497 802.665 0.00 1.14158 1.40
16 14 2 o 637.196 648.107 0.00 1.13656 2.11
16 10 10 o 159.831 162.567 0.00 1.13656 0.26
14 14 8 o 45.989 46.776 180.00 1.13656 0.08
21 3 3 o 771.787 756.635 0.00 1.13284 1.26
17 13 1 o 44.124 43.258 0.00 1.13284 0.14
13 13 11 o 136.479 133.799 180.00 1.13284 0.22
19 7 7 o 19.929 19.538 0.00 1.13284 0.03
17 11 7 o 31.889 31.263 0.00 1.13284 0.10
15 15 3 o 101.069 99.085 0.00 1.13284 0.17
18 10 6 o 855.759 849.604 180.00 1.13161 2.79
16 12 8 o 7.274 7.499 180.00 1.12672 0.02
20 8 0 o 17194.947 17726.398 0.00 1.12672 27.52
19 9 5 o 511.724 462.713 180.00 1.12310 1.62
17 13 3 o 1.137 1.028 0.00 1.12310 0.00
21 5 1 o 205.362 185.693 180.00 1.12310 0.65
15 11 11 o 16.312 14.749 0.00 1.12310 0.03
16 14 4 o 11.154 9.732 180.00 1.12190 0.04
20 8 2 o 0.030 0.026 0.00 1.12190 0.00
18 12 2 o 64.900 70.120 0.00 1.11713 0.20
20 6 6 o 0.008 0.008 0.00 1.11713 0.00
21 5 3 o 39.496 46.489 0.00 1.11360 0.12
15 15 5 o 1400.233 1648.137 0.00 1.11360 2.14
15 13 9 o 139.309 163.973 0.00 1.11360 0.43
20 8 4 o 0.000 10.111 0.00 1.10779 0.00
17 13 5 o 0.000 108.966 180.00 1.10434 0.00
19 11 1 o 0.000 26.456 0.00 1.10434 0.00
14 12 12 o 0.000 52.339 180.00 1.10320 0.00
18 12 4 o 0.000 0.024 0.00 1.10320 0.00
22 2 0 o 476.463 728.605 0.00 1.09867 0.69
18 10 8 o 19.491 29.806 180.00 1.09867 0.06
16 14 6 o 41.869 64.025 180.00 1.09867 0.12
19 11 3 o 786.562 903.679 0.00 1.09531 2.25
19 9 7 o 17.192 19.752 180.00 1.09531 0.05
21 5 5 o 564.802 648.899 180.00 1.09531 0.81
17 11 9 o 62.910 72.277 180.00 1.09531 0.18
21 7 1 o 2.812 3.231 180.00 1.09531 0.01
22 2 2 o 264.158 296.433 0.00 1.09419 0.38
14 14 10 o 52.893 59.355 0.00 1.09419 0.08
15 15 7 o 610.390 683.829 180.00 1.08649 0.84
21 7 3 o 553.745 620.369 0.00 1.08649 1.53
16 12 10 o 356.084 401.698 180.00 1.08540 0.98
20 8 6 o 299.983 338.411 180.00 1.08540 0.83
20 10 2 o 22.175 24.512 180.00 1.08109 0.06
22 4 2 o 1611.848 1781.774 0.00 1.08109 4.37
18 12 6 o 632.712 699.415 0.00 1.08109 1.72
17 13 7 o 161.250 165.339 0.00 1.07788 0.43
13 13 13 o 140.047 143.598 180.00 1.07788 0.06
19 11 5 o 2.936 3.010 0.00 1.07788 0.01
16 16 0 o 0.024 0.023 0.00 1.07261 0.00
15 13 11 o 146.728 150.872 180.00 1.06948 0.38
17 15 1 o 0.693 0.712 0.00 1.06948 0.00
21 7 5 o 72.863 74.922 0.00 1.06948 0.19
16 16 2 o 2.673 2.716 180.00 1.06844 0.00
16 14 8 o 789.786 802.428 0.00 1.06844 2.04
22 4 4 o 23.861 24.243 0.00 1.06844 0.03
20 10 4 o 5.742 5.834 0.00 1.06844 0.01
22 6 0 o 2782.414 2739.315 180.00 1.06433 3.55
18 14 0 o 573.768 564.880 180.00 1.06433 0.73
17 15 3 o 650.314 656.590 180.00 1.06127 1.64
19 9 9 o 3.516 3.550 180.00 1.06127 0.00
21 9 1 o 812.145 819.982 180.00 1.06127 2.05
18 14 2 o 318.901 322.478 180.00 1.06026 0.80
22 6 2 o 11.359 11.486 180.00 1.06026 0.03
18 10 10 o 0.010 0.010 0.00 1.06026 0.00
16 16 4 o 166.119 161.304 0.00 1.05623 0.21
20 8 8 o 3.249 3.154 180.00 1.05623 0.00
19 13 1 o 715.011 732.227 180.00 1.05324 1.75
21 9 3 o 77.949 79.826 180.00 1.05324 0.19
23 1 1 o 1008.626 1032.913 0.00 1.05324 1.23
19 11 7 o 0.045 0.046 0.00 1.05324 0.00
17 11 11 o 1684.901 1725.470 180.00 1.05324 2.06
15 15 9 o 145.991 149.506 0.00 1.05324 0.18
18 12 8 o 3.411 3.521 0.00 1.05225 0.01
20 10 6 o 0.308 0.325 180.00 1.04832 0.00
18 14 4 o 343.729 362.585 180.00 1.04832 0.82
22 6 4 o 340.758 359.451 180.00 1.04832 0.82
14 14 12 o 388.932 410.268 180.00 1.04832 0.47
17 15 5 o 587.144 606.439 0.00 1.04540 1.39
17 13 9 o 1207.791 1247.483 0.00 1.04540 2.87
21 7 7 o 6.380 6.589 180.00 1.04540 0.01
19 13 3 o 1.309 1.352 0.00 1.04540 0.00
23 3 1 o 456.331 471.328 0.00 1.04540 1.08
16 12 12 o 2.102 1.772 0.00 1.04058 0.00
20 12 0 o 0.561 0.473 180.00 1.04058 0.00
21 9 5 o 110.363 96.266 180.00 1.03773 0.25
23 3 3 o 3244.923 2830.449 0.00 1.03773 3.74
16 16 6 o 1742.954 1531.354 0.00 1.03678 2.00
20 12 2 o 91.688 80.556 0.00 1.03678 0.21
16 14 10 o 15.301 14.299 0.00 1.03302 0.03
22 8 2 o 268.998 251.384 0.00 1.03302 0.61
23 5 1 o 564.471 555.867 180.00 1.03022 1.26
19 13 5 o 1330.403 1310.124 180.00 1.03022 2.98
22 6 6 o 6994.165 6870.889 0.00 1.02929 7.80
18 14 6 o 198.644 195.143 180.00 1.02929 0.44
20 12 4 o 332.542 303.047 180.00 1.02561 0.73
21 11 1 o 741.343 675.425 0.00 1.02287 1.61
23 5 3 o 63.662 58.001 180.00 1.02287 0.14
19 11 9 o 3.926 3.577 0.00 1.02287 0.01
17 15 7 o 223.486 203.614 0.00 1.02287 0.49
15 13 13 o 27.030 24.626 180.00 1.02287 0.03
20 10 8 o 56.397 48.984 180.00 1.02197 0.12
22 8 4 o 114.941 99.831 180.00 1.02197 0.25
18 12 10 o 10.247 7.178 0.00 1.01836 0.02
21 11 3 o 0.977 0.866 180.00 1.01568 0.00
21 9 7 o 130.441 115.711 0.00 1.01568 0.28
15 15 11 o 203.900 180.875 180.00 1.01568 0.22
24 0 0 o 1902.155 1639.289 0.00 1.01127 0.49
16 16 8 o 92.966 80.119 180.00 1.01127 0.10
17 17 1 o 81.418 76.035 0.00 1.00864 0.08
17 13 11 o 200.176 186.940 0.00 1.00864 0.41
23 5 5 o 469.302 438.272 0.00 1.00864 0.48
23 7 1 o 267.182 249.516 0.00 1.00864 0.55
19 13 7 o 22.407 20.925 180.00 1.00864 0.05
20 12 6 o 131.345 125.594 180.00 1.00777 0.27
22 8 6 o 15.946 15.502 0.00 1.00432 0.03
24 2 2 o 858.386 834.485 0.00 1.00432 0.87
18 16 2 o 10.701 10.403 0.00 1.00432 0.02
18 14 8 o 463.476 450.571 0.00 1.00432 0.94
22 10 0 o 2578.258 2506.467 0.00 1.00432 2.60
19 15 1 o 88.757 84.271 0.00 1.00175 0.18
17 17 3 o 0.783 0.743 0.00 1.00175 0.00
21 11 5 o 43.199 41.015 180.00 1.00175 0.09
23 7 3 o 8.245 7.828 0.00 1.00175 0.02
22 10 2 o 254.843 237.493 180.00 1.00089 0.51
14 14 14 o 16.074 14.980 0.00 1.00089 0.01
24 4 0 o 438.253 336.752 180.00 0.99751 0.43
17 15 9 o 1.416 1.170 180.00 0.99499 0.00
19 15 3 o 172.378 142.448 180.00 0.99499 0.34
16 14 12 o 43.045 36.388 180.00 0.99415 0.08
24 4 2 o 17.405 14.714 0.00 0.99415 0.03
18 16 4 o 1.208 1.021 180.00 0.99415 0.00
20 14 2 o 336.054 328.565 0.00 0.99083 0.64
20 10 10 o 44.153 43.169 0.00 0.99083 0.04
22 10 4 o 12.968 12.679 0.00 0.99083 0.02
17 17 5 o 124.926 128.561 0.00 0.98837 0.12
19 11 11 o 2.333 2.401 180.00 0.98837 0.00
21 9 9 o 19.773 20.348 180.00 0.98837 0.02
23 7 5 o 1413.550 1454.685 0.00 0.98837 2.68
24 4 4 o 22.655 20.519 0.00 0.98429 0.02
20 12 8 o 104.822 94.940 0.00 0.98429 0.20
23 9 1 o 7.588 7.234 0.00 0.98187 0.01
21 11 7 o 16.099 15.347 0.00 0.98187 0.03
19 15 5 o 379.473 361.747 180.00 0.98187 0.70
21 13 1 o 13.372 12.747 180.00 0.98187 0.02
19 13 9 o 5.518 5.260 0.00 0.98187 0.01
18 12 12 o 327.691 319.440 0.00 0.98107 0.30
22 8 8 o 530.752 517.388 0.00 0.98107 0.49
20 14 4 o 437.245 426.235 180.00 0.98107 0.80
16 16 10 o 1206.305 1175.931 0.00 0.98107 1.11
24 6 2 o 55.441 52.783 0.00 0.97788 0.10
18 16 6 o 667.154 635.162 180.00 0.97788 1.21
23 9 3 o 335.754 324.665 180.00 0.97551 0.60
21 13 3 o 287.535 278.038 0.00 0.97551 0.52
15 15 13 o 73.253 70.834 180.00 0.97551 0.07
18 14 10 o 513.326 498.211 180.00 0.97472 0.92
22 10 6 o 3.146 3.054 0.00 0.97472 0.01
17 17 7 o 1990.799 2083.178 180.00 0.96927 1.74
17 13 13 o 301.833 315.839 180.00 0.96927 0.26
23 7 7 o 10.147 10.618 0.00 0.96927 0.01
25 1 1 o 13.008 13.612 180.00 0.96927 0.01
24 6 4 o 37.460 38.896 0.00 0.96849 0.07
22 12 2 o 320.395 280.970 180.00 0.96542 0.55
20 14 6 o 159.172 139.585 0.00 0.96542 0.27
19 15 7 o 196.393 165.703 0.00 0.96314 0.34
17 15 11 o 412.393 347.948 0.00 0.96314 0.70
21 13 5 o 55.249 46.615 180.00 0.96314 0.09
23 9 5 o 3.084 2.602 180.00 0.96314 0.01
25 3 1 o 69.393 58.549 180.00 0.96314 0.12
24 8 0 o 432.195 332.146 180.00 0.95937 0.36
25 3 3 o 0.616 0.517 180.00 0.95713 0.00
21 11 9 o 312.313 262.409 0.00 0.95713 0.52
24 8 2 o 9.186 7.899 180.00 0.95639 0.02
22 12 4 o 30.496 26.222 180.00 0.95639 0.05
18 16 8 o 0.852 0.733 0.00 0.95639 0.00
20 12 10 o 1.492 1.283 0.00 0.95639 0.00
16 14 14 o 425.658 396.529 180.00 0.95343 0.35
18 18 0 o 47.420 44.175 0.00 0.95343 0.02
22 10 8 o 36.319 33.833 180.00 0.95343 0.06
24 6 6 o 93.092 86.722 0.00 0.95343 0.08
19 13 11 o 41.721 43.344 180.00 0.95123 0.07
25 5 1 o 18.281 18.992 0.00 0.95123 0.03
23 11 1 o 1630.639 1694.066 180.00 0.95123 2.65
19 17 1 o 63.766 66.246 0.00 0.95123 0.10
18 18 2 o 0.624 0.658 180.00 0.95050 0.00
20 16 0 o 11.110 11.073 0.00 0.94760 0.01
16 16 12 o 275.270 274.367 0.00 0.94760 0.22
24 8 4 o 432.155 430.738 180.00 0.94760 0.69
19 17 3 o 748.753 725.310 180.00 0.94544 1.19
17 17 9 o 29.813 28.880 0.00 0.94544 0.02
25 5 3 o 15.195 14.719 180.00 0.94544 0.02
21 13 7 o 127.114 123.134 180.00 0.94544 0.20
23 11 3 o 11.437 11.079 0.00 0.94544 0.02
23 9 7 o 2.089 2.024 0.00 0.94544 0.00
20 14 8 o 12.355 11.519 0.00 0.94472 0.02
20 16 2 o 245.479 228.864 180.00 0.94472 0.39
18 14 12 o 5.683 3.843 0.00 0.94187 0.01
22 12 6 o 225.780 152.700 180.00 0.94187 0.35
18 18 4 o 4.300 2.908 180.00 0.94187 0.00
21 15 1 o 135.595 95.308 0.00 0.93975 0.21
19 15 9 o 2.594 1.823 180.00 0.93975 0.00
20 16 4 o 0.268 0.223 180.00 0.93625 0.00
15 15 15 o 5.004 4.567 180.00 0.93417 0.00
19 17 5 o 38.372 35.023 180.00 0.93417 0.06
23 11 5 o 388.334 354.436 180.00 0.93417 0.59
25 5 5 o 105.527 96.315 180.00 0.93417 0.08
21 15 3 o 174.083 158.887 0.00 0.93417 0.26
25 7 1 o 84.390 77.024 180.00 0.93417 0.13
24 8 6 o 390.324 365.300 0.00 0.93348 0.59
26 2 0 o 46.282 45.541 180.00 0.93073 0.03
18 16 10 o 109.838 108.079 180.00 0.93073 0.16
24 10 2 o 970.242 954.705 0.00 0.93073 1.45
22 14 0 o 3.013 2.965 0.00 0.93073 0.00
21 11 11 o 351.412 346.236 180.00 0.92868 0.26
17 15 13 o 17.224 16.971 0.00 0.92868 0.03
25 7 3 o 64.225 63.280 180.00 0.92868 0.09
22 14 2 o 2375.583 2325.342 0.00 0.92800 3.50
22 10 10 o 29.858 29.226 180.00 0.92800 0.02
26 2 2 o 15.679 15.347 180.00 0.92800 0.01
18 18 6 o 1204.727 1179.248 180.00 0.92800 0.89
20 12 12 o 13.477 13.297 0.00 0.92530 0.01
23 9 9 o 260.120 268.614 180.00 0.92329 0.19
21 15 5 o 166.849 172.297 0.00 0.92329 0.24
21 13 9 o 184.269 190.286 0.00 0.92329 0.27
24 10 4 o 207.275 217.234 180.00 0.92262 0.30
20 16 6 o 63.423 66.471 0.00 0.92262 0.09
22 12 8 o 19.677 20.622 180.00 0.92262 0.03
26 4 2 o 41.868 43.913 0.00 0.91997 0.06
22 14 4 o 15.441 16.195 180.00 0.91997 0.02
20 14 10 o 195.124 204.657 0.00 0.91997 0.28
23 13 1 o 25.635 26.404 180.00 0.91799 0.04
25 7 5 o 14.072 14.495 180.00 0.91799 0.02
23 11 7 o 32.187 33.153 180.00 0.91799 0.05
19 17 7 o 9.432 9.714 0.00 0.91799 0.01
17 17 11 o 2258.955 2326.731 180.00 0.91799 1.59
19 13 13 o 90.965 93.694 0.00 0.91799 0.06
24 8 8 o 264.780 270.529 180.00 0.91472 0.18
23 13 3 o 162.066 161.690 0.00 0.91278 0.22
25 9 1 o 1001.332 999.007 0.00 0.91278 1.38
19 15 11 o 255.209 254.616 0.00 0.91278 0.35
26 4 4 o 0.002 0.002 180.00 0.91214 0.00
16 16 14 o 300.443 301.691 0.00 0.91214 0.21
24 10 6 o 77.202 74.576 0.00 0.90957 0.10
26 6 0 o 287.297 277.525 180.00 0.90957 0.20
18 18 8 o 101.760 98.299 180.00 0.90957 0.07
21 15 7 o 3.645 3.533 0.00 0.90766 0.00
25 9 3 o 8.143 7.894 0.00 0.90766 0.01
22 14 6 o 31.691 31.198 0.00 0.90703 0.04
18 14 14 o 254.722 250.754 0.00 0.90703 0.17
26 6 2 o 76.963 75.764 180.00 0.90703 0.10
24 12 0 o 1607.453 1699.427 180.00 0.90450 1.07
20 16 8 o 86.696 91.657 0.00 0.90450 0.12
19 19 1 o 1550.775 1614.555 0.00 0.90262 1.02
23 13 5 o 58.226 60.621 0.00 0.90262 0.08
25 7 7 o 720.761 750.405 0.00 0.90262 0.48
18 16 12 o 611.331 634.297 180.00 0.90200 0.80
24 12 2 o 543.955 564.390 180.00 0.90200 0.72
26 6 4 o 7.450 7.875 0.00 0.89952 0.01
22 12 10 o 53.432 56.483 180.00 0.89952 0.07
20 18 2 o 7.659 8.096 0.00 0.89952 0.01
21 17 1 o 21.584 22.936 0.00 0.89767 0.03
21 13 11 o 145.042 154.132 0.00 0.89767 0.19
25 9 5 o 2024.821 2151.711 0.00 0.89767 2.61
19 17 9 o 156.706 166.526 180.00 0.89767 0.20
23 11 9 o 14.752 15.676 180.00 0.89767 0.02
19 19 3 o 116.922 124.249 0.00 0.89767 0.08
27 1 1 o 866.089 920.364 0.00 0.89767 0.56
24 12 4 o 76.502 82.132 180.00 0.89462 0.10
17 15 15 o 216.932 249.333 0.00 0.89280 0.14
27 3 1 o 195.633 224.853 0.00 0.89280 0.25
21 17 3 o 85.210 97.937 0.00 0.89280 0.11
24 10 8 o 240.179 281.496 0.00 0.89220 0.30
20 14 12 o 140.203 164.322 0.00 0.89220 0.18
20 18 4 o 163.374 191.478 0.00 0.89220 0.21
22 14 8 o 530.728 594.144 0.00 0.88979 0.66
22 16 2 o 65.498 73.324 0.00 0.88979 0.08
26 8 2 o 2.446 2.738 0.00 0.88979 0.00
21 15 9 o 0.575 0.616 0.00 0.88801 0.00
17 17 13 o 100.984 108.277 180.00 0.88801 0.06
23 13 7 o 58.922 63.177 0.00 0.88801 0.07
19 19 5 o 1392.906 1493.494 180.00 0.88801 0.86
27 3 3 o 1034.333 1109.027 0.00 0.88801 0.64
25 11 1 o 11.027 11.823 0.00 0.88801 0.01
18 18 10 o 10.692 11.477 180.00 0.88741 0.01
26 6 6 o 0.224 0.240 180.00 0.88741 0.00
21 17 5 o 1.342 1.434 0.00 0.88329 0.00
19 15 13 o 35.029 37.427 0.00 0.88329 0.04
27 5 1 o 538.873 575.764 180.00 0.88329 0.65
25 9 7 o 0.318 0.340 0.00 0.88329 0.00
25 11 3 o 6270.192 6699.447 180.00 0.88329 7.58
23 15 1 o 0.094 0.100 0.00 0.88329 0.00
24 12 6 o 0.662 0.713 180.00 0.88270 0.00
20 16 10 o 67.283 72.465 180.00 0.88270 0.08
26 8 4 o 68.461 73.733 0.00 0.88270 0.08
22 16 4 o 20.073 21.619 180.00 0.88270 0.02
20 18 6 o 366.223 430.616 180.00 0.88038 0.44
23 15 3 o 629.369 784.656 180.00 0.87865 0.75
27 5 3 o 1.373 1.712 180.00 0.87865 0.00
16 16 16 o 593.482 590.755 180.00 0.87578 0.12
23 11 11 o 63.630 62.009 0.00 0.87408 0.04
19 17 11 o 68.126 66.390 180.00 0.87408 0.08
25 11 5 o 1.232 1.200 0.00 0.87408 0.00
19 19 7 o 338.553 329.930 180.00 0.87408 0.20
22 12 12 o 295.439 298.929 0.00 0.87351 0.17
24 10 10 o 339.328 379.231 180.00 0.87126 0.19
18 16 14 o 104.025 116.258 0.00 0.87126 0.12
22 16 6 o 4.450 4.973 180.00 0.87126 0.01
26 10 0 o 185.437 207.243 0.00 0.87126 0.11
24 14 2 o 185.889 207.748 180.00 0.87126 0.21
26 8 6 o 598.956 669.390 0.00 0.87126 0.69
27 7 1 o 21.265 23.496 180.00 0.86958 0.02
21 13 13 o 1203.037 1329.255 180.00 0.86958 0.68
21 17 7 o 53.281 58.871 0.00 0.86958 0.06
23 15 5 o 3.173 3.505 180.00 0.86958 0.00
23 13 9 o 77.605 85.747 0.00 0.86958 0.09
27 5 5 o 3.232 3.571 0.00 0.86958 0.00
22 14 10 o 27.260 29.838 180.00 0.86902 0.03
26 10 2 o 123.894 135.610 180.00 0.86902 0.14
24 12 8 o 32.486 34.902 0.00 0.86680 0.04
28 0 0 o 15209.699 16341.077 0.00 0.86680 2.13
25 9 9 o 109.048 119.325 0.00 0.86515 0.06
21 15 11 o 69.828 76.408 0.00 0.86515 0.08
27 7 3 o 63.715 69.720 180.00 0.86515 0.07
24 14 4 o 406.881 445.835 180.00 0.86460 0.45
20 18 8 o 47.649 52.210 180.00 0.86460 0.05
20 14 14 o 33.283 36.982 180.00 0.86241 0.02
18 18 12 o 41.970 46.634 180.00 0.86241 0.02
26 10 4 o 128.835 143.153 180.00 0.86241 0.14
28 2 2 o 1307.771 1453.101 0.00 0.86241 0.72
25 11 7 o 69.946 85.676 0.00 0.86078 0.08
25 13 1 o 175.192 214.589 180.00 0.86078 0.19
28 4 0 o 428.357 450.921 180.00 0.85809 0.23
20 16 12 o 4.582 4.824 180.00 0.85809 0.00
20 20 0 o 5768.505 6072.364 0.00 0.85809 1.55
21 19 1 o 117.364 130.586 0.00 0.85648 0.13
27 7 5 o 272.695 303.418 180.00 0.85648 0.29
23 15 7 o 14.540 16.178 0.00 0.85648 0.02
19 19 9 o 84.037 93.503 0.00 0.85648 0.04
17 17 15 o 3.233 3.597 0.00 0.85648 0.00
25 13 3 o 2.720 3.027 0.00 0.85648 0.00
26 8 8 o 74.332 88.557 180.00 0.85595 0.04
22 16 8 o 13.902 16.563 0.00 0.85595 0.01
28 4 2 o 43.172 51.434 180.00 0.85595 0.05
20 20 2 o 39.107 46.591 180.00 0.85595 0.02
22 18 0 o 20.051 29.173 0.00 0.85383 0.01
24 14 6 o 152.828 222.356 180.00 0.85383 0.16
19 15 15 o 81.806 106.917 0.00 0.85225 0.04
21 17 9 o 26.625 34.798 180.00 0.85225 0.03
21 19 3 o 111.382 145.572 0.00 0.85225 0.12
27 9 1 o 88.915 116.208 0.00 0.85225 0.09
22 18 2 o 49.702 62.949 180.00 0.85172 0.05
26 10 6 o 190.605 241.405 180.00 0.85172 0.20
20 20 4 o 242.093 293.056 180.00 0.84963 0.13
28 4 4 o 197.649 239.257 180.00 0.84963 0.10
23 13 11 o 114.141 131.394 0.00 0.84808 0.12
19 17 13 o 114.927 132.299 180.00 0.84808 0.12
27 9 3 o 198.810 228.862 0.00 0.84808 0.20
25 13 5 o 1107.753 1275.200 180.00 0.84808 1.14
23 17 1 o 73.804 84.960 0.00 0.84808 0.08
24 12 10 o 3.683 4.173 0.00 0.84756 0.00
22 18 4 o 285.590 306.276 0.00 0.84550 0.29
26 12 2 o 862.893 925.393 180.00 0.84550 0.88
28 6 2 o 1.012 1.086 180.00 0.84550 0.00
20 18 10 o 68.199 73.138 180.00 0.84550 0.07
22 14 12 o 86.028 92.259 180.00 0.84550 0.09
25 11 9 o 1632.138 1701.754 180.00 0.84396 1.64
23 17 3 o 10.583 11.034 0.00 0.84396 0.01
27 7 7 o 498.425 519.684 180.00 0.84396 0.25
21 19 5 o 194.255 202.540 180.00 0.84396 0.20
24 16 0 o 214.925 244.992 180.00 0.84142 0.11
23 15 9 o 14.805 16.042 180.00 0.83991 0.01
21 15 13 o 62.522 67.745 0.00 0.83991 0.06
27 9 5 o 47.844 51.841 0.00 0.83991 0.05
26 12 4 o 207.896 222.713 0.00 0.83941 0.21
20 20 6 o 14.205 15.218 180.00 0.83941 0.01
28 6 4 o 262.289 280.982 180.00 0.83941 0.26
24 16 2 o 768.609 823.387 0.00 0.83941 0.76
24 14 8 o 23.789 25.484 0.00 0.83941 0.02
18 16 16 o 1482.068 1587.694 0.00 0.83941 0.73
26 10 8 o 71.137 76.683 180.00 0.83741 0.07
22 16 10 o 1093.462 1178.706 0.00 0.83741 1.07
19 19 11 o 609.937 632.713 180.00 0.83592 0.30
29 1 1 o 618.098 641.181 180.00 0.83592 0.30
25 13 7 o 130.673 135.553 0.00 0.83592 0.13
23 17 5 o 8.304 8.614 0.00 0.83592 0.01
18 18 14 o 417.545 429.064 180.00 0.83542 0.20
22 18 6 o 0.276 0.284 0.00 0.83542 0.00
28 8 0 o 85.999 87.719 0.00 0.83345 0.04
24 16 4 o 1.298 1.324 180.00 0.83345 0.00
25 15 1 o 74.359 71.876 180.00 0.83198 0.07
21 17 11 o 77.812 75.214 0.00 0.83198 0.07
27 11 1 o 1011.747 977.963 0.00 0.83198 0.96
29 3 1 o 63.756 61.627 0.00 0.83198 0.06
21 19 7 o 1.894 1.831 180.00 0.83198 0.00
28 8 2 o 318.212 301.648 0.00 0.83149 0.30
20 16 14 o 821.684 778.912 180.00 0.83149 0.78
26 12 6 o 2.997 2.742 0.00 0.82954 0.00
28 6 6 o 2591.963 2371.407 180.00 0.82954 1.22
25 15 3 o 0.003 0.003 0.00 0.82809 0.00
27 9 7 o 51.528 46.778 0.00 0.82809 0.05
27 11 3 o 29.375 26.668 180.00 0.82809 0.03
29 3 3 o 982.867 892.276 180.00 0.82809 0.46
28 8 4 o 278.621 245.255 0.00 0.82569 0.26
20 20 8 o 3.980 3.504 180.00 0.82569 0.00
24 12 12 o 17.746 15.621 180.00 0.82569 0.01
25 11 11 o 0.576 0.498 180.00 0.82426 0.00
23 13 13 o 713.778 617.204 0.00 0.82426 0.33
29 5 1 o 95.755 82.799 0.00 0.82426 0.09
17 17 17 o 16999.834 14699.766 0.00 0.82426 2.60
23 17 7 o 14.561 12.591 0.00 0.82426 0.01
24 16 6 o 106.411 92.415 0.00 0.82379 0.10
20 18 12 o 10.080 8.754 180.00 0.82379 0.01
26 14 0 o 750.694 669.650 180.00 0.82190 0.34
24 14 10 o 83.918 74.858 180.00 0.82190 0.08
22 18 8 o 227.240 202.707 180.00 0.82190 0.21
27 11 5 o 1.934 1.746 180.00 0.82049 0.00
29 5 3 o 0.175 0.158 180.00 0.82049 0.00
23 15 11 o 11.712 10.575 0.00 0.82049 0.01
25 15 5 o 314.993 284.405 0.00 0.82049 0.28
19 17 15 o 322.390 291.084 180.00 0.82049 0.29
25 13 9 o 113.677 102.638 180.00 0.82049 0.10
26 14 2 o 17.860 16.189 180.00 0.82002 0.02
22 14 14 o 13245.584 12006.297 0.00 0.82002 5.95
26 10 10 o 252.905 229.242 180.00 0.82002 0.11
21 19 9 o 241.386 215.764 180.00 0.81676 0.21
21 21 1 o 4.177 3.733 180.00 0.81676 0.00
28 8 6 o 2.364 2.139 180.00 0.81630 0.00
26 12 8 o 760.414 688.022 180.00 0.81630 0.67
22 16 12 o 666.972 603.476 180.00 0.81630 0.59
28 10 2 o 559.652 525.040 0.00 0.81446 0.49
22 20 2 o 2486.934 2333.128 0.00 0.81446 2.17
26 14 4 o 400.623 375.846 180.00 0.81446 0.35
29 5 5 o 1720.189 1593.225 180.00 0.81309 0.75
27 9 9 o 708.795 656.480 0.00 0.81309 0.31
29 7 1 o 86.224 79.860 0.00 0.81309 0.07
21 21 3 o 1487.233 1377.462 0.00 0.81309 0.65
21 15 15 o 36.898 34.175 0.00 0.81309 0.02
19 19 13 o 26.287 24.347 0.00 0.81309 0.01
23 19 1 o 95.755 88.688 0.00 0.81309 0.08
24 16 8 o 118.298 107.594 0.00 0.81082 0.10
23 19 3 o 3063.156 2754.256 0.00 0.80946 2.61
23 17 9 o 90.022 80.944 0.00 0.80946 0.08
25 15 7 o 657.201 590.926 0.00 0.80946 0.56
29 7 3 o 276.592 248.700 0.00 0.80946 0.24
21 17 13 o 967.015 869.498 180.00 0.80946 0.82
27 11 7 o 72.251 64.965 180.00 0.80946 0.06
27 13 1 o 73.185 65.804 0.00 0.80946 0.06
28 10 4 o 2.043 1.837 0.00 0.80901 0.00
20 20 10 o 20.020 18.003 0.00 0.80901 0.01
22 20 4 o 184.330 165.754 0.00 0.80901 0.16
24 18 2 o 329.606 290.440 180.00 0.80722 0.28
18 18 16 o 1149.042 1012.504 0.00 0.80722 0.48
30 2 0 o 204.532 180.228 0.00 0.80722 0.09
21 21 5 o 24.512 20.926 180.00 0.80588 0.01
27 13 3 o 245.703 209.752 180.00 0.80588 0.21
22 18 10 o 189.370 161.805 180.00 0.80544 0.16
30 2 2 o 53.354 45.588 180.00 0.80544 0.02
26 14 6 o 1840.348 1572.462 0.00 0.80544 1.54
28 8 8 o 5663.152 5057.387 0.00 0.80367 2.35
20 16 16 o 452.703 404.280 180.00 0.80367 0.19
25 13 11 o 947.973 844.377 180.00 0.80235 0.78
25 17 1 o 38.140 33.972 0.00 0.80235 0.03
29 7 5 o 17.299 15.409 180.00 0.80235 0.01
23 19 5 o 0.002 0.001 180.00 0.80235 0.00
24 14 12 o 120.657 106.435 180.00 0.80192 0.10
24 18 4 o 2.868 2.530 180.00 0.80192 0.00
30 4 2 o 1.645 1.441 0.00 0.80017 0.00
28 10 6 o 29.411 25.767 180.00 0.80017 0.02
20 18 14 o 156.071 136.734 180.00 0.80017 0.13
22 20 6 o 46.751 40.959 0.00 0.80017 0.04
26 12 10 o 0.010 0.009 180.00 0.80017 0.00
29 9 1 o 92.045 83.193 0.00 0.79887 0.07
27 13 5 o 3.349 3.027 0.00 0.79887 0.00
25 17 3 o 6360.492 5748.797 180.00 0.79887 5.15
23 15 13 o 1520.269 1374.063 0.00 0.79887 1.23
21 19 11 o 563.536 509.340 0.00 0.79887 0.46
28 12 0 o 6773.836 6350.905 0.00 0.79671 2.71
25 15 9 o 135.754 125.175 0.00 0.79543 0.11
21 21 7 o 95.000 87.597 0.00 0.79543 0.04
27 11 9 o 63.695 58.731 0.00 0.79543 0.05
29 9 3 o 93.547 86.257 0.00 0.79543 0.07
28 12 2 o 6.825 6.250 180.00 0.79500 0.01
30 4 4 o 337.192 308.777 180.00 0.79500 0.13
24 16 10 o 16.202 14.837 0.00 0.79500 0.01
24 18 6 o 13.914 12.566 0.00 0.79330 0.01
30 6 0 o 92.467 83.505 0.00 0.79330 0.04
26 14 8 o 44.217 39.931 0.00 0.79330 0.03
26 16 2 o 828.978 748.633 180.00 0.79330 0.65
22 16 14 o 0.873 0.788 0.00 0.79330 0.00
23 17 11 o 3391.013 3070.443 180.00 0.79203 2.65
29 7 7 o 1.772 1.604 0.00 0.79203 0.00
19 17 17 o 0.058 0.052 180.00 0.79203 0.00
23 19 7 o 105.703 95.710 180.00 0.79203 0.08
25 17 5 o 5.058 4.580 0.00 0.79203 0.00
30 6 2 o 162.579 146.877 0.00 0.79161 0.13
28 12 4 o 49.566 44.336 180.00 0.78993 0.04
20 20 12 o 1670.669 1494.397 0.00 0.78993 0.65
19 19 15 o 199.638 188.390 180.00 0.78868 0.08
29 9 5 o 35.907 33.884 180.00 0.78868 0.03
27 13 7 o 147.071 138.785 180.00 0.78868 0.11
28 10 8 o 11.690 11.393 0.00 0.78826 0.01
26 16 4 o 187.274 182.511 180.00 0.78826 0.14
22 20 8 o 136.257 132.791 180.00 0.78826 0.10
22 18 12 o 360.492 412.340 180.00 0.78661 0.27
30 6 4 o 230.198 263.306 180.00 0.78661 0.18
27 15 1 o 148.736 171.595 0.00 0.78537 0.11
21 17 15 o 198.182 228.640 0.00 0.78537 0.15
31 1 1 o 101.591 92.424 0.00 0.78210 0.04
21 21 9 o 21.215 19.301 0.00 0.78210 0.01
27 15 3 o 33.002 30.024 180.00 0.78210 0.02
25 17 7 o 512.782 466.511 0.00 0.78210 0.38
29 11 1 o 1180.090 1073.604 0.00 0.78210 0.88
25 13 13 o 2.275 2.070 180.00 0.78210 0.00
26 12 12 o 9.772 8.698 180.00 0.78170 0.00
28 12 6 o 166.236 147.967 180.00 0.78170 0.12
24 18 8 o 261.762 232.995 0.00 0.78170 0.19
26 16 6 o 142.900 121.774 180.00 0.78008 0.11
22 22 0 o 1245.521 1061.388 180.00 0.78008 0.23
24 14 14 o 178.674 152.259 0.00 0.78008 0.07
30 8 2 o 145.568 124.048 0.00 0.78008 0.11
25 15 11 o 227.119 197.134 180.00 0.77887 0.17
21 19 13 o 0.306 0.265 0.00 0.77887 0.00
29 9 7 o 160.837 139.603 0.00 0.77887 0.12
27 11 11 o 11.596 10.065 0.00 0.77887 0.00
23 21 1 o 56.305 48.871 180.00 0.77887 0.04
23 19 9 o 3.568 3.097 0.00 0.77887 0.00
31 3 1 o 155.374 134.861 180.00 0.77887 0.11
29 11 3 o 321.079 278.689 0.00 0.77887 0.23
22 22 2 o 11.080 9.645 180.00 0.77847 0.00
30 6 6 o 0.834 0.726 180.00 0.77847 0.00
26 14 10 o 490.562 427.011 180.00 0.77847 0.36
18 18 18 o 74.394 64.757 180.00 0.77847 0.01
24 16 12 o 622.937 554.957 180.00 0.77688 0.45
24 20 0 o 0.097 0.087 0.00 0.77688 0.00
23 15 15 o 652.963 626.497 180.00 0.77568 0.23
23 21 3 o 72.794 69.844 180.00 0.77568 0.05
27 15 5 o 0.010 0.010 180.00 0.77568 0.00
31 3 3 o 4.974 4.773 0.00 0.77568 0.00
27 13 9 o 37.757 36.227 180.00 0.77568 0.03
30 8 4 o 52.078 50.825 0.00 0.77529 0.04
20 18 16 o 0.092 0.090 0.00 0.77529 0.00
24 20 2 o 27.157 26.503 0.00 0.77529 0.02
28 14 2 o 295.167 284.421 180.00 0.77371 0.21
22 22 4 o 81.435 78.471 0.00 0.77371 0.03
22 20 10 o 56.025 53.985 0.00 0.77371 0.04
28 10 10 o 43.115 41.546 0.00 0.77371 0.02
23 17 13 o 24.758 24.139 180.00 0.77253 0.02
31 5 1 o 19.778 19.283 0.00 0.77253 0.01
25 19 1 o 193.998 189.141 180.00 0.77253 0.14
29 11 5 o 10.774 10.504 180.00 0.77253 0.01
24 20 4 o 518.519 514.930 180.00 0.77058 0.36
28 12 8 o 21.198 21.051 180.00 0.77058 0.01
25 17 9 o 1483.641 1489.274 0.00 0.76942 1.03
25 19 3 o 1.216 1.221 0.00 0.76942 0.00
31 5 3 o 246.854 247.791 180.00 0.76942 0.17
23 21 5 o 797.964 800.993 0.00 0.76942 0.56
22 16 16 o 768.685 779.069 0.00 0.76904 0.27
26 16 8 o 1626.292 1648.262 0.00 0.76904 1.13
20 20 14 o 26.208 26.562 180.00 0.76904 0.01
28 14 4 o 181.228 183.676 0.00 0.76904 0.13
26 18 0 o 0.014 0.015 180.00 0.76750 0.00
30 8 6 o 1740.020 1841.931 180.00 0.76750 1.20
30 10 0 o 75.401 79.817 0.00 0.76750 0.03
24 18 10 o 180.787 191.375 0.00 0.76750 0.12
21 21 11 o 120.738 131.065 180.00 0.76635 0.04
29 9 9 o 568.577 617.208 180.00 0.76635 0.19
27 15 7 o 148.876 161.610 0.00 0.76635 0.10
30 10 2 o 7.071 7.735 0.00 0.76597 0.00
22 18 14 o 93.695 102.496 180.00 0.76597 0.06
22 22 6 o 4325.357 4731.642 0.00 0.76597 1.48
26 18 2 o 756.406 827.456 180.00 0.76597 0.52
31 7 1 o 22.633 23.911 0.00 0.76331 0.02
29 13 1 o 6.476 6.841 180.00 0.76331 0.00
31 5 5 o 13.197 13.942 0.00 0.76331 0.00
29 11 7 o 5.517 5.829 180.00 0.76331 0.00
19 19 17 o 198.591 209.805 0.00 0.76331 0.07
25 19 5 o 638.435 674.484 180.00 0.76331 0.43
23 19 11 o 69.400 73.319 0.00 0.76331 0.05
24 20 6 o 554.834 585.795 180.00 0.76293 0.37
28 14 6 o 2.199 2.331 180.00 0.76143 0.00
26 18 4 o 266.920 282.867 0.00 0.76143 0.18
26 14 12 o 51.043 54.092 0.00 0.76143 0.03
30 10 4 o 589.810 625.049 0.00 0.76143 0.39
29 13 3 o 5.921 6.548 0.00 0.76031 0.00
21 17 17 o 36.704 40.588 0.00 0.76031 0.01
23 21 7 o 2.924 3.233 0.00 0.76031 0.00
27 17 1 o 201.996 223.371 0.00 0.76031 0.13
27 13 11 o 0.421 0.465 180.00 0.76031 0.00
31 7 3 o 5.723 6.329 180.00 0.76031 0.00
25 15 13 o 89.471 98.939 0.00 0.76031 0.06
32 0 0 o 77.214 123.346 0.00 0.75845 0.01
27 17 3 o 1.472 2.558 180.00 0.75734 0.00
21 19 15 o 40.090 69.696 180.00 0.75734 0.03
30 8 8 o 71.207 122.188 0.00 0.75697 0.02
24 16 14 o 16.935 29.060 0.00 0.75697 0.01
22 20 12 o 16.391 28.126 180.00 0.75697 0.01
28 12 10 o 84.977 145.817 180.00 0.75697 0.06
32 2 2 o 164.037 255.712 0.00 0.75550 0.05
22 22 8 o 9.713 15.141 0.00 0.75550 0.00
26 16 10 o 20.834 32.477 0.00 0.75550 0.01
31 7 5 o 99.190 132.545 180.00 0.75441 0.06
29 13 5 o 0.011 0.015 180.00 0.75441 0.00
25 19 7 o 175.341 234.302 180.00 0.75441 0.11
25 17 11 o 16.089 21.499 180.00 0.75441 0.01
27 15 9 o 22.299 29.797 180.00 0.75441 0.01
26 18 6 o 40.232 51.133 180.00 0.75404 0.03
30 10 6 o 202.622 257.523 180.00 0.75404 0.13
28 16 0 o 3986.585 4395.790 0.00 0.75259 1.27
24 20 8 o 5.130 5.656 0.00 0.75259 0.00
32 4 0 o 540.279 595.736 180.00 0.75259 0.17
31 9 1 o 23.336 24.161 180.00 0.75151 0.01
29 11 9 o 0.627 0.650 180.00 0.75151 0.00
23 17 15 o 25.823 26.737 180.00 0.75151 0.02
27 17 5 o 1520.339 1574.118 180.00 0.75151 0.96
28 14 8 o 47.538 48.410 0.00 0.75115 0.03
32 4 2 o 9.510 9.684 180.00 0.75115 0.01
24 18 12 o 5.676 5.780 180.00 0.75115 0.00
28 16 2 o 0.212 0.216 0.00 0.75115 0.00
20 18 18 o 297.853 297.859 0.00 0.74971 0.09
30 12 2 o 2694.796 2694.850 0.00 0.74971 1.69
21 21 13 o 90.074 92.982 0.00 0.74864 0.03
31 9 3 o 90.452 93.373 0.00 0.74864 0.06
23 21 9 o 95.296 98.374 0.00 0.74864 0.06
28 16 4 o 1195.029 1225.823 180.00 0.74687 0.74
20 20 16 o 1175.487 1205.777 0.00 0.74687 0.36
32 4 4 o 46.533 47.732 0.00 0.74687 0.01
29 13 7 o 42.714 43.736 0.00 0.74581 0.03
23 19 13 o 624.484 639.429 180.00 0.74581 0.38
31 7 7 o 569.259 582.883 180.00 0.74581 0.17
23 23 1 o 269.981 276.442 0.00 0.74581 0.08
30 12 4 o 211.291 217.676 0.00 0.74546 0.13
30 10 8 o 12.919 13.548 0.00 0.74406 0.01
32 6 2 o 43.437 45.552 180.00 0.74406 0.03
22 18 16 o 779.024 816.968 180.00 0.74406 0.47
24 22 2 o 149.132 156.396 0.00 0.74406 0.09
26 18 8 o 37.456 39.281 180.00 0.74406 0.02
25 19 9 o 24.188 25.618 0.00 0.74301 0.01
31 9 5 o 1647.812 1745.202 180.00 0.74301 1.00
25 21 1 o 41.036 43.461 180.00 0.74301 0.02
23 23 3 o 11.278 11.944 0.00 0.74301 0.00
29 15 1 o 1.678 1.777 0.00 0.74301 0.00
27 17 7 o 1271.577 1346.730 0.00 0.74301 0.77
27 13 13 o 749.675 793.983 180.00 0.74301 0.23
22 22 10 o 25.758 27.543 0.00 0.74266 0.01
26 14 14 o 25.573 27.345 180.00 0.74266 0.01
28 12 12 o 65.969 74.580 180.00 0.74127 0.02
27 15 11 o 73.673 85.135 0.00 0.74024 0.04
29 15 3 o 468.453 541.332 0.00 0.74024 0.28
25 15 15 o 292.763 338.309 0.00 0.74024 0.09
25 21 3 o 57.584 66.543 180.00 0.74024 0.03
24 22 4 o 18.376 21.159 180.00 0.73990 0.01
28 16 6 o 47.682 54.902 0.00 0.73990 0.03
26 16 12 o 22.695 26.131 0.00 0.73990 0.01
24 20 10 o 3.195 3.679 180.00 0.73990 0.00
32 6 4 o 1.128 1.299 180.00 0.73990 0.00
30 12 6 o 2.425 2.600 180.00 0.73852 0.00
26 20 2 o 1.775 1.904 0.00 0.73852 0.00
22 20 14 o 212.105 227.466 180.00 0.73852 0.13
28 14 10 o 0.180 0.193 0.00 0.73852 0.00
29 11 11 o 31.086 31.659 180.00 0.73750 0.01
19 19 19 o 11.472 11.683 180.00 0.73750 0.00
25 17 13 o 543.955 553.983 0.00 0.73750 0.32
31 11 1 o 245.105 249.623 0.00 0.73750 0.14
23 23 5 o 37.137 37.822 0.00 0.73750 0.01
24 16 16 o 39.247 39.896 180.00 0.73580 0.01
32 8 0 o 94.744 96.309 180.00 0.73580 0.03
29 13 9 o 24.334 24.937 180.00 0.73479 0.01
31 9 7 o 327.372 335.483 0.00 0.73479 0.19
31 11 3 o 6016.000 6165.046 0.00 0.73479 3.48
21 19 17 o 140.793 144.282 0.00 0.73479 0.08
25 21 5 o 440.385 451.295 180.00 0.73479 0.25
29 15 5 o 32.099 32.895 180.00 0.73479 0.02
33 1 1 o 14.191 14.542 0.00 0.73479 0.00
27 19 1 o 51.620 52.898 0.00 0.73479 0.03
23 21 11 o 1201.557 1231.326 0.00 0.73479 0.70
26 20 4 o 158.165 163.188 180.00 0.73445 0.09
32 8 2 o 9.605 9.910 0.00 0.73445 0.01
24 18 14 o 0.244 0.257 0.00 0.73311 0.00
32 6 6 o 2.252 2.378 0.00 0.73311 0.00
24 22 6 o 639.220 675.157 180.00 0.73311 0.37
30 14 0 o 219.149 231.469 0.00 0.73311 0.06
27 17 9 o 9.863 10.377 180.00 0.73211 0.01
33 3 1 o 15.645 16.460 0.00 0.73211 0.01
27 19 3 o 265.293 279.115 0.00 0.73211 0.15
30 10 10 o 44.097 46.428 0.00 0.73178 0.01
26 18 10 o 70.139 73.846 180.00 0.73178 0.04
30 14 2 o 129.476 136.319 180.00 0.73178 0.07
28 16 8 o 0.000 0.000 180.00 0.73045 0.00
32 8 4 o 151.022 161.687 180.00 0.73045 0.09
21 21 15 o 73.040 77.421 180.00 0.72946 0.02
31 11 5 o 53.251 56.446 180.00 0.72946 0.03
23 17 17 o 1951.944 2069.029 180.00 0.72946 0.55
25 19 11 o 2790.925 2958.334 180.00 0.72946 1.57
23 23 7 o 788.749 836.061 180.00 0.72946 0.22
33 3 3 o 513.375 544.169 180.00 0.72946 0.14
30 12 8 o 268.011 281.918 180.00 0.72913 0.15
22 22 12 o 7835.522 8104.961 0.00 0.72782 2.18
28 18 2 o 11.710 12.113 0.00 0.72782 0.01
30 14 4 o 331.077 342.462 0.00 0.72782 0.18
26 20 6 o 32.582 33.702 180.00 0.72782 0.02
29 15 7 o 0.905 0.958 0.00 0.72684 0.00
27 19 5 o 0.893 0.946 0.00 0.72684 0.00
33 5 1 o 377.710 400.118 0.00 0.72684 0.21
25 21 7 o 135.368 143.399 0.00 0.72684 0.08
23 19 15 o 13.209 13.992 0.00 0.72684 0.01
24 20 12 o 485.117 530.024 180.00 0.72522 0.27
31 9 9 o 11.332 12.553 180.00 0.72425 0.00
27 15 13 o 70.021 77.568 180.00 0.72425 0.04
33 5 3 o 9.253 10.250 0.00 0.72425 0.01
28 18 4 o 0.599 0.665 180.00 0.72392 0.00
24 22 8 o 147.185 163.582 0.00 0.72392 0.08
20 20 18 o 4.227 4.698 180.00 0.72392 0.00
32 8 6 o 9.248 10.278 180.00 0.72392 0.01
28 14 12 o 204.488 227.269 180.00 0.72392 0.11
26 16 14 o 115.817 127.553 0.00 0.72264 0.06
32 10 2 o 370.097 407.601 0.00 0.72264 0.20
31 11 7 o 4.799 5.299 0.00 0.72168 0.00
31 13 1 o 141.912 156.713 0.00 0.72168 0.08
29 17 1 o 577.416 637.639 180.00 0.72168 0.31
29 13 11 o 23.289 25.718 0.00 0.72168 0.01
30 14 6 o 733.864 814.202 0.00 0.72136 0.39
22 18 18 o 253.003 280.700 180.00 0.72136 0.07
27 19 7 o 734.715 794.315 180.00 0.71914 0.39
23 21 13 o 264.057 285.477 0.00 0.71914 0.14
25 17 15 o 6.376 6.894 180.00 0.71914 0.00
33 7 1 o 55.767 60.291 180.00 0.71914 0.03
27 17 11 o 14.518 15.695 180.00 0.71914 0.01
31 13 3 o 286.382 309.613 180.00 0.71914 0.15
23 23 9 o 14.666 15.855 0.00 0.71914 0.00
29 17 3 o 17.257 18.657 0.00 0.71914 0.01
33 5 5 o 503.246 544.069 180.00 0.71914 0.13
28 16 10 o 178.953 191.398 0.00 0.71883 0.09
26 20 8 o 0.787 0.842 180.00 0.71883 0.00
32 10 4 o 53.397 57.110 0.00 0.71883 0.03
22 20 16 o 4.961 5.306 0.00 0.71883 0.00
26 18 12 o 191.625 199.591 180.00 0.71757 0.10
28 18 6 o 2156.954 2246.614 0.00 0.71757 1.14
30 12 10 o 50.222 52.309 0.00 0.71757 0.03
25 21 9 o 107.071 110.484 180.00 0.71663 0.06
33 7 3 o 170.058 175.478 0.00 0.71663 0.09
29 15 9 o 1.351 1.394 180.00 0.71663 0.00
24 24 0 o 2.384 2.380 180.00 0.71507 0.00
32 8 8 o 230.420 230.049 180.00 0.71507 0.06
31 13 5 o 209.707 208.198 0.00 0.71414 0.11
25 19 13 o 28.007 27.806 180.00 0.71414 0.01
29 17 5 o 1285.142 1275.896 0.00 0.71414 0.66
25 23 1 o 65.241 64.772 0.00 0.71414 0.03
24 24 2 o 69.885 69.287 0.00 0.71383 0.02
24 18 16 o 105.722 104.817 0.00 0.71383 0.05
30 14 8 o 112.986 110.585 180.00 0.71260 0.06
24 22 10 o 238.083 233.024 0.00 0.71260 0.12
32 10 6 o 339.842 332.620 0.00 0.71260 0.17
30 16 2 o 1977.211 1935.194 0.00 0.71260 1.01
26 22 0 o 74.215 72.638 180.00 0.71260 0.02
34 2 0 o 0.243 0.238 0.00 0.71260 0.00
25 23 3 o 0.921 0.891 180.00 0.71168 0.00
21 19 19 o 1.658 1.605 180.00 0.71168 0.00
33 7 5 o 888.255 859.881 0.00 0.71168 0.45
31 11 9 o 145.052 140.419 180.00 0.71168 0.07
34 2 2 o 21.677 20.994 180.00 0.71138 0.01
22 22 14 o 9.444 9.146 0.00 0.71138 0.00
26 22 2 o 14.421 13.967 0.00 0.71138 0.01
24 24 4 o 106.074 106.063 0.00 0.71016 0.03
32 12 0 o 1116.050 1115.941 180.00 0.71016 0.28
21 21 17 o 305.797 318.425 180.00 0.70925 0.08
33 9 1 o 23.440 24.408 180.00 0.70925 0.01
27 21 1 o 82.941 86.366 180.00 0.70925 0.04
27 19 9 o 1562.189 1626.701 0.00 0.70925 0.79
28 18 8 o 1.204 1.269 0.00 0.70895 0.00
30 16 4 o 452.933 477.524 180.00 0.70895 0.23
32 12 2 o 36.457 38.436 0.00 0.70895 0.02
24 20 14 o 82.233 86.697 0.00 0.70895 0.04
34 4 2 o 57.984 61.792 180.00 0.70774 0.03
26 20 10 o 606.943 646.804 180.00 0.70774 0.30
28 14 14 o 274.123 292.126 0.00 0.70774 0.07
26 22 4 o 1.051 1.121 0.00 0.70774 0.00
25 23 5 o 1.131 1.178 0.00 0.70684 0.00
33 9 3 o 241.457 251.468 180.00 0.70684 0.12
27 21 3 o 5.428 5.653 180.00 0.70684 0.00
29 17 7 o 543.411 565.942 0.00 0.70684 0.27
23 19 17 o 20.365 21.210 0.00 0.70684 0.01
23 23 11 o 3886.815 4047.978 0.00 0.70684 0.96
29 13 13 o 1.455 1.515 0.00 0.70684 0.00
27 15 15 o 28.659 29.847 0.00 0.70684 0.01
31 13 7 o 1.955 2.036 180.00 0.70684 0.00
28 16 12 o 5.806 6.381 180.00 0.70534 0.00
28 20 0 o 38.955 42.812 0.00 0.70534 0.01
32 12 4 o 521.410 573.034 180.00 0.70534 0.26
29 15 11 o 0.015 0.019 0.00 0.70445 0.00
31 15 1 o 5.413 6.946 180.00 0.70445 0.00
25 21 11 o 91.885 117.892 180.00 0.70445 0.04
33 7 7 o 2.912 3.736 180.00 0.70445 0.00
27 17 13 o 12.722 16.323 0.00 0.70445 0.01
34 4 4 o 41.887 58.089 180.00 0.70415 0.01
30 12 12 o 0.447 0.619 180.00 0.70415 0.00
26 16 16 o 40.666 56.395 180.00 0.70415 0.01
24 24 6 o 0.374 0.519 180.00 0.70415 0.00
32 10 8 o 0.068 0.094 180.00 0.70415 0.00
28 20 2 o 133.841 185.611 180.00 0.70415 0.07
34 6 0 o 177.763 317.785 0.00 0.70297 0.04
30 16 6 o 9.846 17.602 0.00 0.70297 0.00
31 15 3 o 96.965 162.370 0.00 0.70209 0.05
23 21 15 o 136.841 229.143 0.00 0.70209 0.07
33 9 5 o 18.730 31.365 0.00 0.70209 0.01
27 21 5 o 0.095 0.159 180.00 0.70209 0.00
26 18 14 o 155.775 251.590 180.00 0.70180 0.08
26 22 6 o 14.608 23.593 180.00 0.70180 0.01
34 6 2 o 0.926 1.496 180.00 0.70180 0.00
30 14 10 o 0.299 0.482 0.00 0.70180 0.00
28 20 4 o 75.025 111.975 180.00 0.70063 0.04
20 20 20 o 136.251 203.355 0.00 0.70063 0.01
25 23 7 o 30.374 40.893 180.00 0.69975 0.01
31 11 11 o 0.000 0.000 180.00 0.69975 0.00
25 17 17 o 6.194 8.339 0.00 0.69975 0.00
29 19 1 o 21.707 29.224 180.00 0.69975 0.01
32 12 6 o 38.949 49.724 180.00 0.69946 0.02
24 22 12 o 0.060 0.076 180.00 0.69946 0.00
22 20 18 o 1.926 2.042 0.00 0.69830 0.00
34 6 4 o 121.769 129.119 0.00 0.69830 0.06
28 18 10 o 0.130 0.137 0.00 0.69830 0.00
25 19 15 o 10.663 11.048 180.00 0.69744 0.01
31 15 5 o 90.165 93.423 180.00 0.69744 0.04
33 11 1 o 2577.571 2670.714 180.00 0.69744 1.21
27 19 11 o 504.647 522.883 180.00 0.69744 0.24
29 19 3 o 202.533 209.852 180.00 0.69744 0.10
31 13 9 o 185.358 192.056 0.00 0.69744 0.09
29 17 9 o 77.942 80.759 0.00 0.69744 0.04
24 24 8 o 1056.943 1143.269 180.00 0.69600 0.25
27 21 7 o 2.388 2.473 180.00 0.69514 0.00
33 11 3 o 43.042 44.577 180.00 0.69514 0.02
33 9 7 o 84.776 87.799 180.00 0.69514 0.04
28 20 6 o 8.636 8.747 180.00 0.69486 0.00
30 16 8 o 312.279 316.267 0.00 0.69486 0.14
26 20 12 o 80.999 82.033 0.00 0.69486 0.04
32 10 10 o 83.105 78.513 0.00 0.69372 0.02
30 18 0 o 563.797 532.641 180.00 0.69372 0.13
22 22 16 o 192.171 181.551 0.00 0.69372 0.04
32 14 2 o 248.931 235.174 180.00 0.69372 0.11
34 8 2 o 21.076 19.911 0.00 0.69372 0.01
24 18 18 o 194.188 183.457 180.00 0.69372 0.04
26 22 8 o 1365.078 1289.642 180.00 0.69372 0.63
29 19 5 o 41.992 39.228 0.00 0.69287 0.02
35 1 1 o 30.537 28.527 180.00 0.69287 0.01
23 23 13 o 202.347 189.030 180.00 0.69287 0.05
30 18 2 o 0.479 0.448 180.00 0.69259 0.00
34 6 6 o 3740.334 3495.969 0.00 0.69259 0.85
32 12 8 o 71.507 67.204 180.00 0.69147 0.03
24 20 16 o 134.481 126.388 180.00 0.69147 0.06
31 15 7 o 552.157 528.367 180.00 0.69063 0.25
29 15 13 o 130.819 125.183 0.00 0.69063 0.06
25 21 13 o 6.053 5.792 180.00 0.69063 0.00
25 23 9 o 1773.167 1696.767 180.00 0.69063 0.80
33 11 5 o 84.932 81.273 180.00 0.69063 0.04
35 3 1 o 54.040 51.712 180.00 0.69063 0.02
32 14 4 o 1.127 1.091 0.00 0.69035 0.00
34 8 4 o 203.344 196.835 180.00 0.69035 0.09
28 16 14 o 88.379 85.549 0.00 0.69035 0.04
30 14 12 o 18.520 18.918 180.00 0.68923 0.01
30 18 4 o 229.212 234.143 180.00 0.68923 0.10
21 21 19 o 2.197 2.286 0.00 0.68840 0.00
27 17 15 o 64.157 66.772 0.00 0.68840 0.03
35 3 3 o 117.596 122.390 180.00 0.68840 0.03
28 20 8 o 9091.364 9328.556 0.00 0.68702 4.02
23 19 19 o 397.081 405.429 0.00 0.68620 0.09
31 13 11 o 126.373 129.030 180.00 0.68620 0.06
33 9 9 o 2734.020 2791.502 0.00 0.68620 0.60
29 17 11 o 320.337 327.072 180.00 0.68620 0.14
25 25 1 o 599.170 611.768 0.00 0.68620 0.13
29 19 7 o 645.797 659.375 0.00 0.68620 0.28
31 17 1 o 179.700 183.479 0.00 0.68620 0.08
35 5 1 o 122.226 124.796 0.00 0.68620 0.05
27 21 9 o 425.324 434.267 0.00 0.68620 0.19
28 18 12 o 122.692 125.229 180.00 0.68592 0.05
24 24 10 o 269.006 274.567 0.00 0.68592 0.06
26 18 16 o 41.735 42.437 180.00 0.68483 0.02
34 8 6 o 63.038 64.099 180.00 0.68483 0.03
34 10 0 o 4490.596 4566.182 180.00 0.68483 0.98
32 14 6 o 319.297 324.672 180.00 0.68483 0.14
26 24 2 o 6.993 7.111 0.00 0.68483 0.00
24 22 14 o 266.190 270.671 0.00 0.68483 0.12
30 16 10 o 15.821 16.087 180.00 0.68483 0.01
23 21 17 o 1.590 1.599 0.00 0.68401 0.00
33 13 1 o 0.700 0.704 0.00 0.68401 0.00
27 19 13 o 345.084 347.084 180.00 0.68401 0.15
27 23 1 o 23.851 23.990 180.00 0.68401 0.01
31 17 3 o 3618.735 3639.716 180.00 0.68401 1.57
25 25 3 o 0.072 0.073 0.00 0.68401 0.00
33 11 7 o 118.830 119.519 180.00 0.68401 0.05
35 5 3 o 58.783 59.124 180.00 0.68401 0.03
34 10 2 o 162.936 162.681 180.00 0.68374 0.07
30 18 6 o 18.830 18.800 180.00 0.68374 0.01
26 22 10 o 129.932 129.728 180.00 0.68374 0.06
31 15 9 o 0.938 0.868 0.00 0.68185 0.00
33 13 3 o 0.498 0.461 0.00 0.68185 0.00
27 23 3 o 12.402 11.474 180.00 0.68185 0.01
32 12 10 o 0.866 0.798 180.00 0.68158 0.00
26 24 4 o 2.062 1.900 180.00 0.68158 0.00
28 22 2 o 0.941 0.874 0.00 0.68051 0.00
26 20 14 o 87.837 81.528 180.00 0.68051 0.04
34 10 4 o 2.819 2.616 0.00 0.68051 0.00
25 25 5 o 672.982 637.825 0.00 0.67971 0.14
31 17 5 o 12.465 11.813 180.00 0.67971 0.01
25 23 11 o 22.922 21.725 0.00 0.67971 0.01
35 7 1 o 137.137 129.973 0.00 0.67971 0.06
25 19 17 o 2671.243 2531.697 180.00 0.67971 1.13
35 5 5 o 618.603 586.287 0.00 0.67971 0.13
32 16 0 o 0.012 0.011 0.00 0.67838 0.00
33 13 5 o 395.345 377.625 180.00 0.67758 0.17
27 23 5 o 939.483 897.375 180.00 0.67758 0.39
23 23 15 o 91.073 86.991 0.00 0.67758 0.02
29 21 1 o 29.149 27.843 180.00 0.67758 0.01
35 7 3 o 237.200 226.569 180.00 0.67758 0.10
29 19 9 o 1551.044 1481.526 0.00 0.67758 0.65
28 20 10 o 28.998 27.481 180.00 0.67732 0.01
22 20 20 o 19.164 18.161 180.00 0.67732 0.00
34 8 8 o 401.185 380.193 0.00 0.67732 0.08
32 14 8 o 5.605 5.311 180.00 0.67732 0.00
32 16 2 o 54.122 51.290 180.00 0.67732 0.02
28 22 4 o 103.019 97.628 180.00 0.67732 0.04
30 18 8 o 93.094 86.570 0.00 0.67627 0.04
26 24 6 o 152.995 142.274 0.00 0.67627 0.06
29 15 15 o 46.715 43.738 0.00 0.67548 0.01
27 21 11 o 0.757 0.708 0.00 0.67548 0.00
25 21 15 o 463.187 433.675 0.00 0.67548 0.19
29 21 3 o 30.035 28.121 0.00 0.67548 0.01
33 11 9 o 23.831 22.313 180.00 0.67548 0.01
34 10 6 o 70.562 66.359 180.00 0.67522 0.03
30 14 14 o 69.043 64.930 0.00 0.67522 0.01
22 22 18 o 9.934 9.343 0.00 0.67522 0.00
28 16 16 o 3517.841 3353.073 0.00 0.67418 0.72
36 0 0 o 16.869 16.079 0.00 0.67418 0.00
32 16 4 o 132.654 126.441 180.00 0.67418 0.05
24 24 12 o 4.879 4.651 0.00 0.67418 0.00
35 7 5 o 0.524 0.498 0.00 0.67340 0.00
31 17 7 o 83.160 79.041 0.00 0.67340 0.03
25 25 7 o 90.615 86.127 0.00 0.67340 0.02
31 13 13 o 40.678 38.664 0.00 0.67340 0.01
29 17 13 o 56.085 53.307 180.00 0.67340 0.02
30 16 12 o 9.098 8.611 180.00 0.67314 0.00
24 20 18 o 45.835 43.381 180.00 0.67314 0.02
30 20 2 o 61.178 56.051 0.00 0.67211 0.02
26 22 12 o 2.622 2.402 0.00 0.67211 0.00
28 18 14 o 313.358 287.096 180.00 0.67211 0.13
36 2 2 o 105.190 96.374 180.00 0.67211 0.02
28 22 6 o 1464.656 1341.908 180.00 0.67211 0.59
34 12 2 o 178.926 163.931 0.00 0.67211 0.07
27 17 17 o 2141.799 1913.634 0.00 0.67133 0.43
31 15 11 o 1.480 1.322 0.00 0.67133 0.00
33 13 7 o 19.544 17.462 180.00 0.67133 0.01
27 23 7 o 133.641 119.405 180.00 0.67133 0.05
35 9 1 o 269.360 240.665 0.00 0.67133 0.11
29 21 5 o 31.149 27.831 180.00 0.67133 0.01
32 12 12 o 452.878 405.782 0.00 0.67005 0.09
36 4 0 o 5.039 4.515 180.00 0.67005 0.00
33 15 1 o 14.580 13.540 0.00 0.66929 0.01
27 19 15 o 96.716 89.822 180.00 0.66929 0.04
35 9 3 o 34.109 31.678 180.00 0.66929 0.01
30 20 4 o 6.774 6.373 180.00 0.66903 0.00
32 16 6 o 2.465 2.319 180.00 0.66903 0.00
26 24 8 o 9.287 8.737 180.00 0.66903 0.00
36 4 2 o 14.687 13.817 0.00 0.66903 0.01
24 22 16 o 42.678 40.150 0.00 0.66903 0.02
34 12 4 o 4.901 4.611 180.00 0.66903 0.00
34 10 8 o 635.516 611.372 0.00 0.66802 0.25
32 14 10 o 164.454 158.206 180.00 0.66802 0.07
21 21 21 o 512.575 488.676 180.00 0.66726 0.03
31 19 1 o 225.829 215.300 0.00 0.66726 0.09
33 15 3 o 472.589 450.554 0.00 0.66726 0.19
25 23 13 o 938.159 894.417 0.00 0.66726 0.37
29 19 11 o 126.897 120.980 0.00 0.66726 0.05
35 7 7 o 174.448 166.315 0.00 0.66726 0.03
26 18 18 o 0.143 0.136 180.00 0.66701 0.00
30 18 10 o 0.833 0.791 0.00 0.66701 0.00
36 4 4 o 377.683 355.234 180.00 0.66600 0.07
28 20 12 o 157.143 147.803 180.00 0.66600 0.06
31 17 9 o 127.432 118.562 180.00 0.66525 0.05
35 9 5 o 79.538 74.002 0.00 0.66525 0.03
23 21 19 o 53.922 50.169 180.00 0.66525 0.02
25 25 9 o 315.443 293.488 0.00 0.66525 0.06
29 21 7 o 26.649 24.794 180.00 0.66525 0.01
31 19 3 o 37.211 34.621 180.00 0.66525 0.01
33 11 11 o 7.429 6.912 180.00 0.66525 0.00
26 20 16 o 284.613 263.138 180.00 0.66500 0.11
28 22 8 o 11.503 10.635 0.00 0.66500 0.00
30 20 6 o 122.193 110.592 180.00 0.66401 0.05
36 6 2 o 828.861 750.170 180.00 0.66401 0.32
34 12 6 o 396.708 359.045 180.00 0.66401 0.15
33 15 5 o 149.112 137.435 0.00 0.66326 0.06
27 21 13 o 267.001 246.092 180.00 0.66326 0.10
33 13 9 o 16.044 14.787 0.00 0.66326 0.01
27 23 9 o 10.517 9.694 0.00 0.66326 0.00
32 16 8 o 61.140 61.917 180.00 0.66203 0.02
35 11 1 o 1127.555 1204.536 0.00 0.66129 0.43
23 23 17 o 2.980 3.183 0.00 0.66129 0.00
31 19 5 o 422.583 451.434 180.00 0.66129 0.16
25 19 19 o 134.824 144.029 0.00 0.66129 0.03
24 24 14 o 129.297 139.604 0.00 0.66105 0.02
36 6 4 o 106.240 114.710 180.00 0.66105 0.04
26 26 0 o 471.822 506.186 0.00 0.66007 0.04
30 16 14 o 84.822 90.999 180.00 0.66007 0.03
26 24 10 o 12.790 13.721 0.00 0.66007 0.00
32 18 2 o 59.255 63.571 180.00 0.66007 0.02
34 14 0 o 5.547 5.951 180.00 0.66007 0.00
25 21 17 o 15.728 16.330 0.00 0.65934 0.01
35 9 7 o 87.488 90.835 0.00 0.65934 0.03
31 15 13 o 42.590 44.219 0.00 0.65934 0.02
29 17 15 o 192.702 200.075 0.00 0.65934 0.07
27 25 1 o 50.736 52.677 0.00 0.65934 0.02
35 11 3 o 114.815 119.208 180.00 0.65934 0.04
34 10 10 o 252.677 259.570 180.00 0.65909 0.05
26 22 14 o 1325.180 1361.331 0.00 0.65909 0.50
34 14 2 o 993.444 1020.546 0.00 0.65909 0.37
26 26 2 o 13.917 14.296 0.00 0.65909 0.00
28 24 0 o 138.365 137.982 180.00 0.65812 0.03
36 8 0 o 7682.724 7661.445 0.00 0.65812 1.43
33 15 7 o 314.497 309.837 180.00 0.65740 0.12
29 21 9 o 489.013 481.766 180.00 0.65740 0.18
27 25 3 o 0.361 0.356 180.00 0.65740 0.00
32 18 4 o 25.816 25.328 180.00 0.65716 0.01
34 12 8 o 1.839 1.805 0.00 0.65716 0.00
32 14 12 o 8.889 8.721 0.00 0.65716 0.00
28 24 2 o 6.687 6.561 0.00 0.65716 0.00
28 18 16 o 176.031 172.705 0.00 0.65716 0.07
30 20 8 o 48.787 47.865 180.00 0.65716 0.02
36 8 2 o 0.040 0.039 180.00 0.65716 0.00
36 6 6 o 53.856 51.052 0.00 0.65620 0.01
26 26 4 o 286.352 271.441 0.00 0.65620 0.05
34 14 4 o 75.089 71.178 0.00 0.65620 0.03
28 22 10 o 162.564 154.098 180.00 0.65620 0.06
22 22 20 o 0.253 0.240 0.00 0.65620 0.00
30 18 12 o 159.001 150.721 0.00 0.65620 0.06
35 11 5 o 124.949 112.597 180.00 0.65548 0.05
37 1 1 o 109.061 98.280 180.00 0.65548 0.02
25 25 11 o 1370.023 1234.588 180.00 0.65548 0.25
31 19 7 o 2.828 2.548 180.00 0.65548 0.00
31 17 11 o 2.423 2.183 180.00 0.65548 0.00
29 19 13 o 409.286 368.826 180.00 0.65548 0.15
29 23 1 o 0.482 0.435 0.00 0.65548 0.00
28 24 4 o 122.926 101.134 180.00 0.65429 0.04
24 20 20 o 754.835 621.020 180.00 0.65429 0.14
36 8 4 o 27.236 22.408 0.00 0.65429 0.01
33 13 11 o 501.062 402.674 0.00 0.65357 0.18
37 3 1 o 0.650 0.522 180.00 0.65357 0.00
27 23 11 o 0.468 0.376 180.00 0.65357 0.00
27 19 17 o 146.496 117.730 0.00 0.65357 0.05
33 17 1 o 15.626 12.557 0.00 0.65357 0.01
29 23 3 o 30.328 24.373 0.00 0.65357 0.01
27 25 5 o 64.959 52.204 0.00 0.65357 0.02
25 23 15 o 96.236 77.339 0.00 0.65357 0.03
32 16 10 o 94.038 75.618 0.00 0.65334 0.03
28 20 14 o 341.467 274.584 180.00 0.65334 0.12
24 22 18 o 21.804 18.028 0.00 0.65239 0.01
32 18 6 o 7.935 6.561 180.00 0.65239 0.00
30 22 0 o 117.131 96.845 0.00 0.65239 0.02
35 9 9 o 787.033 664.379 0.00 0.65169 0.14
37 3 3 o 45.617 38.508 180.00 0.65169 0.01
33 17 3 o 6.722 5.674 180.00 0.65169 0.00
26 26 6 o 148.010 125.820 180.00 0.65145 0.03
30 22 2 o 340.636 289.565 0.00 0.65145 0.12
34 14 6 o 0.000 0.000 0.00 0.65145 0.00
29 23 5 o 4.762 4.509 180.00 0.64981 0.00
33 15 9 o 369.442 349.793 180.00 0.64981 0.13
37 5 1 o 1.139 1.078 0.00 0.64981 0.00
27 21 15 o 48.486 45.908 180.00 0.64981 0.02
35 11 7 o 61.554 58.280 180.00 0.64981 0.02
35 13 1 o 70.414 66.669 180.00 0.64981 0.02
26 24 12 o 280.887 271.459 180.00 0.64958 0.10
36 8 6 o 798.060 771.274 0.00 0.64958 0.28
28 24 6 o 95.596 92.388 0.00 0.64958 0.03
34 12 10 o 325.895 335.495 0.00 0.64865 0.11
30 22 4 o 324.517 334.076 0.00 0.64865 0.11
26 20 18 o 541.525 557.478 0.00 0.64865 0.19
30 20 10 o 379.814 391.002 0.00 0.64865 0.13
36 10 2 o 16.926 17.425 180.00 0.64865 0.01
27 25 7 o 250.943 261.797 180.00 0.64796 0.09
31 19 9 o 39.756 41.475 0.00 0.64796 0.01
37 5 3 o 670.418 699.414 180.00 0.64796 0.23
35 13 3 o 593.064 618.715 0.00 0.64796 0.21
31 21 1 o 228.731 238.624 0.00 0.64796 0.08
33 17 5 o 8.561 8.931 180.00 0.64796 0.00
29 21 11 o 0.907 0.946 180.00 0.64796 0.00
24 24 16 o 207.449 212.936 0.00 0.64681 0.04
31 15 15 o 85.356 86.698 180.00 0.64612 0.01
23 21 21 o 91.000 92.430 0.00 0.64612 0.02
31 21 3 o 133.789 135.893 0.00 0.64612 0.05
36 10 4 o 199.351 201.909 180.00 0.64589 0.07
28 22 12 o 57.610 58.349 180.00 0.64589 0.02
32 18 8 o 10.612 10.749 180.00 0.64589 0.00
30 16 16 o 17.143 17.363 0.00 0.64589 0.00
32 14 14 o 135.162 137.820 0.00 0.64498 0.02
26 22 16 o 215.570 219.810 180.00 0.64498 0.07
34 14 8 o 738.528 753.052 180.00 0.64498 0.25
26 26 8 o 574.192 585.485 180.00 0.64498 0.10
34 16 2 o 15.167 15.465 180.00 0.64498 0.01
31 17 13 o 151.542 159.219 180.00 0.64430 0.05
29 17 17 o 407.112 427.737 180.00 0.64430 0.07
37 5 5 o 2.851 2.995 180.00 0.64430 0.00
25 25 13 o 599.878 630.269 180.00 0.64430 0.10
29 23 7 o 292.693 307.521 0.00 0.64430 0.10
23 23 19 o 12.978 13.636 180.00 0.64430 0.00
35 13 5 o 194.998 204.877 180.00 0.64430 0.07
37 7 1 o 171.895 180.603 0.00 0.64430 0.06
30 18 14 o 162.523 172.591 180.00 0.64407 0.06
30 22 6 o 29.343 31.160 180.00 0.64407 0.01
28 24 8 o 112.380 123.171 180.00 0.64316 0.04
32 20 0 o 79.049 86.640 0.00 0.64316 0.01
36 8 8 o 9.920 10.873 180.00 0.64316 0.00
32 16 12 o 44.224 48.471 180.00 0.64316 0.02
25 21 19 o 48.732 54.629 180.00 0.64249 0.02
31 21 5 o 50.207 56.283 0.00 0.64249 0.02
35 11 9 o 104.307 116.929 0.00 0.64249 0.04
37 7 3 o 67.325 75.472 0.00 0.64249 0.02
29 19 15 o 13.500 15.134 0.00 0.64249 0.00
33 13 13 o 866.242 971.067 180.00 0.64249 0.15
27 23 13 o 55.546 62.267 0.00 0.64249 0.02
33 17 7 o 53.321 59.774 180.00 0.64249 0.02
34 16 4 o 1.465 1.651 180.00 0.64226 0.00
32 20 2 o 9.126 10.286 180.00 0.64226 0.00
28 18 18 o 583.756 645.065 180.00 0.64136 0.10
36 10 6 o 67.583 74.680 180.00 0.64136 0.02
33 15 11 o 66.022 70.285 0.00 0.64069 0.02
27 25 9 o 228.885 243.665 180.00 0.64069 0.08
28 20 16 o 11.382 11.889 0.00 0.63958 0.00
36 12 0 o 9.449 9.871 180.00 0.63958 0.00
32 20 4 o 159.693 166.815 180.00 0.63958 0.05
31 19 11 o 1369.157 1445.072 0.00 0.63892 0.45
25 23 17 o 65.586 69.222 0.00 0.63892 0.02
35 13 7 o 29.376 31.005 180.00 0.63892 0.01
37 7 5 o 117.017 123.505 0.00 0.63892 0.04
36 12 2 o 512.378 544.536 180.00 0.63869 0.17
30 20 12 o 43.722 46.466 0.00 0.63869 0.01
34 12 12 o 313.365 333.033 0.00 0.63869 0.05
32 18 10 o 83.573 92.817 180.00 0.63781 0.03
38 2 0 o 80.459 89.358 0.00 0.63781 0.01
26 24 14 o 57.804 64.198 180.00 0.63781 0.02
34 16 6 o 239.275 265.742 180.00 0.63781 0.08
30 22 8 o 1535.732 1705.603 0.00 0.63781 0.50
29 23 9 o 3.962 4.526 0.00 0.63715 0.00
35 15 1 o 12.892 14.727 180.00 0.63715 0.00
27 19 19 o 295.091 337.096 180.00 0.63715 0.05
31 21 7 o 204.605 233.729 0.00 0.63715 0.07
37 9 1 o 886.810 1013.042 180.00 0.63715 0.29
29 21 13 o 23.093 26.381 180.00 0.63715 0.01
33 19 1 o 43.182 49.329 0.00 0.63715 0.01
34 14 10 o 77.491 88.742 180.00 0.63693 0.03
26 26 10 o 163.615 187.370 180.00 0.63693 0.03
38 2 2 o 85.302 97.687 0.00 0.63693 0.01
22 22 22 o 2930.976 3356.515 0.00 0.63693 0.16
36 12 4 o 43.835 48.425 0.00 0.63606 0.01
35 15 3 o 68.603 71.788 180.00 0.63540 0.02
33 17 9 o 1.692 1.770 180.00 0.63540 0.00
27 27 1 o 663.831 694.658 0.00 0.63540 0.11
33 19 3 o 1875.270 1962.370 180.00 0.63540 0.61
37 9 3 o 7.269 7.607 180.00 0.63540 0.00
27 21 17 o 13.371 13.992 0.00 0.63540 0.00
24 22 20 o 284.411 292.098 180.00 0.63518 0.09
28 24 10 o 14.520 14.912 0.00 0.63518 0.00
36 10 8 o 303.303 311.501 0.00 0.63518 0.10
32 20 6 o 36.271 37.252 0.00 0.63518 0.01
28 22 14 o 6.917 6.506 0.00 0.63432 0.00
38 4 2 o 33.229 31.254 0.00 0.63432 0.01
28 26 2 o 12.438 11.698 180.00 0.63432 0.00
37 7 7 o 9.378 8.034 0.00 0.63367 0.00
27 27 3 o 212.162 181.772 180.00 0.63367 0.03
35 11 11 o 281.549 241.220 0.00 0.63367 0.05
29 25 1 o 21.532 18.447 180.00 0.63367 0.01
35 13 9 o 224.591 182.611 180.00 0.63195 0.07
25 25 15 o 298.445 242.660 0.00 0.63195 0.05
31 17 15 o 7.007 5.697 0.00 0.63195 0.00
33 19 5 o 2.622 2.132 180.00 0.63195 0.00
37 9 5 o 92.012 74.813 0.00 0.63195 0.03
29 25 3 o 0.187 0.152 0.00 0.63195 0.00
35 15 5 o 5.334 4.337 180.00 0.63195 0.00
27 25 11 o 18.562 15.093 180.00 0.63195 0.01
34 16 8 o 2.305 1.918 0.00 0.63173 0.00
32 16 14 o 1.857 1.545 0.00 0.63173 0.00
38 4 4 o 845.730 703.595 0.00 0.63173 0.13
28 26 4 o 28.982 24.111 180.00 0.63173 0.01
24 24 18 o 103.058 85.738 0.00 0.63173 0.02
26 20 20 o 8.448 7.028 0.00 0.63173 0.00
36 12 6 o 68.822 57.256 180.00 0.63173 0.02
34 18 0 o 73.347 66.575 0.00 0.63088 0.01
30 24 2 o 26.820 24.344 0.00 0.63088 0.01
38 6 0 o 0.015 0.013 180.00 0.63088 0.00
30 18 16 o 61.374 55.708 0.00 0.63088 0.02
31 21 9 o 265.545 250.902 0.00 0.63024 0.08
33 15 13 o 1537.337 1452.565 0.00 0.63024 0.48
27 23 15 o 208.846 197.330 180.00 0.63024 0.07
27 27 5 o 18.265 17.258 0.00 0.63024 0.00
34 18 2 o 95.811 91.432 180.00 0.63003 0.03
38 6 2 o 399.951 381.672 180.00 0.63003 0.13
30 22 10 o 116.401 111.082 180.00 0.63003 0.04
26 22 18 o 44.316 42.291 180.00 0.63003 0.01
32 20 8 o 3.760 3.694 0.00 0.62918 0.00
29 23 11 o 6.926 6.801 0.00 0.62855 0.00
31 19 13 o 22.230 21.827 180.00 0.62855 0.01
29 25 5 o 9.167 9.001 180.00 0.62855 0.00
31 23 1 o 38.377 37.682 0.00 0.62855 0.01
29 19 17 o 0.284 0.279 180.00 0.62855 0.00
37 11 1 o 50.306 49.395 180.00 0.62855 0.02
30 24 4 o 265.639 259.268 0.00 0.62834 0.08
32 18 12 o 7.412 7.234 0.00 0.62834 0.00
38 6 4 o 238.480 223.776 180.00 0.62750 0.07
26 26 12 o 4.931 4.627 180.00 0.62750 0.00
34 14 12 o 3.590 3.369 0.00 0.62750 0.00
36 14 2 o 264.474 248.167 0.00 0.62750 0.08
34 18 4 o 201.178 188.773 180.00 0.62750 0.06
28 26 6 o 144.166 135.277 0.00 0.62750 0.04
30 20 14 o 40.059 37.589 0.00 0.62750 0.01
36 10 10 o 154.230 144.720 180.00 0.62750 0.02
33 19 7 o 27.950 25.589 180.00 0.62687 0.01
37 9 7 o 120.945 110.731 180.00 0.62687 0.04
37 11 3 o 280.897 257.174 180.00 0.62687 0.09
23 23 21 o 1.316 1.205 0.00 0.62687 0.00
31 23 3 o 638.120 584.229 0.00 0.62687 0.20
33 17 11 o 2811.997 2574.514 180.00 0.62687 0.86
35 15 7 o 18.457 16.899 180.00 0.62687 0.01
28 24 12 o 0.189 0.171 0.00 0.62582 0.00
36 12 8 o 216.311 195.215 0.00 0.62582 0.07
27 27 7 o 376.956 337.462 0.00 0.62520 0.06
25 21 21 o 12.545 11.230 180.00 0.62520 0.00
29 21 15 o 108.046 96.726 0.00 0.62520 0.03
26 24 16 o 327.212 292.154 0.00 0.62499 0.10
36 14 4 o 108.182 96.591 180.00 0.62499 0.03
28 20 18 o 5.743 5.127 180.00 0.62499 0.00
34 16 10 o 201.493 179.101 180.00 0.62417 0.06
38 8 2 o 577.586 513.398 0.00 0.62417 0.17
32 22 2 o 674.139 599.221 0.00 0.62417 0.20
30 24 6 o 263.593 234.300 180.00 0.62417 0.08
35 13 11 o 3.644 3.253 0.00 0.62355 0.00
29 25 7 o 18.577 16.586 180.00 0.62355 0.01
35 17 1 o 48.532 43.331 0.00 0.62355 0.01
31 23 5 o 22.197 19.818 180.00 0.62355 0.01
25 23 19 o 559.424 499.475 180.00 0.62355 0.17
37 11 5 o 164.280 146.675 0.00 0.62355 0.05
38 6 6 o 57.752 51.730 180.00 0.62334 0.01
34 18 6 o 80.382 72.000 180.00 0.62334 0.02
35 17 3 o 271.844 257.914 0.00 0.62191 0.08
27 25 13 o 0.795 0.755 180.00 0.62191 0.00
39 1 1 o 1382.721 1311.875 0.00 0.62191 0.21
31 21 11 o 186.175 176.635 180.00 0.62191 0.06
32 22 4 o 16.087 15.451 0.00 0.62170 0.00
28 26 8 o 176.701 169.714 0.00 0.62170 0.05
32 20 10 o 11.348 10.899 180.00 0.62170 0.00
28 22 16 o 9.573 9.194 0.00 0.62170 0.00
38 8 4 o 13.360 12.832 180.00 0.62170 0.00
36 14 6 o 216.634 216.372 0.00 0.62089 0.06
30 22 12 o 41.570 41.519 180.00 0.62089 0.01
33 21 1 o 421.341 423.106 0.00 0.62028 0.12
35 15 9 o 92.237 92.623 0.00 0.62028 0.03
39 3 1 o 66.190 66.467 0.00 0.62028 0.02
33 19 9 o 781.224 784.496 180.00 0.62028 0.23
37 9 9 o 0.168 0.169 0.00 0.62028 0.00
27 21 19 o 311.301 312.605 0.00 0.62028 0.09
32 16 16 o 0.211 0.207 180.00 0.61927 0.00
33 21 3 o 10.384 10.068 0.00 0.61867 0.00
31 23 7 o 226.140 219.251 0.00 0.61867 0.07
37 13 1 o 172.820 167.556 0.00 0.61867 0.05
37 11 7 o 143.232 138.868 0.00 0.61867 0.04
31 17 17 o 0.603 0.584 0.00 0.61867 0.00
27 27 9 o 511.809 496.217 0.00 0.61867 0.07
25 25 17 o 1465.311 1420.671 0.00 0.61867 0.21
35 17 5 o 0.035 0.034 0.00 0.61867 0.00
33 15 15 o 427.830 414.796 0.00 0.61867 0.06
29 23 13 o 25.386 24.613 0.00 0.61867 0.01
39 3 3 o 1845.528 1789.304 0.00 0.61867 0.27
36 12 10 o 162.107 156.921 180.00 0.61847 0.05
30 24 8 o 6.565 6.355 0.00 0.61847 0.00
34 18 8 o 86.037 82.766 180.00 0.61766 0.02
24 22 22 o 45.051 43.338 180.00 0.61766 0.01
38 10 0 o 0.962 0.925 0.00 0.61766 0.00
32 22 6 o 71.124 68.420 180.00 0.61766 0.02
32 18 14 o 27.695 26.642 0.00 0.61766 0.01
38 8 6 o 18.906 18.187 180.00 0.61766 0.01
29 25 9 o 559.959 531.262 0.00 0.61707 0.16
31 19 15 o 240.882 228.537 0.00 0.61707 0.07
37 13 3 o 95.603 90.703 0.00 0.61707 0.03
33 17 13 o 0.643 0.610 180.00 0.61707 0.00
27 23 17 o 10.903 10.344 0.00 0.61707 0.00
39 5 1 o 110.210 104.562 180.00 0.61707 0.03
26 26 14 o 72.510 68.425 180.00 0.61687 0.01
30 18 18 o 2.784 2.627 180.00 0.61687 0.00
38 10 2 o 47.227 44.566 180.00 0.61687 0.01
34 14 14 o 7720.441 7285.508 0.00 0.61687 1.11
24 24 20 o 62.586 58.477 180.00 0.61607 0.01
36 16 0 o 40.750 38.075 180.00 0.61607 0.01
39 5 3 o 1.691 1.597 180.00 0.61548 0.00
33 21 5 o 461.651 435.892 180.00 0.61548 0.13
28 24 14 o 121.851 115.678 180.00 0.61528 0.03
34 16 12 o 457.233 434.071 180.00 0.61528 0.13
36 14 8 o 23.915 22.704 0.00 0.61528 0.01
30 20 16 o 24.174 22.949 180.00 0.61528 0.01
36 16 2 o 1305.712 1239.568 0.00 0.61528 0.37
26 22 20 o 22.727 21.972 180.00 0.61449 0.01
38 10 4 o 80.470 77.796 0.00 0.61449 0.02
28 26 10 o 37.522 36.276 0.00 0.61449 0.01
34 20 2 o 636.758 615.603 180.00 0.61449 0.18
37 13 5 o 3.586 3.490 0.00 0.61390 0.00
35 13 13 o 61.247 59.606 0.00 0.61390 0.01
35 17 7 o 0.014 0.014 0.00 0.61390 0.00
29 19 19 o 388.933 378.511 0.00 0.61390 0.05
36 16 4 o 242.616 236.408 0.00 0.61292 0.07
28 28 0 o 7055.403 6874.854 0.00 0.61292 0.49
32 20 12 o 1156.323 1126.733 180.00 0.61292 0.32
39 5 5 o 5181.375 5009.125 180.00 0.61233 0.72
29 21 17 o 0.846 0.818 180.00 0.61233 0.00
29 27 1 o 145.089 140.266 0.00 0.61233 0.04
39 7 1 o 7.827 7.566 0.00 0.61233 0.00
31 21 13 o 209.598 202.630 180.00 0.61233 0.06
33 19 11 o 7.607 7.354 180.00 0.61233 0.00
31 23 9 o 1155.497 1117.083 180.00 0.61233 0.32
35 15 11 o 2.574 2.489 180.00 0.61233 0.00
37 11 9 o 119.506 115.534 180.00 0.61233 0.03
32 22 8 o 45.646 43.963 180.00 0.61214 0.01
34 20 4 o 250.158 240.932 0.00 0.61214 0.07
38 8 8 o 18.176 17.506 0.00 0.61214 0.00
28 28 2 o 44.523 42.882 180.00 0.61214 0.01
30 26 0 o 1425.532 1352.364 180.00 0.61136 0.20
26 24 18 o 3.936 3.734 0.00 0.61136 0.00
30 24 10 o 101.317 96.117 0.00 0.61136 0.03
33 21 7 o 63.841 59.995 0.00 0.61078 0.02
29 27 3 o 4.835 4.544 0.00 0.61078 0.00
39 7 3 o 253.721 238.435 0.00 0.61078 0.07
27 27 11 o 561.138 527.330 180.00 0.61078 0.08
27 25 15 o 417.757 392.588 180.00 0.61078 0.12
38 10 6 o 20.142 18.865 180.00 0.61059 0.01
34 18 10 o 340.632 319.043 180.00 0.61059 0.09
30 26 2 o 67.433 63.159 180.00 0.61059 0.02
30 22 14 o 939.227 879.700 0.00 0.61059 0.26
28 20 20 o 2870.490 2651.751 0.00 0.60982 0.39
28 28 4 o 423.594 391.315 0.00 0.60982 0.06
36 12 12 o 35.308 32.617 180.00 0.60982 0.00
23 23 23 o 1474.002 1357.249 180.00 0.60924 0.07
35 19 1 o 47.421 43.665 0.00 0.60924 0.01
37 13 7 o 101.090 93.083 0.00 0.60924 0.03
29 25 11 o 2.174 2.002 0.00 0.60924 0.00
31 25 1 o 938.531 864.192 180.00 0.60924 0.26
36 16 6 o 27.711 25.531 0.00 0.60905 0.01
34 20 6 o 32.530 29.836 180.00 0.60828 0.01
38 12 2 o 10.168 9.326 0.00 0.60828 0.00
28 22 18 o 117.392 107.672 0.00 0.60828 0.03
36 14 10 o 227.908 209.037 0.00 0.60828 0.06
30 26 4 o 331.835 304.359 180.00 0.60828 0.09
29 27 5 o 83.443 75.132 0.00 0.60771 0.02
25 23 21 o 211.762 190.671 0.00 0.60771 0.06
35 17 9 o 78.547 70.724 0.00 0.60771 0.02
39 7 5 o 215.383 193.931 0.00 0.60771 0.06
31 25 3 o 0.441 0.397 180.00 0.60771 0.00
35 19 3 o 84.946 76.485 180.00 0.60771 0.02
37 15 1 o 144.014 129.670 0.00 0.60771 0.04
29 23 15 o 54.353 48.939 0.00 0.60771 0.01
32 24 0 o 411.507 370.548 180.00 0.60676 0.06
40 0 0 o 3229.010 2907.614 0.00 0.60676 0.11
39 9 1 o 236.731 221.950 0.00 0.60619 0.06
37 15 3 o 497.834 466.750 0.00 0.60619 0.13
33 17 15 o 13.489 12.646 0.00 0.60619 0.00
38 12 4 o 3.965 3.779 180.00 0.60600 0.00
28 28 6 o 42.411 40.415 180.00 0.60600 0.01
32 18 16 o 10.222 9.741 0.00 0.60600 0.00
28 26 12 o 0.229 0.218 180.00 0.60600 0.00
32 24 2 o 45.538 43.395 0.00 0.60600 0.01
26 26 16 o 7.223 7.222 180.00 0.60525 0.00
40 2 2 o 217.920 217.889 0.00 0.60525 0.03
32 22 10 o 140.620 140.600 0.00 0.60525 0.04
38 10 8 o 41.232 41.226 0.00 0.60525 0.01
34 16 14 o 60.305 60.297 180.00 0.60525 0.02
31 25 5 o 753.418 760.761 180.00 0.60468 0.20
35 19 5 o 21.672 21.884 180.00 0.60468 0.01
31 23 11 o 26.405 26.662 0.00 0.60468 0.01
33 21 9 o 2.525 2.550 180.00 0.60468 0.00
25 25 19 o 104.832 105.853 180.00 0.60468 0.01
39 9 3 o 1504.406 1519.069 180.00 0.60468 0.40
31 19 17 o 1159.144 1170.442 180.00 0.60468 0.31
37 11 11 o 7.546 7.620 0.00 0.60468 0.00
27 21 21 o 155.165 156.677 180.00 0.60468 0.02
30 26 6 o 1.362 1.377 0.00 0.60450 0.00
36 16 8 o 202.909 205.769 0.00 0.60375 0.05
28 24 16 o 238.767 242.132 180.00 0.60375 0.06
32 24 4 o 32.358 32.814 0.00 0.60375 0.01
40 4 0 o 0.163 0.165 180.00 0.60375 0.00
29 27 7 o 175.479 179.368 180.00 0.60319 0.05
35 15 13 o 0.804 0.822 180.00 0.60319 0.00
27 23 19 o 6.145 6.281 0.00 0.60319 0.00
37 15 5 o 149.228 152.535 0.00 0.60319 0.04
33 23 1 o 143.328 146.504 0.00 0.60319 0.04
33 19 13 o 864.273 883.425 180.00 0.60319 0.23
37 13 9 o 39.934 40.819 180.00 0.60319 0.01
39 7 7 o 27.192 27.795 0.00 0.60319 0.00
34 20 8 o 102.067 104.840 180.00 0.60300 0.03
32 20 14 o 216.074 221.946 180.00 0.60300 0.06
40 4 2 o 66.844 68.660 0.00 0.60300 0.02
30 24 12 o 188.073 193.184 180.00 0.60300 0.05
34 18 12 o 190.499 201.642 0.00 0.60226 0.05
38 12 6 o 491.237 519.974 180.00 0.60226 0.13
30 20 18 o 307.476 325.463 180.00 0.60226 0.08
36 18 2 o 1.546 1.636 180.00 0.60226 0.00
31 21 15 o 137.510 147.600 0.00 0.60170 0.04
39 9 5 o 0.131 0.141 180.00 0.60170 0.00
27 27 13 o 3.104 3.332 180.00 0.60170 0.00
33 23 3 o 25.052 26.890 0.00 0.60170 0.01
28 28 8 o 5.841 6.167 180.00 0.60078 0.00
40 4 4 o 188.857 199.415 180.00 0.60078 0.02
35 17 11 o 86.051 90.391 0.00 0.60023 0.02
29 25 13 o 95.704 100.531 180.00 0.60023 0.02
31 25 7 o 167.735 176.194 0.00 0.60023 0.04
35 19 7 o 0.214 0.224 180.00 0.60023 0.00
36 14 12 o 552.404 581.332 180.00 0.60005 0.14
24 24 22 o 24.881 26.184 0.00 0.60005 0.00
36 18 4 o 88.999 93.660 180.00 0.60005 0.02
32 24 6 o 2.616 2.753 0.00 0.60005 0.00
34 22 0 o 995.299 1069.075 0.00 0.59931 0.13
38 14 0 o 123.129 132.255 0.00 0.59931 0.02
30 22 16 o 172.880 185.694 0.00 0.59931 0.04
40 6 2 o 61.132 65.663 0.00 0.59931 0.02
30 26 8 o 122.341 131.409 0.00 0.59931 0.03
29 21 19 o 113.739 123.836 0.00 0.59877 0.03
27 25 17 o 130.364 141.936 180.00 0.59877 0.03
39 11 1 o 77.415 84.287 180.00 0.59877 0.02
37 15 7 o 9.180 9.995 180.00 0.59877 0.00
33 23 5 o 189.046 205.827 0.00 0.59877 0.05
26 22 22 o 17.135 18.654 180.00 0.59858 0.00
38 14 2 o 38.175 41.558 180.00 0.59858 0.01
38 10 10 o 183.709 199.987 0.00 0.59858 0.02
34 22 2 o 27.867 30.336 180.00 0.59858 0.01
39 9 7 o 313.101 315.698 0.00 0.59731 0.08
39 11 3 o 45.082 45.456 0.00 0.59731 0.01
33 21 11 o 246.704 248.750 0.00 0.59731 0.06
29 27 9 o 67.902 68.465 0.00 0.59731 0.02
36 16 10 o 235.466 234.758 0.00 0.59713 0.06
26 24 20 o 78.403 78.168 0.00 0.59713 0.02
40 6 4 o 110.848 110.515 180.00 0.59713 0.03
38 12 8 o 108.651 108.324 180.00 0.59713 0.03
32 22 12 o 69.011 68.803 180.00 0.59713 0.02
28 26 14 o 404.695 395.706 180.00 0.59641 0.10
34 20 10 o 150.750 147.402 0.00 0.59641 0.04
38 14 4 o 287.409 281.025 0.00 0.59641 0.07
36 18 6 o 146.412 143.160 180.00 0.59641 0.04
34 22 4 o 40.136 39.244 180.00 0.59641 0.01
29 23 17 o 87.992 86.538 0.00 0.59587 0.02
37 13 11 o 45.946 45.187 180.00 0.59587 0.01
31 23 13 o 380.062 373.782 0.00 0.59587 0.10
37 17 1 o 61.891 60.869 0.00 0.59587 0.02
32 24 8 o 461.661 467.284 180.00 0.59498 0.11
40 8 0 o 122.280 123.769 180.00 0.59498 0.02
30 24 14 o 46.175 48.313 0.00 0.59355 0.01
32 18 18 o 38.432 40.211 0.00 0.59355 0.00
40 6 6 o 2685.179 2809.497 0.00 0.59355 0.33
39 11 5 o 2016.194 2083.633 180.00 0.59444 0.50
31 25 9 o 8.234 8.509 180.00 0.59444 0.00
37 17 3 o 417.491 431.456 180.00 0.59444 0.10
33 23 7 o 272.145 281.248 0.00 0.59444 0.07
35 19 9 o 113.075 116.857 0.00 0.59444 0.03
33 17 17 o 2128.139 2199.322 0.00 0.59444 0.26
35 21 1 o 0.178 0.184 0.00 0.59444 0.00
35 15 15 o 151.624 157.525 180.00 0.59302 0.02
35 21 3 o 254.153 264.045 0.00 0.59302 0.06
37 15 9 o 5.553 5.770 0.00 0.59302 0.00
33 19 15 o 183.526 190.669 180.00 0.59302 0.05
40 8 2 o 34.224 35.560 180.00 0.59426 0.01
34 16 16 o 482.058 500.870 0.00 0.59426 0.06
28 28 10 o 6.630 6.889 0.00 0.59426 0.00
28 22 20 o 46.129 47.930 180.00 0.59426 0.01
30 26 10 o 2.786 2.885 0.00 0.59284 0.00
26 26 18 o 877.913 909.257 180.00 0.59284 0.11
34 18 14 o 64.028 66.314 180.00 0.59284 0.02
38 14 6 o 4.893 5.067 180.00 0.59284 0.00
34 22 6 o 2261.347 2342.083 0.00 0.59284 0.55
32 20 16 o 651.563 669.915 180.00 0.59214 0.16
40 8 4 o 645.793 663.981 180.00 0.59214 0.16
37 17 5 o 13.615 14.004 0.00 0.59161 0.00
41 1 1 o 114.269 117.536 0.00 0.59161 0.01
39 9 9 o 570.732 587.049 0.00 0.59161 0.07
25 23 23 o 6.172 6.349 180.00 0.59161 0.00
27 27 15 o 11.142 11.460 180.00 0.59161 0.00
35 17 13 o 270.465 278.198 0.00 0.59161 0.07
31 19 19 o 64.561 66.407 180.00 0.59161 0.01
29 29 1 o 258.496 265.886 180.00 0.59161 0.03
36 18 8 o 816.741 840.982 0.00 0.59143 0.20
28 24 18 o 25.658 26.419 0.00 0.59143 0.01
38 12 10 o 12.136 12.654 0.00 0.59073 0.00
36 14 14 o 28.516 29.733 180.00 0.59073 0.00
30 28 2 o 31.194 32.525 0.00 0.59073 0.01
39 11 7 o 318.288 339.305 180.00 0.59021 0.08
41 3 1 o 10.985 11.710 0.00 0.59021 0.00
31 21 17 o 42.304 45.097 180.00 0.59021 0.01
29 29 3 o 57.017 60.782 180.00 0.59021 0.01
35 21 5 o 29.564 31.516 180.00 0.59021 0.01
39 13 1 o 69.162 73.729 180.00 0.59021 0.02
29 25 15 o 39.451 42.055 180.00 0.59021 0.01
25 25 21 o 26.488 28.237 180.00 0.59021 0.00
29 27 11 o 999.852 1065.868 0.00 0.59021 0.24
31 27 1 o 81.471 86.851 0.00 0.59021 0.02
36 16 12 o 19.366 21.351 180.00 0.58934 0.00
36 20 0 o 1701.308 1875.676 0.00 0.58934 0.20
31 27 3 o 49.311 54.409 0.00 0.58882 0.01
33 21 13 o 44.088 48.646 180.00 0.58882 0.01
33 23 9 o 46.321 51.111 0.00 0.58882 0.01
39 13 3 o 27.846 30.724 180.00 0.58882 0.01
41 3 3 o 90.276 99.610 0.00 0.58882 0.01
27 23 21 o 26.712 29.473 0.00 0.58882 0.01
30 20 20 o 14.457 15.919 180.00 0.58864 0.00
34 20 12 o 38.886 42.820 180.00 0.58864 0.01
30 28 4 o 99.376 109.431 180.00 0.58864 0.02
36 20 2 o 44.772 49.302 180.00 0.58864 0.01
40 8 6 o 0.001 0.001 0.00 0.58864 0.00
32 24 10 o 4.950 5.451 180.00 0.58864 0.00
32 26 2 o 24.390 26.565 0.00 0.58795 0.01
32 22 14 o 317.783 346.118 0.00 0.58795 0.08
34 22 8 o 35.846 39.042 180.00 0.58795 0.01
40 10 2 o 88.655 96.560 180.00 0.58795 0.02
38 14 8 o 312.572 340.442 180.00 0.58795 0.07
38 16 2 o 46.294 50.422 0.00 0.58795 0.01
29 29 5 o 630.933 680.209 180.00 0.58743 0.07
41 5 1 o 40.733 43.914 180.00 0.58743 0.01
37 17 7 o 288.467 310.997 0.00 0.58743 0.07
31 25 11 o 733.173 790.434 180.00 0.58743 0.17
35 19 11 o 109.322 117.860 180.00 0.58743 0.03
37 13 13 o 205.469 221.516 180.00 0.58743 0.02
30 22 18 o 5.268 5.654 180.00 0.58726 0.00
28 28 12 o 2945.363 3080.187 0.00 0.58658 0.35
36 20 4 o 170.424 178.225 180.00 0.58658 0.04
27 25 19 o 9.048 9.256 180.00 0.58606 0.00
37 15 11 o 260.926 266.929 180.00 0.58606 0.06
41 5 3 o 463.229 473.888 0.00 0.58606 0.11
31 27 5 o 78.283 80.084 0.00 0.58606 0.02
31 23 15 o 9.350 9.565 0.00 0.58606 0.00
33 25 1 o 56.425 57.724 0.00 0.58606 0.01
35 21 7 o 133.157 136.220 180.00 0.58606 0.03
39 13 5 o 6.926 7.085 0.00 0.58606 0.00
32 26 4 o 23.803 24.219 0.00 0.58589 0.01
38 16 4 o 3.205 3.261 0.00 0.58589 0.00
28 26 16 o 0.244 0.248 0.00 0.58589 0.00
40 10 4 o 0.720 0.733 0.00 0.58589 0.00
36 18 10 o 27.382 27.712 0.00 0.58521 0.01
30 28 6 o 271.242 274.515 180.00 0.58521 0.06
30 26 12 o 36.322 36.760 180.00 0.58521 0.01
29 21 21 o 6.874 6.995 0.00 0.58470 0.00
39 11 9 o 3.236 3.293 0.00 0.58470 0.00
33 25 3 o 15.729 16.006 0.00 0.58470 0.00
24 24 24 o 34.529 35.831 0.00 0.58385 0.00
40 8 8 o 1004.117 1041.984 0.00 0.58385 0.12
29 23 19 o 7.303 7.762 0.00 0.58335 0.00
41 5 5 o 59.241 62.966 180.00 0.58335 0.01
41 7 1 o 62.718 66.661 180.00 0.58335 0.01
37 19 1 o 144.477 153.560 0.00 0.58335 0.03
29 29 7 o 32.988 35.062 180.00 0.58335 0.00
36 20 6 o 374.993 401.921 180.00 0.58318 0.09
30 24 16 o 345.283 370.077 0.00 0.58318 0.08
38 12 12 o 43.066 46.159 0.00 0.58318 0.00
38 16 6 o 259.803 284.080 0.00 0.58251 0.06
34 24 2 o 28.462 31.122 0.00 0.58251 0.01
26 24 22 o 225.109 246.144 180.00 0.58251 0.05
32 26 6 o 154.399 168.826 0.00 0.58251 0.04
40 10 6 o 374.882 409.912 180.00 0.58251 0.09
34 18 16 o 183.528 200.678 0.00 0.58251 0.04
33 25 5 o 50.790 55.440 180.00 0.58200 0.01
41 7 3 o 1.570 1.713 180.00 0.58200 0.00
35 17 15 o 35.909 39.196 0.00 0.58200 0.01
33 23 11 o 2023.814 2209.094 180.00 0.58200 0.46
31 27 7 o 0.449 0.490 0.00 0.58200 0.00
39 13 7 o 3.511 3.833 180.00 0.58200 0.00
33 19 17 o 7.108 7.759 0.00 0.58200 0.00
29 27 13 o 9.749 10.642 180.00 0.58200 0.00
37 17 9 o 441.498 481.917 0.00 0.58200 0.10
37 19 3 o 36.432 39.767 180.00 0.58200 0.01
38 14 10 o 350.379 381.854 180.00 0.58184 0.08
34 22 10 o 2.478 2.700 180.00 0.58184 0.00
40 12 0 o 157.513 171.855 180.00 0.58117 0.02
32 24 12 o 17.495 19.087 180.00 0.58117 0.00
39 15 1 o 1.073 1.179 0.00 0.58067 0.00
35 21 9 o 0.977 1.074 180.00 0.58067 0.00
27 27 17 o 366.724 403.247 180.00 0.58067 0.04
40 12 2 o 21.602 23.806 180.00 0.58050 0.00
34 24 4 o 2.026 2.233 0.00 0.58050 0.00
32 20 18 o 21.437 23.624 0.00 0.58050 0.00
30 28 8 o 14.887 16.406 0.00 0.58050 0.00
36 16 14 o 263.122 289.968 0.00 0.58050 0.06
28 22 22 o 909.687 998.115 0.00 0.57984 0.10
26 26 20 o 8.860 9.722 0.00 0.57984 0.00
34 20 14 o 74.402 81.635 0.00 0.57984 0.02
39 15 3 o 610.308 658.219 0.00 0.57935 0.14
33 21 15 o 21.140 22.799 0.00 0.57935 0.00
29 25 17 o 75.979 81.943 0.00 0.57935 0.02
31 25 13 o 163.968 176.841 0.00 0.57935 0.04
35 19 13 o 16.490 17.785 0.00 0.57935 0.00
41 7 5 o 0.102 0.110 0.00 0.57935 0.00
35 23 1 o 0.621 0.669 180.00 0.57935 0.00
37 19 5 o 802.853 865.881 180.00 0.57935 0.18
36 20 8 o 12.057 12.359 180.00 0.57852 0.00
40 12 4 o 122.113 125.172 180.00 0.57852 0.03
28 24 20 o 58.805 60.278 0.00 0.57852 0.01
39 11 11 o 326.830 320.856 0.00 0.57803 0.04
35 23 3 o 97.836 96.048 0.00 0.57803 0.02
41 9 1 o 315.145 309.385 0.00 0.57803 0.07
37 15 13 o 49.155 48.256 0.00 0.57803 0.01
31 21 19 o 0.038 0.037 180.00 0.57803 0.00
29 29 9 o 10.569 10.376 180.00 0.57803 0.00
33 25 7 o 7.753 7.611 0.00 0.57803 0.00
28 28 14 o 1.676 1.622 180.00 0.57787 0.00
32 26 8 o 29.633 28.670 0.00 0.57787 0.01
32 22 16 o 0.071 0.069 0.00 0.57787 0.00
38 16 8 o 134.757 130.377 0.00 0.57787 0.03
40 10 8 o 5.280 5.109 180.00 0.57787 0.00
36 18 12 o 5.424 5.247 180.00 0.57787 0.00
42 2 0 o 392.170 366.256 0.00 0.57721 0.04
34 24 6 o 93.701 87.509 0.00 0.57721 0.02
38 18 0 o 144.352 134.814 180.00 0.57721 0.02
39 13 9 o 406.948 388.851 180.00 0.57672 0.09
39 15 5 o 188.201 179.832 0.00 0.57672 0.04
41 9 3 o 21.629 20.667 180.00 0.57672 0.00
31 27 9 o 0.206 0.197 0.00 0.57672 0.00
30 26 14 o 34.620 33.708 180.00 0.57656 0.01
38 18 2 o 20.059 19.530 180.00 0.57656 0.00
42 2 2 o 150.980 146.998 180.00 0.57656 0.02
35 23 5 o 474.422 560.948 0.00 0.57542 0.10
37 19 7 o 120.607 142.604 0.00 0.57542 0.03
31 23 17 o 3.863 4.567 0.00 0.57542 0.00
25 25 23 o 161.578 191.047 180.00 0.57542 0.02
37 17 11 o 19.539 23.102 180.00 0.57542 0.00
41 7 7 o 123.917 146.517 180.00 0.57542 0.01
40 12 6 o 44.668 54.050 0.00 0.57526 0.01
42 4 2 o 69.964 89.341 0.00 0.57462 0.02
28 26 18 o 112.747 143.974 180.00 0.57462 0.02
38 18 4 o 31.296 39.963 0.00 0.57462 0.01
36 22 2 o 525.405 670.920 0.00 0.57462 0.11
30 28 10 o 58.989 75.327 0.00 0.57462 0.01
38 14 12 o 0.390 0.499 180.00 0.57462 0.00
30 22 20 o 124.505 158.988 0.00 0.57462 0.03
34 22 12 o 1693.097 2162.013 180.00 0.57462 0.37
35 21 11 o 0.792 1.002 180.00 0.57414 0.00
33 23 13 o 0.485 0.613 0.00 0.57414 0.00
41 9 5 o 121.775 154.080 0.00 0.57414 0.03
27 23 23 o 330.295 417.917 0.00 0.57414 0.04
27 25 21 o 5.254 5.689 180.00 0.57285 0.00
39 15 7 o 1.333 1.444 180.00 0.57285 0.00
29 27 15 o 1.839 1.991 180.00 0.57285 0.00
33 25 9 o 817.688 885.386 0.00 0.57285 0.17
34 24 8 o 75.891 80.716 0.00 0.57269 0.02
32 24 14 o 7.477 7.952 180.00 0.57269 0.00
42 4 4 o 1.491 1.586 0.00 0.57269 0.00
36 20 10 o 38.583 41.037 180.00 0.57269 0.01
36 22 4 o 36.507 38.828 180.00 0.57269 0.01
40 10 10 o 28.658 28.818 180.00 0.57206 0.00
30 30 0 o 1179.199 1185.761 0.00 0.57206 0.06
30 24 18 o 26.343 26.490 180.00 0.57206 0.01
32 26 10 o 5.150 5.179 0.00 0.57206 0.00
38 16 10 o 103.341 103.916 0.00 0.57206 0.02
40 14 2 o 320.777 322.562 0.00 0.57206 0.07
42 6 0 o 35.886 36.086 180.00 0.57206 0.00
29 29 11 o 708.811 689.349 0.00 0.57158 0.08
31 29 1 o 80.878 78.657 0.00 0.57158 0.02
35 17 17 o 11.812 11.488 180.00 0.57158 0.00
41 11 1 o 21.936 21.334 0.00 0.57158 0.00
35 23 7 o 51.522 50.108 180.00 0.57158 0.01
34 18 18 o 326.951 314.790 180.00 0.57142 0.03
38 18 6 o 124.889 120.244 180.00 0.57142 0.03
30 30 2 o 47.930 46.147 180.00 0.57142 0.01
42 6 2 o 994.451 957.462 0.00 0.57142 0.21
40 12 8 o 0.012 0.012 0.00 0.57079 0.00
32 28 0 o 606.950 568.604 180.00 0.57079 0.06
36 16 16 o 243.500 228.116 180.00 0.57079 0.03
37 21 1 o 87.430 81.867 180.00 0.57032 0.02
39 13 11 o 4.496 4.210 0.00 0.57032 0.00
35 19 15 o 28.056 26.271 180.00 0.57032 0.01
33 19 19 o 1668.382 1562.230 180.00 0.57032 0.18
31 29 3 o 7.118 6.665 180.00 0.57032 0.00
41 9 7 o 1.640 1.535 0.00 0.57032 0.00
29 23 21 o 42.863 40.136 0.00 0.57032 0.01
37 19 9 o 11.337 10.616 0.00 0.57032 0.00
31 25 15 o 81.474 76.290 0.00 0.57032 0.02
41 11 3 o 119.418 111.820 180.00 0.57032 0.03
31 27 11 o 20.960 19.626 180.00 0.57032 0.00
39 17 1 o 78.357 73.372 180.00 0.57032 0.02
34 20 16 o 8.297 7.793 0.00 0.57016 0.00
32 28 2 o 1.508 1.417 0.00 0.57016 0.00
40 14 4 o 202.368 190.069 0.00 0.57016 0.04
42 6 4 o 528.814 503.521 180.00 0.56953 0.11
30 30 4 o 824.226 784.803 0.00 0.56953 0.09
36 18 14 o 162.629 154.851 180.00 0.56953 0.03
36 22 6 o 12.774 12.163 180.00 0.56953 0.00
39 17 3 o 0.236 0.225 0.00 0.56906 0.00
33 27 1 o 671.822 640.783 180.00 0.56906 0.14
37 15 15 o 125.111 119.331 180.00 0.56906 0.01
37 21 3 o 17.430 16.625 0.00 0.56906 0.00
27 27 19 o 74.406 70.968 180.00 0.56906 0.01
33 21 17 o 95.621 91.203 0.00 0.56906 0.02
32 20 20 o 511.772 486.188 180.00 0.56828 0.05
28 28 16 o 128.001 121.602 180.00 0.56828 0.01
32 28 4 o 179.409 170.440 180.00 0.56828 0.04
39 15 9 o 1.275 1.220 0.00 0.56782 0.00
33 27 3 o 8.115 7.764 0.00 0.56782 0.00
31 29 5 o 227.015 217.205 0.00 0.56782 0.05
29 25 19 o 26.560 25.412 180.00 0.56782 0.01
37 17 13 o 43.767 41.876 0.00 0.56782 0.01
41 11 5 o 11.025 10.549 180.00 0.56782 0.00
26 24 24 o 115.544 111.036 0.00 0.56766 0.01
30 28 12 o 17.001 16.338 180.00 0.56766 0.00
42 8 2 o 182.271 178.281 0.00 0.56704 0.04
32 22 18 o 8.231 8.051 0.00 0.56704 0.00
34 24 10 o 295.937 289.460 180.00 0.56704 0.06
38 18 8 o 43.029 42.087 0.00 0.56704 0.01
34 26 0 o 114.191 111.692 180.00 0.56704 0.01
30 26 16 o 20.681 20.228 180.00 0.56704 0.00
40 14 6 o 6.049 5.917 180.00 0.56704 0.00
35 21 13 o 1.848 1.809 180.00 0.56658 0.00
33 25 11 o 5.668 5.549 180.00 0.56658 0.00
39 17 5 o 0.646 0.632 0.00 0.56658 0.00
37 21 5 o 18.463 18.076 180.00 0.56658 0.00
35 23 9 o 0.017 0.017 180.00 0.56658 0.00
34 22 14 o 6.428 6.274 0.00 0.56642 0.00
30 30 6 o 217.278 212.086 0.00 0.56642 0.02
26 26 22 o 4.961 4.842 180.00 0.56642 0.00
38 14 14 o 104.363 101.869 180.00 0.56642 0.01
42 6 6 o 0.598 0.583 0.00 0.56642 0.00
34 26 2 o 45.669 44.578 180.00 0.56642 0.01
36 20 12 o 1620.310 1549.389 0.00 0.56581 0.33
33 27 5 o 805.637 758.026 180.00 0.56535 0.16
41 9 9 o 40.022 37.657 180.00 0.56535 0.00
33 23 15 o 10.363 9.751 0.00 0.56535 0.00
31 21 21 o 144.904 136.341 0.00 0.56535 0.01
28 24 22 o 17.346 16.235 0.00 0.56519 0.00
40 12 10 o 41.921 39.236 0.00 0.56519 0.01
42 8 4 o 54.763 51.255 180.00 0.56519 0.01
32 28 6 o 146.027 136.673 180.00 0.56519 0.03
38 16 12 o 116.314 108.863 180.00 0.56519 0.02
32 26 12 o 45.282 42.381 0.00 0.56519 0.01
36 22 8 o 315.649 295.430 0.00 0.56519 0.06
38 20 2 o 9.607 8.767 0.00 0.56458 0.00
34 26 4 o 149.994 136.879 180.00 0.56458 0.03
31 23 19 o 225.302 200.503 0.00 0.56412 0.05
31 29 7 o 11.565 10.292 180.00 0.56412 0.00
43 1 1 o 20.638 18.366 180.00 0.56412 0.00
35 25 1 o 27.319 24.312 0.00 0.56412 0.01
41 11 7 o 137.824 122.654 0.00 0.56412 0.03
37 19 11 o 424.644 377.904 0.00 0.56412 0.09
29 29 13 o 19.162 17.052 0.00 0.56412 0.00
41 13 1 o 65.790 58.549 0.00 0.56412 0.01
32 24 16 o 150.166 128.449 0.00 0.56336 0.03
40 16 0 o 302.970 259.154 180.00 0.56336 0.03
37 21 7 o 64.807 54.794 0.00 0.56291 0.01
41 13 3 o 572.026 483.648 0.00 0.56291 0.11
29 27 17 o 45.063 38.101 180.00 0.56291 0.01
43 3 1 o 86.904 73.477 180.00 0.56291 0.02
39 13 13 o 37.777 31.941 180.00 0.56291 0.00
35 25 3 o 69.812 59.026 180.00 0.56291 0.01
39 17 7 o 316.881 267.922 180.00 0.56291 0.06
31 27 13 o 7.145 6.041 0.00 0.56291 0.00
40 14 8 o 134.174 113.330 180.00 0.56276 0.03
40 16 2 o 2.342 1.978 180.00 0.56276 0.00
38 20 4 o 12.229 10.329 180.00 0.56276 0.00
28 26 20 o 97.526 82.375 180.00 0.56276 0.02
42 8 6 o 14.091 12.003 0.00 0.56215 0.00
30 30 8 o 42.895 36.537 180.00 0.56215 0.00
42 10 0 o 750.827 639.543 0.00 0.56215 0.07
43 3 3 o 81.801 70.734 180.00 0.56170 0.01
33 27 7 o 9.965 8.617 180.00 0.56170 0.00
39 15 11 o 1.536 1.328 0.00 0.56170 0.00
30 22 22 o 37.990 33.044 180.00 0.56155 0.00
34 26 6 o 0.018 0.016 180.00 0.56155 0.00
42 10 2 o 0.144 0.125 0.00 0.56155 0.00
38 18 10 o 182.408 158.660 0.00 0.56155 0.04
32 28 8 o 39.960 35.546 180.00 0.56095 0.01
36 24 0 o 206.306 183.515 0.00 0.56095 0.02
40 16 4 o 63.277 56.286 0.00 0.56095 0.01
35 23 11 o 545.563 489.870 180.00 0.56050 0.11
35 19 17 o 104.678 93.992 0.00 0.56050 0.02
25 25 25 o 35.404 31.790 0.00 0.56050 0.00
41 13 5 o 784.834 704.715 180.00 0.56050 0.15
31 25 17 o 484.697 435.218 180.00 0.56050 0.10
35 25 5 o 42.855 38.481 0.00 0.56050 0.01
43 5 1 o 132.618 119.080 0.00 0.56050 0.03
36 24 2 o 14.918 13.410 180.00 0.56035 0.00
36 18 16 o 10.359 9.311 0.00 0.56035 0.00
34 24 12 o 9.733 8.749 180.00 0.56035 0.00
30 24 20 o 33.071 29.727 180.00 0.56035 0.01
30 28 14 o 175.581 157.195 0.00 0.55975 0.03
38 20 6 o 73.169 65.507 0.00 0.55975 0.01
36 22 10 o 59.738 53.482 0.00 0.55975 0.01
34 20 18 o 449.167 402.133 180.00 0.55975 0.09
42 10 4 o 11.952 10.701 0.00 0.55975 0.00
