#------------------------------------------------------------------------------
#$Date: 2016-02-12 10:24:28 +0200 (Fri, 12 Feb 2016) $
#$Revision: 176402 $
#$URL: svn://www.crystallography.net/cod/cif/7/22/42/7224240.cif $
#------------------------------------------------------------------------------
#
# This file is available in the Crystallography Open Database (COD),
# http://www.crystallography.net/
#
# All data on this site have been placed in the public domain by the
# contributors.
#
data_7224240
loop_
_publ_author_name
'Attfield, Martin'
'Feygenson, Mikhail'
'Neuefeind, Joerg C.'
'Proffen, Thomas E.'
'Hriljac, J. A.'
'Lucas, Timothy C.'
_publ_section_title
;
 Reprobing the mechanism of negative thermal expansion in siliceous
 faujasite
;
_journal_name_full               'RSC Adv.'
_journal_paper_doi               10.1039/C5RA23827G
_journal_year                    2016
_chemical_formula_sum            'O2 Si'
_chemical_formula_weight         60.08
_chemical_name_systematic        ' ?'
_space_group_IT_number           227
_symmetry_cell_setting           cubic
_symmetry_space_group_name_Hall  '-F 4vw 2vw 3'
_symmetry_space_group_name_H-M   'F d -3 m :2'
_audit_creation_date             2015-07-02T12:47
_audit_creation_method           'from EXP file using GSAS2CIF'
_audit_update_record
' 2015-07-02T12:47  Initial CIF as created by GSAS2CIF'
_cell_angle_alpha                90.0
_cell_angle_beta                 90.0
_cell_angle_gamma                90.0
_cell_formula_units_Z            192
_cell_length_a                   24.2602(9)
_cell_length_b                   24.2602
_cell_length_c                   24.2602
_cell_volume                     14278.5(5)
_computing_structure_refinement  GSAS
_diffrn_radiation_probe          neutron
_exptl_absorpt_correction_T_max  1.00000
_exptl_absorpt_correction_T_min  1.00000
_exptl_absorpt_process_details
;   GSAS Absorption/surface roughness correction: function number 0
 No correction is applied.
;
_pd_block_id
2015-07-02T12:47|ZDDAYC35A7300KBANK5|ZDDAY|nomad
_pd_calc_method                  'Rietveld Refinement'
_pd_instr_location               ' ?'
_pd_meas_2theta_fixed            154.000
_pd_meas_number_of_points        3000
_pd_phase_name                   zdday
_pd_proc_info_datetime           2015-07-02T12:47:33
_pd_proc_info_excluded_regions   ' ?'
_pd_proc_ls_background_function
;   GSAS Background function number 1 with 12 terms.
 Shifted Chebyshev function of 1st kind
      1:   9.287620E-02 2:   3.404590E-03 3:  -1.131590E-03 4:  -4.292500E-04
      5:  -3.052140E-03 6:   4.531470E-03 7:  -1.151540E-03 8:  -7.676410E-03
      9:  -4.997790E-0310:   8.821360E-0411:  -1.254940E-0312:  -5.057020E-04
;
_pd_proc_ls_peak_cutoff          0.00200
_pd_proc_ls_profile_function
;
 TOF Profile function number-3 with  21 terms
 Profile coefficients for exponential pseudovoigt
  convolution Von Dreele, 1990 (unpublished)
 Peak tails are ignored  where the intensity is below 0.0020 times the peak
   Aniso. broadening axis   0.0   0.0   1.0
;
_pd_proc_ls_prof_R_factor        0.0262
_pd_proc_ls_prof_wR_expected     0.0189
_pd_proc_ls_prof_wR_factor       0.0316
_pd_proc_number_of_points        3000
_pd_spec_mounting                ' ?'
_refine_ls_goodness_of_fit_all   1.69
_refine_ls_matrix_type           full
_refine_ls_number_parameters     33
_refine_ls_number_restraints     0
_refine_ls_R_Fsqd_factor         0.05822
_refine_ls_shift/su_max          0.02
_refine_ls_shift/su_mean         0.01
_reflns_d_resolution_high        0.561
_reflns_d_resolution_low         1.556
_reflns_limit_h_max              44
_reflns_limit_h_min              1
_reflns_limit_k_max              31
_reflns_limit_k_min              0
_reflns_limit_l_max              25
_reflns_limit_l_min              0
_reflns_number_total             1924
_cod_data_source_file            c5ra23827g4.cif
_cod_data_source_block           ZDDAYC35A7300KBANK5_publ
_cod_depositor_comments
;
The following automatic conversions were performed:

'_geom_bond_publ_flag' value 'N' changed to 'n' according to
/usr/data/users/saulius/crontab/automatic-downloads/rss-feeds/RSC/lib/dictionaries/cif_core.dic
dictionary named 'cif_core.dic' version 2.4.2 from 2011-04-26 (40
times).

'_geom_angle_publ_flag' value 'N' changed to 'n' according to
/usr/data/users/saulius/crontab/automatic-downloads/rss-feeds/RSC/lib/dictionaries/cif_core.dic
dictionary named 'cif_core.dic' version 2.4.2 from 2011-04-26 (10
times).

Automatic conversion script
Id: cif_fix_values 4268 2015-11-12 08:31:59Z antanas 
;
_cod_original_cell_volume        14278.6(16)
_cod_original_sg_symbol_H-M      'F d -3 m'
_cod_database_code               7224240
_gsas_exptl_extinct_corr_t_min   1.00000
_gsas_exptl_extinct_corr_t_max   1.00000
loop_
_symmetry_equiv_pos_site_id
_symmetry_equiv_pos_as_xyz
1 +x,+y,+z
2 +z,+x,+y
3 +y,+z,+x
4 +x+1/4,+y+1/4,-z
5 -z,+x+1/4,+y+1/4
6 +y+1/4,-z,+x+1/4
7 -z+1/4,+x+1/2,-y+3/4
8 -y+3/4,-z+1/4,+x+1/2
9 +y+1/2,-z+1/4,-x+3/4
10 -x+3/4,+y+1/2,-z+1/4
11 -z+1/4,-x+3/4,+y+1/2
12 +x+1/2,-y+3/4,-z+1/4
13 +y,+x,+z
14 +z,+y,+x
15 +x,+z,+y
16 +y+1/4,+x+1/4,-z
17 -z,+y+1/4,+x+1/4
18 +x+1/4,-z,+y+1/4
19 -z+1/4,+y+1/2,-x+3/4
20 -x+3/4,-z+1/4,+y+1/2
21 +x+1/2,-z+1/4,-y+3/4
22 -y+3/4,+x+1/2,-z+1/4
23 -z+1/4,-y+3/4,+x+1/2
24 +y+1/2,-x+3/4,-z+1/4
-1 -x,-y,-z
-2 -z,-x,-y
-3 -y,-z,-x
-4 -x+3/4,-y+3/4,+z
-5 +z,-x+3/4,-y+3/4
-6 -y+3/4,+z,-x+3/4
-7 +z+3/4,-x+1/2,+y+1/4
-8 +y+1/4,+z+3/4,-x+1/2
-9 -y+1/2,+z+3/4,+x+1/4
-10 +x+1/4,-y+1/2,+z+3/4
-11 +z+3/4,+x+1/4,-y+1/2
-12 -x+1/2,+y+1/4,+z+3/4
-13 -y,-x,-z
-14 -z,-y,-x
-15 -x,-z,-y
-16 -y+3/4,-x+3/4,+z
-17 +z,-y+3/4,-x+3/4
-18 -x+3/4,+z,-y+3/4
-19 +z+3/4,-y+1/2,+x+1/4
-20 +x+1/4,+z+3/4,-y+1/2
-21 -x+1/2,+z+3/4,+y+1/4
-22 +y+1/4,-x+1/2,+z+3/4
-23 +z+3/4,+y+1/4,-x+1/2
-24 -y+1/2,+x+1/4,+z+3/4
101 +x,+y+1/2,+z+1/2
102 +z,+x+1/2,+y+1/2
103 +y,+z+1/2,+x+1/2
104 +x+1/4,+y+3/4,-z+1/2
105 -z,+x+3/4,+y+3/4
106 +y+1/4,-z+1/2,+x+3/4
107 -z+1/4,+x,-y+1/4
108 -y+3/4,-z+3/4,+x
109 +y+1/2,-z+3/4,-x+1/4
110 -x+3/4,+y,-z+3/4
111 -z+1/4,-x+1/4,+y
112 +x+1/2,-y+1/4,-z+3/4
113 +y,+x+1/2,+z+1/2
114 +z,+y+1/2,+x+1/2
115 +x,+z+1/2,+y+1/2
116 +y+1/4,+x+3/4,-z+1/2
117 -z,+y+3/4,+x+3/4
118 +x+1/4,-z+1/2,+y+3/4
119 -z+1/4,+y,-x+1/4
120 -x+3/4,-z+3/4,+y
121 +x+1/2,-z+3/4,-y+1/4
122 -y+3/4,+x,-z+3/4
123 -z+1/4,-y+1/4,+x
124 +y+1/2,-x+1/4,-z+3/4
-101 -x,-y+1/2,-z+1/2
-102 -z,-x+1/2,-y+1/2
-103 -y,-z+1/2,-x+1/2
-104 -x+3/4,-y+1/4,+z+1/2
-105 +z,-x+1/4,-y+1/4
-106 -y+3/4,+z+1/2,-x+1/4
-107 +z+3/4,-x,+y+3/4
-108 +y+1/4,+z+1/4,-x
-109 -y+1/2,+z+1/4,+x+3/4
-110 +x+1/4,-y,+z+1/4
-111 +z+3/4,+x+3/4,-y
-112 -x+1/2,+y+3/4,+z+1/4
-113 -y,-x+1/2,-z+1/2
-114 -z,-y+1/2,-x+1/2
-115 -x,-z+1/2,-y+1/2
-116 -y+3/4,-x+1/4,+z+1/2
-117 +z,-y+1/4,-x+1/4
-118 -x+3/4,+z+1/2,-y+1/4
-119 +z+3/4,-y,+x+3/4
-120 +x+1/4,+z+1/4,-y
-121 -x+1/2,+z+1/4,+y+3/4
-122 +y+1/4,-x,+z+1/4
-123 +z+3/4,+y+3/4,-x
-124 -y+1/2,+x+3/4,+z+1/4
201 +x+1/2,+y,+z+1/2
202 +z+1/2,+x,+y+1/2
203 +y+1/2,+z,+x+1/2
204 +x+3/4,+y+1/4,-z+1/2
205 -z+1/2,+x+1/4,+y+3/4
206 +y+3/4,-z,+x+3/4
207 -z+3/4,+x+1/2,-y+1/4
208 -y+1/4,-z+1/4,+x
209 +y,-z+1/4,-x+1/4
210 -x+1/4,+y+1/2,-z+3/4
211 -z+3/4,-x+3/4,+y
212 +x,-y+3/4,-z+3/4
213 +y+1/2,+x,+z+1/2
214 +z+1/2,+y,+x+1/2
215 +x+1/2,+z,+y+1/2
216 +y+3/4,+x+1/4,-z+1/2
217 -z+1/2,+y+1/4,+x+3/4
218 +x+3/4,-z,+y+3/4
219 -z+3/4,+y+1/2,-x+1/4
220 -x+1/4,-z+1/4,+y
221 +x,-z+1/4,-y+1/4
222 -y+1/4,+x+1/2,-z+3/4
223 -z+3/4,-y+3/4,+x
224 +y,-x+3/4,-z+3/4
-201 -x+1/2,-y,-z+1/2
-202 -z+1/2,-x,-y+1/2
-203 -y+1/2,-z,-x+1/2
-204 -x+1/4,-y+3/4,+z+1/2
-205 +z+1/2,-x+3/4,-y+1/4
-206 -y+1/4,+z,-x+1/4
-207 +z+1/4,-x+1/2,+y+3/4
-208 +y+3/4,+z+3/4,-x
-209 -y,+z+3/4,+x+3/4
-210 +x+3/4,-y+1/2,+z+1/4
-211 +z+1/4,+x+1/4,-y
-212 -x,+y+1/4,+z+1/4
-213 -y+1/2,-x,-z+1/2
-214 -z+1/2,-y,-x+1/2
-215 -x+1/2,-z,-y+1/2
-216 -y+1/4,-x+3/4,+z+1/2
-217 +z+1/2,-y+3/4,-x+1/4
-218 -x+1/4,+z,-y+1/4
-219 +z+1/4,-y+1/2,+x+3/4
-220 +x+3/4,+z+3/4,-y
-221 -x,+z+3/4,+y+3/4
-222 +y+3/4,-x+1/2,+z+1/4
-223 +z+1/4,+y+1/4,-x
-224 -y,+x+1/4,+z+1/4
301 +x+1/2,+y+1/2,+z
302 +z+1/2,+x+1/2,+y
303 +y+1/2,+z+1/2,+x
304 +x+3/4,+y+3/4,-z
305 -z+1/2,+x+3/4,+y+1/4
306 +y+3/4,-z+1/2,+x+1/4
307 -z+3/4,+x,-y+3/4
308 -y+1/4,-z+3/4,+x+1/2
309 +y,-z+3/4,-x+3/4
310 -x+1/4,+y,-z+1/4
311 -z+3/4,-x+1/4,+y+1/2
312 +x,-y+1/4,-z+1/4
313 +y+1/2,+x+1/2,+z
314 +z+1/2,+y+1/2,+x
315 +x+1/2,+z+1/2,+y
316 +y+3/4,+x+3/4,-z
317 -z+1/2,+y+3/4,+x+1/4
318 +x+3/4,-z+1/2,+y+1/4
319 -z+3/4,+y,-x+3/4
320 -x+1/4,-z+3/4,+y+1/2
321 +x,-z+3/4,-y+3/4
322 -y+1/4,+x,-z+1/4
323 -z+3/4,-y+1/4,+x+1/2
324 +y,-x+1/4,-z+1/4
-301 -x+1/2,-y+1/2,-z
-302 -z+1/2,-x+1/2,-y
-303 -y+1/2,-z+1/2,-x
-304 -x+1/4,-y+1/4,+z
-305 +z+1/2,-x+1/4,-y+3/4
-306 -y+1/4,+z+1/2,-x+3/4
-307 +z+1/4,-x,+y+1/4
-308 +y+3/4,+z+1/4,-x+1/2
-309 -y,+z+1/4,+x+1/4
-310 +x+3/4,-y,+z+3/4
-311 +z+1/4,+x+3/4,-y+1/2
-312 -x,+y+3/4,+z+3/4
-313 -y+1/2,-x+1/2,-z
-314 -z+1/2,-y+1/2,-x
-315 -x+1/2,-z+1/2,-y
-316 -y+1/4,-x+1/4,+z
-317 +z+1/2,-y+1/4,-x+3/4
-318 -x+1/4,+z+1/2,-y+3/4
-319 +z+1/4,-y,+x+1/4
-320 +x+3/4,+z+1/4,-y+1/2
-321 -x,+z+1/4,+y+1/4
-322 +y+3/4,-x,+z+3/4
-323 +z+1/4,+y+3/4,-x+1/2
-324 -y,+x+3/4,+z+3/4
loop_
_atom_site_type_symbol
_atom_site_label
_atom_site_fract_x
_atom_site_fract_y
_atom_site_fract_z
_atom_site_occupancy
_atom_site_thermal_displace_type
_atom_site_U_iso_or_equiv
_atom_site_symmetry_multiplicity
Si Si1 0.94620(11) 0.12593(12) 0.03596(16) 1.0 Uiso 0.0085(4) 192
O O1 0.0 -0.10635(12) 0.10635(12) 1.0 Uiso 0.0156(10) 96
O O2 -0.00386(10) -0.00386(10) 0.14078(17) 1.0 Uiso 0.0189(10) 96
O O3 0.07590(11) 0.07590(11) -0.03591(15) 1.0 Uiso 0.0171(8) 96
O O4 0.07066(11) 0.07066(11) 0.32054(15) 1.0 Uiso 0.0118(8) 96
loop_
_atom_type_symbol
_atom_type_number_in_cell
_atom_type_scat_length_neutron
_atom_type_scat_source
Si 192.0 0.4149 International_Tables_Vol_C
O 384.0 0.5803 International_Tables_Vol_C
loop_
_geom_angle_atom_site_label_1
_geom_angle_atom_site_label_2
_geom_angle_atom_site_label_3
_geom_angle
_geom_angle_site_symmetry_1
_geom_angle_site_symmetry_3
_geom_angle_publ_flag
O1 Si1 O2 109.85(25) 3_655 3_655 n
O1 Si1 O3 108.39(26) 3_655 2_655 n
O1 Si1 O4 108.80(28) 3_655 111_533 n
O2 Si1 O3 109.30(25) 3_655 2_655 n
O2 Si1 O4 109.26(28) 3_655 111_533 n
O3 Si1 O4 111.23(29) 2_655 111_533 n
Si1 O1 Si1 139.0(4) 2_545 -14_556 n
Si1 O2 Si1 150.88(33) 2_545 15_455 n
Si1 O3 Si1 146.32(33) 3_554 14_554 n
Si1 O4 Si1 142.18(34) -117_446 -206_446 n
loop_
_geom_bond_atom_site_label_1
_geom_bond_atom_site_label_2
_geom_bond_distance
_geom_bond_site_symmetry_2
_geom_bond_publ_flag
Si1 Si1 3.080(7) 14_654 n
Si1 Si1 3.087(7) 15_555 n
Si1 Si1 3.028(6) -13_665 n
Si1 Si1 3.023(7) 221_555 n
Si1 O1 1.6162(35) 3_655 n
Si1 O2 1.591(4) 3_655 n
Si1 O3 1.6124(33) 2_655 n
Si1 O4 1.5977(34) 111_655 n
O1 Si1 1.6162(35) 2_545 n
O1 Si1 1.6162(35) -14_556 n
O1 O2 2.6246(28) 1_555 n
O1 O2 2.6246(28) -3_555 n
O1 O3 2.618(5) 3_555 n
O1 O3 2.618(5) -1_555 n
O1 O4 2.6132(19) 209_555 n
O1 O4 2.6132(19) -312_434 n
O2 Si1 1.591(4) 2_545 n
O2 Si1 1.591(4) 15_455 n
O2 O1 2.6246(28) 1_555 n
O2 O1 2.6246(28) 13_555 n
O2 O3 2.6127(33) 2_555 n
O2 O3 2.6127(33) 3_555 n
O2 O4 2.6002(34) 107_555 n
O2 O4 2.6002(34) 209_555 n
O3 Si1 1.6124(33) 3_554 n
O3 Si1 1.6124(33) 14_554 n
O3 O1 2.618(5) 2_555 n
O3 O1 2.618(5) 15_555 n
O3 O2 2.6127(33) 2_555 n
O3 O2 2.6127(33) 3_555 n
O3 O4 2.6493(35) 310_555 n
O3 O4 2.6493(35) 312_555 n
O4 Si1 1.5977(34) -117_545 n
O4 Si1 1.5977(34) -206_455 n
O4 O1 2.6132(19) 107_555 n
O4 O1 2.6132(19) 221_555 n
O4 O2 2.6002(34) 107_555 n
O4 O2 2.6002(34) 209_555 n
O4 O3 2.6493(35) 310_555 n
O4 O3 2.6493(35) 312_555 n
loop_
_pd_meas_time_of_flight
_pd_proc_d_spacing
_pd_meas_intensity_total
_pd_proc_ls_weight
_pd_proc_intensity_bkg_calc
_pd_calc_intensity_total
1377.39 . 0.088(4) . . .
1378.53 . 0.083(5) . . .
1379.68 . 0.090(4) . . .
1380.82 . 0.089(4) . . .
1381.97 . 0.082(5) . . .
1383.12 . 0.082(5) . . .
1384.27 . 0.090(4) . . .
1385.42 . 0.092(4) . . .
1386.57 . 0.082(5) . . .
1387.72 . 0.088(4) . . .
1388.88 . 0.088(4) . . .
1390.03 . 0.085(4) . . .
1391.18 . 0.090(4) . . .
1392.34 . 0.085(4) . . .
1393.50 . 0.093(4) . . .
1394.66 . 0.094(4) . . .
1395.81 . 0.089(4) . . .
1396.97 . 0.087(4) . . .
1398.13 . 0.082(4) . . .
1399.30 . 0.088(4) . . .
1400.46 . 0.086(4) . . .
1401.62 . 0.093(4) . . .
1402.79 . 0.087(4) . . .
1403.95 . 0.087(4) . . .
1405.12 . 0.079(4) . . .
1406.29 . 0.093(4) . . .
1407.46 . 0.077(4) . . .
1408.62 . 0.086(4) . . .
1409.80 . 0.093(4) . . .
1410.97 . 0.088(4) . . .
1412.14 . 0.085(4) . . .
1413.31 . 0.090(4) . . .
1414.49 . 0.094(4) . . .
1415.66 . 0.092(4) . . .
1416.84 . 0.089(4) . . .
1418.02 . 0.083(4) . . .
1419.19 . 0.083(4) . . .
1420.37 . 0.091(4) . . .
1421.55 . 0.076(4) . . .
1422.73 . 0.089(4) . . .
1423.92 . 0.083(4) . . .
1425.10 . 0.084(4) . . .
1426.28 . 0.084(4) . . .
1427.47 . 0.084(4) . . .
1428.65 . 0.083(4) . . .
1429.84 . 0.092(4) . . .
1431.03 . 0.084(4) . . .
1432.22 . 0.080(4) . . .
1433.41 . 0.091(4) . . .
1434.60 . 0.085(4) . . .
1435.79 . 0.078(4) . . .
1436.99 . 0.087(4) . . .
1438.18 . 0.089(4) . . .
1439.37 . 0.088(4) . . .
1440.57 . 0.086(4) . . .
1441.77 . 0.083(4) . . .
1442.97 . 0.089(4) . . .
1444.16 . 0.080(4) . . .
1445.36 . 0.092(4) . . .
1446.57 . 0.082(4) . . .
1447.77 . 0.086(4) . . .
1448.97 . 0.088(4) . . .
1450.17 . 0.089(4) . . .
1451.38 . 0.089(4) . . .
1452.59 . 0.083(4) . . .
1453.79 . 0.089(4) . . .
1455.00 . 0.082(4) . . .
1456.21 . 0.087(4) . . .
1457.42 . 0.085(4) . . .
1458.63 . 0.084(4) . . .
1459.84 . 0.090(4) . . .
1461.05 . 0.086(4) . . .
1462.27 . 0.081(4) . . .
1463.48 . 0.089(4) . . .
1464.70 . 0.087(4) . . .
1465.92 . 0.087(4) . . .
1467.13 . 0.088(4) . . .
1468.35 . 0.088(4) . . .
1469.57 . 0.092(4) . . .
1470.80 . 0.088(4) . . .
1472.02 . 0.082(4) . . .
1473.24 . 0.090(4) . . .
1474.46 . 0.081(4) . . .
1475.69 . 0.083(4) . . .
1476.92 . 0.088(4) . . .
1478.14 . 0.081(4) . . .
1479.37 . 0.091(4) . . .
1480.60 . 0.086(4) . . .
1481.83 . 0.082(4) . . .
1483.06 . 0.090(4) . . .
1484.29 . 0.086(4) . . .
1485.53 . 0.086(4) . . .
1486.76 . 0.094(4) . . .
1488.00 . 0.079(4) . . .
1489.23 . 0.078(4) . . .
1490.47 . 0.088(4) . . .
1491.71 . 0.088(4) . . .
1492.95 . 0.087(4) . . .
1494.19 . 0.089(4) . . .
1495.43 . 0.082(4) . . .
1496.67 . 0.094(4) . . .
1497.92 . 0.087(4) . . .
1499.16 . 0.088(4) . . .
1500.41 . 0.091(4) . . .
1501.65 . 0.088(4) . . .
1502.90 . 0.083(4) . . .
1504.15 . 0.089(4) . . .
1505.40 . 0.088(4) . . .
1506.65 . 0.092(4) . . .
1507.90 . 0.076(4) . . .
1509.16 . 0.082(4) . . .
1510.41 . 0.085(4) . . .
1511.66 . 0.087(4) . . .
1512.92 . 0.087(4) . . .
1514.18 . 0.089(4) . . .
1515.44 . 0.078(4) . . .
1516.70 . 0.095(4) . . .
1517.96 . 0.082(4) . . .
1519.22 . 0.083(4) . . .
1520.48 . 0.086(4) . . .
1521.74 . 0.081(4) . . .
1523.01 . 0.083(4) . . .
1524.27 . 0.088(4) . . .
1525.54 . 0.089(4) . . .
1526.81 . 0.088(4) . . .
1528.08 . 0.087(4) . . .
1529.34 . 0.092(4) . . .
1530.62 . 0.088(4) . . .
1531.89 . 0.087(4) . . .
1533.16 . 0.080(4) . . .
1534.43 . 0.095(4) . . .
1535.71 . 0.085(4) . . .
1536.99 . 0.092(4) . . .
1538.26 . 0.087(4) . . .
1539.54 . 0.081(4) . . .
1540.82 . 0.085(4) . . .
1542.10 . 0.092(4) . . .
1543.38 . 0.094(4) . . .
1544.66 . 0.082(4) . . .
1545.95 . 0.080(4) . . .
1547.23 . 0.082(4) . . .
1548.52 . 0.080(4) . . .
1549.80 . 0.097(4) . . .
1551.09 . 0.092(4) . . .
1552.38 . 0.093(4) . . .
1553.67 . 0.084(4) . . .
1554.96 . 0.084(4) . . .
1556.25 . 0.084(4) . . .
1557.55 . 0.082(4) . . .
1558.84 . 0.092(4) . . .
1560.14 . 0.086(4) . . .
1561.43 . 0.087(4) . . .
1562.73 . 0.085(4) . . .
1564.03 . 0.087(4) . . .
1565.33 . 0.091(4) . . .
1566.63 . 0.087(4) . . .
1567.93 . 0.087(4) . . .
1569.23 . 0.086(4) . . .
1570.54 . 0.083(4) . . .
1571.84 . 0.086(4) . . .
1573.15 . 0.085(4) . . .
1574.45 . 0.085(4) . . .
1575.76 . 0.087(4) . . .
1577.07 . 0.079(4) . . .
1578.38 . 0.078(4) . . .
1579.69 . 0.082(4) . . .
1581.01 . 0.087(4) . . .
1582.32 . 0.086(4) . . .
1583.64 . 0.092(4) . . .
1584.95 . 0.091(4) . . .
1586.27 . 0.081(4) . . .
1587.59 . 0.088(4) . . .
1588.91 . 0.084(4) . . .
1590.23 . 0.082(4) . . .
1591.55 . 0.085(4) . . .
1592.87 . 0.082(4) . . .
1594.19 . 0.090(4) . . .
1595.52 . 0.087(4) . . .
1596.84 . 0.084(4) . . .
1598.17 . 0.081(4) . . .
1599.50 . 0.095(4) . . .
1600.83 . 0.075(4) . . .
1602.16 . 0.090(4) . . .
1603.49 . 0.092(4) . . .
1604.82 . 0.087(4) . . .
1606.15 . 0.082(4) . . .
1607.49 . 0.080(4) . . .
1608.82 . 0.087(4) . . .
1610.16 . 0.087(4) . . .
1611.50 . 0.090(4) . . .
1612.84 . 0.089(4) . . .
1614.18 . 0.081(4) . . .
1615.52 . 0.089(4) . . .
1616.86 . 0.091(4) . . .
1618.21 . 0.092(4) . . .
1619.55 . 0.077(4) . . .
1620.90 . 0.081(4) . . .
1622.24 . 0.077(4) . . .
1623.59 . 0.088(4) . . .
1624.94 . 0.080(4) . . .
1626.29 . 0.084(4) . . .
1627.64 . 0.085(4) . . .
1628.99 . 0.088(4) . . .
1630.35 . 0.077(4) . . .
1631.70 . 0.085(4) . . .
1633.06 . 0.087(4) . . .
1634.41 . 0.092(4) . . .
1635.77 . 0.092(4) . . .
1637.13 . 0.091(4) . . .
1638.49 . 0.085(4) . . .
1639.85 . 0.087(4) . . .
1641.22 . 0.082(4) . . .
1642.58 . 0.085(4) . . .
1643.94 . 0.094(4) . . .
1645.31 . 0.081(4) . . .
1646.68 . 0.089(4) . . .
1648.05 . 0.089(4) . . .
1649.41 . 0.088(4) . . .
1650.79 . 0.088(4) . . .
1652.16 . 0.091(4) . . .
1653.53 . 0.092(4) . . .
1654.90 . 0.086(4) . . .
1656.28 . 0.090(4) . . .
1657.65 . 0.087(4) . . .
1659.03 . 0.087(4) . . .
1660.41 . 0.092(4) . . .
1661.79 . 0.090(4) . . .
1663.17 . 0.072(4) . . .
1664.55 . 0.088(4) . . .
1665.94 . 0.088(4) . . .
1667.32 . 0.081(4) . . .
1668.71 . 0.086(4) . . .
1670.09 . 0.090(4) . . .
1671.48 . 0.089(4) . . .
1672.87 . 0.078(4) . . .
1674.26 . 0.083(4) . . .
1675.65 . 0.084(4) . . .
1677.04 . 0.087(4) . . .
1678.44 . 0.093(4) . . .
1679.83 . 0.077(4) . . .
1681.23 . 0.085(4) . . .
1682.62 . 0.077(4) . . .
1684.02 . 0.081(4) . . .
1685.42 . 0.092(4) . . .
1686.82 . 0.084(4) . . .
1688.22 . 0.099(4) . . .
1689.63 . 0.083(4) . . .
1691.03 . 0.086(4) . . .
1692.43 . 0.086(4) . . .
1693.84 . 0.077(4) . . .
1695.25 . 0.084(4) . . .
1696.66 . 0.087(4) . . .
1698.07 . 0.082(4) . . .
1699.48 . 0.089(4) . . .
1700.89 . 0.087(4) . . .
1702.30 . 0.080(4) . . .
1703.72 . 0.092(4) . . .
1705.13 . 0.080(4) . . .
1706.55 . 0.086(4) . . .
1707.97 . 0.092(4) . . .
1709.39 . 0.089(4) . . .
1710.81 . 0.080(4) . . .
1712.23 . 0.085(4) . . .
1713.65 . 0.084(4) . . .
1715.08 . 0.083(4) . . .
1716.50 . 0.086(4) . . .
1717.93 . 0.085(4) . . .
1719.35 . 0.079(4) . . .
1720.78 . 0.087(4) . . .
1722.21 . 0.085(4) . . .
1723.64 . 0.082(4) . . .
1725.08 . 0.082(4) . . .
1726.51 . 0.086(4) . . .
1727.94 . 0.079(4) . . .
1729.38 . 0.078(4) . . .
1730.82 . 0.080(4) . . .
1732.25 . 0.085(4) . . .
1733.69 . 0.093(4) . . .
1735.13 . 0.087(4) . . .
1736.58 . 0.090(4) . . .
1738.02 . 0.083(4) . . .
1739.46 . 0.085(4) . . .
1740.91 . 0.093(4) . . .
1742.35 . 0.085(4) . . .
1743.80 . 0.089(4) . . .
1745.25 . 0.079(4) . . .
1746.70 . 0.083(4) . . .
1748.15 . 0.078(4) . . .
1749.61 . 0.089(4) . . .
1751.06 . 0.088(4) . . .
1752.51 . 0.084(4) . . .
1753.97 . 0.088(4) . . .
1755.43 . 0.086(4) . . .
1756.89 . 0.082(4) . . .
1758.35 . 0.081(4) . . .
1759.81 . 0.080(4) . . .
1761.27 . 0.084(4) . . .
1762.73 . 0.083(4) . . .
1764.20 . 0.083(4) . . .
1765.66 . 0.079(4) . . .
1767.13 . 0.090(4) . . .
1768.60 . 0.088(4) . . .
1770.07 . 0.083(4) . . .
1771.54 . 0.083(4) . . .
1773.01 . 0.079(4) . . .
1774.48 . 0.081(4) . . .
1775.96 . 0.081(4) . . .
1777.43 . 0.085(4) . . .
1778.91 . 0.084(4) . . .
1780.39 . 0.078(4) . . .
1781.87 . 0.081(4) . . .
1783.35 . 0.087(4) . . .
1784.83 . 0.083(4) . . .
1786.31 . 0.083(4) . . .
1787.80 . 0.085(4) . . .
1789.28 . 0.082(4) . . .
1790.77 . 0.087(4) . . .
1792.26 . 0.087(4) . . .
1793.75 . 0.091(4) . . .
1795.24 . 0.087(4) . . .
1796.73 . 0.086(4) . . .
1798.22 . 0.077(4) . . .
1799.72 . 0.089(4) . . .
1801.21 . 0.090(4) . . .
1802.71 . 0.082(4) . . .
1804.21 . 0.087(4) . . .
1805.71 . 0.085(4) . . .
1807.21 . 0.084(4) . . .
1808.71 . 0.089(4) . . .
1810.21 . 0.077(4) . . .
1811.71 . 0.092(4) . . .
1813.22 . 0.088(4) . . .
1814.73 . 0.084(4) . . .
1816.23 . 0.092(4) . . .
1817.74 . 0.088(4) . . .
1819.25 . 0.087(4) . . .
1820.77 . 0.086(4) . . .
1822.28 . 0.087(4) . . .
1823.79 . 0.088(4) . . .
1825.31 . 0.093(4) . . .
1826.83 . 0.092(4) . . .
1828.34 . 0.084(4) . . .
1829.86 . 0.086(4) . . .
1831.38 . 0.088(4) . . .
1832.90 . 0.081(4) . . .
1834.43 . 0.082(4) . . .
1835.95 . 0.086(4) . . .
1837.48 . 0.082(4) . . .
1839.00 . 0.089(4) . . .
1840.53 . 0.088(4) . . .
1842.06 . 0.086(4) . . .
1843.59 . 0.088(4) . . .
1845.12 . 0.084(4) . . .
1846.66 . 0.081(4) . . .
1848.19 . 0.081(4) . . .
1849.73 . 0.082(4) . . .
1851.26 . 0.082(4) . . .
1852.80 . 0.088(4) . . .
1854.34 . 0.088(4) . . .
1855.88 . 0.096(4) . . .
1857.42 . 0.081(4) . . .
1858.97 . 0.092(4) . . .
1860.51 . 0.086(4) . . .
1862.06 . 0.090(4) . . .
1863.60 . 0.078(4) . . .
1865.15 . 0.083(4) . . .
1866.70 . 0.084(4) . . .
1868.25 . 0.089(4) . . .
1869.81 . 0.088(4) . . .
1871.36 . 0.079(4) . . .
1872.92 . 0.087(4) . . .
1874.47 . 0.082(4) . . .
1876.03 . 0.093(4) . . .
1877.59 . 0.084(4) . . .
1879.15 . 0.091(4) . . .
1880.71 . 0.090(4) . . .
1882.27 . 0.086(4) . . .
1883.84 . 0.088(4) . . .
1885.40 . 0.080(4) . . .
1886.97 . 0.087(4) . . .
1888.54 . 0.084(4) . . .
1890.11 . 0.079(4) . . .
1891.68 . 0.080(4) . . .
1893.25 . 0.088(4) . . .
1894.82 . 0.084(4) . . .
1896.39 . 0.085(4) . . .
1897.97 . 0.081(4) . . .
1899.55 . 0.083(4) . . .
1901.13 . 0.091(4) . . .
1902.71 . 0.085(4) . . .
1904.29 . 0.084(4) . . .
1905.87 . 0.085(4) . . .
1907.45 . 0.083(4) . . .
1909.04 . 0.086(4) . . .
1910.62 . 0.083(4) . . .
1912.21 . 0.075(4) . . .
1913.80 . 0.085(4) . . .
1915.39 . 0.080(4) . . .
1916.98 . 0.086(4) . . .
1918.57 . 0.088(4) . . .
1920.17 . 0.086(4) . . .
1921.76 . 0.079(4) . . .
1923.36 . 0.082(4) . . .
1924.96 . 0.090(4) . . .
1926.56 . 0.095(4) . . .
1928.16 . 0.087(4) . . .
1929.76 . 0.087(4) . . .
1931.37 . 0.081(4) . . .
1932.97 . 0.085(4) . . .
1934.58 . 0.082(4) . . .
1936.18 . 0.084(4) . . .
1937.79 . 0.082(4) . . .
1939.40 . 0.090(4) . . .
1941.01 . 0.076(4) . . .
1942.63 . 0.080(4) . . .
1944.24 . 0.089(4) . . .
1945.86 . 0.085(4) . . .
1947.47 . 0.083(4) . . .
1949.09 . 0.084(4) . . .
1950.71 . 0.086(4) . . .
1952.33 . 0.085(4) . . .
1953.95 . 0.083(4) . . .
1955.58 . 0.083(4) . . .
1957.20 . 0.081(4) . . .
1958.83 . 0.083(4) . . .
1960.46 . 0.086(4) . . .
1962.08 . 0.085(4) . . .
1963.72 . 0.084(4) . . .
1965.35 . 0.076(4) . . .
1966.98 . 0.081(4) . . .
1968.61 . 0.086(4) . . .
1970.25 . 0.085(4) . . .
1971.89 . 0.091(4) . . .
1973.53 . 0.088(4) . . .
1975.17 . 0.090(4) . . .
1976.81 . 0.088(4) . . .
1978.45 . 0.081(4) . . .
1980.09 . 0.084(4) . . .
1981.74 . 0.082(4) . . .
1983.39 . 0.081(4) . . .
1985.03 . 0.085(4) . . .
1986.68 . 0.090(4) . . .
1988.33 . 0.081(4) . . .
1989.99 . 0.086(4) . . .
1991.64 . 0.080(4) . . .
1993.29 . 0.081(4) . . .
1994.95 . 0.084(4) . . .
1996.61 . 0.081(4) . . .
1998.27 . 0.088(4) . . .
1999.93 . 0.080(4) . . .
2001.59 . 0.082(4) . . .
2003.25 . 0.082(4) . . .
2004.92 . 0.086(4) . . .
2006.58 . 0.084(4) . . .
2008.25 . 0.084(4) . . .
2009.92 . 0.085(4) . . .
2011.59 . 0.084(4) . . .
2013.26 . 0.092(4) . . .
2014.93 . 0.083(4) . . .
2016.61 . 0.086(4) . . .
2018.28 . 0.085(4) . . .
2019.96 . 0.082(4) . . .
2021.64 . 0.086(4) . . .
2023.32 . 0.085(4) . . .
2025.00 . 0.089(4) . . .
2026.68 . 0.085(4) . . .
2028.37 . 0.083(4) . . .
2030.05 . 0.080(4) . . .
2031.74 . 0.086(4) . . .
2033.43 . 0.082(4) . . .
2035.12 . 0.088(4) . . .
2036.81 . 0.086(4) . . .
2038.50 . 0.082(4) . . .
2040.19 . 0.088(4) . . .
2041.89 . 0.088(4) . . .
2043.58 . 0.089(4) . . .
2045.28 . 0.084(4) . . .
2046.98 . 0.085(4) . . .
2048.68 . 0.088(4) . . .
2050.38 . 0.084(4) . . .
2052.09 . 0.091(4) . . .
2053.79 . 0.090(4) . . .
2055.50 . 0.089(4) . . .
2057.21 . 0.088(4) . . .
2058.92 . 0.091(4) . . .
2060.63 . 0.085(4) . . .
2062.34 . 0.082(4) . . .
2064.05 . 0.086(4) . . .
2065.77 . 0.080(4) . . .
2067.49 . 0.090(4) . . .
2069.20 . 0.085(4) . . .
2070.92 . 0.091(4) . . .
2072.64 . 0.087(4) . . .
2074.37 . 0.087(4) . . .
2076.09 . 0.081(4) . . .
2077.81 . 0.078(4) . . .
2079.54 . 0.087(4) . . .
2081.27 . 0.083(4) . . .
2083.00 . 0.083(4) . . .
2084.73 . 0.086(4) . . .
2086.46 . 0.088(4) . . .
2088.19 . 0.091(4) . . .
2089.93 . 0.087(4) . . .
2091.67 . 0.088(4) . . .
2093.40 . 0.089(4) . . .
2095.14 . 0.083(4) . . .
2096.88 . 0.083(4) . . .
2098.63 . 0.085(4) . . .
2100.37 . 0.089(4) . . .
2102.12 . 0.082(4) . . .
2103.86 . 0.091(4) . . .
2105.61 . 0.089(4) . . .
2107.36 . 0.087(4) . . .
2109.11 . 0.083(4) . . .
2110.86 . 0.079(4) . . .
2112.62 . 0.085(4) . . .
2114.37 . 0.079(4) . . .
2116.13 . 0.088(4) . . .
2117.89 . 0.080(4) . . .
2119.65 . 0.081(4) . . .
2121.41 . 0.089(4) . . .
2123.17 . 0.085(4) . . .
2124.94 . 0.080(4) . . .
2126.70 . 0.086(4) . . .
2128.47 . 0.084(4) . . .
2130.24 . 0.075(4) . . .
2132.01 . 0.079(4) . . .
2133.78 . 0.079(4) . . .
2135.55 . 0.078(4) . . .
2137.33 . 0.081(4) . . .
2139.10 . 0.081(4) . . .
2140.88 . 0.088(4) . . .
2142.66 . 0.087(4) . . .
2144.44 . 0.087(4) . . .
2146.22 . 0.084(4) . . .
2148.00 . 0.083(4) . . .
2149.79 . 0.088(4) . . .
2151.57 . 0.084(4) . . .
2153.36 . 0.083(4) . . .
2155.15 . 0.080(4) . . .
2156.94 . 0.083(4) . . .
2158.73 . 0.085(4) . . .
2160.53 . 0.083(4) . . .
2162.32 . 0.092(4) . . .
2164.12 . 0.083(4) . . .
2165.92 . 0.087(4) . . .
2167.72 . 0.0891(35) . . .
2169.52 . 0.085(4) . . .
2171.32 . 0.085(4) . . .
2173.13 . 0.085(4) . . .
2174.93 . 0.079(4) . . .
2176.74 . 0.086(4) . . .
2178.55 . 0.074(4) . . .
2180.36 . 0.087(4) . . .
2182.17 . 0.086(4) . . .
2183.98 . 0.090(4) . . .
2185.80 . 0.077(4) . . .
2187.61 . 0.085(4) . . .
2189.43 . 0.084(4) . . .
2191.25 . 0.082(4) . . .
2193.07 . 0.0893(35) . . .
2194.89 . 0.080(4) . . .
2196.72 . 0.082(4) . . .
2198.54 . 0.0874(35) . . .
2200.37 . 0.078(4) . . .
2202.20 . 0.083(4) . . .
2204.03 . 0.085(4) . . .
2205.86 . 0.079(4) . . .
2207.69 . 0.081(4) . . .
2209.53 . 0.086(4) . . .
2211.36 . 0.086(4) . . .
2213.20 . 0.0867(35) . . .
2215.04 . 0.086(4) . . .
2216.88 . 0.084(4) . . .
2218.72 . 0.086(4) . . .
2220.56 . 0.0863(35) . . .
2222.41 . 0.083(4) . . .
2224.26 . 0.088(4) . . .
2226.10 . 0.082(4) . . .
2227.95 . 0.083(4) . . .
2229.80 . 0.0860(35) . . .
2231.66 . 0.085(4) . . .
2233.51 . 0.0887(35) . . .
2235.37 . 0.085(4) . . .
2237.23 . 0.087(4) . . .
2239.08 . 0.0921(35) . . .
2240.94 . 0.086(4) . . .
2242.81 . 0.083(4) . . .
2244.67 . 0.091(4) . . .
2246.54 . 0.083(4) . . .
2248.40 . 0.085(4) . . .
2250.27 . 0.0891(35) . . .
2252.14 . 0.086(4) . . .
2254.01 . 0.086(4) . . .
2255.88 . 0.0867(35) . . .
2257.76 . 0.0887(35) . . .
2259.63 . 0.085(4) . . .
2261.51 . 0.0838(35) . . .
2263.39 . 0.086(4) . . .
2265.27 . 0.079(4) . . .
2267.15 . 0.088(4) . . .
2269.04 . 0.0878(35) . . .
2270.92 . 0.0874(35) . . .
2272.81 . 0.087(4) . . .
2274.70 . 0.087(4) . . .
2276.59 . 0.089(4) . . .
2278.48 . 0.0873(35) . . .
2280.37 . 0.084(4) . . .
2282.27 . 0.0915(35) . . .
2284.16 . 0.083(4) . . .
2286.06 . 0.087(4) . . .
2287.96 . 0.089(4) . . .
2289.86 . 0.086(4) . . .
2291.77 . 0.091(4) . . .
2293.67 . 0.088(4) . . .
2295.58 . 0.0889(35) . . .
2297.48 . 0.091(4) . . .
2299.39 . 0.0852(35) . . .
2301.30 . 0.085(4) . . .
2303.21 . 0.0873(35) . . .
2305.13 . 0.088(4) . . .
2307.04 . 0.0896(35) . . .
2308.96 . 0.087(4) . . .
2310.88 . 0.0912(35) . . .
2312.80 . 0.079(4) . . .
2314.72 . 0.0901(35) . . .
2316.64 . 0.088(4) . . .
2318.57 . 0.081(4) . . .
2320.50 . 0.089(4) . . .
2322.42 . 0.089(4) . . .
2324.35 . 0.076(4) . . .
2326.29 . 0.080(4) . . .
2328.22 . 0.087(4) . . .
2330.15 . 0.082(4) . . .
2332.09 . 0.0881(35) . . .
2334.03 . 0.0859(35) . . .
2335.97 . 0.086(4) . . .
2337.91 . 0.082(4) . . .
2339.85 . 0.081(4) . . .
2341.79 . 0.083(4) . . .
2343.74 . 0.0885(35) . . .
2345.69 . 0.0829(35) . . .
2347.64 . 0.0885(35) . . .
2349.59 . 0.0922(35) . . .
2351.54 . 0.0867(35) . . .
2353.49 . 0.0833(35) . . .
2355.45 . 0.0866(35) . . .
2357.41 . 0.0939(35) . . .
2359.36 . 0.084(4) . . .
2361.32 . 0.0886(35) . . .
2363.29 . 0.0871(35) . . .
2365.25 . 0.0918(34) . . .
2367.22 . 0.0883(35) . . .
2369.18 . 0.0915(35) . . .
2371.15 . 0.0905(35) . . .
2373.12 . 0.0833(35) . . .
2375.09 . 0.0881(35) . . .
2377.07 . 0.0903(34) . . .
2379.04 . 0.0901(34) . . .
2381.02 . 0.0861(35) . . .
2383.00 . 0.0882(34) . . .
2384.98 . 0.0851(35) . . .
2386.96 . 0.0848(35) . . .
2388.94 . 0.0895(35) . . .
2390.93 . 0.0828(35) . . .
2392.91 . 0.0886(34) . . .
2394.90 . 0.0857(35) . . .
2396.89 . 0.0856(35) . . .
2398.88 . 0.0930(34) . . .
2400.88 . 0.0888(34) . . .
2402.87 . 0.0819(34) . . .
2404.87 . 0.0866(34) . . .
2406.87 . 0.0871(35) . . .
2408.87 . 0.0850(35) . . .
2410.87 . 0.0905(34) . . .
2412.87 . 0.0894(34) . . .
2414.88 . 0.0889(34) . . .
2416.88 . 0.0843(34) . . .
2418.89 . 0.0822(35) . . .
2420.90 . 0.0840(34) . . .
2422.91 . 0.0884(34) . . .
2424.93 . 0.0865(34) . . .
2426.94 . 0.0915(34) . . .
2428.96 . 0.0835(34) . . .
2430.97 . 0.0923(34) . . .
2432.99 . 0.0861(34) . . .
2435.02 . 0.0864(34) . . .
2437.04 . 0.0873(34) . . .
2439.06 . 0.0860(34) . . .
2441.09 . 0.0833(34) . . .
2443.12 . 0.0806(35) . . .
2445.15 . 0.0922(34) . . .
2447.18 . 0.0846(34) . . .
2449.21 . 0.0827(34) . . .
2451.25 . 0.0867(34) . . .
2453.29 . 0.0782(34) . . .
2455.32 . 0.0842(34) . . .
2457.37 . 0.0907(34) . . .
2459.41 . 0.0855(34) . . .
2461.45 . 0.0833(34) . . .
2463.50 . 0.0839(34) . . .
2465.54 . 0.0856(34) . . .
2467.59 . 0.0805(34) . . .
2469.64 . 0.0879(34) . . .
2471.69 . 0.0873(34) . . .
2473.75 . 0.0911(33) . . .
2475.80 . 0.0797(34) . . .
2477.86 . 0.0826(34) . . .
2479.92 . 0.0814(34) . . .
2481.98 . 0.0884(33) . . .
2484.04 . 0.0862(34) . . .
2486.11 . 0.0885(33) . . .
2488.17 . 0.0822(34) . . .
2490.24 . 0.0820(34) . . .
2492.31 . 0.0916(33) . . .
2494.38 . 0.0901(33) . . .
2496.45 . 0.0837(33) . . .
2498.53 . 0.0848(34) . . .
2500.60 . 0.0838(34) . . .
2502.68 . 0.0822(34) . . .
2504.76 . 0.0862(34) . . .
2506.84 . 0.0786(34) . . .
2508.92 . 0.0880(34) . . .
2511.01 . 0.0872(34) . . .
2513.09 . 0.0816(34) . . .
2515.18 . 0.0870(33) . . .
2517.27 . 0.0807(33) . . .
2519.36 . 0.0867(33) . . .
2521.46 . 0.0912(33) . . .
2523.55 . 0.0887(33) . . .
2525.65 . 0.0901(33) . . .
2527.75 . 0.0845(33) . . .
2529.85 . 0.0824(33) . . .
2531.95 . 0.0889(33) . . .
2534.05 . 0.0811(33) . . .
2536.16 . 0.0808(34) . . .
2538.27 . 0.0879(33) . . .
2540.38 . 0.0803(34) . . .
2542.49 . 0.0908(33) . . .
2544.60 . 0.0797(34) . . .
2546.71 . 0.0866(33) . . .
2548.83 . 0.0869(33) . . .
2550.95 . 0.0849(34) . . .
2553.07 . 0.0853(34) . . .
2555.19 . 0.0834(33) . . .
2557.31 . 0.0793(34) . . .
2559.44 . 0.0828(34) . . .
2561.56 . 0.0834(34) . . .
2563.69 . 0.0848(33) . . .
2565.82 . 0.0856(33) . . .
2567.95 . 0.0816(34) . . .
2570.09 . 0.0881(33) . . .
2572.22 . 0.0898(33) . . .
2574.36 . 0.0837(34) . . .
2576.50 . 0.0869(34) . . .
2578.64 . 0.0817(34) . . .
2580.78 . 0.0880(33) . . .
2582.93 . 0.0845(34) . . .
2585.07 . 0.0844(34) . . .
2587.22 . 0.0849(34) . . .
2589.37 . 0.0862(34) . . .
2591.52 . 0.0861(34) . . .
2593.68 . 0.0891(33) . . .
2595.83 . 0.0829(33) . . .
2597.99 . 0.0891(33) . . .
2600.15 . 0.0890(34) . . .
2602.31 . 0.0859(34) . . .
2604.47 . 0.0904(34) . . .
2606.63 . 0.0868(34) . . .
2608.80 . 0.0927(34) . . .
2610.97 . 0.0887(34) . . .
2613.14 . 0.0914(33) . . .
2615.31 . 0.0902(33) . . .
2617.48 . 0.0908(34) . . .
2619.66 . 0.0904(33) . . .
2621.83 . 0.0879(34) . . .
2624.01 . 0.0883(34) . . .
2626.19 . 0.0888(33) . . .
2628.37 . 0.0865(34) . . .
2630.56 . 0.0882(33) . . .
2632.74 . 0.0874(34) . . .
2634.93 . 0.0810(34) . . .
2637.12 . 0.0889(34) . . .
2639.31 . 0.0908(34) . . .
2641.50 . 0.0889(34) . . .
2643.70 . 0.0902(34) . . .
2645.90 . 0.0884(34) . . .
2648.09 . 0.0882(33) . . .
2650.29 . 0.0852(34) . . .
2652.50 . 0.0871(34) . . .
2654.70 . 0.0863(34) . . .
2656.91 . 0.0892(34) . . .
2659.11 . 0.0868(34) . . .
2661.32 . 0.0957(34) . . .
2663.53 . 0.0902(34) . . .
2665.75 . 0.0901(34) . . .
2667.96 . 0.0861(34) . . .
2670.18 . 0.0934(34) . . .
2672.40 . 0.0926(34) . . .
2674.62 . 0.0889(34) . . .
2676.84 . 0.0881(34) . . .
2679.07 . 0.0922(34) . . .
2681.29 . 0.0957(33) . . .
2683.52 . 0.0886(34) . . .
2685.75 . 0.0877(34) . . .
2687.98 . 0.0870(34) . . .
2690.21 . 0.0890(34) . . .
2692.45 . 0.0907(34) . . .
2694.69 . 0.0886(34) . . .
2696.93 . 0.0938(34) . . .
2699.17 . 0.0964(34) . . .
2701.41 . 0.0926(34) . . .
2703.65 . 0.0892(34) . . .
2705.90 . 0.0914(34) . . .
2708.15 . 0.0964(33) . . .
2710.40 . 0.0891(34) . . .
2712.65 . 0.0879(34) . . .
2714.91 . 0.0872(34) . . .
2717.16 . 0.0910(34) . . .
2719.42 . 0.0907(34) . . .
2721.68 . 0.0936(34) . . .
2723.94 . 0.0892(34) . . .
2726.20 . 0.0873(34) . . .
2728.47 . 0.0943(34) . . .
2730.74 . 0.0937(34) . . .
2733.00 . 0.0861(34) . . .
2735.28 . 0.0870(34) . . .
2737.55 . 0.0924(34) . . .
2739.82 . 0.0918(34) . . .
2742.10 . 0.0957(33) . . .
2744.38 . 0.0871(34) . . .
2746.66 . 0.0893(33) . . .
2748.94 . 0.0950(33) . . .
2751.22 . 0.0916(34) . . .
2753.51 . 0.0918(34) . . .
2755.80 . 0.0902(34) . . .
2758.09 . 0.0860(34) . . .
2760.38 . 0.0887(34) . . .
2762.67 . 0.0868(33) . . .
2764.97 . 0.0909(34) . . .
2767.27 . 0.0863(34) . . .
2769.57 . 0.0910(33) . . .
2771.87 . 0.0873(34) . . .
2774.17 . 0.0887(33) . . .
2776.47 . 0.0938(33) . . .
2778.78 . 0.0872(33) . . .
2781.09 . 0.0848(34) . . .
2783.40 . 0.0915(33) . . .
2785.71 . 0.0891(33) . . .
2788.03 . 0.0859(34) . . .
2790.35 . 0.0895(33) . . .
2792.66 . 0.0852(33) . . .
2794.98 . 0.0925(33) . . .
2797.31 . 0.0927(33) . . .
2799.63 . 0.0892(33) . . .
2801.96 . 0.0875(33) . . .
2804.29 . 0.0873(33) . . .
2806.62 . 0.0892(33) . . .
2808.95 . 0.0824(33) . . .
2811.28 . 0.0901(33) . . .
2813.62 . 0.0855(33) . . .
2815.96 . 0.0874(33) . . .
2818.30 . 0.0881(33) . . .
2820.64 . 0.0920(33) . . .
2822.98 . 0.0900(33) . . .
2825.33 . 0.0933(33) . . .
2827.67 . 0.0893(32) . . .
2830.02 . 0.0841(33) . . .
2832.38 . 0.0915(32) . . .
2834.73 . 0.0875(33) . . .
2837.08 . 0.0877(32) . . .
2839.44 . 0.0862(33) . . .
2841.80 . 0.0945(32) . . .
2844.16 . 0.0921(32) . . .
2846.52 . 0.0817(33) . . .
2848.89 . 0.0890(33) . . .
2851.26 . 0.0866(32) . . .
2853.63 . 0.0868(32) . . .
2856.00 . 0.0882(32) . . .
2858.37 . 0.0865(33) . . .
2860.75 . 0.0812(33) . . .
2863.12 . 0.0821(33) . . .
2865.50 . 0.0875(33) . . .
2867.88 . 0.0880(32) . . .
2870.27 . 0.0842(33) . . .
2872.65 . 0.0905(32) . . .
2875.04 . 0.0835(32) . . .
2877.43 . 0.0829(33) . . .
2879.82 . 0.0922(32) . . .
2882.21 . 0.0841(33) . . .
2884.60 . 0.0854(32) . . .
2887.00 . 0.0925(32) . . .
2889.40 . 0.0827(33) . . .
2891.80 . 0.0897(32) . . .
2894.20 . 0.0859(32) . . .
2896.61 . 0.0913(32) . . .
2899.02 . 0.0815(33) . . .
2901.42 . 0.0905(32) . . .
2903.84 . 0.0854(33) . . .
2906.25 . 0.0863(33) . . .
2908.66 . 0.0893(32) . . .
2911.08 . 0.0868(32) . . .
2913.50 . 0.0887(32) . . .
2915.92 . 0.0930(32) . . .
2918.34 . 0.0864(32) . . .
2920.77 . 0.0861(32) . . .
2923.19 . 0.0866(33) . . .
2925.62 . 0.0877(32) . . .
2928.05 . 0.0917(32) . . .
2930.49 . 0.0866(33) . . .
2932.92 . 0.0884(32) . . .
2935.36 . 0.0860(32) . . .
2937.80 . 0.0880(32) . . .
2940.24 . 0.0851(33) . . .
2942.68 . 0.0873(32) . . .
2945.13 . 0.0890(32) . . .
2947.57 . 0.0900(32) . . .
2950.02 . 0.0907(32) . . .
2952.47 . 0.0875(32) . . .
2954.93 . 0.0843(33) . . .
2957.38 . 0.0864(33) . . .
2959.84 . 0.0884(32) . . .
2962.30 . 0.0948(32) . . .
2964.76 . 0.0872(33) . . .
2967.22 . 0.0846(32) . . .
2969.69 . 0.0870(33) . . .
2972.16 . 0.0914(32) . . .
2974.63 . 0.0853(33) . . .
2977.10 . 0.0921(32) . . .
2979.57 . 0.0900(33) . . .
2982.05 . 0.0893(32) . . .
2984.53 . 0.0862(32) . . .
2987.01 . 0.0870(32) . . .
2989.49 . 0.0906(32) . . .
2991.97 . 0.0884(32) . . .
2994.46 . 0.0895(32) . . .
2996.95 . 0.0912(32) . . .
2999.44 . 0.0871(32) . . .
3001.93 . 0.0881(32) . . .
3004.42 . 0.0937(32) . . .
3006.92 . 0.0871(32) . . .
3009.42 . 0.0915(32) . . .
3011.92 . 0.0857(32) . . .
3014.42 . 0.0908(32) . . .
3016.93 . 0.0950(32) . . .
3019.43 . 0.0849(32) . . .
3021.94 . 0.0853(32) . . .
3024.45 . 0.0887(32) . . .
3026.97 . 0.0921(32) . . .
3029.48 . 0.0948(32) . . .
3032.00 . 0.0914(32) . . .
3034.52 . 0.0894(32) . . .
3037.04 . 0.0910(32) . . .
3039.56 . 0.0915(32) . . .
3042.09 . 0.0861(32) . . .
3044.61 . 0.0904(32) . . .
3047.14 . 0.0946(32) . . .
3049.68 . 0.0926(32) . . .
3052.21 . 0.0859(32) . . .
3054.75 . 0.0891(32) . . .
3057.29 . 0.0953(32) . . .
3059.83 . 0.0879(32) . . .
3062.37 . 0.0903(32) . . .
3064.91 . 0.0867(32) . . .
3067.46 . 0.0921(32) . . .
3070.01 . 0.0871(32) . . .
3072.56 . 0.0894(32) . . .
3075.11 . 0.0867(32) . . .
3077.67 . 0.0914(32) . . .
3080.22 . 0.0905(32) . . .
3082.78 . 0.0944(32) . . .
3085.34 . 0.0904(32) . . .
3087.91 . 0.0892(32) . . .
3090.47 . 0.0874(32) . . .
3093.04 . 0.0887(32) . . .
3095.61 . 0.0861(32) . . .
3098.18 . 0.0922(32) . . .
3100.76 . 0.0911(32) . . .
3103.33 . 0.0933(32) . . .
3105.91 . 0.0932(32) . . .
3108.49 . 0.0908(32) . . .
3111.08 . 0.0913(32) . . .
3113.66 . 0.0915(32) . . .
3116.25 . 0.0940(32) . . .
3118.84 . 0.0896(32) . . .
3121.43 . 0.0959(31) . . .
3124.02 . 0.0855(32) . . .
3126.62 . 0.0929(32) . . .
3129.22 . 0.0958(32) . . .
3131.82 . 0.0912(32) . . .
3134.42 . 0.0932(32) . . .
3137.02 . 0.0954(32) . . .
3139.63 . 0.0944(32) . . .
3142.24 . 0.0866(32) . . .
3144.85 . 0.0945(32) . . .
3147.46 . 0.0938(32) . . .
3150.08 . 0.0909(32) . . .
3152.70 . 0.0938(32) . . .
3155.32 . 0.0936(32) . . .
3157.94 . 0.0889(32) . . .
3160.56 . 0.0939(32) . . .
3163.19 . 0.0914(32) . . .
3165.82 . 0.0891(32) . . .
3168.45 . 0.0951(32) . . .
3171.08 . 0.0879(32) . . .
3173.71 . 0.0918(32) . . .
3176.35 . 0.0872(32) . . .
3178.99 . 0.0912(32) . . .
3181.63 . 0.0899(32) . . .
3184.28 . 0.0890(32) . . .
3186.92 . 0.0837(32) . . .
3189.57 . 0.0916(32) . . .
3192.22 . 0.0923(32) . . .
3194.87 . 0.0887(32) . . .
3197.53 . 0.0930(32) . . .
3200.18 . 0.0893(32) . . .
3202.84 . 0.0894(32) . . .
3205.50 . 0.0889(32) . . .
3208.17 . 0.0912(32) . . .
3210.83 . 0.0919(32) . . .
3213.50 . 0.0885(32) . . .
3216.17 . 0.0895(32) . . .
3218.84 . 0.0905(32) . . .
3221.52 . 0.0936(32) . . .
3224.19 . 0.0868(32) . . .
3226.87 . 0.0920(32) . . .
3229.55 . 0.0927(32) . . .
3232.24 . 0.0891(32) . . .
3234.92 . 0.0929(31) . . .
3237.61 . 0.0915(32) . . .
3240.30 . 0.0936(32) . . .
3242.99 . 0.0895(32) . . .
3245.69 . 0.0927(32) . . .
3248.39 . 0.0950(32) . . .
3251.08 . 0.0943(32) . . .
3253.79 . 0.1005(31) . . .
3256.49 . 0.0872(32) . . .
3259.20 . 0.0901(32) . . .
3261.90 . 0.0940(32) . . .
3264.61 . 0.0978(31) . . .
3267.33 . 0.0941(32) . . .
3270.04 . 0.0894(32) . . .
3272.76 . 0.0950(32) . . .
3275.48 . 0.0979(32) . . .
3278.20 . 0.0975(32) . . .
3280.92 . 0.0936(32) . . .
3283.65 . 0.0937(32) . . .
3286.38 . 0.0979(32) . . .
3289.11 . 0.0916(32) . . .
3291.84 . 0.0964(32) . . .
3294.58 . 0.0935(32) . . .
3297.31 . 0.0998(32) . . .
3300.05 . 0.0960(32) . . .
3302.80 . 0.0977(32) . . .
3305.54 . 0.1013(32) . . .
3308.29 . 0.0898(32) . . .
3311.04 . 0.1025(31) . . .
3313.79 . 0.0973(31) . . .
3316.54 . 0.1026(31) . . .
3319.30 . 0.0969(32) . . .
3322.05 . 0.0994(32) . . .
3324.81 . 0.0943(32) . . .
3327.58 . 0.0948(32) . . .
3330.34 . 0.0920(32) . . .
3333.11 . 0.0987(31) . . .
3335.88 . 0.0928(32) . . .
3338.65 . 0.0903(32) . . .
3341.43 . 0.0997(31) . . .
3344.20 . 0.0986(31) . . .
3346.98 . 0.0932(32) . . .
3349.76 . 0.0959(31) . . .
3352.54 . 0.0884(32) . . .
3355.33 . 0.0964(32) . . .
3358.12 . 0.0969(31) . . .
3360.91 . 0.0942(32) . . .
3363.70 . 0.0941(32) . . .
3366.50 . 0.0954(31) . . .
3369.29 . 0.0929(31) . . .
3372.09 . 0.0926(31) . . .
3374.89 . 0.0920(31) . . .
3377.70 . 0.0916(32) . . .
3380.50 . 0.0947(31) . . .
3383.31 . 0.0937(31) . . .
3386.13 . 0.0934(31) . . .
3388.94 . 0.0983(31) . . .
3391.75 . 0.0983(31) . . .
3394.57 . 0.0967(31) . . .
3397.39 . 0.0951(31) . . .
3400.22 . 0.0989(31) . . .
3403.04 . 0.0924(31) . . .
3405.87 . 0.0962(31) . . .
3408.70 . 0.0921(31) . . .
3411.53 . 0.0948(31) . . .
3414.37 . 0.0947(30) . . .
3417.20 . 0.0891(31) . . .
3420.04 . 0.0937(31) . . .
3422.88 . 0.0956(30) . . .
3425.73 . 0.0922(30) . . .
3428.57 . 0.0881(31) . . .
3431.42 . 0.0917(30) . . .
3434.27 . 0.0839(31) . . .
3437.13 . 0.0872(31) . . .
3439.98 . 0.0913(30) . . .
3442.84 . 0.0930(30) . . .
3445.70 . 0.0921(30) . . .
3448.57 . 0.0920(30) . . .
3451.43 . 0.0899(30) . . .
3454.30 . 0.0933(30) . . .
3457.17 . 0.0906(30) . . .
3460.04 . 0.0890(30) . . .
3462.92 . 0.0901(30) . . .
3465.79 . 0.0906(30) . . .
3468.67 . 0.0904(30) . . .
3471.56 . 0.0930(30) . . .
3474.44 . 0.0915(30) . . .
3477.33 . 0.0875(30) . . .
3480.22 . 0.0921(30) . . .
3483.11 . 0.0853(30) . . .
3486.00 . 0.0875(30) . . .
3488.90 . 0.0907(30) . . .
3491.80 . 0.0880(30) . . .
3494.70 . 0.0889(30) . . .
3497.60 . 0.0917(29) . . .
3500.51 . 0.0906(30) . . .
3503.42 . 0.0919(30) . . .
3506.33 . 0.0919(29) . . .
3509.2 . 0.0908(30) . . .
3512.2 . 0.0912(30) . . .
3515.1 . 0.0917(29) . . .
3518.0 . 0.0860(30) . . .
3520.9 . 0.0909(29) . . .
3523.8 . 0.0861(30) . . .
3526.8 . 0.0921(29) . . .
3529.7 . 0.0863(29) . . .
3532.6 . 0.0864(30) . . .
3535.6 . 0.0899(29) . . .
3538.5 . 0.0874(30) . . .
3541.5 . 0.0854(30) . . .
3544.4 . 0.0882(29) . . .
3547.3 . 0.0894(29) . . .
3550.3 . 0.0920(29) . . .
3553.2 . 0.0891(29) . . .
3556.2 . 0.0899(29) . . .
3559.1 . 0.0885(29) . . .
3562.1 . 0.0851(29) . . .
3565.1 . 0.0861(29) . . .
3568.0 . 0.0894(29) . . .
3571.0 . 0.0848(29) . . .
3574.0 . 0.0856(29) . . .
3576.9 . 0.0899(29) . . .
3579.9 . 0.0838(29) . . .
3582.9 . 0.0890(29) . . .
3585.8 . 0.0872(29) . . .
3588.8 . 0.0924(29) . . .
3591.8 . 0.0916(29) . . .
3594.8 . 0.0887(29) . . .
3597.8 . 0.0914(29) . . .
3600.8 . 0.0853(29) . . .
3603.8 . 0.0856(29) . . .
3606.8 . 0.0890(29) . . .
3609.8 . 0.0894(29) . . .
3612.8 . 0.0854(29) . . .
3615.8 . 0.0891(29) . . .
3618.8 . 0.0880(29) . . .
3621.8 . 0.0895(29) . . .
3624.8 . 0.0896(29) . . .
3627.8 . 0.0928(29) . . .
3630.8 . 0.0880(29) . . .
3633.8 . 0.0905(29) . . .
3636.8 . 0.0836(29) . . .
3639.9 . 0.0913(29) . . .
3642.9 . 0.0869(29) . . .
3645.9 . 0.0840(29) . . .
3648.9 . 0.0908(29) . . .
3652.0 . 0.0882(29) . . .
3655.0 . 0.0904(29) . . .
3658.0 . 0.0946(29) . . .
3661.1 . 0.0912(29) . . .
3664.1 . 0.0936(29) . . .
3667.2 . 0.0835(30) . . .
3670.2 . 0.0866(30) . . .
3673.3 . 0.0884(30) . . .
3676.3 . 0.0909(29) . . .
3679.4 . 0.0944(29) . . .
3682.4 . 0.0923(29) . . .
3685.5 . 0.0879(30) . . .
3688.6 . 0.0922(29) . . .
3691.6 . 0.0912(29) . . .
3694.7 . 0.0906(30) . . .
3697.8 . 0.0881(30) . . .
3700.8 . 0.0877(30) . . .
3703.9 . 0.0886(30) . . .
3707.0 . 0.0931(30) . . .
3710.1 . 0.0928(29) . . .
3713.1 . 0.0974(29) . . .
3716.2 . 0.0981(29) . . .
3719.3 . 0.0936(30) . . .
3722.4 . 0.0925(29) . . .
3725.5 . 0.0917(30) . . .
3728.6 . 0.0977(30) . . .
3731.7 . 0.0891(30) . . .
3734.8 . 0.0932(30) . . .
3737.9 . 0.0971(30) . . .
3741.0 . 0.0925(30) . . .
3744.1 . 0.0981(30) . . .
3747.2 . 0.0964(30) . . .
3750.3 . 0.0910(30) . . .
3753.5 . 0.0903(30) . . .
3756.6 . 0.0939(30) . . .
3759.7 . 0.0932(30) . . .
3762.8 . 0.0967(30) . . .
3765.9 . 0.0961(30) . . .
3769.1 . 0.0945(30) . . .
3772.2 . 0.0933(30) . . .
3775.3 . 0.0915(30) . . .
3778.5 . 0.0947(30) . . .
3781.6 . 0.0964(30) . . .
3784.8 . 0.0936(30) . . .
3787.9 . 0.0982(30) . . .
3791.0 . 0.0961(30) . . .
3794.2 . 0.0999(30) . . .
3797.4 . 0.0926(30) . . .
3800.5 . 0.1012(29) . . .
3803.7 . 0.0985(30) . . .
3806.8 . 0.1000(30) . . .
3810.0 . 0.0943(30) . . .
3813.2 . 0.0874(30) . . .
3816.3 . 0.0984(30) . . .
3819.5 . 0.0972(30) . . .
3822.7 . 0.0991(30) . . .
3825.8 . 0.1020(30) . . .
3829.0 . 0.0966(30) . . .
3832.2 . 0.0943(30) . . .
3835.4 . 0.1001(30) . . .
3838.6 . 0.0976(30) . . .
3841.8 . 0.1016(30) . . .
3845.0 . 0.0981(30) . . .
3848.2 . 0.1018(30) . . .
3851.3 . 0.0962(30) . . .
3854.5 . 0.0950(30) . . .
3857.8 . 0.0967(30) . . .
3861.0 . 0.0974(30) . . .
3864.2 . 0.0997(30) . . .
3867.4 . 0.0981(30) . . .
3870.6 . 0.1013(30) . . .
3873.8 . 0.0949(30) . . .
3877.0 . 0.1042(30) . . .
3880.2 . 0.0991(30) . . .
3883.5 . 0.0999(30) . . .
3886.7 . 0.0986(30) . . .
3889.9 . 0.1001(30) . . .
3893.2 . 0.1064(30) . . .
3896.4 . 0.1031(30) . . .
3899.6 . 0.1007(30) . . .
3902.9 . 0.0984(30) . . .
3906.1 . 0.0988(30) . . .
3909.4 . 0.0991(30) . . .
3912.6 . 0.1024(30) . . .
3915.9 . 0.0950(30) . . .
3919.1 . 0.0940(31) . . .
3922.4 . 0.0965(30) . . .
3925.6 . 0.1026(30) . . .
3928.9 . 0.1044(30) . . .
3932.2 . 0.1021(30) . . .
3935.4 . 0.1011(30) . . .
3938.7 . 0.1021(30) . . .
3942.0 . 0.0986(30) . . .
3945.2 . 0.1042(30) . . .
3948.5 . 0.1002(30) . . .
3951.8 . 0.0976(30) . . .
3955.1 . 0.1035(30) . . .
3958.4 . 0.0999(30) . . .
3961.7 . 0.0989(30) . . .
3964.9 . 0.1044(30) . . .
3968.2 . 0.0979(30) . . .
3971.5 . 0.1041(30) . . .
3974.8 . 0.0995(30) . . .
3978.1 . 0.1017(30) . . .
3981.4 . 0.0985(30) . . .
3984.8 . 0.0975(30) . . .
3988.1 . 0.0998(30) . . .
3991.4 . 0.0998(30) . . .
3994.7 . 0.1038(30) . . .
3998.0 . 0.1036(30) . . .
4001.3 . 0.1040(30) . . .
4004.7 . 0.1051(30) . . .
4008.0 . 0.1008(30) . . .
4011.3 . 0.0977(30) . . .
4014.7 . 0.0960(30) . . .
4018.0 . 0.0936(30) . . .
4021.3 . 0.0993(30) . . .
4024.7 . 0.0962(30) . . .
4028.0 . 0.1062(29) . . .
4031.4 . 0.0991(30) . . .
4034.7 . 0.0972(30) . . .
4038.1 . 0.0967(30) . . .
4041.4 . 0.0966(30) . . .
4044.8 . 0.1029(29) . . .
4048.1 . 0.0986(29) . . .
4051.5 . 0.0990(30) . . .
4054.9 . 0.0940(30) . . .
4058.2 . 0.0950(29) . . .
4061.6 . 0.0973(30) . . .
4065.0 . 0.0919(29) . . .
4068.4 . 0.0947(29) . . .
4071.7 . 0.0921(30) . . .
4075.1 . 0.0945(29) . . .
4078.5 . 0.0972(29) . . .
4081.9 . 0.0975(29) . . .
4085.3 . 0.0944(29) . . .
4088.7 . 0.0959(29) . . .
4092.1 . 0.0986(29) . . .
4095.5 . 0.1049(29) . . .
4098.9 . 0.0969(29) . . .
4102.3 . 0.0873(30) . . .
4105.7 . 0.0941(29) . . .
4109.1 . 0.0943(29) . . .
4112.5 . 0.0948(29) . . .
4115.9 . 0.0993(29) . . .
4119.4 . 0.0888(30) . . .
4122.8 . 0.0945(29) . . .
4126.2 . 0.0904(29) . . .
4129.6 . 0.0951(29) . . .
4133.1 . 0.0926(29) . . .
4136.5 . 0.0912(29) . . .
4139.9 . 0.0956(29) . . .
4143.4 . 0.0922(29) . . .
4146.8 . 0.0895(29) . . .
4150.3 . 0.0909(29) . . .
4153.7 . 0.0890(29) . . .
4157.2 . 0.0902(29) . . .
4160.6 . 0.0963(29) . . .
4164.1 . 0.0891(29) . . .
4167.5 . 0.0938(29) . . .
4171.0 . 0.0933(29) . . .
4174.5 . 0.1002(29) . . .
4177.9 . 0.0955(29) . . .
4181.4 . 0.0919(29) . . .
4184.9 . 0.0955(29) . . .
4188.4 . 0.0905(29) . . .
4191.8 . 0.0951(29) . . .
4195.3 . 0.0994(29) . . .
4198.8 . 0.0938(29) . . .
4202.3 . 0.0909(29) . . .
4205.8 . 0.0988(29) . . .
4209.3 . 0.1014(29) . . .
4212.8 . 0.0977(29) . . .
4216.3 . 0.1014(29) . . .
4219.8 . 0.0971(29) . . .
4223.3 . 0.0941(29) . . .
4226.8 . 0.0937(29) . . .
4230.3 . 0.0976(29) . . .
4233.8 . 0.0917(29) . . .
4237.3 . 0.0944(29) . . .
4240.9 . 0.0980(29) . . .
4244.4 . 0.0950(29) . . .
4247.9 . 0.0976(29) . . .
4251.4 . 0.0889(29) . . .
4255.0 . 0.0920(29) . . .
4258.5 . 0.0955(29) . . .
4262.1 . 0.1007(29) . . .
4265.6 . 0.0964(29) . . .
4269.1 . 0.0958(29) . . .
4272.7 . 0.0977(29) . . .
4276.2 . 0.1019(29) . . .
4279.8 . 0.1002(29) . . .
4283.3 . 0.0957(30) . . .
4286.9 . 0.1001(29) . . .
4290.5 . 0.0988(29) . . .
4294.0 . 0.0989(29) . . .
4297.6 . 0.1003(29) . . .
4301.2 . 0.1016(30) . . .
4304.7 . 0.1004(29) . . .
4308.3 . 0.1013(29) . . .
4311.9 . 0.0995(29) . . .
4315.5 . 0.0980(29) . . .
4319.1 . 0.0941(29) . . .
4322.7 . 0.0932(29) . . .
4326.3 . 0.0928(30) . . .
4329.8 . 0.0929(30) . . .
4333.4 . 0.0968(29) . . .
4337.0 . 0.0967(29) . . .
4340.6 . 0.0933(29) . . .
4344.3 . 0.0916(29) . . .
4347.9 . 0.1057(29) . . .
4351.5 . 0.1012(29) . . .
4355.1 . 0.1002(29) . . .
4358.7 . 0.0985(29) . . .
4362.3 . 0.1009(29) . . .
4366.0 . 0.1018(29) . . .
4369.6 . 0.1007(29) . . .
4373.2 . 0.0986(29) . . .
4376.9 . 0.0927(29) . . .
4380.5 . 0.0999(29) . . .
4384.1 . 0.1005(29) . . .
4387.8 . 0.0987(29) . . .
4391.4 . 0.0962(29) . . .
4395.1 . 0.0992(29) . . .
4398.7 . 0.0999(29) . . .
4402.4 . 0.0998(29) . . .
4406.0 . 0.0930(29) . . .
4409.7 . 0.0940(29) . . .
4413.4 . 0.0962(29) . . .
4417.0 . 0.0992(29) . . .
4420.7 . 0.1027(29) . . .
4424.4 . 0.0957(29) . . .
4428.0 . 0.0992(29) . . .
4431.7 . 0.1007(29) . . .
4435.4 . 0.1020(29) . . .
4439.1 . 0.0968(29) . . .
4442.8 . 0.0991(29) . . .
4446.5 . 0.0994(29) . . .
4450.2 . 0.0937(30) . . .
4453.9 . 0.0962(29) . . .
4457.6 . 0.0984(29) . . .
4461.3 . 0.1001(29) . . .
4465.0 . 0.0942(29) . . .
4468.7 . 0.0957(29) . . .
4472.4 . 0.0981(29) . . .
4476.1 . 0.0978(29) . . .
4479.8 . 0.0965(29) . . .
4483.6 . 0.0941(29) . . .
4487.3 . 0.0954(29) . . .
4491.0 . 0.0967(29) . . .
4494.7 . 0.0970(29) . . .
4498.5 . 0.0934(29) . . .
4502.2 . 0.0942(29) . . .
4506.0 . 0.0973(29) . . .
4509.7 . 0.0967(29) . . .
4513.4 . 0.0929(29) . . .
4517.2 . 0.0977(29) . . .
4520.9 . 0.0955(29) . . .
4524.7 . 0.0931(29) . . .
4528.5 . 0.0929(29) . . .
4532.2 . 0.0870(29) . . .
4536.0 . 0.0930(29) . . .
4539.8 . 0.0930(29) . . .
4543.5 . 0.0922(29) . . .
4547.3 . 0.0943(29) . . .
4551.1 . 0.0978(29) . . .
4554.9 . 0.0937(29) . . .
4558.7 . 0.0906(29) . . .
4562.4 . 0.0950(29) . . .
4566.2 . 0.0931(29) . . .
4570.0 . 0.0957(29) . . .
4573.8 . 0.0941(29) . . .
4577.6 . 0.0951(29) . . .
4581.4 . 0.0958(29) . . .
4585.2 . 0.0947(29) . . .
4589.0 . 0.0931(29) . . .
4592.9 . 0.0942(29) . . .
4596.7 . 0.0933(29) . . .
4600.5 . 0.0958(29) . . .
4604.3 . 0.0947(29) . . .
4608.1 . 0.0980(28) . . .
4612.0 . 0.0958(28) . . .
4615.8 . 0.0951(29) . . .
4619.6 . 0.0962(29) . . .
4623.5 . 0.0946(29) . . .
4627.3 . 0.0932(29) . . .
4631.2 . 0.0949(29) . . .
4635.0 . 0.0932(29) . . .
4638.9 . 0.0883(29) . . .
4642.7 . 0.0968(28) . . .
4646.6 . 0.0922(29) . . .
4650.4 . 0.0903(29) . . .
4654.3 . 0.0986(29) . . .
4658.2 . 0.0919(29) . . .
4662.0 . 0.0897(29) . . .
4665.9 . 0.0940(29) . . .
4669.8 . 0.0962(28) . . .
4673.7 . 0.0911(29) . . .
4677.6 . 0.0983(28) . . .
4681.4 . 0.1002(29) . . .
4685.3 . 0.0929(29) . . .
4689.2 . 0.0970(28) . . .
4693.1 . 0.0903(29) . . .
4697.0 . 0.0919(29) . . .
4700.9 . 0.0920(29) . . .
4704.8 . 0.0938(28) . . .
4708.7 . 0.0937(29) . . .
4712.6 . 0.0917(29) . . .
4716.6 . 0.0899(29) . . .
4720.5 . 0.0931(29) . . .
4724.4 . 0.0894(29) . . .
4728.3 . 0.0926(29) . . .
4732.3 . 0.0894(29) . . .
4736.2 . 0.0910(29) . . .
4740.1 . 0.0899(29) . . .
4744.1 . 0.0936(28) . . .
4748.0 . 0.0946(29) . . .
4751.9 . 0.0933(28) . . .
4755.9 . 0.0962(28) . . .
4759.9 . 0.0976(29) . . .
4763.8 . 0.1015(28) . . .
4767.8 . 0.0944(29) . . .
4771.7 . 0.0976(28) . . .
4775.7 . 0.0952(29) . . .
4779.7 . 0.0969(29) . . .
4783.6 . 0.0961(29) . . .
4787.6 . 0.0969(29) . . .
4791.6 . 0.0924(28) . . .
4795.6 . 0.0947(29) . . .
4799.5 . 0.0940(29) . . .
4803.5 . 0.0919(29) . . .
4807.5 . 0.0981(29) . . .
4811.5 . 0.1018(28) . . .
4815.5 . 0.0979(29) . . .
4819.5 . 0.0992(29) . . .
4823.5 . 0.0989(29) . . .
4827.5 . 0.0945(29) . . .
4831.5 . 0.0993(29) . . .
4835.6 . 0.0916(29) . . .
4839.6 . 0.0994(29) . . .
4843.6 . 0.0910(29) . . .
4847.6 . 0.0960(29) . . .
4851.7 . 0.0973(29) . . .
4855.7 . 0.0921(29) . . .
4859.7 . 0.0977(29) . . .
4863.8 . 0.1009(29) . . .
4867.8 . 0.0988(29) . . .
4871.8 . 0.1028(29) . . .
4875.9 . 0.0973(29) . . .
4879.9 . 0.0970(29) . . .
4884.0 . 0.0964(29) . . .
4888.1 . 0.0994(29) . . .
4892.1 . 0.0972(29) . . .
4896.2 . 0.0924(29) . . .
4900.2 . 0.1014(29) . . .
4904.3 . 0.1044(29) . . .
4908.4 . 0.1018(29) . . .
4912.5 . 0.1007(29) . . .
4916.6 . 0.1034(29) . . .
4920.6 . 0.1000(30) . . .
4924.7 . 0.1014(29) . . .
4928.8 . 0.1004(30) . . .
4932.9 . 0.1006(30) . . .
4937.0 . 0.1050(30) . . .
4941.1 . 0.0976(30) . . .
4945.2 . 0.1007(30) . . .
4949.3 . 0.1005(30) . . .
4953.4 . 0.1048(29) . . .
4957.6 . 0.1030(29) . . .
4961.7 . 0.1093(29) . . .
4965.8 . 0.1022(30) . . .
4969.9 . 0.0969(30) . . .
4974.1 . 0.1063(30) . . .
4978.2 . 0.1066(30) . . .
4982.3 . 0.1053(30) . . .
4986.5 . 0.1057(30) . . .
4990.6 . 0.1083(30) . . .
4994.8 . 0.1096(30) . . .
4998.9 . 0.1029(30) . . .
5003.1 . 0.1047(30) . . .
5007.2 . 0.1030(30) . . .
5011.4 . 0.0995(30) . . .
5015.5 . 0.1023(30) . . .
5019.7 . 0.1028(30) . . .
5023.9 . 0.1007(30) . . .
5028.1 . 0.1046(30) . . .
5032.2 . 0.1047(31) . . .
5036.4 . 0.1027(30) . . .
5040.6 . 0.1011(31) . . .
5044.8 . 0.1035(30) . . .
5049.0 . 0.1073(30) . . .
5053.2 . 0.1061(30) . . .
5057.4 . 0.1043(31) . . .
5061.6 . 0.1049(31) . . .
5065.8 . 0.1095(30) . . .
5070.0 . 0.1083(31) . . .
5074.2 . 0.1058(30) . . .
5078.4 . 0.1033(31) . . .
5082.6 . 0.1075(31) . . .
5086.9 . 0.1100(31) . . .
5091.1 . 0.1068(31) . . .
5095.3 . 0.1077(31) . . .
5099.6 . 0.1054(31) . . .
5103.8 . 0.1063(31) . . .
5108.0 . 0.1069(31) . . .
5112.3 . 0.1108(31) . . .
5116.5 . 0.1143(31) . . .
5120.8 . 0.1160(31) . . .
5125.0 . 0.1154(31) . . .
5129.3 . 0.1096(32) . . .
5133.5 . 0.1176(31) . . .
5137.8 . 0.1138(31) . . .
5142.1 . 0.1187(31) . . .
5146.4 . 0.1141(31) . . .
5150.6 . 0.1211(31) . . .
5154.9 . 0.1201(31) . . .
5159.2 . 0.1118(31) . . .
5163.5 . 0.1073(32) . . .
5167.8 . 0.1126(31) . . .
5172.1 . 0.1103(31) . . .
5176.4 . 0.1083(31) . . .
5180.7 . 0.1155(31) . . .
5185.0 . 0.1136(31) . . .
5189.3 . 0.1226(31) . . .
5193.6 . 0.1192(31) . . .
5197.9 . 0.1164(31) . . .
5202.2 . 0.1144(31) . . .
5206.5 . 0.1181(31) . . .
5210.9 . 0.1175(31) . . .
5215.2 . 0.1117(31) . . .
5219.5 . 0.1100(31) . . .
5223.9 . 0.1109(31) . . .
5228.2 . 0.1149(31) . . .
5232.6 . 0.1108(32) . . .
5236.9 . 0.1177(31) . . .
5241.3 . 0.1206(31) . . .
5245.6 . 0.1113(31) . . .
5250.0 . 0.1146(31) . . .
5254.3 . 0.1167(31) . . .
5258.7 . 0.1134(32) . . .
5263.1 . 0.1245(31) . . .
5267.4 . 0.1164(32) . . .
5271.8 . 0.1236(31) . . .
5276.2 . 0.1140(31) . . .
5280.6 . 0.1139(32) . . .
5285.0 . 0.1161(32) . . .
5289.4 . 0.1208(31) . . .
5293.8 . 0.1171(32) . . .
5298.2 . 0.1276(31) . . .
5302.6 . 0.1215(32) . . .
5307.0 . 0.1211(32) . . .
5311.4 . 0.1224(32) . . .
5315.8 . 0.1247(32) . . .
5320.2 . 0.1185(32) . . .
5324.6 . 0.1181(31) . . .
5329.0 . 0.1160(32) . . .
5333.5 . 0.1192(31) . . .
5337.9 . 0.1254(31) . . .
5342.3 . 0.1112(32) . . .
5346.8 . 0.1227(31) . . .
5351.2 . 0.1192(31) . . .
5355.7 . 0.1204(31) . . .
5360.1 . 0.1221(31) . . .
5364.6 . 0.1145(31) . . .
5369.0 . 0.1159(31) . . .
5373.5 . 0.1200(31) . . .
5378.0 . 0.1224(31) . . .
5382.4 . 0.1168(31) . . .
5386.9 . 0.1138(31) . . .
5391.4 . 0.1149(31) . . .
5395.9 . 0.1249(31) . . .
5400.3 . 0.1202(31) . . .
5404.8 . 0.1159(31) . . .
5409.3 . 0.1143(31) . . .
5413.8 . 0.1117(31) . . .
5418.3 . 0.1133(31) . . .
5422.8 . 0.1045(31) . . .
5427.3 . 0.1087(31) . . .
5431.8 . 0.1117(31) . . .
5436.3 . 0.1086(30) . . .
5440.9 . 0.1099(31) . . .
5445.4 . 0.1146(30) . . .
5449.9 . 0.1085(31) . . .
5454.4 . 0.1147(30) . . .
5459.0 . 0.1136(30) . . .
5463.5 . 0.1006(31) . . .
5468.0 . 0.1088(30) . . .
5472.6 . 0.1075(30) . . .
5477.1 . 0.1062(30) . . .
5481.7 . 0.1119(30) . . .
5486.2 . 0.1054(31) . . .
5490.8 . 0.1102(30) . . .
5495.4 . 0.1127(30) . . .
5499.9 . 0.1072(30) . . .
5504.5 . 0.1079(30) . . .
5509.1 . 0.1198(30) . . .
5513.6 . 0.1120(30) . . .
5518.2 . 0.1151(30) . . .
5522.8 . 0.1118(30) . . .
5527.4 . 0.1135(30) . . .
5532.0 . 0.1137(30) . . .
5536.6 . 0.1170(30) . . .
5541.2 . 0.1197(30) . . .
5545.8 . 0.1265(30) . . .
5550.4 . 0.1243(30) . . .
5555.0 . 0.1200(30) . . .
5559.6 . 0.1156(30) . . .
5564.2 . 0.1107(30) . . .
5568.9 . 0.1033(30) . . .
5573.5 . 0.1152(29) . . .
5578.1 . 0.1152(30) . . .
5582.8 . 0.1186(30) . . .
5587.4 . 0.1239(29) . . .
5592.0 . 0.1127(29) . . .
5596.7 . 0.1124(29) . . .
5601.3 . 0.1076(29) . . .
5606.0 . 0.1081(29) . . .
5610.7 . 0.1069(29) . . .
5615.3 . 0.1004(29) . . .
5620.0 . 0.0978(29) . . .
5624.7 . 0.0997(29) . . .
5629.3 . 0.0992(29) . . .
5634.0 . 0.1023(28) . . .
5638.7 . 0.1014(29) . . .
5643.4 . 0.1060(29) . . .
5648.1 . 0.1026(28) . . .
5652.8 . 0.1028(28) . . .
5657.4 . 0.0956(29) . . .
5662.1 . 0.0970(28) . . .
5666.9 . 0.0984(28) . . .
5671.6 . 0.0943(28) . . .
5676.3 . 0.0901(29) . . .
5681.0 . 0.0955(28) . . .
5685.7 . 0.0911(29) . . .
5690.4 . 0.0959(28) . . .
5695.2 . 0.0947(28) . . .
5699.9 . 0.0943(28) . . .
5704.6 . 0.1003(28) . . .
5709.4 . 0.1003(28) . . .
5714.1 . 0.0969(28) . . .
5718.9 . 0.1036(28) . . .
5723.6 . 0.0965(28) . . .
5728.4 . 0.0907(28) . . .
5733.1 . 0.0947(28) . . .
5737.9 . 0.0955(28) . . .
5742.7 . 0.1007(28) . . .
5747.4 . 0.1046(28) . . .
5752.2 . 0.1088(28) . . .
5757.0 . 0.0973(28) . . .
5761.8 . 0.1023(28) . . .
5766.6 . 0.0930(28) . . .
5771.4 . 0.0955(28) . . .
5776.1 . 0.1007(28) . . .
5780.9 . 0.0948(28) . . .
5785.8 . 0.0984(28) . . .
5790.6 . 0.0952(28) . . .
5795.4 . 0.0933(28) . . .
5800.2 . 0.0895(28) . . .
5805.0 . 0.1014(28) . . .
5809.8 . 0.1035(28) . . .
5814.7 . 0.1041(28) . . .
5819.5 . 0.0980(28) . . .
5824.3 . 0.0987(28) . . .
5829.2 . 0.0926(28) . . .
5834.0 . 0.0994(27) . . .
5838.9 . 0.0999(27) . . .
5843.7 . 0.0981(27) . . .
5848.6 . 0.0971(27) . . .
5853.4 . 0.0906(28) . . .
5858.3 . 0.0945(27) . . .
5863.2 . 0.0953(27) . . .
5868.0 . 0.0942(27) . . .
5872.9 . 0.0930(27) . . .
5877.8 . 0.0920(27) . . .
5882.7 . 0.0903(28) . . .
5887.5 . 0.0893(28) . . .
5892.4 . 0.0887(28) . . .
5897.3 . 0.0899(27) . . .
5902.2 . 0.0937(27) . . .
5907.1 . 0.0915(27) . . .
5912.0 . 0.0910(27) . . .
5917.0 . 0.0916(28) . . .
5921.9 . 0.0929(27) . . .
5926.8 . 0.0974(27) . . .
5931.7 . 0.0969(27) . . .
5936.7 . 0.0977(27) . . .
5941.6 0.56226 0.0936(28) 131666. 0.08108 0.09180
5946.5 0.56273 0.0939(27) 132241. 0.08135 0.09103
5951.5 0.56319 0.0938(28) 131983. 0.08160 0.09115
5956.4 0.56366 0.0964(27) 133538. 0.08186 0.09177
5961.4 0.56413 0.0968(27) 135865. 0.08211 0.09220
5966.3 0.56460 0.0928(27) 133857. 0.08235 0.09237
5971.3 0.56507 0.0939(28) 131406. 0.08259 0.09298
5976.2 0.56554 0.0975(27) 133641. 0.08283 0.09437
5981.2 0.56601 0.0971(27) 135195. 0.08306 0.09647
5986.2 0.56648 0.1034(27) 133725. 0.08328 0.09814
5991.1 0.56695 0.1012(27) 134067. 0.08351 0.09804
5996.1 0.56742 0.0962(27) 133550. 0.08372 0.09643
6001.1 0.56789 0.0950(27) 132915. 0.08394 0.09474
6006.1 0.56836 0.0914(28) 132145. 0.08415 0.09373
6011.1 0.56884 0.0982(27) 136462. 0.08435 0.09361
6016.1 0.56931 0.1011(27) 134155. 0.08455 0.09441
6021.1 0.56978 0.0977(27) 135278. 0.08475 0.09604
6026.1 0.57025 0.0961(28) 131411. 0.08494 0.09805
6031.1 0.57073 0.0991(28) 132063. 0.08513 0.09980
6036.1 0.57120 0.1024(27) 132605. 0.08532 0.10109
6041.1 0.57168 0.1022(28) 131741. 0.08550 0.10180
6046.1 0.57215 0.1013(27) 133096. 0.08568 0.10211
6051.1 0.57263 0.0976(28) 131342. 0.08585 0.10196
6056.2 0.57310 0.0957(28) 130434. 0.08602 0.10108
6061.2 0.57358 0.0959(28) 130831. 0.08619 0.09997
6066.2 0.57406 0.0943(28) 130477. 0.08635 0.09951
6071.3 0.57453 0.0999(27) 134576. 0.08651 0.10069
6076.3 0.57501 0.1014(27) 133022. 0.08666 0.10391
6081.4 0.57549 0.1014(27) 132273. 0.08682 0.10724
6086.4 0.57597 0.1054(28) 132085. 0.08697 0.10749
6091.5 0.57645 0.1033(27) 133417. 0.08711 0.10483
6096.6 0.57692 0.0996(28) 131985. 0.08725 0.10162
6101.6 0.57740 0.0942(28) 131719. 0.08739 0.09959
6106.7 0.57788 0.0964(28) 130878. 0.08753 0.09873
6111.8 0.57836 0.0986(28) 130937. 0.08766 0.09844
6116.8 0.57884 0.0994(28) 130810. 0.08779 0.09876
6121.9 0.57933 0.0994(28) 132097. 0.08792 0.09971
6127.0 0.57981 0.1009(28) 132030. 0.08804 0.10116
6132.1 0.58029 0.1039(28) 131990. 0.08816 0.10253
6137.2 0.58077 0.0999(28) 130284. 0.08828 0.10267
6142.3 0.58125 0.1012(28) 130606. 0.08839 0.10203
6147.4 0.58174 0.0989(28) 131140. 0.08850 0.10245
6152.5 0.58222 0.1002(28) 130271. 0.08861 0.10519
6157.6 0.58270 0.1068(28) 127994. 0.08872 0.10962
6162.7 0.58319 0.1133(28) 130837. 0.08882 0.11266
6167.9 0.58367 0.1130(28) 130493. 0.08892 0.11189
6173.0 0.58416 0.1098(28) 129925. 0.08902 0.10853
6178.1 0.58464 0.1050(28) 129873. 0.08912 0.10455
6183.2 0.58513 0.1015(28) 127914. 0.08921 0.10119
6188.4 0.58561 0.1040(28) 130808. 0.08930 0.09932
6193.5 0.58610 0.0947(28) 131296. 0.08939 0.09958
6198.7 0.58659 0.1011(28) 129315. 0.08947 0.10185
6203.8 0.58708 0.1049(28) 130316. 0.08955 0.10522
6209.0 0.58756 0.1043(28) 126118. 0.08964 0.10805
6214.1 0.58805 0.1114(28) 132019. 0.08971 0.10931
6219.3 0.58854 0.1078(28) 126635. 0.08979 0.10912
6224.5 0.58903 0.1065(28) 126864. 0.08986 0.10768
6229.6 0.58952 0.1067(28) 127601. 0.08994 0.10604
6234.8 0.59001 0.1063(28) 130565. 0.09001 0.10537
6240.0 0.59050 0.1023(28) 127310. 0.09007 0.10570
6245.2 0.59099 0.1031(28) 128839. 0.09014 0.10645
6250.4 0.59148 0.0973(28) 124008. 0.09020 0.10708
6255.6 0.59197 0.1093(28) 127513. 0.09026 0.10806
6260.8 0.59246 0.1139(28) 127397. 0.09032 0.11062
6266.0 0.59296 0.1167(28) 126849. 0.09038 0.11439
6271.2 0.59345 0.1151(28) 124222. 0.09044 0.11855
6276.4 0.59394 0.1220(28) 125103. 0.09049 0.12213
6281.6 0.59444 0.1277(28) 127394. 0.09054 0.12421
6286.8 0.59493 0.1203(29) 122412. 0.09059 0.12516
6292.0 0.59542 0.1224(29) 121071. 0.09064 0.12448
6297.3 0.59592 0.1256(28) 126073. 0.09069 0.12051
6302.5 0.59641 0.1170(28) 125251. 0.09073 0.11507
6307.7 0.59691 0.1108(28) 124508. 0.09078 0.11115
6313.0 0.59741 0.1054(28) 123750. 0.09082 0.10894
6318.2 0.59790 0.1114(28) 127419. 0.09086 0.10723
6323.5 0.59840 0.1046(28) 124497. 0.09090 0.10545
6328.7 0.59890 0.0960(29) 122348. 0.09094 0.10400
6334.0 0.59939 0.1059(28) 128655. 0.09097 0.10385
6339.2 0.59989 0.1055(28) 126834. 0.09101 0.10482
6344.5 0.60039 0.1007(29) 122909. 0.09104 0.10554
6349.8 0.60089 0.1034(28) 123918. 0.09107 0.10505
6355.1 0.60139 0.1037(28) 126581. 0.09110 0.10360
6360.3 0.60189 0.1035(28) 126528. 0.09113 0.10221
6365.6 0.60239 0.0996(28) 123519. 0.09116 0.10229
6370.9 0.60289 0.1032(28) 126384. 0.09119 0.10441
6376.2 0.60339 0.1064(28) 123670. 0.09121 0.10781
6381.5 0.60389 0.1118(28) 124985. 0.09124 0.11123
6386.8 0.60439 0.1094(29) 123017. 0.09126 0.11399
6392.1 0.60489 0.1151(29) 122154. 0.09129 0.11623
6397.4 0.60540 0.1153(29) 121644. 0.09131 0.11827
6402.7 0.60590 0.1216(29) 120894. 0.09133 0.11814
6408.1 0.60640 0.1106(29) 120505. 0.09135 0.11462
6413.4 0.60691 0.1076(29) 120916. 0.09137 0.11043
6418.7 0.60741 0.1050(29) 122864. 0.09138 0.10750
6424.0 0.60792 0.1074(29) 122129. 0.09140 0.10594
6429.4 0.60842 0.1052(29) 121434. 0.09142 0.10569
6434.7 0.60893 0.1036(29) 120213. 0.09143 0.10646
6440.1 0.60943 0.1070(29) 119926. 0.09144 0.10789
6445.4 0.60994 0.1133(29) 121214. 0.09146 0.11016
6450.8 0.61045 0.1158(29) 121000. 0.09147 0.11313
6456.1 0.61095 0.1208(29) 120554. 0.09148 0.11589
6461.5 0.61146 0.1200(29) 118643. 0.09149 0.11824
6466.9 0.61197 0.1222(29) 117194. 0.09150 0.12075
6472.2 0.61248 0.1293(29) 119915. 0.09151 0.12448
6477.6 0.61299 0.1318(29) 117836. 0.09152 0.12999
6483.0 0.61350 0.1343(29) 116341. 0.09153 0.13384
6488.4 0.61401 0.1301(29) 117339. 0.09154 0.13151
6493.8 0.61452 0.1220(29) 117320. 0.09155 0.12452
6499.2 0.61503 0.1227(29) 119014. 0.09155 0.11825
6504.6 0.61554 0.1122(29) 117902. 0.09156 0.11546
6510.0 0.61605 0.1197(29) 120347. 0.09157 0.11531
6515.4 0.61656 0.1153(29) 117617. 0.09157 0.11631
6520.8 0.61707 0.1174(29) 117372. 0.09158 0.11826
6526.2 0.61759 0.1217(29) 117420. 0.09158 0.12143
6531.7 0.61810 0.1270(29) 118551. 0.09159 0.12308
6537.1 0.61861 0.1229(29) 118288. 0.09159 0.12106
6542.5 0.61913 0.1220(29) 118321. 0.09159 0.11828
6547.9 0.61964 0.1198(29) 119839. 0.09160 0.11641
6553.4 0.62016 0.1144(29) 117267. 0.09160 0.11402
6558.8 0.62067 0.1123(29) 118798. 0.09160 0.11168
6564.3 0.62119 0.1183(29) 120376. 0.09160 0.11052
6569.7 0.62170 0.1077(29) 118018. 0.09161 0.10942
6575.2 0.62222 0.1126(29) 120746. 0.09161 0.10784
6580.7 0.62274 0.1095(29) 119454. 0.09161 0.10647
6586.1 0.62326 0.1032(29) 118180. 0.09161 0.10528
6591.6 0.62377 0.1049(29) 120429. 0.09161 0.10467
6597.1 0.62429 0.1067(29) 118774. 0.09162 0.10567
6602.6 0.62481 0.1105(29) 119534. 0.09162 0.10760
6608.0 0.62533 0.1039(29) 117200. 0.09162 0.10855
6613.5 0.62585 0.1132(29) 118108. 0.09162 0.10798
6619.0 0.62637 0.1094(29) 119189. 0.09162 0.10768
6624.5 0.62689 0.1102(29) 115991. 0.09162 0.10959
6630.0 0.62741 0.1154(29) 115773. 0.09162 0.11402
6635.5 0.62793 0.1245(29) 119090. 0.09162 0.11808
6641.1 0.62845 0.1206(29) 116625. 0.09162 0.11752
6646.6 0.62898 0.1101(29) 117287. 0.09162 0.11306
6652.1 0.62950 0.1103(29) 119973. 0.09162 0.10842
6657.6 0.63002 0.1117(29) 121427. 0.09163 0.10615
6663.2 0.63054 0.1104(29) 119093. 0.09163 0.10679
6668.7 0.63107 0.1052(29) 117591. 0.09163 0.10872
6674.2 0.63159 0.1183(29) 120174. 0.09163 0.10893
6679.8 0.63212 0.1057(29) 116791. 0.09163 0.10690
6685.3 0.63264 0.1068(29) 117696. 0.09163 0.10449
6690.9 0.63317 0.1046(29) 119762. 0.09163 0.10220
6696.4 0.63370 0.1053(29) 121173. 0.09164 0.10012
6702.0 0.63422 0.0995(29) 120286. 0.09164 0.09908
6707.6 0.63475 0.1027(29) 119546. 0.09164 0.09985
6713.1 0.63528 0.0999(29) 117037. 0.09164 0.10288
6718.7 0.63580 0.1083(29) 116399. 0.09165 0.10798
6724.3 0.63633 0.1118(29) 116939. 0.09165 0.11320
6729.9 0.63686 0.1165(29) 119597. 0.09165 0.11582
6735.5 0.63739 0.1152(29) 115465. 0.09165 0.11730
6741.1 0.63792 0.1150(29) 116686. 0.09166 0.12037
6746.7 0.63845 0.1170(29) 116315. 0.09166 0.12380
6752.3 0.63898 0.1250(29) 116748. 0.09167 0.12524
6757.9 0.63951 0.1220(30) 114508. 0.09167 0.12401
6763.5 0.64004 0.1216(29) 115201. 0.09168 0.12036
6769.1 0.64057 0.1177(29) 117050. 0.09168 0.11435
6774.8 0.64111 0.1058(29) 116153. 0.09169 0.10841
6780.4 0.64164 0.1027(29) 117042. 0.09169 0.10468
6786.0 0.64217 0.1046(29) 118168. 0.09170 0.10305
6791.7 0.64271 0.1005(29) 117273. 0.09171 0.10278
6797.3 0.64324 0.1015(29) 117908. 0.09171 0.10342
6803.0 0.64377 0.1053(29) 117399. 0.09172 0.10463
6808.6 0.64431 0.1073(29) 118672. 0.09173 0.10653
6814.3 0.64485 0.1090(29) 118436. 0.09174 0.10968
6819.9 0.64538 0.1128(29) 117399. 0.09174 0.11301
6825.6 0.64592 0.1183(29) 117781. 0.09175 0.11386
6831.3 0.64645 0.1113(30) 114882. 0.09176 0.11157
6836.9 0.64699 0.1093(29) 116689. 0.09177 0.10832
6842.6 0.64753 0.1062(29) 118555. 0.09178 0.10655
6848.3 0.64807 0.1078(29) 116887. 0.09179 0.10776
6854.0 0.64861 0.1098(29) 115727. 0.09180 0.11201
6859.7 0.64914 0.1099(30) 113514. 0.09182 0.11708
6865.4 0.64968 0.1211(29) 118253. 0.09183 0.11954
6871.1 0.65022 0.1183(29) 116899. 0.09184 0.11855
6876.8 0.65076 0.1152(30) 114807. 0.09185 0.11527
6882.5 0.65130 0.1063(30) 114842. 0.09187 0.11077
6888.2 0.65185 0.1123(29) 119744. 0.09188 0.10682
6894.0 0.65239 0.1072(29) 118325. 0.09190 0.10455
6899.7 0.65293 0.1023(29) 116056. 0.09191 0.10342
6905.4 0.65347 0.1030(29) 116690. 0.09193 0.10302
6911.2 0.65401 0.1084(29) 117433. 0.09194 0.10381
6916.9 0.65456 0.1037(29) 117094. 0.09196 0.10530
6922.7 0.65510 0.1064(29) 116453. 0.09198 0.10623
6928.4 0.65565 0.1029(29) 115046. 0.09199 0.10676
6934.2 0.65619 0.1139(29) 118981. 0.09201 0.10795
6939.9 0.65674 0.1062(29) 115271. 0.09203 0.10974
6945.7 0.65728 0.1177(29) 119110. 0.09205 0.11196
6951.5 0.65783 0.1125(29) 115033. 0.09207 0.11625
6957.2 0.65837 0.1255(29) 115359. 0.09209 0.12398
6963.0 0.65892 0.1325(29) 115534. 0.09211 0.13305
6968.8 0.65947 0.1395(30) 113498. 0.09213 0.13831
6974.6 0.66002 0.1389(30) 114235. 0.09215 0.13693
6980.4 0.66057 0.1282(30) 113766. 0.09217 0.13074
6986.2 0.66111 0.1194(30) 114669. 0.09220 0.12322
6992.0 0.66166 0.1158(29) 115574. 0.09222 0.11794
6997.8 0.66221 0.1176(29) 116706. 0.09224 0.11508
7003.6 0.66276 0.1072(29) 115744. 0.09227 0.11206
7009.4 0.66331 0.1061(29) 116507. 0.09229 0.10855
7015.3 0.66387 0.1071(29) 116756. 0.09232 0.10677
7021.1 0.66442 0.1066(29) 118023. 0.09235 0.10736
7026.9 0.66497 0.1097(29) 116806. 0.09237 0.10882
7032.8 0.66552 0.1127(29) 116721. 0.09240 0.10931
7038.6 0.66608 0.1068(29) 115910. 0.09243 0.10880
7044.5 0.66663 0.1082(29) 118136. 0.09246 0.10843
7050.3 0.66718 0.1080(29) 116712. 0.09248 0.10903
7056.2 0.66774 0.1133(29) 116327. 0.09251 0.11108
7062.0 0.66829 0.1205(29) 118341. 0.09254 0.11351
7067.9 0.66885 0.1118(29) 115132. 0.09257 0.11360
7073.8 0.66940 0.1142(29) 117590. 0.09261 0.11078
7079.6 0.66996 0.1044(29) 116338. 0.09264 0.10712
7085.5 0.67052 0.1103(29) 118222. 0.09267 0.10485
7091.4 0.67107 0.1089(29) 117088. 0.09270 0.10505
7097.3 0.67163 0.1102(29) 118812. 0.09274 0.10801
7103.2 0.67219 0.1194(29) 115582. 0.09277 0.11320
7109.1 0.67275 0.1281(29) 117497. 0.09280 0.11795
7115.0 0.67331 0.1279(29) 115452. 0.09284 0.11939
7120.9 0.67387 0.1229(29) 116475. 0.09287 0.11779
7126.8 0.67443 0.1179(29) 115665. 0.09291 0.11641
7132.8 0.67499 0.1185(29) 116152. 0.09295 0.11676
7138.7 0.67555 0.1163(30) 114881. 0.09298 0.11630
7144.6 0.67611 0.1185(29) 116970. 0.09302 0.11379
7150.6 0.67667 0.1145(29) 115700. 0.09306 0.11176
7156.5 0.67723 0.1104(30) 114861. 0.09310 0.11237
7162.5 0.67780 0.1194(29) 116034. 0.09313 0.11636
7168.4 0.67836 0.1243(29) 117177. 0.09317 0.12210
7174.4 0.67892 0.1258(29) 116127. 0.09321 0.12520
7180.3 0.67949 0.1193(30) 114250. 0.09325 0.12447
7186.3 0.68005 0.1289(29) 116894. 0.09329 0.12457
7192.3 0.68062 0.1273(29) 116085. 0.09333 0.12636
7198.2 0.68118 0.1256(29) 116715. 0.09338 0.12464
7204.2 0.68175 0.1185(29) 116496. 0.09342 0.11798
7210.2 0.68231 0.1146(29) 119105. 0.09346 0.11113
7216.2 0.68288 0.1084(29) 118053. 0.09350 0.10778
7222.2 0.68345 0.1105(29) 117315. 0.09355 0.10968
7228.2 0.68402 0.1145(29) 116034. 0.09359 0.11835
7234.2 0.68458 0.1329(29) 116216. 0.09364 0.13348
7240.2 0.68515 0.1501(30) 113411. 0.09368 0.15005
7246.2 0.68572 0.1550(30) 110082. 0.09372 0.16108
7252.2 0.68629 0.1676(30) 112389. 0.09377 0.16798
7258.3 0.68686 0.1739(30) 109969. 0.09382 0.17792
7264.3 0.68743 0.1907(30) 109082. 0.09386 0.19208
7270.3 0.68800 0.1960(31) 105775. 0.09391 0.19931
7276.4 0.68858 0.1933(30) 109437. 0.09396 0.18787
7282.4 0.68915 0.1660(30) 111549. 0.09400 0.16307
7288.5 0.68972 0.1344(30) 112803. 0.09405 0.14088
7294.5 0.69029 0.1318(29) 117728. 0.09410 0.12843
7300.6 0.69087 0.1276(29) 117490. 0.09415 0.12496
7306.7 0.69144 0.1306(29) 118552. 0.09420 0.12636
7312.7 0.69202 0.1252(29) 116200. 0.09425 0.12707
7318.8 0.69259 0.1228(29) 116209. 0.09429 0.12511
7324.9 0.69317 0.1274(29) 117249. 0.09434 0.12435
7331.0 0.69374 0.1249(29) 117715. 0.09439 0.12611
7337.1 0.69432 0.1292(29) 115958. 0.09444 0.12760
7343.2 0.69490 0.1304(29) 115298. 0.09450 0.12670
7349.3 0.69547 0.1238(29) 118396. 0.09455 0.12283
7355.4 0.69605 0.1195(29) 116959. 0.09460 0.11848
7361.5 0.69663 0.1181(29) 119332. 0.09465 0.11662
7367.6 0.69721 0.1129(29) 116862. 0.09470 0.11902
7373.7 0.69779 0.1290(29) 118786. 0.09475 0.12530
7379.8 0.69837 0.1322(29) 117535. 0.09480 0.13202
7386.0 0.69895 0.1299(30) 114430. 0.09486 0.13213
7392.1 0.69953 0.1200(30) 114783. 0.09491 0.12445
7398.3 0.70011 0.1142(29) 119125. 0.09496 0.11543
7404.4 0.70069 0.1150(29) 121249. 0.09501 0.10910
7410.6 0.70127 0.1031(29) 119608. 0.09507 0.10564
7416.7 0.70186 0.1010(29) 118820. 0.09512 0.10431
7422.9 0.70244 0.0948(29) 117699. 0.09517 0.10445
7429.0 0.70302 0.1012(29) 119220. 0.09523 0.10518
7435.2 0.70361 0.1031(29) 121097. 0.09528 0.10530
7441.4 0.70419 0.0997(29) 118924. 0.09534 0.10484
7447.6 0.70478 0.0996(29) 118843. 0.09539 0.10477
7453.8 0.70536 0.1075(29) 122105. 0.09544 0.10561
7460.0 0.70595 0.1064(29) 119973. 0.09550 0.10771
7466.2 0.70654 0.1152(29) 119379. 0.09555 0.11188
7472.4 0.70712 0.1166(29) 118654. 0.09561 0.11869
7478.6 0.70771 0.1240(29) 115877. 0.09566 0.12692
7484.8 0.70830 0.1319(29) 116052. 0.09572 0.13220
7491.0 0.70889 0.1282(30) 114438. 0.09577 0.13250
7497.2 0.70948 0.1269(29) 116625. 0.09583 0.13155
7503.5 0.71007 0.1330(29) 118419. 0.09588 0.13174
7509.7 0.71066 0.1271(29) 115598. 0.09593 0.13073
7515.9 0.71125 0.1190(29) 116777. 0.09599 0.12711
7522.2 0.71184 0.1234(29) 119018. 0.09604 0.12418
7528.4 0.71243 0.1233(29) 120343. 0.09610 0.12525
7534.7 0.71302 0.1286(29) 119058. 0.09615 0.13007
7540.9 0.71361 0.1316(29) 115862. 0.09621 0.13472
7547.2 0.71421 0.1322(29) 117251. 0.09626 0.13532
7553.5 0.71480 0.1349(29) 119027. 0.09632 0.13234
7559.8 0.71539 0.1254(29) 117839. 0.09637 0.12796
7566.0 0.71599 0.1170(29) 117596. 0.09643 0.12193
7572.3 0.71658 0.1122(29) 119261. 0.09648 0.11678
7578.6 0.71718 0.1173(29) 120425. 0.09653 0.11588
7584.9 0.71777 0.1229(29) 120220. 0.09659 0.12023
7591.2 0.71837 0.1288(29) 118896. 0.09664 0.12749
7597.5 0.71897 0.1355(29) 117502. 0.09670 0.13255
7603.8 0.71957 0.1341(29) 117850. 0.09675 0.13244
7610.2 0.72016 0.1226(29) 118225. 0.09680 0.12986
7616.5 0.72076 0.1205(29) 119626. 0.09686 0.12559
7622.8 0.72136 0.1133(29) 116932. 0.09691 0.12165
7629.1 0.72196 0.1217(29) 120881. 0.09696 0.12098
7635.5 0.72256 0.1195(29) 119030. 0.09701 0.12255
7641.8 0.72316 0.1178(29) 118123. 0.09707 0.12238
7648.2 0.72376 0.1179(29) 118896. 0.09712 0.11951
7654.5 0.72436 0.1167(29) 121286. 0.09717 0.11611
7660.9 0.72496 0.1132(29) 117893. 0.09722 0.11375
7667.3 0.72557 0.1093(29) 118593. 0.09727 0.11266
7673.6 0.72617 0.1161(29) 119439. 0.09733 0.11265
7680.0 0.72677 0.1094(29) 117497. 0.09738 0.11468
7686.4 0.72738 0.1192(29) 117871. 0.09743 0.12079
7692.8 0.72798 0.1353(29) 115617. 0.09748 0.13289
7699.2 0.72859 0.1544(30) 114617. 0.09753 0.14889
7705.6 0.72919 0.1604(30) 110337. 0.09758 0.16229
7712.0 0.72980 0.1655(30) 110253. 0.09763 0.16835
7718.4 0.73040 0.1652(30) 109483. 0.09768 0.16976
7724.8 0.73101 0.1571(30) 111548. 0.09772 0.16319
7731.2 0.73162 0.1478(30) 114277. 0.09777 0.14830
7737.6 0.73223 0.1317(29) 115227. 0.09782 0.13435
7744.1 0.73283 0.1227(29) 116347. 0.09787 0.12676
7750.5 0.73344 0.1231(29) 115896. 0.09792 0.12576
7756.9 0.73405 0.1243(30) 114857. 0.09796 0.13136
7763.4 0.73466 0.1427(30) 114786. 0.09801 0.14535
7769.8 0.73527 0.1590(30) 109858. 0.09805 0.16691
7776.3 0.73588 0.1888(30) 109121. 0.09810 0.18552
7782.7 0.73650 0.1909(30) 111157. 0.09814 0.18322
7789.2 0.73711 0.1614(30) 111302. 0.09819 0.16321
7795.7 0.73772 0.1370(30) 112344. 0.09823 0.14331
7802.2 0.73833 0.1229(30) 112814. 0.09828 0.13115
7808.6 0.73895 0.1269(29) 116130. 0.09832 0.12449
7815.1 0.73956 0.1190(29) 116191. 0.09836 0.11974
7821.6 0.74018 0.1167(29) 116865. 0.09840 0.11665
7828.1 0.74079 0.1135(29) 115915. 0.09844 0.11565
7834.6 0.74141 0.1127(29) 115931. 0.09848 0.11599
7841.1 0.74202 0.1093(30) 114507. 0.09852 0.11664
7847.6 0.74264 0.1178(29) 116576. 0.09856 0.11978
7854.2 0.74326 0.1254(29) 116380. 0.09860 0.12825
7860.7 0.74387 0.1422(30) 114856. 0.09864 0.14015
7867.2 0.74449 0.1437(30) 111874. 0.09868 0.14739
7873.8 0.74511 0.1395(30) 111513. 0.09872 0.14512
7880.3 0.74573 0.1397(30) 114697. 0.09875 0.13902
7886.9 0.74635 0.1311(30) 112994. 0.09879 0.13535
7893.4 0.74697 0.1289(30) 112926. 0.09882 0.13587
7900.0 0.74759 0.1341(30) 112927. 0.09886 0.13728
7906.5 0.74821 0.1316(30) 112653. 0.09889 0.13625
7913.1 0.74883 0.1298(30) 114440. 0.09893 0.13224
7919.7 0.74945 0.1301(29) 115941. 0.09896 0.13018
7926.3 0.75008 0.1303(30) 114050. 0.09899 0.13353
7932.8 0.75070 0.1412(30) 112199. 0.09902 0.13998
7939.4 0.75132 0.1464(30) 113837. 0.09905 0.14381
7946.0 0.75195 0.1401(30) 109416. 0.09908 0.14438
7952.6 0.75257 0.1504(30) 111328. 0.09911 0.14672
7959.2 0.75320 0.1538(30) 111662. 0.09914 0.14925
7965.9 0.75382 0.1501(30) 109779. 0.09917 0.14796
7972.5 0.75445 0.1372(30) 109925. 0.09919 0.14090
7979.1 0.75508 0.1281(30) 110443. 0.09922 0.13160
7985.7 0.75571 0.1234(30) 112955. 0.09924 0.12369
7992.4 0.75633 0.1197(30) 114024. 0.09927 0.11743
7999.0 0.75696 0.1096(30) 114251. 0.09929 0.11290
8005.6 0.75759 0.1057(30) 113845. 0.09931 0.11006
8012.3 0.75822 0.1071(29) 115931. 0.09934 0.10840
8019.0 0.75885 0.1032(30) 114546. 0.09936 0.10700
8025.6 0.75948 0.1030(30) 114077. 0.09938 0.10584
8032.3 0.76011 0.0988(30) 113331. 0.09940 0.10562
8039.0 0.76074 0.1046(30) 114143. 0.09942 0.10716
8045.6 0.76138 0.1083(30) 112711. 0.09943 0.11049
8052.3 0.76201 0.1136(30) 114717. 0.09945 0.11488
8059.0 0.76264 0.1165(30) 111588. 0.09947 0.11906
8065.7 0.76327 0.1230(30) 111921. 0.09948 0.12185
8072.4 0.76391 0.1235(30) 112235. 0.09950 0.12379
8079.1 0.76454 0.1213(30) 109111. 0.09951 0.12483
8085.8 0.76518 0.1211(30) 110236. 0.09952 0.12485
8092.6 0.76581 0.1192(30) 108334. 0.09953 0.12817
8099.3 0.76645 0.1352(30) 109054. 0.09954 0.13817
8106.0 0.76709 0.1536(30) 109328. 0.09955 0.15157
8112.7 0.76773 0.1590(30) 109014. 0.09956 0.15973
8119.5 0.76836 0.1623(31) 107107. 0.09957 0.16153
8126.2 0.76900 0.1631(31) 107138. 0.09958 0.16260
8133.0 0.76964 0.1620(31) 103714. 0.09958 0.16532
8139.7 0.77028 0.1735(31) 106027. 0.09959 0.16884
8146.5 0.77092 0.1659(31) 104331. 0.09959 0.16479
8153.3 0.77156 0.1580(31) 107409. 0.09959 0.15109
8160.0 0.77220 0.1368(30) 108702. 0.09960 0.13567
8166.8 0.77284 0.1265(30) 110255. 0.09960 0.12395
8173.6 0.77349 0.1140(30) 109082. 0.09960 0.11724
8180.4 0.77413 0.1198(30) 111288. 0.09960 0.11422
8187.2 0.77477 0.1142(30) 110242. 0.09959 0.11303
8194.0 0.77542 0.1096(30) 109638. 0.09959 0.11241
8200.8 0.77606 0.1148(30) 111040. 0.09959 0.11232
8207.6 0.77670 0.1115(30) 109135. 0.09958 0.11328
8214.5 0.77735 0.1134(30) 110192. 0.09958 0.11463
8221.3 0.77800 0.1139(30) 108905. 0.09957 0.11580
8228.1 0.77864 0.1159(30) 108795. 0.09956 0.11722
8234.9 0.77929 0.1221(30) 109661. 0.09955 0.11968
8241.8 0.77994 0.1246(30) 107636. 0.09954 0.12283
8248.6 0.78059 0.1314(30) 108060. 0.09953 0.12434
8255.5 0.78123 0.1291(31) 105384. 0.09952 0.12430
8262.3 0.78188 0.1273(31) 105896. 0.09951 0.12472
8269.2 0.78253 0.1281(31) 106866. 0.09949 0.12685
8276.1 0.78318 0.1345(30) 107798. 0.09948 0.12912
8283.0 0.78383 0.1287(31) 105165. 0.09946 0.12684
8289.8 0.78448 0.1247(30) 109228. 0.09944 0.12038
8296.7 0.78514 0.1186(30) 110099. 0.09942 0.11440
8303.6 0.78579 0.1149(30) 109504. 0.09940 0.11163
8310.5 0.78644 0.1111(30) 108183. 0.09938 0.11169
8317.4 0.78710 0.1133(30) 109326. 0.09936 0.11316
8324.3 0.78775 0.1169(30) 111161. 0.09934 0.11457
8331.3 0.78840 0.1165(30) 110485. 0.09931 0.11521
8338.2 0.78906 0.1146(30) 109453. 0.09929 0.11584
8345.1 0.78971 0.1239(30) 110933. 0.09926 0.11736
8352.0 0.79037 0.1200(30) 109469. 0.09923 0.11943
8359.0 0.79103 0.1199(30) 109103. 0.09921 0.12253
8365.9 0.79169 0.1245(31) 107351. 0.09918 0.12776
8372.9 0.79234 0.1395(30) 108602. 0.09915 0.13671
8379.8 0.79300 0.1584(30) 107653. 0.09911 0.14794
8386.8 0.79366 0.1596(31) 106140. 0.09908 0.15308
8393.8 0.79432 0.1536(31) 107197. 0.09905 0.14803
8400.7 0.79498 0.1442(30) 108854. 0.09901 0.13917
8407.7 0.79564 0.1307(31) 107446. 0.09898 0.13258
8414.7 0.79630 0.1302(30) 107796. 0.09894 0.13287
8421.7 0.79696 0.1403(30) 108062. 0.09890 0.14082
8428.7 0.79763 0.1529(31) 107133. 0.09886 0.15416
8435.7 0.79829 0.1733(31) 106925. 0.09882 0.16872
8442.7 0.79895 0.1844(31) 105354. 0.09878 0.18418
8449.7 0.79962 0.2148(31) 103714. 0.09874 0.20423
8456.7 0.80028 0.2344(31) 102562. 0.09869 0.21592
8463.8 0.80094 0.2135(31) 102403. 0.09865 0.20131
8470.8 0.80161 0.1803(31) 104836. 0.09860 0.17328
8477.8 0.80228 0.1581(30) 107981. 0.09856 0.15124
8484.9 0.80294 0.1505(30) 110148. 0.09851 0.14187
8491.9 0.80361 0.1519(30) 111646. 0.09846 0.14300
8499.0 0.80428 0.1500(30) 109648. 0.09841 0.14890
8506.1 0.80495 0.1592(30) 109885. 0.09836 0.15429
8513.1 0.80561 0.1548(30) 107814. 0.09830 0.15432
8520.2 0.80628 0.1570(30) 109618. 0.09825 0.15093
8527.3 0.80695 0.1586(30) 110467. 0.09820 0.14725
8534.4 0.80762 0.1492(30) 110219. 0.09814 0.14242
8541.5 0.80830 0.1419(30) 111364. 0.09808 0.13939
8548.6 0.80897 0.1445(30) 110526. 0.09803 0.14169
8555.7 0.80964 0.1557(30) 111754. 0.09797 0.15177
8562.8 0.81031 0.1774(30) 110495. 0.09791 0.16720
8569.9 0.81099 0.1851(30) 108815. 0.09785 0.17482
8577.0 0.81166 0.1753(30) 111321. 0.09778 0.16469
8584.1 0.81233 0.1503(30) 110492. 0.09772 0.14850
8591.3 0.81301 0.1456(29) 115848. 0.09766 0.13941
8598.4 0.81368 0.1453(29) 115574. 0.09759 0.14151
8605.5 0.81436 0.1547(30) 114116. 0.09752 0.15170
8612.7 0.81504 0.1707(30) 114737. 0.09746 0.16213
8619.8 0.81571 0.1679(30) 112900. 0.09739 0.16754
8627.0 0.81639 0.1632(30) 113300. 0.09732 0.16386
8634.2 0.81707 0.1549(30) 114311. 0.09725 0.15476
8641.4 0.81775 0.1500(29) 115471. 0.09718 0.14607
8648.5 0.81843 0.1445(29) 118258. 0.09710 0.13785
8655.7 0.81911 0.1325(29) 118209. 0.09703 0.13416
8662.9 0.81979 0.1495(29) 118334. 0.09696 0.14276
8670.1 0.82047 0.1657(30) 114480. 0.09688 0.16550
8677.3 0.82115 0.1986(30) 112305. 0.09680 0.19167
8684.5 0.82184 0.2122(30) 111793. 0.09673 0.19860
8691.7 0.82252 0.1965(30) 114220. 0.09665 0.18183
8699.0 0.82320 0.1671(30) 114899. 0.09657 0.16055
8706.2 0.82389 0.1534(29) 118725. 0.09649 0.14720
8713.4 0.82457 0.1538(29) 121275. 0.09641 0.14486
8720.7 0.82526 0.1515(29) 117484. 0.09632 0.14941
8727.9 0.82594 0.1605(29) 119500. 0.09624 0.14979
8735.2 0.82663 0.1494(29) 121776. 0.09616 0.14063
8742.4 0.82731 0.1309(28) 124165. 0.09607 0.12878
8749.7 0.82800 0.1252(28) 125952. 0.09598 0.12036
8757.0 0.82869 0.1186(28) 126742. 0.09590 0.11733
8764.2 0.82938 0.1216(28) 127654. 0.09581 0.11895
8771.5 0.83007 0.1232(28) 126478. 0.09572 0.12306
8778.8 0.83076 0.1250(28) 125435. 0.09563 0.12767
8786.1 0.83145 0.1347(28) 127870. 0.09554 0.13088
8793.4 0.83214 0.1365(28) 127203. 0.09545 0.13386
8800.7 0.83283 0.1416(28) 127019. 0.09536 0.13719
8808.0 0.83352 0.1384(28) 127377. 0.09526 0.13547
8815.3 0.83421 0.1304(28) 131082. 0.09517 0.12710
8822.7 0.83491 0.1184(28) 131103. 0.09507 0.11808
8830.0 0.83560 0.1163(27) 133090. 0.09498 0.11344
8837.3 0.83630 0.1133(27) 133078. 0.09488 0.11408
8844.7 0.83699 0.1178(27) 133453. 0.09478 0.11849
8852.0 0.83769 0.1222(27) 132713. 0.09469 0.12374
8859.4 0.83838 0.1243(27) 133447. 0.09459 0.12857
8866.7 0.83908 0.1349(27) 134629. 0.09449 0.13279
8874.1 0.83978 0.1383(27) 135015. 0.09439 0.13647
8881.5 0.84047 0.1430(27) 134093. 0.09429 0.14025
8888.9 0.84117 0.1389(27) 132952. 0.09418 0.13909
8896.2 0.84187 0.1319(27) 134949. 0.09408 0.13032
8903.6 0.84257 0.1201(27) 138531. 0.09398 0.12080
8911.0 0.84327 0.1179(27) 138471. 0.09387 0.11620
8918.4 0.84397 0.1203(27) 141245. 0.09377 0.11871
8925.8 0.84467 0.1248(27) 136618. 0.09366 0.12766
8933.3 0.84537 0.1393(27) 136182. 0.09356 0.13811
8940.7 0.84608 0.1420(27) 136987. 0.09345 0.14252
8948.1 0.84678 0.1384(27) 136943. 0.09334 0.14111
8955.5 0.84748 0.1307(27) 139047. 0.09323 0.13617
8963.0 0.84819 0.1269(27) 141484. 0.09312 0.13204
8970.4 0.84889 0.1217(27) 139412. 0.09301 0.13232
8977.9 0.84960 0.1268(27) 140647. 0.09290 0.13296
8985.3 0.85030 0.1216(27) 142084. 0.09279 0.12785
8992.8 0.85101 0.1170(26) 144137. 0.09268 0.11977
9000.3 0.85172 0.1072(26) 145836. 0.09257 0.11314
9007.8 0.85242 0.1071(26) 147349. 0.09246 0.10971
9015.2 0.85313 0.1071(26) 147259. 0.09235 0.10878
9022.7 0.85384 0.1051(26) 151357. 0.09223 0.10805
9030.2 0.85455 0.1025(26) 149889. 0.09212 0.10648
9037.7 0.85526 0.0993(26) 150464. 0.09200 0.10505
9045.3 0.85597 0.0927(26) 149236. 0.09189 0.10450
9052.8 0.85668 0.1001(26) 151934. 0.09177 0.10613
9060.3 0.85740 0.1117(26) 152557. 0.09166 0.11066
9067.8 0.85811 0.1170(26) 150995. 0.09154 0.11710
9075.4 0.85882 0.1287(26) 152815. 0.09142 0.12337
9082.9 0.85953 0.1275(26) 148775. 0.09131 0.12658
9090.4 0.86025 0.1264(26) 151139. 0.09119 0.12291
9098.0 0.86096 0.1128(26) 150234. 0.09107 0.11595
9105.6 0.86168 0.1178(25) 157601. 0.09095 0.11147
9113.1 0.86240 0.1071(25) 155106. 0.09083 0.11087
9120.7 0.86311 0.1123(25) 155722. 0.09071 0.11271
9128.3 0.86383 0.1159(25) 156842. 0.09059 0.11468
9135.9 0.86455 0.1144(25) 154190. 0.09047 0.11419
9143.4 0.86526 0.1144(25) 156348. 0.09035 0.11320
9151.0 0.86598 0.1090(25) 155417. 0.09023 0.11483
9158.6 0.86670 0.1194(25) 157973. 0.09011 0.11916
9166.3 0.86742 0.1213(25) 154857. 0.08999 0.12600
9173.9 0.86814 0.1341(25) 156899. 0.08987 0.13216
9181.5 0.86887 0.1301(25) 155693. 0.08975 0.13131
9189.1 0.86959 0.1247(26) 151538. 0.08963 0.12598
9196.8 0.87031 0.1212(25) 157775. 0.08951 0.12341
9204.4 0.87103 0.1246(25) 158586. 0.08938 0.12470
9212.0 0.87176 0.1205(25) 157427. 0.08926 0.12655
9219.7 0.87248 0.1272(25) 160918. 0.08914 0.12726
9227.4 0.87321 0.1249(25) 159785. 0.08902 0.12376
9235.0 0.87393 0.1157(25) 161666. 0.08889 0.11658
9242.7 0.87466 0.1071(25) 158927. 0.08877 0.11037
9250.4 0.87539 0.1050(25) 160034. 0.08865 0.10624
9258.1 0.87611 0.1044(25) 162618. 0.08853 0.10285
9265.8 0.87684 0.1024(25) 165002. 0.08840 0.10005
9273.5 0.87757 0.1017(24) 167675. 0.08828 0.09859
9281.2 0.87830 0.0944(25) 164399. 0.08816 0.09917
9288.9 0.87903 0.0965(24) 168425. 0.08803 0.10251
9296.6 0.87976 0.1036(25) 165380. 0.08791 0.10765
9304.3 0.88049 0.1056(25) 165497. 0.08779 0.11166
9312.1 0.88122 0.1099(25) 165445. 0.08766 0.11366
9319.8 0.88195 0.1157(24) 166641. 0.08754 0.11797
9327.5 0.88269 0.1250(25) 161744. 0.08742 0.13094
9335.3 0.88342 0.1511(25) 158268. 0.08730 0.15976
9343.0 0.88415 0.1937(26) 153593. 0.08717 0.19986
9350.8 0.88489 0.2172(26) 148053. 0.08705 0.22463
9358.6 0.88562 0.2052(26) 152538. 0.08693 0.20913
9366.3 0.88636 0.1653(26) 153061. 0.08681 0.17323
9374.1 0.88710 0.1422(25) 161765. 0.08669 0.14331
9381.9 0.88783 0.1201(25) 163151. 0.08656 0.12791
9389.7 0.88857 0.1188(25) 165657. 0.08644 0.12496
9397.5 0.88931 0.1246(25) 165552. 0.08632 0.12787
9405.3 0.89005 0.1224(25) 163586. 0.08620 0.12797
9413.1 0.89079 0.1190(24) 168499. 0.08608 0.12379
9421.0 0.89153 0.1167(24) 168232. 0.08596 0.11870
9428.8 0.89227 0.1078(25) 166163. 0.08584 0.11468
9436.6 0.89301 0.1094(24) 169752. 0.08572 0.11370
9444.5 0.89375 0.1037(25) 164999. 0.08560 0.11436
9452.3 0.89449 0.1060(24) 168247. 0.08548 0.11224
9460.2 0.89524 0.1007(24) 166986. 0.08536 0.10708
9468.0 0.89598 0.1019(24) 169778. 0.08524 0.10275
9475.9 0.89673 0.1053(24) 174344. 0.08513 0.10301
9483.8 0.89747 0.1107(24) 168198. 0.08501 0.11084
9491.6 0.89822 0.1179(25) 162937. 0.08489 0.12650
9499.5 0.89896 0.1434(25) 163934. 0.08477 0.14263
9507.4 0.89971 0.1432(25) 163036. 0.08466 0.14499
9515.3 0.90046 0.1318(25) 166533. 0.08454 0.13349
9523.2 0.90121 0.1191(24) 168165. 0.08443 0.12155
9531.1 0.90195 0.1135(24) 170487. 0.08431 0.11757
9539.1 0.90270 0.1248(24) 169553. 0.08420 0.12307
9547.0 0.90345 0.1358(24) 169433. 0.08409 0.13290
9554.9 0.90421 0.1358(25) 165355. 0.08397 0.13792
9562.9 0.90496 0.1311(24) 168611. 0.08386 0.13452
9570.8 0.90571 0.1225(24) 168860. 0.08375 0.12806
9578.8 0.90646 0.1122(24) 169433. 0.08364 0.12011
9586.7 0.90721 0.1099(24) 173206. 0.08353 0.11092
9594.7 0.90797 0.0987(24) 170679. 0.08342 0.10357
9602.7 0.90872 0.1016(24) 175423. 0.08331 0.09897
9610.6 0.90948 0.1010(24) 178088. 0.08320 0.09639
9618.6 0.91023 0.0950(24) 175390. 0.08309 0.09546
9626.6 0.91099 0.0968(24) 176202. 0.08299 0.09594
9634.6 0.91175 0.0969(24) 175809. 0.08288 0.09700
9642.6 0.91250 0.0966(24) 173205. 0.08278 0.10029
9650.6 0.91326 0.1047(24) 174778. 0.08267 0.10747
9658.7 0.91402 0.1171(24) 174466. 0.08257 0.11544
9666.7 0.91478 0.1148(24) 172243. 0.08246 0.11696
9674.7 0.91554 0.1136(24) 174520. 0.08236 0.11111
9682.7 0.91630 0.1038(24) 174607. 0.08226 0.10409
9690.8 0.91706 0.1004(24) 177729. 0.08216 0.09969
9698.8 0.91782 0.0995(24) 178562. 0.08206 0.09968
9706.9 0.91859 0.0980(24) 174024. 0.08196 0.10446
9715.0 0.91935 0.1084(24) 173050. 0.08187 0.11052
9723.0 0.92011 0.1120(24) 174536. 0.08177 0.11155
9731.1 0.92088 0.1091(24) 175462. 0.08167 0.10744
9739.2 0.92164 0.1037(24) 177035. 0.08158 0.10260
9747.3 0.92241 0.0983(24) 177509. 0.08149 0.09916
9755.4 0.92318 0.0990(24) 179246. 0.08139 0.09860
9763.5 0.92394 0.1012(24) 178328. 0.08130 0.10069
9771.6 0.92471 0.1022(24) 179106. 0.08121 0.10219
9779.7 0.92548 0.1012(24) 179285. 0.08112 0.10045
9787.9 0.92625 0.0969(24) 178628. 0.08103 0.09764
9796.0 0.92702 0.0958(24) 179495. 0.08094 0.09861
9804.1 0.92779 0.1100(24) 179799. 0.08086 0.10766
9812.3 0.92856 0.1276(24) 175882. 0.08077 0.12590
9820.4 0.92933 0.1505(24) 170734. 0.08069 0.14602
9828.6 0.93010 0.1554(24) 170699. 0.08061 0.15277
9836.8 0.93088 0.1484(24) 173076. 0.08052 0.14490
9844.9 0.93165 0.1358(24) 174267. 0.08044 0.13516
9853.1 0.93242 0.1231(24) 174393. 0.08036 0.12749
9861.3 0.93320 0.1226(24) 179742. 0.08029 0.11897
9869.5 0.93397 0.1129(23) 181541. 0.08021 0.11253
9877.7 0.93475 0.1072(24) 177158. 0.08013 0.11038
9885.9 0.93553 0.1121(24) 179751. 0.08006 0.10934
9894.1 0.93630 0.1064(23) 181459. 0.07999 0.10492
9902.3 0.93708 0.0971(24) 179579. 0.07991 0.09794
9910.6 0.93786 0.0926(23) 183611. 0.07984 0.09175
9918.8 0.93864 0.0891(23) 184106. 0.07977 0.08757
9927.0 0.93942 0.0849(23) 184520. 0.07971 0.08528
9935.3 0.94020 0.0843(23) 183200. 0.07964 0.08431
9943.5 0.94098 0.0884(23) 188204. 0.07957 0.08420
9951.8 0.94176 0.0855(23) 183451. 0.07951 0.08450
9960.1 0.94255 0.0928(23) 188248. 0.07945 0.08503
9968.4 0.94333 0.0857(23) 182726. 0.07939 0.08589
9976.6 0.94411 0.0872(23) 182451. 0.07933 0.08720
9984.9 0.94490 0.0934(23) 185924. 0.07927 0.09023
9993.2 0.94568 0.0975(23) 185307. 0.07921 0.09628
10001.5 0.94647 0.1071(23) 182489. 0.07916 0.10374
10009.8 0.94726 0.1064(24) 180915. 0.07910 0.10817
10018.2 0.94804 0.1040(24) 180575. 0.07905 0.10770
10026.5 0.94883 0.1074(23) 182756. 0.07900 0.10564
10034.8 0.94962 0.1003(23) 181681. 0.07895 0.10328
10043.1 0.95041 0.1034(23) 183047. 0.07890 0.10201
10051.5 0.95120 0.1070(23) 184503. 0.07885 0.10607
10059.8 0.95199 0.1183(23) 181961. 0.07881 0.11667
10068.2 0.95278 0.1232(23) 182293. 0.07877 0.12685
10076.6 0.95357 0.1243(24) 180553. 0.07872 0.12607
10084.9 0.95436 0.1106(24) 177066. 0.07868 0.11684
10093.3 0.95516 0.1087(23) 184711. 0.07864 0.10702
10101.7 0.95595 0.1004(23) 185712. 0.07861 0.09893
10110.1 0.95674 0.0951(23) 188200. 0.07857 0.09352
10118.5 0.95754 0.0937(23) 188699. 0.07854 0.09118
10126.9 0.95833 0.0905(23) 187399. 0.07850 0.09084
10135.3 0.95913 0.0951(23) 188437. 0.07847 0.09042
10143.7 0.95993 0.0921(23) 187383. 0.07844 0.08922
10152.2 0.96073 0.0894(23) 185952. 0.07842 0.08814
10160.6 0.96152 0.0902(23) 188374. 0.07839 0.08718
10169.1 0.96232 0.0902(23) 187737. 0.07837 0.08694
10177.5 0.96312 0.0906(23) 188584. 0.07834 0.08887
10186.0 0.96392 0.0930(23) 185695. 0.07832 0.09334
10194.4 0.96472 0.0963(23) 184414. 0.07830 0.09816
10202.9 0.96552 0.1028(23) 187403. 0.07829 0.09998
10211.4 0.96633 0.0987(23) 186313. 0.07827 0.09972
10219.9 0.96713 0.1017(23) 187831. 0.07826 0.09881
10228.3 0.96793 0.0965(23) 186918. 0.07824 0.09688
10236.8 0.96874 0.0933(23) 187900. 0.07823 0.09647
10245.4 0.96954 0.0989(23) 187406. 0.07822 0.10068
10253.9 0.97035 0.1077(23) 188414. 0.07821 0.10813
10262.4 0.97115 0.1080(23) 185102. 0.07821 0.11185
10270.9 0.97196 0.1075(23) 188640. 0.07820 0.10709
10279.4 0.97277 0.1000(23) 190442. 0.07820 0.09911
10288.0 0.97358 0.0949(23) 186013. 0.07820 0.09331
10296.5 0.97439 0.0959(23) 191176. 0.07820 0.09172
10305.1 0.97520 0.0992(23) 189835. 0.07821 0.09482
10313.7 0.97601 0.1030(23) 188451. 0.07821 0.10165
10322.2 0.97682 0.1137(23) 188248. 0.07822 0.10809
10330.8 0.97763 0.1080(23) 185050. 0.07823 0.11037
10339.4 0.97844 0.1087(23) 184862. 0.07824 0.11023
10348.0 0.97925 0.1109(23) 187953. 0.07825 0.11074
10356.6 0.98007 0.1103(23) 184680. 0.07826 0.11063
10365.2 0.98088 0.1063(23) 183822. 0.07828 0.11147
10373.8 0.98170 0.1147(23) 185639. 0.07829 0.11774
10382.4 0.98251 0.1267(23) 186074. 0.07831 0.12697
10391.0 0.98333 0.1242(24) 180796. 0.07833 0.12878
10399.7 0.98415 0.1216(23) 183815. 0.07836 0.12025
10408.3 0.98496 0.1090(23) 185316. 0.07838 0.10868
10417.0 0.98578 0.1024(23) 190224. 0.07841 0.09980
10425.6 0.98660 0.0988(23) 190780. 0.07843 0.09455
10434.3 0.98742 0.0932(23) 187147. 0.07846 0.09345
10442.9 0.98824 0.1017(23) 188867. 0.07850 0.09808
10451.6 0.98906 0.1102(23) 188392. 0.07853 0.10838
10460.3 0.98989 0.1236(23) 187223. 0.07856 0.11915
10469.0 0.99071 0.1190(23) 183943. 0.07860 0.12104
10477.7 0.99153 0.1128(23) 184046. 0.07864 0.11497
10486.4 0.99235 0.1082(23) 186794. 0.07868 0.10783
10495.1 0.99318 0.1003(23) 185966. 0.07872 0.10101
10503.8 0.99400 0.0976(23) 190441. 0.07877 0.09502
10512.6 0.99483 0.0943(23) 188235. 0.07881 0.09120
10521.3 0.99566 0.0896(23) 186012. 0.07886 0.08972
10530.0 0.99648 0.0918(23) 187710. 0.07891 0.08938
10538.8 0.99731 0.0898(23) 187178. 0.07896 0.08881
10547.5 0.99814 0.0919(23) 185510. 0.07901 0.08807
10556.3 0.99897 0.0941(23) 188929. 0.07907 0.08769
10565.1 0.99980 0.0907(23) 188797. 0.07913 0.08739
10573.9 1.00063 0.0872(23) 186936. 0.07918 0.08750
10582.7 1.00146 0.0877(23) 187771. 0.07924 0.08914
10591.4 1.00230 0.0947(23) 186807. 0.07931 0.09267
10600.2 1.00313 0.1007(23) 186550. 0.07937 0.09784
10609.1 1.00396 0.1034(23) 185265. 0.07944 0.10643
10617.9 1.00480 0.1230(23) 184302. 0.07950 0.12138
10626.7 1.00563 0.1337(24) 175156. 0.07957 0.13905
10635.5 1.00647 0.1453(24) 178372. 0.07964 0.14498
10644.4 1.00730 0.1357(24) 179803. 0.07972 0.13487
10653.2 1.00814 0.1185(24) 177203. 0.07979 0.12231
10662.1 1.00898 0.1168(23) 183419. 0.07987 0.11631
10670.9 1.00982 0.1178(23) 183320. 0.07995 0.11569
10679.8 1.01065 0.1137(24) 180104. 0.08002 0.11427
10688.7 1.01149 0.1117(23) 183396. 0.08011 0.10907
10697.5 1.01233 0.1054(23) 183685. 0.08019 0.10334
10706.4 1.01318 0.1013(23) 182871. 0.08027 0.09874
10715.3 1.01402 0.1001(23) 185357. 0.08036 0.09436
10724.2 1.01486 0.0963(23) 185578. 0.08045 0.09082
10733.1 1.01570 0.0901(23) 183809. 0.08054 0.08903
10742.0 1.01655 0.0893(23) 183368. 0.08063 0.08890
10751.0 1.01739 0.0935(23) 184304. 0.08072 0.08929
10759.9 1.01824 0.0960(23) 184693. 0.08082 0.08867
10768.8 1.01908 0.0876(23) 184765. 0.08091 0.08740
10777.8 1.01993 0.0876(23) 183140. 0.08101 0.08648
10786.8 1.02078 0.0912(23) 184828. 0.08111 0.08653
10795.7 1.02163 0.0932(23) 182755. 0.08121 0.08836
10804.7 1.02248 0.0981(23) 181886. 0.08132 0.09325
10813.7 1.02332 0.1055(24) 180981. 0.08142 0.10167
10822.6 1.02418 0.1159(24) 177121. 0.08153 0.11078
10831.6 1.02503 0.1175(24) 174523. 0.08164 0.11478
10840.6 1.02588 0.1169(24) 177250. 0.08175 0.11241
10849.6 1.02673 0.1117(24) 177083. 0.08186 0.10954
10858.7 1.02758 0.1162(24) 177567. 0.08197 0.10995
10867.7 1.02844 0.1234(24) 176852. 0.08208 0.11751
10876.7 1.02929 0.1411(24) 172398. 0.08220 0.14060
10885.8 1.03015 0.1865(25) 165908. 0.08232 0.18260
10894.8 1.03100 0.2328(25) 161259. 0.08243 0.22710
10903.9 1.03186 0.2446(25) 157773. 0.08255 0.24058
10912.9 1.03272 0.2153(25) 158537. 0.08268 0.21698
10922.0 1.03358 0.1752(25) 165396. 0.08280 0.18078
10931.1 1.03443 0.1528(24) 173063. 0.08292 0.15133
10940.1 1.03529 0.1318(24) 174999. 0.08305 0.13210
10949.2 1.03615 0.1228(24) 176291. 0.08318 0.12223
10958.3 1.03701 0.1248(24) 174308. 0.08330 0.12325
10967.4 1.03788 0.1381(24) 171268. 0.08343 0.13528
10976.5 1.03874 0.1557(24) 167893. 0.08357 0.15088
10985.7 1.03960 0.1634(24) 168058. 0.08370 0.15618
10994.8 1.04047 0.1547(24) 171119. 0.08383 0.14550
11003.9 1.04133 0.1364(24) 173818. 0.08397 0.12875
11013.1 1.04220 0.1215(24) 175870. 0.08411 0.11503
11022.2 1.04306 0.1137(24) 179928. 0.08424 0.10678
11031.4 1.04393 0.1072(24) 176989. 0.08438 0.10455
11040.5 1.04480 0.1103(24) 179684. 0.08452 0.11043
11049.7 1.04566 0.1280(24) 176177. 0.08466 0.12734
11058.9 1.04653 0.1476(24) 172245. 0.08481 0.15205
11068.1 1.04740 0.1622(24) 169062. 0.08495 0.16915
11077.3 1.04827 0.1603(24) 170101. 0.08510 0.16666
11086.5 1.04914 0.1450(24) 169949. 0.08524 0.15700
11095.7 1.05002 0.1384(24) 170722. 0.08539 0.14887
11104.9 1.05089 0.1335(24) 172373. 0.08554 0.13857
11114.1 1.05176 0.1247(24) 174212. 0.08569 0.12813
11123.4 1.05264 0.1264(24) 175318. 0.08584 0.12519
11132.6 1.05351 0.1320(24) 172352. 0.08599 0.13503
11141.9 1.05438 0.1485(25) 166532. 0.08615 0.15380
11151.1 1.05526 0.1629(25) 166352. 0.08630 0.16556
11160.4 1.05614 0.1516(25) 164695. 0.08646 0.15707
11169.7 1.05702 0.1370(24) 168834. 0.08661 0.13961
11179.0 1.05789 0.1267(24) 171583. 0.08677 0.12482
11188.2 1.05877 0.1154(24) 171740. 0.08693 0.11500
11197.5 1.05965 0.1090(24) 172476. 0.08709 0.11049
11206.8 1.06053 0.1165(24) 171968. 0.08725 0.11303
11216.2 1.06141 0.1188(24) 167069. 0.08741 0.12414
11225.5 1.06230 0.1414(24) 167790. 0.08757 0.14031
11234.8 1.06318 0.1527(25) 165231. 0.08773 0.15229
11244.1 1.06406 0.1582(25) 165620. 0.08790 0.15492
11253.5 1.06495 0.1577(25) 163196. 0.08806 0.15715
11262.8 1.06583 0.1686(25) 162842. 0.08823 0.16224
11272.2 1.06672 0.1653(25) 162386. 0.08839 0.15930
11281.6 1.06760 0.1460(25) 161911. 0.08856 0.14668
11290.9 1.06849 0.1369(25) 165793. 0.08873 0.13627
11300.3 1.06938 0.1364(24) 167816. 0.08889 0.13362
11309.7 1.07027 0.1311(25) 165895. 0.08906 0.13478
11319.1 1.07116 0.1296(25) 166238. 0.08923 0.13108
11328.5 1.07205 0.1199(24) 168703. 0.08940 0.12211
11337.9 1.07294 0.1112(24) 167633. 0.08957 0.11262
11347.3 1.07383 0.1027(24) 168732. 0.08974 0.10548
11356.8 1.07472 0.1042(24) 169740. 0.08992 0.10091
11366.2 1.07561 0.0976(24) 170356. 0.09009 0.09830
11375.6 1.07651 0.0976(24) 169842. 0.09026 0.09713
11385.1 1.07740 0.0975(24) 169235. 0.09043 0.09738
11394.6 1.07830 0.0972(24) 167966. 0.09061 0.09937
11404.0 1.07919 0.1030(24) 167044. 0.09078 0.10359
11413.5 1.08009 0.1089(25) 166357. 0.09096 0.11130
11423.0 1.08099 0.1197(25) 163936. 0.09113 0.12647
11432.5 1.08189 0.1478(25) 160735. 0.09131 0.15115
11442.0 1.08278 0.1734(25) 157484. 0.09148 0.17501
11451.5 1.08368 0.1762(25) 156605. 0.09166 0.17741
11461.0 1.08458 0.1573(25) 157348. 0.09184 0.16257
11470.5 1.08549 0.1451(25) 159852. 0.09201 0.15009
11480.1 1.08639 0.1451(25) 160785. 0.09219 0.14887
11489.6 1.08729 0.1514(25) 158550. 0.09237 0.15496
11499.1 1.08819 0.1543(25) 158417. 0.09254 0.15679
11508.7 1.08910 0.1420(25) 157327. 0.09272 0.14799
11518.3 1.09000 0.1326(25) 160269. 0.09290 0.13353
11527.8 1.09091 0.1191(25) 160638. 0.09308 0.12085
11537.4 1.09182 0.1111(25) 161970. 0.09325 0.11223
11547.0 1.09272 0.1113(25) 161819. 0.09343 0.10756
11556.6 1.09363 0.1111(25) 162686. 0.09361 0.10682
11566.2 1.09454 0.1063(25) 157927. 0.09379 0.11136
11575.8 1.09545 0.1155(25) 155565. 0.09396 0.12288
11585.4 1.09636 0.1386(25) 156613. 0.09414 0.13901
11595.0 1.09727 0.1472(26) 153479. 0.09432 0.15003
11604.7 1.09818 0.1497(25) 153812. 0.09450 0.14756
11614.3 1.09909 0.1363(25) 154355. 0.09467 0.13916
11624.0 1.10001 0.1310(25) 156067. 0.09485 0.13283
11633.6 1.10092 0.1244(25) 154205. 0.09503 0.12728
11643.3 1.10184 0.1152(25) 154897. 0.09521 0.11996
11653.0 1.10275 0.1111(25) 156812. 0.09538 0.11315
11662.6 1.10367 0.1081(25) 156596. 0.09556 0.10921
11672.3 1.10459 0.1084(25) 156843. 0.09573 0.10743
11682.0 1.10550 0.1049(25) 157189. 0.09591 0.10724
11691.7 1.10642 0.0992(25) 154119. 0.09609 0.10696
11701.5 1.10734 0.1001(26) 153058. 0.09626 0.10554
11711.2 1.10826 0.0968(26) 152725. 0.09644 0.10370
11720.9 1.10918 0.0984(26) 153292. 0.09661 0.10250
11730.7 1.11010 0.1030(25) 154998. 0.09678 0.10187
11740.4 1.11103 0.0989(26) 151550. 0.09696 0.10187
11750.2 1.11195 0.1037(26) 153312. 0.09713 0.10308
11759.9 1.11287 0.1027(26) 150016. 0.09730 0.10702
11769.7 1.11380 0.1084(26) 148228. 0.09747 0.11555
11779.5 1.11472 0.1210(26) 146604. 0.09764 0.12795
11789.3 1.11565 0.1283(26) 144920. 0.09782 0.13692
11799.1 1.11658 0.1370(26) 146934. 0.09799 0.13502
11808.9 1.11750 0.1226(26) 145343. 0.09815 0.12757
11818.7 1.11843 0.1175(26) 146160. 0.09832 0.12109
11828.5 1.11936 0.1133(26) 146247. 0.09849 0.11668
11838.3 1.12029 0.1123(26) 145458. 0.09866 0.11366
11848.2 1.12122 0.1109(26) 144786. 0.09882 0.11237
11858.0 1.12215 0.1120(26) 144570. 0.09899 0.11381
11867.9 1.12309 0.1242(26) 143819. 0.09915 0.11971
11877.7 1.12402 0.1359(27) 141729. 0.09932 0.13135
11887.6 1.12495 0.1575(27) 141064. 0.09948 0.14987
11897.5 1.12589 0.1880(27) 135579. 0.09964 0.18216
11907.3 1.12682 0.2417(28) 128843. 0.09980 0.24805
11917.2 1.12776 0.3426(29) 122275. 0.09996 0.34998
11927.1 1.12870 0.4216(29) 116198. 0.10012 0.43118
11937.1 1.12964 0.4132(29) 115803. 0.10028 0.41621
11947.0 1.13057 0.3346(29) 121159. 0.10044 0.34198
11956.9 1.13151 0.2669(28) 127592. 0.10060 0.27300
11966.8 1.13245 0.2263(28) 128673. 0.10075 0.23121
11976.8 1.13339 0.2069(28) 129671. 0.10090 0.21129
11986.7 1.13434 0.2036(28) 131555. 0.10106 0.19765
11996.7 1.13528 0.1871(28) 131595. 0.10121 0.18170
12006.7 1.13622 0.1674(28) 131050. 0.10136 0.16607
12016.6 1.13717 0.1604(27) 133451. 0.10151 0.15734
12026.6 1.13811 0.1488(28) 131903. 0.10166 0.15496
12036.6 1.13906 0.1457(28) 131713. 0.10180 0.15085
12046.6 1.14000 0.1424(27) 132325. 0.10195 0.14279
12056.6 1.14095 0.1348(28) 131627. 0.10209 0.13675
12066.6 1.14190 0.1385(28) 131588. 0.10224 0.13799
12076.7 1.14285 0.1468(28) 130955. 0.10238 0.14540
12086.7 1.14380 0.1533(28) 130159. 0.10252 0.15046
12096.7 1.14475 0.1513(28) 130391. 0.10266 0.14596
12106.8 1.14570 0.1357(28) 129477. 0.10279 0.13639
12116.9 1.14665 0.1288(28) 129872. 0.10293 0.12761
12126.9 1.14760 0.1190(28) 128444. 0.10306 0.12153
12137.0 1.14856 0.1225(28) 129347. 0.10320 0.11795
12147.1 1.14951 0.1154(28) 128064. 0.10333 0.11714
12157.2 1.15047 0.1201(28) 127514. 0.10346 0.11804
12167.3 1.15142 0.1187(28) 125338. 0.10358 0.12373
12177.4 1.15238 0.1391(28) 124642. 0.10371 0.14062
12187.5 1.15334 0.1769(29) 122257. 0.10384 0.17717
12197.6 1.15430 0.2314(29) 117277. 0.10396 0.23007
12207.8 1.15525 0.2688(30) 114854. 0.10408 0.27045
12217.9 1.15621 0.2707(30) 113669. 0.10420 0.26957
12228.1 1.15718 0.2491(30) 114791. 0.10432 0.25579
12238.2 1.15814 0.2458(30) 114498. 0.10444 0.25571
12248.4 1.15910 0.2499(30) 114827. 0.10455 0.25853
12258.6 1.16006 0.2369(30) 114710. 0.10466 0.24071
12268.8 1.16103 0.2109(29) 116480. 0.10478 0.21426
12278.9 1.16199 0.2073(29) 117267. 0.10488 0.20254
12289.2 1.16296 0.2206(30) 114707. 0.10499 0.22152
12299.4 1.16392 0.2874(30) 111520. 0.10510 0.27898
12309.6 1.16489 0.3587(31) 105451. 0.10520 0.35597
12319.8 1.16586 0.4004(31) 102483. 0.10530 0.39961
12330.0 1.16683 0.3765(31) 103230. 0.10540 0.37360
12340.3 1.16780 0.3179(31) 104866. 0.10550 0.32293
12350.5 1.16877 0.2804(30) 108551. 0.10560 0.28850
12360.8 1.16974 0.2618(30) 108478. 0.10569 0.26904
12371.1 1.17071 0.2494(30) 109969. 0.10579 0.24807
12381.4 1.17168 0.2445(30) 109920. 0.10588 0.23851
12391.6 1.17266 0.2741(30) 107729. 0.10596 0.27231
12401.9 1.17363 0.3709(31) 102323. 0.10605 0.37273
12412.2 1.17461 0.5007(32) 95873. 0.10614 0.51142
12422.6 1.17558 0.5698(33) 93111. 0.10622 0.57516
12432.9 1.17656 0.5050(32) 95038. 0.10630 0.50849
12443.2 1.17754 0.3950(32) 100776. 0.10638 0.39802
12453.6 1.17851 0.2985(31) 105709. 0.10645 0.30584
12463.9 1.17949 0.2393(30) 108898. 0.10653 0.24286
12474.3 1.18047 0.2030(30) 110605. 0.10660 0.20180
12484.6 1.18145 0.1817(30) 112763. 0.10667 0.17511
12495.0 1.18244 0.1686(30) 112809. 0.10674 0.15821
12505.4 1.18342 0.1614(30) 111733. 0.10680 0.15102
12515.8 1.18440 0.1682(30) 111386. 0.10686 0.15765
12526.2 1.18539 0.1989(30) 110401. 0.10692 0.18696
12536.6 1.18637 0.2551(31) 107076. 0.10698 0.24143
12547.0 1.18736 0.3171(31) 103191. 0.10704 0.29892
12557.4 1.18834 0.3268(31) 102063. 0.10709 0.31162
12567.8 1.18933 0.2942(31) 104377. 0.10715 0.27603
12578.3 1.19032 0.2479(30) 107865. 0.10720 0.23268
12588.7 1.19131 0.2066(30) 109263. 0.10724 0.20052
12599.2 1.19230 0.1817(30) 110358. 0.10729 0.17841
12609.7 1.19329 0.1654(30) 110980. 0.10733 0.16011
12620.1 1.19428 0.1464(30) 111577. 0.10737 0.14598
12630.6 1.19527 0.1404(30) 113316. 0.10741 0.13747
12641.1 1.19627 0.1434(30) 112865. 0.10745 0.13686
12651.6 1.19726 0.1497(30) 112831. 0.10748 0.14698
12662.1 1.19825 0.1680(30) 111267. 0.10751 0.16753
12672.7 1.19925 0.1838(30) 110659. 0.10754 0.18469
12683.2 1.20025 0.1804(30) 110117. 0.10757 0.18095
12693.7 1.20124 0.1652(30) 110808. 0.10759 0.16660
12704.3 1.20224 0.1572(30) 112089. 0.10761 0.15444
12714.8 1.20324 0.1530(30) 113540. 0.10763 0.14721
12725.4 1.20424 0.1516(30) 114285. 0.10765 0.14098
12736.0 1.20524 0.1363(30) 114060. 0.10766 0.13440
12746.6 1.20624 0.1388(30) 114451. 0.10767 0.13066
12757.2 1.20725 0.1390(30) 114548. 0.10768 0.13313
12767.8 1.20825 0.1440(30) 113595. 0.10769 0.14324
12778.4 1.20925 0.1629(30) 113584. 0.10770 0.15620
12789.0 1.21026 0.1607(30) 113254. 0.10770 0.15985
12799.6 1.21126 0.1565(30) 113795. 0.10770 0.15232
12810.2 1.21227 0.1462(29) 115414. 0.10770 0.14166
12820.9 1.21328 0.1343(29) 115598. 0.10769 0.13300
12831.5 1.21428 0.1278(29) 115830. 0.10768 0.12749
12842.2 1.21529 0.1228(29) 115549. 0.10767 0.12462
12852.9 1.21630 0.1301(29) 117544. 0.10766 0.12275
12863.5 1.21731 0.1270(29) 116953. 0.10765 0.12270
12874.2 1.21833 0.1307(29) 117396. 0.10763 0.12609
12884.9 1.21934 0.1455(29) 116549. 0.10761 0.13827
12895.6 1.22035 0.1812(29) 115560. 0.10759 0.17065
12906.4 1.22137 0.2375(30) 111624. 0.10757 0.23579
12917.1 1.22238 0.3202(31) 106102. 0.10754 0.32481
12927.8 1.22340 0.3760(31) 103403. 0.10751 0.38612
12938.6 1.22441 0.3674(31) 105334. 0.10748 0.36834
12949.3 1.22543 0.3097(30) 108760. 0.10744 0.31404
12960.1 1.22645 0.2637(30) 111563. 0.10741 0.27142
12970.8 1.22747 0.2401(30) 114379. 0.10737 0.24837
12981.6 1.22849 0.2185(29) 115411. 0.10733 0.22701
12992.4 1.22951 0.1982(29) 117941. 0.10728 0.19907
13003.2 1.23053 0.1697(29) 118777. 0.10724 0.17334
13014.0 1.23155 0.1542(29) 120689. 0.10719 0.15508
13024.8 1.23258 0.1439(29) 121953. 0.10714 0.14479
13035.6 1.23360 0.1453(29) 122157. 0.10709 0.14211
13046.5 1.23462 0.1479(29) 122918. 0.10703 0.14538
13057.3 1.23565 0.1514(29) 122607. 0.10697 0.15014
13068.2 1.23668 0.1607(28) 125397. 0.10691 0.15117
13079.0 1.23770 0.1545(28) 123695. 0.10685 0.15334
13089.9 1.23873 0.1737(28) 125493. 0.10678 0.16743
13100.8 1.23976 0.1919(29) 122500. 0.10672 0.19463
13111.6 1.24079 0.2115(29) 122566. 0.10665 0.21536
13122.5 1.24182 0.2093(28) 124330. 0.10657 0.20782
13133.4 1.24286 0.1848(28) 125672. 0.10650 0.18591
13144.4 1.24389 0.1573(28) 125736. 0.10642 0.16747
13155.3 1.24492 0.1567(28) 129371. 0.10634 0.16100
13166.2 1.24596 0.1775(28) 129007. 0.10626 0.17597
13177.1 1.24699 0.2214(28) 125647. 0.10618 0.22420
13188.1 1.24803 0.3001(29) 120539. 0.10609 0.29894
13199.1 1.24906 0.3459(29) 118333. 0.10600 0.34709
13210.0 1.25010 0.3364(29) 120407. 0.10591 0.32431
13221.0 1.25114 0.2649(29) 122137. 0.10582 0.27071
13232.0 1.25218 0.2222(28) 129618. 0.10572 0.22260
13243.0 1.25322 0.1809(28) 131410. 0.10563 0.18931
13254.0 1.25426 0.1630(27) 134882. 0.10553 0.16623
13265.0 1.25530 0.1484(27) 136041. 0.10543 0.14926
13276.0 1.25635 0.1356(27) 135990. 0.10532 0.13727
13287.0 1.25739 0.1303(27) 137105. 0.10522 0.12994
13298.1 1.25844 0.1316(27) 138653. 0.10511 0.12781
13309.1 1.25948 0.1324(27) 136762. 0.10500 0.13355
13320.2 1.26053 0.1450(27) 134482. 0.10489 0.15000
13331.3 1.26158 0.1759(27) 134947. 0.10477 0.17286
13342.3 1.26262 0.1854(27) 134729. 0.10466 0.18363
13353.4 1.26367 0.1751(27) 135821. 0.10454 0.17323
13364.5 1.26472 0.1596(27) 138698. 0.10442 0.15578
13375.6 1.26577 0.1415(27) 141308. 0.10430 0.14111
13386.7 1.26683 0.1260(27) 141851. 0.10417 0.13085
13397.9 1.26788 0.1228(26) 143636. 0.10405 0.12411
13409.0 1.26893 0.1171(27) 142099. 0.10392 0.11999
13420.1 1.26999 0.1149(26) 143737. 0.10379 0.11794
13431.3 1.27104 0.1181(26) 144103. 0.10366 0.11892
13442.4 1.27210 0.1265(26) 142947. 0.10352 0.12610
13453.6 1.27315 0.1537(27) 141977. 0.10339 0.14811
13464.8 1.27421 0.1974(27) 137863. 0.10325 0.19545
13476.0 1.27527 0.2634(28) 132105. 0.10311 0.26171
13487.2 1.27633 0.3020(28) 128357. 0.10297 0.30206
13498.4 1.27739 0.2935(28) 131330. 0.10283 0.28341
13509.6 1.27845 0.2461(27) 134940. 0.10268 0.24388
13520.8 1.27952 0.2078(27) 137432. 0.10254 0.21509
13532.1 1.28058 0.1986(27) 139545. 0.10239 0.20201
13543.3 1.28164 0.1896(27) 141253. 0.10224 0.19205
13554.6 1.28271 0.1763(26) 143020. 0.10209 0.17439
13565.8 1.28377 0.1503(26) 144887. 0.10194 0.15553
13577.1 1.28484 0.1441(26) 148092. 0.10178 0.14129
13588.4 1.28591 0.1298(26) 147087. 0.10163 0.13340
13599.7 1.28698 0.1367(26) 149220. 0.10147 0.13370
13611.0 1.28805 0.1462(26) 146965. 0.10131 0.14570
13622.3 1.28912 0.1705(26) 145607. 0.10115 0.16916
13633.6 1.29019 0.1910(26) 144442. 0.10099 0.19129
13644.9 1.29126 0.1922(26) 143664. 0.10083 0.19015
13656.3 1.29233 0.1724(26) 146927. 0.10066 0.17158
13667.6 1.29341 0.1532(26) 149611. 0.10050 0.15244
13679.0 1.29448 0.1361(26) 150874. 0.10033 0.13872
13690.3 1.29556 0.1285(26) 151158. 0.10016 0.12970
13701.7 1.29663 0.1204(25) 154622. 0.09999 0.12278
13713.1 1.29771 0.1143(25) 154071. 0.09982 0.11713
13724.5 1.29879 0.1159(25) 156062. 0.09965 0.11294
13735.9 1.29987 0.1013(25) 154789. 0.09948 0.11034
13747.3 1.30095 0.1067(25) 156051. 0.09931 0.10965
13758.7 1.30203 0.1124(25) 157213. 0.09913 0.11228
13770.2 1.30311 0.1179(25) 155717. 0.09896 0.12056
13781.6 1.30419 0.1274(25) 154296. 0.09878 0.13420
13793.0 1.30528 0.1407(25) 154125. 0.09861 0.14447
13804.5 1.30636 0.1432(25) 154716. 0.09843 0.14397
13816.0 1.30745 0.1378(25) 153846. 0.09825 0.14190
13827.5 1.30853 0.1500(26) 153648. 0.09807 0.15057
13839.0 1.30962 0.1738(26) 150711. 0.09789 0.17370
13850.4 1.31071 0.2004(26) 150082. 0.09771 0.19652
13862.0 1.31180 0.1990(26) 148949. 0.09753 0.19398
13873.5 1.31289 0.1777(26) 151139. 0.09735 0.17370
13885.0 1.31398 0.1525(26) 153423. 0.09716 0.15353
13896.5 1.31507 0.1382(25) 157331. 0.09698 0.13920
13908.1 1.31616 0.1315(25) 157045. 0.09680 0.13240
13919.6 1.31726 0.1365(25) 156684. 0.09661 0.13698
13931.2 1.31835 0.1559(25) 153895. 0.09643 0.16008
13942.8 1.31945 0.1958(26) 149956. 0.09624 0.20075
13954.4 1.32054 0.2290(26) 146708. 0.09606 0.23232
13966.0 1.32164 0.2234(26) 148341. 0.09588 0.22440
13977.6 1.32274 0.1944(26) 150807. 0.09569 0.19677
13989.2 1.32384 0.1673(25) 154215. 0.09550 0.17384
14000.8 1.32494 0.1590(25) 157153. 0.09532 0.16244
14012.4 1.32604 0.1487(25) 156927. 0.09513 0.15794
14024.1 1.32714 0.1444(25) 156323. 0.09495 0.14984
14035.7 1.32824 0.1358(25) 157706. 0.09476 0.13769
14047.4 1.32935 0.1232(25) 159182. 0.09458 0.12700
14059.1 1.33045 0.1194(25) 161286. 0.09439 0.12028
14070.8 1.33156 0.1179(25) 161301. 0.09421 0.11884
14082.4 1.33266 0.1265(25) 161948. 0.09402 0.12444
14094.1 1.33377 0.1361(25) 158695. 0.09384 0.13708
14105.9 1.33488 0.1500(25) 157614. 0.09366 0.15127
14117.6 1.33599 0.1580(25) 156580. 0.09347 0.16062
14129.3 1.33710 0.1617(25) 155664. 0.09329 0.15887
14141.0 1.33821 0.1584(25) 158099. 0.09311 0.15188
14152.8 1.33932 0.1656(25) 158084. 0.09293 0.15523
14164.6 1.34043 0.1908(25) 154779. 0.09275 0.18143
14176.3 1.34155 0.2320(26) 150093. 0.09257 0.22728
14188.1 1.34266 0.2654(26) 146041. 0.09239 0.25598
14199.9 1.34378 0.2533(26) 148032. 0.09221 0.23904
14211.7 1.34489 0.2092(26) 150798. 0.09203 0.20468
14223.5 1.34601 0.1766(25) 155080. 0.09186 0.17652
14235.3 1.34713 0.1630(25) 157581. 0.09168 0.16326
14247.1 1.34825 0.1683(25) 155543. 0.09151 0.17162
14259.0 1.34937 0.1973(25) 153797. 0.09133 0.20387
14270.8 1.35049 0.2289(26) 150285. 0.09116 0.23935
14282.7 1.35161 0.2309(26) 148798. 0.09099 0.23922
14294.6 1.35274 0.2082(26) 152146. 0.09082 0.21126
14306.4 1.35386 0.1746(25) 155513. 0.09066 0.17964
14318.3 1.35499 0.1482(25) 158880. 0.09049 0.15391
14330.2 1.35611 0.1283(25) 159683. 0.09033 0.13533
14342.1 1.35724 0.1164(25) 162223. 0.09016 0.12256
14354.0 1.35837 0.1095(25) 163164. 0.09000 0.11414
14366.0 1.35949 0.1075(25) 165110. 0.08984 0.10794
14377.9 1.36062 0.1020(25) 163858. 0.08968 0.10315
14389.9 1.36175 0.1047(24) 167277. 0.08953 0.09952
14401.8 1.36289 0.0968(25) 164543. 0.08938 0.09688
14413.8 1.36402 0.0935(25) 165132. 0.08922 0.09498
14425.8 1.36515 0.0951(25) 165750. 0.08907 0.09361
14437.7 1.36629 0.0963(25) 165387. 0.08893 0.09263
14449.7 1.36742 0.0942(25) 166565. 0.08878 0.09192
14461.7 1.36856 0.0962(24) 166690. 0.08864 0.09142
14473.8 1.36970 0.0916(25) 166289. 0.08850 0.09114
14485.8 1.37083 0.0962(24) 167757. 0.08836 0.09094
14497.8 1.37197 0.0918(25) 166434. 0.08823 0.09093
14509.9 1.37311 0.0911(25) 165435. 0.08809 0.09155
14521.9 1.37425 0.0944(25) 164459. 0.08796 0.09342
14534.0 1.37540 0.0981(25) 164903. 0.08784 0.09624
14546.1 1.37654 0.1001(25) 165208. 0.08771 0.09852
14558.2 1.37768 0.0984(25) 165418. 0.08759 0.09801
14570.3 1.37883 0.0939(25) 163643. 0.08747 0.09631
14582.4 1.37997 0.0976(25) 165265. 0.08736 0.09500
14594.5 1.38112 0.0974(25) 165708. 0.08725 0.09473
14606.6 1.38227 0.1049(25) 166508. 0.08714 0.09641
14618.7 1.38342 0.1085(25) 166151. 0.08703 0.10254
14630.9 1.38456 0.1235(25) 162826. 0.08693 0.11972
14643.0 1.38572 0.1558(25) 159539. 0.08683 0.15331
14655.2 1.38687 0.1898(25) 155141. 0.08674 0.19653
14667.4 1.38802 0.2096(26) 151287. 0.08665 0.21544
14679.6 1.38917 0.1951(26) 153028. 0.08656 0.19728
14691.8 1.39033 0.1640(25) 156878. 0.08647 0.16889
14704.0 1.39148 0.1438(25) 160542. 0.08639 0.14534
14716.2 1.39264 0.1209(25) 162661. 0.08632 0.12864
14728.4 1.39380 0.1118(25) 162488. 0.08625 0.11719
14740.7 1.39495 0.1117(25) 165960. 0.08618 0.10899
14752.9 1.39611 0.0979(25) 163733. 0.08612 0.10297
14765.2 1.39727 0.1025(24) 167076. 0.08606 0.09857
14777.4 1.39843 0.0980(24) 167657. 0.08600 0.09564
14789.7 1.39960 0.0990(25) 166296. 0.08595 0.09410
14802.0 1.40076 0.0982(24) 168067. 0.08590 0.09440
14814.3 1.40192 0.1001(25) 164467. 0.08586 0.09721
14826.6 1.40309 0.1049(25) 166058. 0.08583 0.10194
14838.9 1.40425 0.1066(25) 164326. 0.08579 0.10497
14851.3 1.40542 0.1077(25) 164913. 0.08577 0.10527
14863.6 1.40659 0.1063(25) 166146. 0.08574 0.10373
14876.0 1.40776 0.1024(25) 165217. 0.08573 0.10174
14888.3 1.40893 0.1117(24) 168426. 0.08571 0.10252
14900.7 1.41010 0.1118(25) 165862. 0.08571 0.11111
14913.1 1.41127 0.1325(25) 163068. 0.08570 0.13270
14925.5 1.41244 0.1625(25) 159907. 0.08571 0.16223
14937.9 1.41361 0.1741(25) 158026. 0.08572 0.17430
14950.3 1.41479 0.1628(25) 158610. 0.08573 0.16142
14962.7 1.41596 0.1423(25) 161931. 0.08575 0.14239
14975.1 1.41714 0.1284(25) 165063. 0.08577 0.12679
14987.6 1.41832 0.1158(25) 166235. 0.08581 0.11574
15000.0 1.41950 0.1122(24) 169212. 0.08584 0.10851
15012.5 1.42068 0.1024(25) 166510. 0.08588 0.10472
15025.0 1.42186 0.1074(24) 167564. 0.08593 0.10623
15037.4 1.42304 0.1153(25) 166310. 0.08598 0.11530
15049.9 1.42422 0.1285(25) 163885. 0.08604 0.13122
15062.4 1.42540 0.1406(25) 163400. 0.08611 0.14136
15075.0 1.42659 0.1381(25) 164256. 0.08618 0.13640
15087.5 1.42777 0.1276(25) 164796. 0.08626 0.12657
15100.0 1.42896 0.1225(25) 164860. 0.08634 0.12119
15112.6 1.43015 0.1292(25) 164059. 0.08643 0.12551
15125.1 1.43134 0.1425(25) 163158. 0.08653 0.14049
15137.7 1.43253 0.1546(25) 159239. 0.08663 0.15443
15150.3 1.43372 0.1561(25) 161153. 0.08674 0.15056
15162.9 1.43491 0.1454(25) 164139. 0.08685 0.13662
15175.5 1.43610 0.1265(25) 165293. 0.08698 0.12342
15188.1 1.43729 0.1099(25) 165817. 0.08710 0.11371
15200.7 1.43849 0.1085(24) 169979. 0.08724 0.10692
15213.3 1.43968 0.1037(24) 170191. 0.08738 0.10242
15226.0 1.44088 0.0978(24) 167217. 0.08753 0.09993
15238.6 1.44208 0.0967(24) 168617. 0.08768 0.09988
15251.3 1.44327 0.1046(24) 170376. 0.08784 0.10311
15263.9 1.44447 0.1052(24) 167513. 0.08801 0.10887
15276.6 1.44567 0.1127(24) 169212. 0.08818 0.11153
15289.3 1.44688 0.1149(24) 168991. 0.08836 0.11043
15302.0 1.44808 0.1165(24) 168360. 0.08855 0.11070
15314.7 1.44928 0.1257(24) 168387. 0.08874 0.11954
15327.5 1.45048 0.1480(25) 164163. 0.08894 0.14722
15340.2 1.45169 0.1936(25) 157583. 0.08915 0.19664
15352.9 1.45290 0.2327(25) 153835. 0.08936 0.23772
15365.7 1.45410 0.2324(26) 152844. 0.08958 0.23113
15378.5 1.45531 0.2054(25) 158298. 0.08981 0.20068
15391.2 1.45652 0.1681(25) 162721. 0.09004 0.17154
15404.0 1.45773 0.1433(25) 165445. 0.09028 0.15025
15416.8 1.45894 0.1323(24) 167196. 0.09052 0.13687
15429.6 1.46015 0.1294(24) 168579. 0.09077 0.13223
15442.5 1.46137 0.1351(25) 166571. 0.09103 0.13898
15455.3 1.46258 0.1428(25) 163003. 0.09129 0.15550
15468.1 1.46380 0.1637(25) 162700. 0.09156 0.16777
15481.0 1.46501 0.1649(25) 160698. 0.09183 0.16830
15493.9 1.46623 0.1569(25) 161575. 0.09211 0.16230
15506.7 1.46745 0.1486(25) 163165. 0.09240 0.15047
15519.6 1.46867 0.1311(25) 162240. 0.09269 0.13963
15532.5 1.46989 0.1387(25) 166160. 0.09298 0.13623
15545.4 1.47111 0.1489(25) 162097. 0.09328 0.14844
15558.3 1.47233 0.1793(25) 157557. 0.09359 0.18433
15571.3 1.47356 0.2250(26) 150991. 0.09390 0.23170
15584.2 1.47478 0.2484(26) 148211. 0.09422 0.24441
15597.1 1.47601 0.2243(26) 148747. 0.09454 0.21948
15610.1 1.47723 0.1888(26) 151446. 0.09486 0.18886
15623.1 1.47846 0.1541(26) 152020. 0.09519 0.16485
15636.1 1.47969 0.1376(26) 153322. 0.09552 0.14822
15649.0 1.48092 0.1305(25) 155965. 0.09586 0.13767
15662.1 1.48215 0.1286(26) 153451. 0.09619 0.13314
15675.1 1.48338 0.1327(26) 148189. 0.09653 0.13872
15688.1 1.48461 0.1738(26) 144891. 0.09688 0.16831
15701.1 1.48585 0.2468(27) 135931. 0.09722 0.24146
15714.2 1.48708 0.3417(28) 123233. 0.09757 0.34523
15727.2 1.48832 0.4052(29) 117385. 0.09792 0.39107
15740.3 1.48955 0.3796(29) 118105. 0.09827 0.34991
15753.4 1.49079 0.3053(29) 121476. 0.09862 0.28847
15766.5 1.49203 0.2421(28) 124464. 0.09897 0.23997
15779.6 1.49327 0.2002(28) 126027. 0.09933 0.21098
15792.7 1.49451 0.1928(28) 126146. 0.09968 0.20206
15805.8 1.49575 0.1952(28) 124770. 0.10003 0.20473
15818.9 1.49699 0.1861(29) 120093. 0.10037 0.19684
15832.1 1.49824 0.1752(29) 119689. 0.10072 0.17711
15845.2 1.49948 0.1541(29) 119729. 0.10106 0.15790
15858.4 1.50073 0.1379(29) 120160. 0.10140 0.14353
15871.6 1.50198 0.1318(29) 119099. 0.10174 0.13364
15884.8 1.50322 0.1216(29) 117324. 0.10207 0.12701
15898.0 1.50447 0.1224(29) 117351. 0.10240 0.12343
15911.2 1.50572 0.1208(29) 115220. 0.10272 0.12381
15924.4 1.50697 0.1389(30) 111525. 0.10303 0.13231
15937.6 1.50823 0.1611(30) 107971. 0.10334 0.15687
15950.9 1.50948 0.2107(31) 103250. 0.10364 0.19893
15964.1 1.51073 0.2407(32) 100438. 0.10393 0.22969
15977.4 1.51199 0.2475(32) 99606. 0.10421 0.22046
15990.7 1.51325 0.2137(32) 100200. 0.10448 0.19520
16003.9 1.51450 0.1812(31) 101380. 0.10473 0.17399
16017.2 1.51576 0.1718(31) 101227. 0.10498 0.16329
16030.5 1.51702 0.1685(32) 98875. 0.10521 0.16789
16043.9 1.51828 0.1864(32) 96585. 0.10543 0.18786
16057.2 1.51954 0.2078(33) 94369. 0.10563 0.20305
16070.5 1.52081 0.2030(33) 93962. 0.10581 0.19285
16083.9 1.52207 0.1814(32) 95190. 0.10598 0.17274
16097.3 1.52333 0.1555(32) 95096. 0.10613 0.15523
16110.6 1.52460 0.1406(33) 94357. 0.10625 0.14191
16124.0 1.52587 0.1202(33) 93566. 0.10636 0.13305
16137.4 1.52713 0.1185(33) 93838. 0.10644 0.12687
16150.8 1.52840 0.1207(33) 93484. 0.10649 0.12310
16164.3 1.52967 0.1190(33) 90575. 0.10653 0.12229
16177.7 1.53094 0.1269(34) 87551. 0.10653 0.12762
16191.1 1.53222 0.1489(34) 84676. 0.10650 0.14490
16204.6 1.53349 0.176(4) 81189. 0.1064 0.1740
16218.0 1.53476 0.196(4) 77843. 0.1064 0.1915
16231.5 1.53604 0.194(4) 78077. 0.1062 0.1820
16245.0 1.53732 0.167(4) 76826. 0.1061 0.1639
16258.5 1.53859 0.139(4) 75442. 0.1059 0.1485
16272.0 1.53987 0.127(4) 76431. 0.1056 0.1376
16285.5 1.54115 0.120(4) 75556. 0.1054 0.1311
16299.1 1.54243 0.116(4) 73930. 0.1050 0.1286
16312.6 1.54371 0.118(4) 72179. 0.1047 0.1271
16326.2 1.54500 0.118(4) 70937. 0.1042 0.1233
16339.7 1.54628 0.118(4) 69779. 0.1038 0.1186
16353.3 1.54756 0.105(4) 66044. 0.1033 0.1145
16366.9 1.54885 0.110(4) 65310. 0.1027 0.1120
16380.5 1.55014 0.095(4) 63696. 0.1020 0.1099
16394.1 1.55143 0.105(4) 63038. 0.1013 0.1085
16407.7 1.55271 0.101(4) 59817. 0.1006 0.1079
16421.4 1.55400 0.104(4) 57036. 0.0998 0.1087
16435.0 1.55530 0.122(4) 55765. 0.0989 0.1140
16448.7 1.55659 0.142(4) 51234. 0.0979 0.1310
16462.3 1.55788 0.172(5) 47147. 0.0968 0.1674
16476.0 1.55918 0.215(5) 44383. 0.0957 0.2076
16489.7 1.56047 0.218(5) 42510. 0.0945 0.2106
16503.4 1.56177 0.200(5) 42599. 0.0932 0.1866
16517.1 1.56307 0.176(5) 41745. 0.0919 0.1611
16530.8 1.56436 0.144(5) 40893. 0.0904 0.1412
16544.6 1.56566 0.124(5) 40549. 0.0888 0.1262
16558.3 1.56697 0.113(5) 39441. 0.0871 0.1151
16572.1 1.56827 0.108(5) 39212. 0.0854 0.1066
16585.8 1.56957 0.100(5) 39157. 0.0835 0.1002
16599.6 1.57087 0.087(5) 38423. 0.0815 0.0950
16613.4 . 0.116(7) . . .
16624.0 . -0.0000201(16) . . .
loop_
_refln_index_h
_refln_index_k
_refln_index_l
_refln_observed_status
_refln_F_squared_meas
_refln_F_squared_calc
_refln_phase_calc
_refln_d_spacing
_gsas_i100_meas
15 3 3 o 82.543 77.535 180.00 1.55630 1.35
9 9 9 o 997.970 937.418 0.00 1.55630 5.44
11 11 1 o 1882.978 1768.729 0.00 1.55630 30.79
13 7 5 o 41.774 39.239 0.00 1.55630 1.37
12 8 6 o 4.298 4.011 0.00 1.55310 0.14
12 10 2 o 22.920 39.630 180.00 1.54053 0.72
14 6 4 o 35.585 61.530 0.00 1.54053 1.12
11 9 7 o 676.702 723.948 0.00 1.53129 20.74
11 11 3 o 0.077 0.082 180.00 1.53129 0.00
13 9 1 o 2.658 2.843 180.00 1.53129 0.08
15 5 1 o 84.325 90.213 0.00 1.53129 2.58
16 0 0 o 6595.271 6593.368 0.00 1.51627 24.29
15 5 3 o 1277.386 1148.025 0.00 1.50746 36.77
13 9 3 o 125.091 112.423 180.00 1.50746 3.60
12 10 4 o 20.587 18.871 180.00 1.50456 0.59
16 2 2 o 430.332 463.170 0.00 1.49312 5.96
14 8 2 o 0.002 0.002 0.00 1.49312 0.00
10 10 8 o 768.646 827.300 0.00 1.49312 10.65
11 11 5 o 6129.408 6022.727 180.00 1.48470 83.01
13 7 7 o 260.289 255.759 180.00 1.48470 3.53
14 6 6 o 0.845 0.844 180.00 1.48193 0.01
16 4 0 o 0.209 0.217 0.00 1.47099 0.00
12 8 8 o 3060.936 3177.041 0.00 1.47099 39.94
13 9 5 o 17.667 18.735 180.00 1.46295 0.45
15 5 5 o 437.406 463.840 180.00 1.46295 5.58
15 7 1 o 48.935 51.893 180.00 1.46295 1.25
14 8 4 o 3.826 4.136 180.00 1.46030 0.10
16 4 2 o 554.624 599.618 180.00 1.46030 14.06
12 10 6 o 1694.250 1726.580 180.00 1.44983 41.73
15 7 3 o 6.655 6.339 180.00 1.44212 0.16
11 9 9 o 403.713 384.525 0.00 1.44212 4.87
16 4 4 o 76.560 73.192 180.00 1.42955 0.89
12 12 0 o 2886.491 2759.512 0.00 1.42955 16.80
11 11 7 o 129.394 127.392 180.00 1.42216 1.48
13 11 1 o 143.328 141.110 0.00 1.42216 3.27
17 1 1 o 822.736 810.005 180.00 1.42216 9.38
12 12 2 o 32.300 32.066 180.00 1.41972 0.37
14 10 0 o 20.657 20.191 0.00 1.41010 0.23
14 8 6 o 1080.638 1056.218 180.00 1.41010 23.82
16 6 2 o 25.558 24.981 0.00 1.41010 0.56
13 11 3 o 2.638 2.324 180.00 1.40301 0.06
13 9 7 o 31.370 27.644 180.00 1.40301 0.68
15 7 5 o 0.119 0.105 0.00 1.40301 0.00
17 3 1 o 60.574 53.380 180.00 1.40301 1.31
10 10 10 o 6.520 5.621 0.00 1.40067 0.02
14 10 2 o 185.870 160.243 180.00 1.40067 3.99
12 12 4 o 48.358 45.828 180.00 1.39142 0.51
17 3 3 o 3275.549 3288.270 180.00 1.38461 33.55
15 9 1 o 25.116 25.214 0.00 1.38461 0.51
12 10 8 o 54.992 51.100 180.00 1.38236 1.12
16 6 4 o 30.927 28.738 180.00 1.38236 0.63
14 10 4 o 144.090 124.039 0.00 1.37347 2.86
15 9 3 o 0.627 0.374 0.00 1.36691 0.01
17 5 1 o 5.365 3.203 0.00 1.36691 0.10
13 11 5 o 1.365 0.815 180.00 1.36691 0.03
16 8 0 o 55.514 51.722 180.00 1.35619 0.52
11 11 9 o 82.876 87.218 0.00 1.34988 0.77
15 7 7 o 159.224 167.564 180.00 1.34988 1.47
17 5 3 o 2.670 2.809 0.00 1.34988 0.05
14 8 8 o 0.002 0.003 0.00 1.34779 0.00
12 12 6 o 452.103 474.542 0.00 1.34779 4.16
16 8 2 o 1610.692 1690.635 0.00 1.34779 29.63
18 2 0 o 1.930 1.851 180.00 1.33955 0.02
16 6 6 o 4617.441 4429.267 0.00 1.33955 41.44
15 9 5 o 266.303 255.706 180.00 1.33346 4.69
13 9 9 o 747.739 717.985 180.00 1.33346 6.59
18 2 2 o 689.894 678.777 180.00 1.33145 6.04
14 10 6 o 28.970 28.503 180.00 1.33145 0.51
16 8 4 o 426.843 458.431 180.00 1.32351 7.30
17 7 1 o 179.688 187.488 0.00 1.31764 3.02
13 11 7 o 130.021 135.665 0.00 1.31764 2.18
17 5 5 o 2750.335 2869.724 0.00 1.31764 23.11
13 13 1 o 492.365 513.738 0.00 1.31764 4.14
12 10 10 o 898.045 891.997 0.00 1.30803 7.33
14 12 2 o 982.173 975.559 0.00 1.30803 16.03
18 4 2 o 9.263 9.200 0.00 1.30803 0.15
13 13 3 o 1126.932 1208.008 0.00 1.30236 9.04
17 7 3 o 18.890 20.250 0.00 1.30236 0.30
15 11 1 o 25.666 27.512 0.00 1.30236 0.41
12 12 8 o 134.075 150.008 180.00 1.29308 1.04
15 9 7 o 141.417 143.152 0.00 1.28760 2.17
15 11 3 o 1206.386 1221.180 0.00 1.28760 18.48
14 12 4 o 83.688 83.686 0.00 1.28579 1.28
18 4 4 o 11.340 11.339 180.00 1.28579 0.09
16 8 6 o 4.048 4.048 180.00 1.28579 0.06
16 10 2 o 314.418 320.281 180.00 1.27863 4.68
14 10 8 o 399.866 407.322 180.00 1.27863 5.96
18 6 0 o 56.700 57.758 180.00 1.27863 0.42
17 7 5 o 693.441 689.111 0.00 1.27333 10.16
11 11 11 o 11633.634 11560.984 0.00 1.27333 28.41
19 1 1 o 31.189 30.994 0.00 1.27333 0.23
13 13 5 o 1302.899 1294.763 180.00 1.27333 9.55
18 6 2 o 61.816 60.831 180.00 1.27158 0.90
13 11 9 o 869.940 874.290 180.00 1.25953 12.20
17 9 1 o 8.471 8.513 180.00 1.25953 0.12
19 3 1 o 365.869 367.699 180.00 1.25953 5.13
15 11 5 o 4.825 4.849 180.00 1.25953 0.07
16 10 4 o 36.341 36.602 0.00 1.25784 0.51
14 12 6 o 22.383 23.015 0.00 1.25113 0.31
18 6 4 o 90.015 92.557 0.00 1.25113 1.23
19 3 3 o 90.934 91.579 0.00 1.24617 0.61
17 9 3 o 4126.829 4156.115 180.00 1.24617 55.48
16 8 8 o 3491.129 3550.204 0.00 1.23803 22.86
13 13 7 o 756.329 714.139 0.00 1.23322 4.88
17 7 7 o 122.152 115.338 180.00 1.23322 0.79
15 9 9 o 103.111 97.359 0.00 1.23322 0.66
19 5 1 o 9.693 9.153 0.00 1.23322 0.12
12 12 10 o 159.216 151.145 0.00 1.23163 1.02
14 14 0 o 319.020 327.505 0.00 1.22533 1.00
16 10 6 o 611.249 627.507 180.00 1.22533 7.68
18 8 2 o 366.937 376.696 180.00 1.22533 4.61
17 9 5 o 1.338 1.348 0.00 1.22067 0.02
19 5 3 o 4253.454 4286.289 180.00 1.22067 52.64
15 13 1 o 6.754 6.807 180.00 1.22067 0.08
15 11 7 o 629.431 634.290 180.00 1.22067 7.79
14 14 2 o 13.279 12.951 180.00 1.21912 0.08
18 6 6 o 71.008 69.252 180.00 1.21912 0.44
14 10 10 o 823.455 803.088 180.00 1.21912 5.07
16 12 0 o 52.535 45.134 180.00 1.21301 0.32
20 0 0 o 181.479 155.911 180.00 1.21301 0.27
15 13 3 o 98.758 90.309 0.00 1.20849 1.17
14 12 8 o 579.098 528.319 180.00 1.20699 6.85
16 12 2 o 8.028 7.324 0.00 1.20699 0.09
18 8 4 o 342.145 312.144 180.00 1.20699 4.05
20 2 2 o 449.170 387.934 180.00 1.20106 2.61
14 14 4 o 180.007 155.466 0.00 1.20106 1.04
19 7 1 o 993.614 946.799 0.00 1.19667 11.36
19 5 5 o 93.208 88.816 0.00 1.19667 0.53
13 11 11 o 536.416 511.142 180.00 1.19667 3.07
17 11 1 o 184.135 175.459 180.00 1.19667 2.10
20 4 0 o 173.072 160.577 180.00 1.18946 0.97
16 12 4 o 275.202 255.333 180.00 1.18946 3.07
15 13 5 o 2853.760 2603.744 0.00 1.18519 31.39
19 7 3 o 463.959 423.312 180.00 1.18519 5.10
17 9 7 o 875.171 798.498 0.00 1.18519 9.63
13 13 9 o 4.872 4.445 0.00 1.18519 0.03
17 11 3 o 0.580 0.529 0.00 1.18519 0.01
20 4 2 o 154.520 139.110 180.00 1.18378 1.69
16 10 8 o 228.361 205.588 0.00 1.18378 2.50
18 8 6 o 47.716 43.687 180.00 1.17818 0.51
18 10 0 o 102.236 93.604 0.00 1.17818 0.55
15 11 9 o 7.515 7.466 0.00 1.17404 0.08
14 14 6 o 18973.764 18980.654 0.00 1.17266 100.00
18 10 2 o 31.528 31.540 180.00 1.17266 0.33
12 12 12 o 5100.131 5132.163 180.00 1.16722 8.79
20 4 4 o 1225.835 1233.535 180.00 1.16722 6.34
19 7 5 o 13.639 13.635 180.00 1.16319 0.14
17 11 5 o 5128.836 5127.428 180.00 1.16319 52.34
16 12 6 o 968.998 962.070 180.00 1.16186 9.84
18 10 4 o 0.349 0.358 0.00 1.15656 0.00
20 6 2 o 1972.461 2021.574 180.00 1.15656 19.67
14 12 10 o 180.950 185.455 0.00 1.15656 1.80
15 13 7 o 115.046 117.115 0.00 1.15264 1.13
19 9 1 o 3119.512 3175.611 0.00 1.15264 30.69
21 1 1 o 333.828 339.831 0.00 1.15264 1.64
19 9 3 o 21.088 20.437 0.00 1.14237 0.20
15 15 1 o 0.014 0.013 0.00 1.14237 0.00
17 9 9 o 3.385 3.280 180.00 1.14237 0.02
21 3 1 o 58.688 56.876 180.00 1.14237 0.56
18 8 8 o 727.130 703.546 0.00 1.14111 3.44
20 6 4 o 467.304 452.147 0.00 1.14111 4.42
16 14 2 o 557.292 574.475 0.00 1.13609 5.18
16 10 10 o 144.350 148.800 0.00 1.13609 0.67
14 14 8 o 42.150 43.449 180.00 1.13609 0.20
17 11 7 o 36.790 36.436 0.00 1.13237 0.34
15 15 3 o 105.566 104.549 0.00 1.13237 0.48
19 7 7 o 27.448 27.184 0.00 1.13237 0.13
13 13 11 o 125.526 124.318 180.00 1.13237 0.58
17 13 1 o 44.715 44.284 0.00 1.13237 0.41
21 3 3 o 700.843 694.094 0.00 1.13237 3.21
18 10 6 o 689.291 687.765 180.00 1.13114 6.29
20 8 0 o 15214.514 15510.780 0.00 1.12625 68.23
16 12 8 o 9.770 9.961 180.00 1.12625 0.09
15 11 11 o 4.542 4.340 0.00 1.12263 0.02
17 13 3 o 0.783 0.748 0.00 1.12263 0.01
19 9 5 o 432.479 413.199 180.00 1.12263 3.83
21 5 1 o 159.226 152.127 180.00 1.12263 1.41
20 8 2 o 0.168 0.159 0.00 1.12143 0.00
16 14 4 o 10.082 9.521 180.00 1.12143 0.09
20 6 6 o 0.774 0.860 180.00 1.11667 0.00
18 12 2 o 69.069 76.738 0.00 1.11667 0.60
15 15 5 o 1188.174 1420.183 0.00 1.11314 5.08
21 5 3 o 35.649 42.609 0.00 1.11314 0.31
15 13 9 o 119.520 142.858 0.00 1.11314 1.02
20 8 4 o 6.654 10.119 0.00 1.10732 0.06
17 13 5 o 63.344 113.065 180.00 1.10388 0.52
19 11 1 o 10.365 18.502 0.00 1.10388 0.09
14 12 12 o 43.076 63.933 180.00 1.10274 0.18
18 12 4 o 0.055 0.081 180.00 1.10274 0.00
18 10 8 o 15.958 18.091 180.00 1.09821 0.13
16 14 6 o 55.748 63.201 180.00 1.09821 0.45
22 2 0 o 578.922 656.309 0.00 1.09821 2.35
21 5 5 o 580.345 621.129 180.00 1.09485 2.32
19 9 7 o 26.253 28.098 180.00 1.09485 0.21
21 7 1 o 6.055 6.481 180.00 1.09485 0.05
17 11 9 o 34.435 36.855 180.00 1.09485 0.28
19 11 3 o 759.401 812.768 0.00 1.09485 6.08
14 14 10 o 51.198 55.426 0.00 1.09374 0.20
22 2 2 o 267.870 289.992 0.00 1.09374 1.07
15 15 7 o 540.147 565.845 180.00 1.08604 2.09
21 7 3 o 485.106 508.184 0.00 1.08604 3.76
16 12 10 o 327.391 345.621 180.00 1.08495 2.53
20 8 6 o 289.191 305.293 180.00 1.08495 2.23
20 10 2 o 17.137 18.177 180.00 1.08064 0.13
18 12 6 o 594.414 630.457 0.00 1.08064 4.52
22 4 2 o 1461.635 1550.265 0.00 1.08064 11.11
19 11 5 o 11.717 12.918 0.00 1.07744 0.09
17 13 7 o 107.905 118.960 0.00 1.07744 0.81
13 13 13 o 125.173 137.997 180.00 1.07744 0.16
16 16 0 o 2.676 2.690 0.00 1.07216 0.00
15 13 11 o 129.247 134.122 180.00 1.06903 0.94
21 7 5 o 52.618 54.603 0.00 1.06903 0.38
17 15 1 o 1.829 1.898 0.00 1.06903 0.01
16 16 2 o 1.621 1.667 180.00 1.06800 0.01
16 14 8 o 679.471 698.866 0.00 1.06800 4.93
22 4 4 o 23.118 23.778 0.00 1.06800 0.08
20 10 4 o 5.944 6.114 0.00 1.06800 0.04
18 14 0 o 527.914 513.225 180.00 1.06388 1.88
22 6 0 o 2503.593 2433.931 180.00 1.06388 8.94
17 15 3 o 561.168 552.716 180.00 1.06083 3.96
19 9 9 o 4.569 4.501 180.00 1.06083 0.02
21 9 1 o 690.856 680.451 180.00 1.06083 4.88
18 14 2 o 281.128 279.902 180.00 1.05981 1.98
18 10 10 o 4.298 4.280 0.00 1.05981 0.02
22 6 2 o 25.872 25.759 180.00 1.05981 0.18
20 8 8 o 46.142 46.352 180.00 1.05579 0.16
16 16 4 o 181.288 182.109 0.00 1.05579 0.63
19 13 1 o 695.255 723.125 180.00 1.05281 4.76
21 9 3 o 75.277 78.295 180.00 1.05281 0.52
15 15 9 o 120.484 125.314 0.00 1.05281 0.41
19 11 7 o 0.664 0.690 0.00 1.05281 0.00
17 11 11 o 1368.281 1423.130 180.00 1.05281 4.69
23 1 1 o 855.719 890.022 0.00 1.05281 2.93
18 12 8 o 4.427 4.624 0.00 1.05182 0.03
20 10 6 o 0.018 0.020 180.00 1.04788 0.00
18 14 4 o 300.707 329.838 180.00 1.04788 2.02
22 6 4 o 295.767 324.420 180.00 1.04788 1.99
14 14 12 o 366.136 401.606 180.00 1.04788 1.23
19 13 3 o 2.384 2.560 0.00 1.04496 0.02
17 15 5 o 526.893 565.937 0.00 1.04496 3.50
17 13 9 o 1073.103 1152.622 0.00 1.04496 7.13
21 7 7 o 11.357 12.199 180.00 1.04496 0.04
23 3 1 o 433.663 465.798 0.00 1.04496 2.88
16 12 12 o 11.417 10.060 0.00 1.04015 0.04
20 12 0 o 21.256 18.730 180.00 1.04015 0.07
21 9 5 o 100.519 90.125 180.00 1.03729 0.65
23 3 3 o 2664.182 2388.697 0.00 1.03729 8.60
16 16 6 o 1467.775 1341.999 0.00 1.03635 4.72
20 12 2 o 78.449 71.726 0.00 1.03635 0.50
16 14 10 o 15.864 15.504 0.00 1.03258 0.10
22 8 2 o 200.793 196.236 0.00 1.03258 1.27
19 13 5 o 1221.594 1199.367 180.00 1.02979 7.66
23 5 1 o 533.419 523.713 180.00 1.02979 3.34
22 6 6 o 6117.522 5938.416 0.00 1.02886 19.11
18 14 6 o 193.351 187.690 180.00 1.02886 1.21
20 12 4 o 250.888 224.646 180.00 1.02518 1.54
15 13 13 o 48.329 41.480 180.00 1.02245 0.15
23 5 3 o 42.405 36.396 180.00 1.02245 0.26
17 15 7 o 176.567 151.544 0.00 1.02245 1.08
19 11 9 o 0.810 0.695 0.00 1.02245 0.00
21 11 1 o 634.735 544.781 0.00 1.02245 3.87
20 10 8 o 50.250 41.358 180.00 1.02154 0.31
22 8 4 o 111.179 91.506 180.00 1.02154 0.67
18 12 10 o 6.031 4.229 0.00 1.01794 0.04
15 15 11 o 231.032 165.903 180.00 1.01526 0.68
21 9 7 o 101.635 72.983 0.00 1.01526 0.60
21 11 3 o 0.025 0.018 0.00 1.01526 0.00
24 0 0 o 1633.612 1326.594 0.00 1.01084 1.19
16 16 8 o 111.206 90.306 180.00 1.01084 0.32
19 13 7 o 21.157 19.443 180.00 1.00822 0.12
23 7 1 o 211.200 194.086 0.00 1.00822 1.22
23 5 5 o 415.131 381.493 0.00 1.00822 1.20
17 13 11 o 225.714 207.424 0.00 1.00822 1.30
17 17 1 o 68.130 62.609 0.00 1.00822 0.20
20 12 6 o 139.261 131.596 180.00 1.00735 0.80
18 14 8 o 426.172 425.635 0.00 1.00390 2.41
18 16 2 o 13.475 13.458 0.00 1.00390 0.08
22 10 0 o 2295.672 2292.781 0.00 1.00390 6.50
22 8 6 o 17.729 17.707 0.00 1.00390 0.10
24 2 2 o 748.208 747.266 0.00 1.00390 2.12
19 15 1 o 68.983 67.149 0.00 1.00133 0.39
17 17 3 o 15.551 15.138 0.00 1.00133 0.04
23 7 3 o 8.595 8.367 0.00 1.00133 0.05
21 11 5 o 36.705 35.730 180.00 1.00133 0.21
14 14 14 o 13.345 12.774 180.00 1.00048 0.01
22 10 2 o 202.452 193.782 180.00 1.00048 1.13
24 4 0 o 300.063 238.072 180.00 0.99709 0.83
19 15 3 o 178.829 145.706 180.00 0.99457 0.98
17 15 9 o 0.462 0.376 180.00 0.99457 0.00
18 16 4 o 0.249 0.210 180.00 0.99374 0.00
16 14 12 o 28.222 23.754 180.00 0.99374 0.15
24 4 2 o 19.166 16.131 0.00 0.99374 0.10
22 10 4 o 12.970 12.221 0.00 0.99042 0.07
20 10 10 o 33.140 31.227 0.00 0.99042 0.09
20 14 2 o 307.491 289.741 0.00 0.99042 1.65
19 11 11 o 11.362 10.893 180.00 0.98795 0.03
21 9 9 o 6.430 6.165 180.00 0.98795 0.02
23 7 5 o 1294.252 1240.825 0.00 0.98795 6.87
17 17 5 o 87.476 83.865 0.00 0.98795 0.23
24 4 4 o 45.299 41.496 0.00 0.98388 0.12
20 12 8 o 63.634 58.292 0.00 0.98388 0.33
19 13 9 o 5.497 5.413 0.00 0.98146 0.03
19 15 5 o 307.105 302.393 180.00 0.98146 1.59
21 13 1 o 8.575 8.443 180.00 0.98146 0.04
21 11 7 o 8.424 8.295 0.00 0.98146 0.04
23 9 1 o 9.481 9.336 0.00 0.98146 0.05
16 16 10 o 1007.161 1015.877 0.00 0.98066 2.60
22 8 8 o 426.069 429.756 0.00 0.98066 1.10
18 12 12 o 264.215 266.501 0.00 0.98066 0.68
20 14 4 o 386.920 390.268 180.00 0.98066 1.99
24 6 2 o 52.927 54.583 0.00 0.97747 0.27
18 16 6 o 573.365 591.307 180.00 0.97747 2.92
15 15 13 o 98.849 95.630 180.00 0.97510 0.25
23 9 3 o 243.200 235.281 180.00 0.97510 1.23
21 13 3 o 252.389 244.171 0.00 0.97510 1.27
18 14 10 o 406.098 378.726 180.00 0.97432 2.04
22 10 6 o 7.246 6.757 0.00 0.97432 0.04
17 17 7 o 1821.346 1818.686 180.00 0.96886 4.47
17 13 13 o 255.819 255.446 180.00 0.96886 0.63
23 7 7 o 15.815 15.792 0.00 0.96886 0.04
25 1 1 o 8.852 8.839 180.00 0.96886 0.02
24 6 4 o 25.313 25.862 0.00 0.96809 0.12
22 12 2 o 260.499 260.000 180.00 0.96502 1.26
20 14 6 o 140.064 139.796 0.00 0.96502 0.68
23 9 5 o 0.004 0.004 0.00 0.96274 0.00
21 13 5 o 30.587 29.542 180.00 0.96274 0.15
17 15 11 o 370.329 357.685 0.00 0.96274 1.77
19 15 7 o 152.626 147.415 0.00 0.96274 0.73
25 3 1 o 42.078 40.641 180.00 0.96274 0.20
24 8 0 o 319.681 263.751 180.00 0.95897 0.75
25 3 3 o 4.989 4.185 0.00 0.95673 0.01
21 11 9 o 269.613 226.168 0.00 0.95673 1.26
18 16 8 o 0.507 0.435 0.00 0.95599 0.00
24 8 2 o 7.534 6.464 180.00 0.95599 0.04
22 12 4 o 38.951 33.419 180.00 0.95599 0.18
20 12 10 o 0.669 0.574 0.00 0.95599 0.00
16 14 14 o 377.441 361.123 180.00 0.95303 0.87
18 18 0 o 60.839 58.209 0.00 0.95303 0.07
22 10 8 o 37.757 36.124 180.00 0.95303 0.17
24 6 6 o 59.524 56.950 0.00 0.95303 0.14
25 5 1 o 12.008 12.097 0.00 0.95083 0.05
19 13 11 o 39.846 40.139 180.00 0.95083 0.18
23 11 1 o 1523.120 1534.339 180.00 0.95083 6.94
19 17 1 o 56.991 57.411 0.00 0.95083 0.26
18 18 2 o 1.152 1.153 0.00 0.95010 0.00
24 8 4 o 316.252 317.747 180.00 0.94720 1.42
20 16 0 o 0.001 0.001 0.00 0.94720 0.00
16 16 12 o 275.896 277.200 0.00 0.94720 0.62
17 17 9 o 10.264 10.049 0.00 0.94505 0.02
23 9 7 o 0.418 0.410 0.00 0.94505 0.00
25 5 3 o 11.671 11.425 180.00 0.94505 0.05
23 11 3 o 0.531 0.520 0.00 0.94505 0.00
19 17 3 o 583.722 571.442 180.00 0.94505 2.60
21 13 7 o 126.476 123.815 180.00 0.94505 0.56
20 16 2 o 217.965 206.761 180.00 0.94433 0.97
20 14 8 o 11.339 10.756 0.00 0.94433 0.05
18 18 4 o 2.310 1.832 180.00 0.94148 0.01
22 12 6 o 138.075 109.517 180.00 0.94148 0.60
18 14 12 o 5.167 4.098 0.00 0.94148 0.02
21 15 1 o 84.435 59.904 0.00 0.93936 0.37
19 15 9 o 0.825 0.585 180.00 0.93936 0.00
20 16 4 o 0.949 0.852 0.00 0.93586 0.00
25 5 5 o 108.410 103.399 180.00 0.93378 0.23
15 15 15 o 0.001 0.001 180.00 0.93378 0.00
23 11 5 o 266.461 254.144 180.00 0.93378 1.13
21 15 3 o 132.949 126.804 0.00 0.93378 0.56
19 17 5 o 15.068 14.372 180.00 0.93378 0.06
25 7 1 o 69.331 66.126 180.00 0.93378 0.29
24 8 6 o 331.352 320.358 0.00 0.93309 1.40
22 14 0 o 0.237 0.234 0.00 0.93034 0.00
26 2 0 o 40.249 39.723 180.00 0.93034 0.08
24 10 2 o 850.053 838.942 0.00 0.93034 3.55
18 16 10 o 89.194 88.028 180.00 0.93034 0.37
17 15 13 o 7.275 7.066 0.00 0.92829 0.03
21 11 11 o 349.786 339.719 180.00 0.92829 0.72
25 7 3 o 53.752 52.205 180.00 0.92829 0.22
26 2 2 o 11.245 10.880 180.00 0.92761 0.02
22 10 10 o 12.762 12.347 180.00 0.92761 0.03
18 18 6 o 918.881 889.034 180.00 0.92761 1.90
22 14 2 o 2068.553 2001.362 0.00 0.92761 8.54
20 12 12 o 6.881 6.912 0.00 0.92491 0.01
21 13 9 o 181.897 181.995 0.00 0.92290 0.74
21 15 5 o 115.168 115.230 0.00 0.92290 0.47
23 9 9 o 237.698 237.826 180.00 0.92290 0.48
20 16 6 o 60.051 59.819 0.00 0.92224 0.24
24 10 4 o 186.330 185.612 180.00 0.92224 0.75
22 12 8 o 11.714 11.669 180.00 0.92224 0.05
20 14 10 o 176.599 175.048 0.00 0.91958 0.70
22 14 4 o 18.735 18.571 180.00 0.91958 0.07
26 4 2 o 47.015 46.602 0.00 0.91958 0.19
19 17 7 o 9.029 9.341 0.00 0.91761 0.04
23 11 7 o 32.441 33.562 180.00 0.91761 0.13
19 13 13 o 83.851 86.749 0.00 0.91761 0.17
17 17 11 o 1723.782 1783.344 180.00 0.91761 3.41
23 13 1 o 23.178 23.979 180.00 0.91761 0.09
25 7 5 o 22.302 23.073 180.00 0.91761 0.09
24 8 8 o 272.193 276.295 180.00 0.91434 0.53
25 9 1 o 821.126 837.916 0.00 0.91240 3.17
19 15 11 o 235.042 239.848 0.00 0.91240 0.91
23 13 3 o 119.519 121.962 0.00 0.91240 0.46
16 16 14 o 217.088 224.651 0.00 0.91176 0.42
26 4 4 o 0.307 0.318 180.00 0.91176 0.00
26 6 0 o 257.761 259.415 180.00 0.90919 0.49
18 18 8 o 119.584 120.351 180.00 0.90919 0.23
24 10 6 o 79.623 80.134 0.00 0.90919 0.30
21 15 7 o 0.001 0.001 0.00 0.90728 0.00
25 9 3 o 34.877 33.212 0.00 0.90728 0.13
22 14 6 o 0.314 0.305 180.00 0.90665 0.00
18 14 14 o 176.311 171.318 0.00 0.90665 0.33
26 6 2 o 63.558 61.758 180.00 0.90665 0.24
24 12 0 o 1371.851 1493.357 180.00 0.90413 2.55
20 16 8 o 73.150 79.629 0.00 0.90413 0.27
19 19 1 o 1186.949 1248.615 0.00 0.90225 2.19
25 7 7 o 552.726 581.442 0.00 0.90225 1.02
23 13 5 o 43.809 46.085 0.00 0.90225 0.16
24 12 2 o 465.748 483.154 180.00 0.90162 1.72
18 16 12 o 487.023 505.224 180.00 0.90163 1.79
22 12 10 o 63.106 66.112 180.00 0.89914 0.23
20 18 2 o 7.624 7.988 0.00 0.89914 0.03
26 6 4 o 5.475 5.736 0.00 0.89914 0.02
25 9 5 o 1762.937 1853.663 0.00 0.89730 6.37
27 1 1 o 662.376 696.464 0.00 0.89730 1.20
19 17 9 o 135.566 142.543 180.00 0.89730 0.49
23 11 9 o 1.264 1.329 180.00 0.89730 0.00
19 19 3 o 87.000 91.478 0.00 0.89730 0.16
21 17 1 o 30.973 32.567 0.00 0.89730 0.11
21 13 11 o 101.889 107.132 0.00 0.89730 0.37
24 12 4 o 34.639 37.561 180.00 0.89424 0.12
27 3 1 o 149.325 182.682 0.00 0.89243 0.53
21 17 3 o 79.617 97.402 0.00 0.89243 0.28
17 15 15 o 158.029 193.331 0.00 0.89243 0.28
20 18 4 o 124.920 155.600 0.00 0.89182 0.44
20 14 12 o 116.306 144.870 0.00 0.89182 0.41
24 10 8 o 194.195 241.889 0.00 0.89182 0.68
26 8 2 o 7.571 8.924 0.00 0.88942 0.03
22 14 8 o 415.848 490.185 0.00 0.88942 1.45
22 16 2 o 46.874 55.253 0.00 0.88942 0.16
25 11 1 o 15.774 18.083 0.00 0.88764 0.05
23 13 7 o 25.937 29.734 0.00 0.88764 0.09
27 3 3 o 866.855 993.756 0.00 0.88764 1.50
21 15 9 o 0.006 0.007 0.00 0.88764 0.00
19 19 5 o 1166.567 1337.343 180.00 0.88764 2.02
17 17 13 o 96.329 110.431 180.00 0.88764 0.17
18 18 10 o 0.280 0.320 180.00 0.88704 0.00
26 6 6 o 11.546 13.199 180.00 0.88704 0.02
27 5 1 o 471.528 510.674 180.00 0.88292 1.60
25 9 7 o 0.357 0.387 0.00 0.88292 0.00
25 11 3 o 5090.299 5512.898 180.00 0.88292 17.24
21 17 5 o 3.772 4.085 0.00 0.88292 0.01
23 15 1 o 0.162 0.176 0.00 0.88292 0.00
19 15 13 o 25.890 28.039 0.00 0.88292 0.09
20 16 10 o 47.738 51.972 180.00 0.88234 0.16
26 8 4 o 63.841 69.503 0.00 0.88234 0.22
22 16 4 o 10.076 10.969 180.00 0.88234 0.03
24 12 6 o 0.023 0.025 180.00 0.88234 0.00
20 18 6 o 338.557 387.241 180.00 0.88001 1.13
27 5 3 o 0.024 0.029 180.00 0.87828 0.00
23 15 3 o 560.772 691.585 180.00 0.87828 1.86
16 16 16 o 454.891 476.986 180.00 0.87542 0.25
19 19 7 o 282.618 284.356 180.00 0.87371 0.46
19 17 11 o 29.477 29.658 180.00 0.87371 0.10
23 11 11 o 24.230 24.379 0.00 0.87371 0.04
25 11 5 o 18.422 18.535 0.00 0.87371 0.06
22 12 12 o 254.119 259.589 0.00 0.87315 0.41
24 14 2 o 206.002 213.976 180.00 0.87089 0.66
26 8 6 o 560.247 581.933 0.00 0.87089 1.80
26 10 0 o 173.511 180.227 0.00 0.87089 0.28
18 16 14 o 102.022 105.970 0.00 0.87089 0.33
24 10 10 o 304.571 316.359 180.00 0.87089 0.49
22 16 6 o 1.041 1.081 180.00 0.87089 0.00
21 17 7 o 42.974 45.161 0.00 0.86921 0.14
27 7 1 o 26.863 28.230 180.00 0.86921 0.09
23 13 9 o 65.357 68.684 0.00 0.86921 0.21
27 5 5 o 2.405 2.528 0.00 0.86921 0.00
21 13 13 o 1044.338 1097.497 180.00 0.86921 1.66
23 15 5 o 8.525 8.959 180.00 0.86921 0.03
26 10 2 o 73.101 76.688 180.00 0.86866 0.23
22 14 10 o 37.255 39.083 180.00 0.86866 0.12
28 0 0 o 12256.539 12746.590 0.00 0.86644 4.81
24 12 8 o 60.786 63.216 0.00 0.86644 0.19
27 7 3 o 47.949 50.729 180.00 0.86478 0.15
25 9 9 o 73.024 77.257 0.00 0.86478 0.11
21 15 11 o 50.172 53.080 0.00 0.86478 0.16
20 18 8 o 41.122 43.475 180.00 0.86424 0.13
24 14 4 o 316.647 334.769 180.00 0.86424 0.98
26 10 4 o 116.673 118.471 180.00 0.86205 0.36
20 14 14 o 37.019 37.589 180.00 0.86205 0.06
28 2 2 o 1232.182 1251.175 0.00 0.86205 1.90
18 18 12 o 33.960 34.483 180.00 0.86205 0.05
25 11 7 o 77.480 77.462 0.00 0.86042 0.24
25 13 1 o 165.427 165.390 180.00 0.86042 0.51
20 20 0 o 4645.609 4514.545 0.00 0.85773 3.50
28 4 0 o 460.434 447.445 180.00 0.85773 0.69
20 16 12 o 9.555 9.285 180.00 0.85773 0.03
19 19 9 o 85.191 90.106 0.00 0.85613 0.13
25 13 3 o 1.751 1.852 0.00 0.85613 0.01
27 7 5 o 277.271 293.267 180.00 0.85613 0.83
21 19 1 o 81.406 86.102 0.00 0.85613 0.24
23 15 7 o 27.892 29.501 0.00 0.85613 0.08
17 17 15 o 7.774 8.223 0.00 0.85613 0.01
20 20 2 o 38.211 43.710 180.00 0.85559 0.06
22 16 8 o 6.899 7.892 0.00 0.85559 0.02
26 8 8 o 68.701 78.588 180.00 0.85559 0.10
28 4 2 o 30.669 35.082 180.00 0.85559 0.09
22 18 0 o 13.773 21.370 0.00 0.85347 0.02
24 14 6 o 127.921 198.483 180.00 0.85347 0.38
21 17 9 o 24.336 32.818 180.00 0.85189 0.07
27 9 1 o 48.118 64.891 0.00 0.85189 0.14
21 19 3 o 78.325 105.628 0.00 0.85189 0.23
19 15 15 o 69.295 93.450 0.00 0.85189 0.10
26 10 6 o 141.297 182.967 180.00 0.85137 0.41
22 18 2 o 32.479 42.058 180.00 0.85137 0.10
28 4 4 o 120.349 147.106 180.00 0.84928 0.17
20 20 4 o 229.075 280.005 180.00 0.84928 0.33
23 13 11 o 111.601 134.830 0.00 0.84772 0.32
19 17 13 o 94.009 113.576 180.00 0.84772 0.27
23 17 1 o 61.782 74.642 0.00 0.84772 0.18
27 9 3 o 141.899 171.435 0.00 0.84772 0.41
25 13 5 o 817.919 988.162 180.00 0.84772 2.35
24 12 10 o 4.107 4.936 0.00 0.84720 0.01
22 18 4 o 270.087 299.365 0.00 0.84515 0.77
22 14 12 o 69.178 76.677 180.00 0.84515 0.20
28 6 2 o 0.103 0.114 180.00 0.84515 0.00
20 18 10 o 41.348 45.830 180.00 0.84515 0.12
26 12 2 o 705.818 782.330 180.00 0.84515 2.01
25 11 9 o 1233.222 1283.368 180.00 0.84361 3.48
27 7 7 o 392.103 408.047 180.00 0.84361 0.55
23 17 3 o 35.814 37.270 0.00 0.84361 0.10
21 19 5 o 149.161 155.226 180.00 0.84361 0.42
24 16 0 o 178.015 175.886 180.00 0.84107 0.25
21 15 13 o 46.071 45.236 0.00 0.83956 0.13
27 9 5 o 50.739 49.820 0.00 0.83956 0.14
23 15 9 o 18.974 18.630 180.00 0.83956 0.05
18 16 16 o 1276.124 1250.663 0.00 0.83906 1.76
28 6 4 o 230.833 226.228 180.00 0.83906 0.64
24 14 8 o 17.168 16.826 0.00 0.83906 0.05
20 20 6 o 9.677 9.484 180.00 0.83906 0.01
26 12 4 o 196.137 192.224 0.00 0.83906 0.54
24 16 2 o 713.385 699.152 0.00 0.83906 1.97
22 16 10 o 974.805 976.439 0.00 0.83706 2.67
26 10 8 o 67.126 67.239 180.00 0.83706 0.18
24 16 4 o 0.038 0.036 0.00 0.83310 0.00
28 8 0 o 2.038 1.945 0.00 0.83310 0.00
23 17 5 o 9.574 9.725 0.00 0.83557 0.03
25 13 7 o 99.760 101.333 0.00 0.83557 0.27
29 1 1 o 471.572 479.008 180.00 0.83557 0.64
19 19 11 o 456.675 463.876 180.00 0.83557 0.62
18 18 14 o 290.627 292.741 180.00 0.83507 0.39
22 18 6 o 0.057 0.058 0.00 0.83507 0.00
27 11 1 o 828.503 775.073 0.00 0.83163 2.21
29 3 1 o 43.983 41.147 0.00 0.83163 0.12
21 17 11 o 57.753 54.029 0.00 0.83163 0.15
21 19 7 o 7.523 7.038 180.00 0.83163 0.02
25 15 1 o 80.758 75.550 180.00 0.83163 0.22
28 8 2 o 231.789 216.507 0.00 0.83114 0.62
20 16 14 o 698.431 652.382 180.00 0.83114 1.86
28 6 6 o 2216.225 2114.381 180.00 0.82920 2.92
26 12 6 o 0.152 0.145 0.00 0.82920 0.00
25 15 3 o 1.117 1.053 0.00 0.82775 0.00
27 9 7 o 32.399 30.553 0.00 0.82775 0.08
27 11 3 o 41.308 38.954 180.00 0.82775 0.11
29 3 3 o 759.888 716.597 180.00 0.82775 0.99
24 12 12 o 2.473 2.204 180.00 0.82535 0.00
20 20 8 o 46.390 41.344 180.00 0.82535 0.06
28 8 4 o 230.789 205.684 0.00 0.82535 0.60
25 11 11 o 19.878 17.552 0.00 0.82392 0.03
23 17 7 o 9.936 8.774 0.00 0.82392 0.03
23 13 13 o 503.616 444.688 0.00 0.82392 0.65
17 17 17 o 13416.113 11846.288 0.00 0.82392 5.74
29 5 1 o 87.143 76.946 0.00 0.82392 0.22
24 16 6 o 76.084 67.279 0.00 0.82345 0.19
20 18 12 o 8.132 7.191 180.00 0.82345 0.02
26 14 0 o 619.320 549.792 180.00 0.82156 0.79
24 14 10 o 89.577 79.521 180.00 0.82156 0.23
22 18 8 o 185.203 164.411 180.00 0.82156 0.47
19 17 15 o 279.398 251.075 180.00 0.82015 0.70
25 15 5 o 216.521 194.572 0.00 0.82015 0.55
27 11 5 o 3.610 3.244 180.00 0.82015 0.01
23 15 11 o 8.200 7.369 0.00 0.82015 0.02
25 13 9 o 144.260 129.637 180.00 0.82015 0.36
29 5 3 o 0.566 0.509 0.00 0.82015 0.00
26 14 2 o 33.158 30.063 180.00 0.81968 0.08
22 14 14 o 10514.234 9532.759 0.00 0.81968 13.23
26 10 10 o 135.730 123.060 180.00 0.81968 0.17
21 19 9 o 238.964 223.853 180.00 0.81642 0.59
21 21 1 o 1.796 1.683 180.00 0.81642 0.00
28 8 6 o 3.080 2.900 180.00 0.81596 0.01
26 12 8 o 568.329 535.235 180.00 0.81596 1.40
22 16 12 o 521.925 491.534 180.00 0.81596 1.29
22 20 2 o 1937.186 1847.482 0.00 0.81412 4.74
26 14 4 o 304.756 290.644 180.00 0.81412 0.75
28 10 2 o 418.354 398.981 0.00 0.81412 1.02
23 19 1 o 100.415 93.687 0.00 0.81275 0.24
29 7 1 o 40.988 38.242 0.00 0.81275 0.10
21 15 15 o 20.972 19.567 0.00 0.81275 0.03
27 9 9 o 522.135 487.150 0.00 0.81275 0.63
19 19 13 o 29.465 27.491 0.00 0.81275 0.04
21 21 3 o 1083.402 1010.812 0.00 0.81275 1.32
29 5 5 o 1401.829 1307.902 180.00 0.81275 1.70
24 16 8 o 145.414 131.968 0.00 0.81048 0.35
23 19 3 o 2495.247 2243.030 0.00 0.80912 5.96
23 17 9 o 133.254 119.785 0.00 0.80912 0.32
27 13 1 o 58.186 52.305 0.00 0.80912 0.14
25 15 7 o 521.333 468.637 0.00 0.80912 1.25
27 11 7 o 36.739 33.025 180.00 0.80912 0.09
21 17 13 o 751.602 675.630 180.00 0.80912 1.80
29 7 3 o 239.477 215.271 0.00 0.80912 0.57
20 20 10 o 16.457 14.816 0.00 0.80867 0.02
22 20 4 o 164.443 148.045 0.00 0.80867 0.39
28 10 4 o 1.775 1.598 0.00 0.80867 0.00
24 18 2 o 255.815 232.022 180.00 0.80688 0.60
30 2 0 o 129.493 117.449 0.00 0.80688 0.15
18 18 16 o 978.554 887.542 0.00 0.80688 1.16
27 13 3 o 230.051 205.435 180.00 0.80555 0.54
21 21 5 o 14.694 13.122 180.00 0.80555 0.02
26 14 6 o 1268.552 1132.974 0.00 0.80510 2.97
22 18 10 o 112.280 100.280 180.00 0.80510 0.26
30 2 2 o 44.819 40.029 180.00 0.80510 0.05
20 16 16 o 387.534 354.025 180.00 0.80334 0.45
28 8 8 o 4205.307 3841.687 0.00 0.80334 4.88
25 17 1 o 11.503 10.319 0.00 0.80202 0.03
23 19 5 o 1.748 1.568 0.00 0.80202 0.00
29 7 5 o 28.372 25.451 180.00 0.80202 0.07
25 13 11 o 791.491 710.007 180.00 0.80202 1.83
24 18 4 o 2.459 2.189 180.00 0.80158 0.01
24 14 12 o 114.502 101.898 180.00 0.80158 0.26
26 12 10 o 1.312 1.169 0.00 0.79984 0.00
30 4 2 o 0.021 0.019 180.00 0.79984 0.00
22 20 6 o 38.725 34.498 0.00 0.79984 0.09
28 10 6 o 20.734 18.471 180.00 0.79984 0.05
20 18 14 o 136.249 121.378 180.00 0.79984 0.31
21 19 11 o 471.897 426.832 0.00 0.79854 1.07
25 17 3 o 5084.093 4598.569 180.00 0.79854 11.52
23 15 13 o 1169.562 1057.871 0.00 0.79854 2.65
29 9 1 o 106.511 96.339 0.00 0.79854 0.24
27 13 5 o 1.556 1.407 0.00 0.79854 0.00
28 12 0 o 5174.850 4983.006 0.00 0.79638 5.80
21 21 7 o 49.006 48.649 0.00 0.79510 0.05
25 15 9 o 120.958 120.076 0.00 0.79510 0.27
27 11 9 o 49.727 49.365 0.00 0.79510 0.11
29 9 3 o 89.313 88.661 0.00 0.79510 0.20
28 12 2 o 4.253 4.229 180.00 0.79467 0.01
24 16 10 o 12.586 12.513 0.00 0.79467 0.03
30 4 4 o 269.083 267.519 180.00 0.79467 0.30
24 18 6 o 12.201 11.511 0.00 0.79297 0.03
26 14 8 o 30.396 28.678 0.00 0.79297 0.07
26 16 2 o 665.494 627.870 180.00 0.79297 1.47
30 6 0 o 100.820 95.121 0.00 0.79297 0.11
22 16 14 o 0.032 0.031 0.00 0.79297 0.00
23 17 11 o 2612.589 2399.839 180.00 0.79170 5.72
19 17 17 o 10.581 9.719 0.00 0.79170 0.01
29 7 7 o 0.026 0.024 180.00 0.79170 0.00
25 17 5 o 0.003 0.003 0.00 0.79170 0.00
23 19 7 o 78.730 72.319 180.00 0.79170 0.17
30 6 2 o 170.811 157.685 0.00 0.79128 0.37
28 12 4 o 30.349 29.467 180.00 0.78960 0.07
20 20 12 o 1204.943 1169.928 0.00 0.78960 1.31
27 13 7 o 127.138 119.892 180.00 0.78835 0.27
19 19 15 o 205.694 193.971 180.00 0.78835 0.22
29 9 5 o 37.004 34.895 180.00 0.78835 0.08
22 20 8 o 119.990 111.983 180.00 0.78794 0.26
26 16 4 o 157.351 146.851 180.00 0.78794 0.34
28 10 8 o 7.065 6.593 0.00 0.78794 0.02
30 6 4 o 206.131 191.296 180.00 0.78628 0.44
22 18 12 o 330.289 306.518 180.00 0.78628 0.70
27 15 1 o 140.481 128.784 0.00 0.78504 0.30
21 17 15 o 169.275 155.181 0.00 0.78504 0.36
31 1 1 o 58.953 51.773 0.00 0.78178 0.06
25 17 7 o 462.172 405.886 0.00 0.78178 0.96
27 15 3 o 18.458 16.210 180.00 0.78178 0.04
21 21 9 o 28.910 25.389 0.00 0.78178 0.03
29 11 1 o 921.462 809.240 0.00 0.78178 1.92
25 13 13 o 0.457 0.401 0.00 0.78178 0.00
26 12 12 o 13.836 12.219 180.00 0.78137 0.01
28 12 6 o 113.373 100.126 180.00 0.78137 0.24
24 18 8 o 211.313 186.623 0.00 0.78137 0.44
24 14 14 o 174.532 153.436 0.00 0.77975 0.18
30 8 2 o 103.877 91.321 0.00 0.77975 0.21
26 16 6 o 134.240 118.014 180.00 0.77975 0.28
22 22 0 o 1235.198 1085.899 180.00 0.77975 0.64
23 19 9 o 2.929 2.606 0.00 0.77855 0.01
29 11 3 o 309.142 274.996 0.00 0.77855 0.63
25 15 11 o 150.268 133.670 180.00 0.77855 0.31
23 21 1 o 75.839 67.462 180.00 0.77855 0.16
21 19 13 o 0.104 0.092 0.00 0.77855 0.00
27 11 11 o 29.384 26.138 0.00 0.77855 0.03
31 3 1 o 113.338 100.819 180.00 0.77855 0.23
29 9 7 o 96.984 86.272 0.00 0.77855 0.20
26 14 10 o 322.095 291.641 180.00 0.77815 0.66
18 18 18 o 20.268 18.352 180.00 0.77815 0.01
22 22 2 o 40.763 36.909 180.00 0.77815 0.04
30 6 6 o 16.871 15.276 180.00 0.77815 0.02
24 20 0 o 4.537 4.542 0.00 0.77655 0.00
24 16 12 o 428.399 428.793 180.00 0.77655 0.87
31 3 3 o 6.826 7.021 180.00 0.77536 0.01
23 15 15 o 459.933 473.069 180.00 0.77536 0.46
27 15 5 o 0.428 0.440 180.00 0.77536 0.00
27 13 9 o 39.139 40.257 180.00 0.77536 0.08
23 21 3 o 64.484 66.326 180.00 0.77536 0.13
24 20 2 o 25.837 26.436 0.00 0.77497 0.05
20 18 16 o 0.393 0.402 0.00 0.77497 0.00
30 8 4 o 44.640 45.676 0.00 0.77497 0.09
28 10 10 o 50.395 49.151 0.00 0.77339 0.05
22 20 10 o 38.914 37.953 0.00 0.77339 0.08
22 22 4 o 52.449 51.154 0.00 0.77339 0.05
28 14 2 o 270.682 263.997 180.00 0.77339 0.54
25 19 1 o 130.842 123.960 180.00 0.77221 0.26
31 5 1 o 31.270 29.626 0.00 0.77221 0.06
23 17 13 o 20.908 19.808 180.00 0.77221 0.04
29 11 5 o 2.936 2.781 180.00 0.77221 0.01
24 20 4 o 348.362 331.235 180.00 0.77026 0.68
28 12 8 o 67.473 64.155 180.00 0.77026 0.13
23 21 5 o 660.122 635.088 0.00 0.76910 1.29
25 17 9 o 1083.887 1042.784 0.00 0.76910 2.11
31 5 3 o 152.581 146.795 180.00 0.76910 0.30
25 19 3 o 23.496 22.605 0.00 0.76910 0.05
20 20 14 o 29.721 28.819 180.00 0.76872 0.03
26 16 8 o 1266.747 1228.313 0.00 0.76872 2.47
28 14 4 o 157.897 153.106 0.00 0.76872 0.31
22 16 16 o 608.270 589.815 0.00 0.76872 0.59
26 18 0 o 0.895 0.893 180.00 0.76718 0.00
24 18 10 o 158.013 157.629 0.00 0.76718 0.31
30 8 6 o 1511.781 1508.105 180.00 0.76718 2.92
30 10 0 o 37.787 37.695 0.00 0.76718 0.04
21 21 11 o 122.583 125.066 180.00 0.76603 0.12
27 15 7 o 134.580 137.306 0.00 0.76603 0.26
29 9 9 o 459.304 468.608 180.00 0.76603 0.44
22 22 6 o 3601.067 3727.526 0.00 0.76565 3.45
30 10 2 o 17.634 18.254 0.00 0.76565 0.03
26 18 2 o 522.226 540.565 180.00 0.76565 1.00
22 18 14 o 89.581 92.727 180.00 0.76565 0.17
25 19 5 o 440.152 494.652 180.00 0.76299 0.83
23 19 11 o 30.251 33.997 0.00 0.76299 0.06
19 19 17 o 147.194 165.420 0.00 0.76299 0.14
31 7 1 o 9.352 10.510 0.00 0.76299 0.02
29 13 1 o 3.018 3.392 180.00 0.76299 0.01
31 5 5 o 17.500 19.667 0.00 0.76299 0.02
29 11 7 o 16.015 17.997 180.00 0.76299 0.03
24 20 6 o 430.443 478.451 180.00 0.76261 0.81
26 14 12 o 51.709 57.983 0.00 0.76111 0.10
26 18 4 o 217.930 244.375 0.00 0.76111 0.41
28 14 6 o 0.560 0.628 180.00 0.76111 0.00
30 10 4 o 444.693 498.655 0.00 0.76111 0.83
25 15 13 o 51.180 65.160 0.00 0.75999 0.10
27 13 11 o 0.164 0.209 180.00 0.75999 0.00
31 7 3 o 4.277 5.445 180.00 0.75999 0.01
27 17 1 o 128.849 164.046 0.00 0.75999 0.24
21 17 17 o 23.197 29.534 0.00 0.75999 0.02
23 21 7 o 0.454 0.579 0.00 0.75999 0.00
29 13 3 o 0.609 0.775 0.00 0.75999 0.00
32 0 0 o 54.942 98.468 0.00 0.75813 0.01
21 19 15 o 36.384 59.112 180.00 0.75702 0.07
27 17 3 o 0.105 0.171 0.00 0.75702 0.00
24 16 14 o 17.485 26.849 0.00 0.75666 0.03
28 12 10 o 62.985 96.712 180.00 0.75666 0.12
30 8 8 o 48.324 74.201 0.00 0.75666 0.04
22 20 12 o 19.477 29.906 180.00 0.75666 0.04
26 16 10 o 28.293 34.965 0.00 0.75519 0.05
22 22 8 o 4.942 6.107 0.00 0.75519 0.00
32 2 2 o 150.822 186.392 0.00 0.75519 0.14
31 7 5 o 109.195 120.943 180.00 0.75409 0.20
25 19 7 o 174.262 193.008 180.00 0.75409 0.31
25 17 11 o 0.017 0.019 180.00 0.75409 0.00
27 15 9 o 36.069 39.950 180.00 0.75409 0.07
29 13 5 o 0.001 0.001 180.00 0.75409 0.00
26 18 6 o 26.689 29.031 180.00 0.75373 0.05
30 10 6 o 171.480 186.526 180.00 0.75373 0.31
24 20 8 o 2.291 2.350 0.00 0.75228 0.00
32 4 0 o 372.579 382.138 180.00 0.75228 0.33
28 16 0 o 3432.211 3520.265 0.00 0.75228 3.06
27 17 5 o 1386.721 1383.019 180.00 0.75120 2.46
23 17 15 o 18.272 18.223 180.00 0.75120 0.03
29 11 9 o 2.468 2.461 180.00 0.75120 0.00
31 9 1 o 30.032 29.952 180.00 0.75120 0.05
28 16 2 o 0.010 0.010 180.00 0.75084 0.00
32 4 2 o 13.744 13.699 180.00 0.75084 0.02
24 18 12 o 2.295 2.287 180.00 0.75084 0.00
28 14 8 o 27.436 27.345 0.00 0.75084 0.05
30 12 2 o 2088.362 2109.262 0.00 0.74940 3.67
20 18 18 o 219.280 221.474 0.00 0.74940 0.19
23 21 9 o 66.846 69.131 0.00 0.74833 0.12
31 9 3 o 129.654 134.085 0.00 0.74833 0.23
21 21 13 o 83.559 86.415 0.00 0.74833 0.07
20 20 16 o 914.589 997.048 0.00 0.74656 0.79
28 16 4 o 917.598 1000.329 180.00 0.74656 1.59
32 4 4 o 71.222 77.643 0.00 0.74656 0.06
31 7 7 o 374.468 415.646 180.00 0.74550 0.32
23 19 13 o 478.543 531.166 180.00 0.74550 0.82
23 23 1 o 201.488 223.644 0.00 0.74550 0.17
29 13 7 o 26.221 29.104 0.00 0.74550 0.05
30 12 4 o 165.728 183.798 0.00 0.74515 0.28
30 10 8 o 9.682 10.497 0.00 0.74375 0.02
22 18 16 o 613.890 665.568 180.00 0.74375 1.05
32 6 2 o 23.719 25.715 180.00 0.74375 0.04
24 22 2 o 90.655 98.286 0.00 0.74375 0.15
26 18 8 o 26.975 29.245 180.00 0.74375 0.05
27 17 7 o 925.494 995.848 0.00 0.74270 1.57
25 21 1 o 38.608 41.543 180.00 0.74270 0.07
25 19 9 o 42.085 45.284 0.00 0.74270 0.07
23 23 3 o 1.609 1.732 0.00 0.74270 0.00
29 15 1 o 0.161 0.173 0.00 0.74270 0.00
31 9 5 o 1260.201 1355.999 180.00 0.74270 2.14
27 13 13 o 628.478 676.254 180.00 0.74270 0.53
26 14 14 o 85.768 92.636 180.00 0.74235 0.07
22 22 10 o 27.836 30.065 0.00 0.74235 0.02
28 12 12 o 64.222 74.033 180.00 0.74097 0.05
25 21 3 o 49.587 58.478 180.00 0.73993 0.08
27 15 11 o 49.234 58.061 0.00 0.73993 0.08
25 15 15 o 174.626 205.935 0.00 0.73993 0.15
29 15 3 o 341.078 402.230 0.00 0.73993 0.57
28 16 6 o 24.757 28.835 0.00 0.73959 0.04
26 16 12 o 25.806 30.058 0.00 0.73959 0.04
24 20 10 o 3.076 3.583 180.00 0.73959 0.01
32 6 4 o 0.007 0.008 180.00 0.73959 0.00
24 22 4 o 19.180 22.340 180.00 0.73959 0.03
22 20 14 o 192.837 209.015 180.00 0.73822 0.32
30 12 6 o 1.639 1.776 180.00 0.73822 0.00
26 20 2 o 4.349 4.714 0.00 0.73822 0.01
28 14 10 o 0.046 0.049 180.00 0.73822 0.00
25 17 13 o 467.877 503.369 0.00 0.73719 0.77
19 19 19 o 0.513 0.552 180.00 0.73719 0.00
31 11 1 o 219.296 235.931 0.00 0.73719 0.36
23 23 5 o 26.375 28.375 0.00 0.73719 0.02
29 11 11 o 17.898 19.256 180.00 0.73719 0.01
32 8 0 o 105.763 111.671 180.00 0.73550 0.09
24 16 16 o 21.206 22.391 180.00 0.73550 0.02
23 21 11 o 967.087 1003.668 0.00 0.73448 1.57
33 1 1 o 3.606 3.742 0.00 0.73448 0.00
29 13 9 o 13.700 14.218 180.00 0.73448 0.02
29 15 5 o 25.423 26.385 180.00 0.73448 0.04
25 21 5 o 323.570 335.810 180.00 0.73448 0.52
21 19 17 o 114.617 118.953 0.00 0.73448 0.19
27 19 1 o 21.398 22.207 0.00 0.73448 0.03
31 9 7 o 246.489 255.813 0.00 0.73448 0.40
31 11 3 o 4456.548 4625.120 0.00 0.73448 7.23
26 20 4 o 126.846 132.399 180.00 0.73415 0.21
32 8 2 o 12.457 13.002 0.00 0.73415 0.02
30 14 0 o 169.540 185.736 0.00 0.73281 0.14
24 22 6 o 473.789 519.052 180.00 0.73281 0.76
32 6 6 o 5.098 5.585 0.00 0.73281 0.00
24 18 14 o 1.133 1.241 0.00 0.73281 0.00
27 19 3 o 235.403 261.832 0.00 0.73181 0.38
33 3 1 o 22.909 25.481 0.00 0.73181 0.04
27 17 9 o 5.736 6.380 180.00 0.73181 0.01
26 18 10 o 19.669 21.819 180.00 0.73147 0.03
30 14 2 o 134.148 148.816 180.00 0.73147 0.21
30 10 10 o 42.088 46.691 0.00 0.73147 0.03
32 8 4 o 83.889 90.602 180.00 0.73015 0.13
28 16 8 o 14.896 16.088 180.00 0.73015 0.02
25 19 11 o 2135.054 2268.101 180.00 0.72916 3.36
23 23 7 o 604.852 642.544 180.00 0.72916 0.48
23 17 17 o 1457.628 1548.461 180.00 0.72916 1.15
31 11 5 o 11.583 12.305 180.00 0.72916 0.02
33 3 3 o 434.334 461.400 180.00 0.72916 0.34
21 21 15 o 80.362 85.370 180.00 0.72916 0.06
30 12 8 o 197.819 208.770 180.00 0.72883 0.31
26 20 6 o 25.440 25.908 180.00 0.72752 0.04
22 22 12 o 6191.336 6305.259 0.00 0.72752 4.83
28 18 2 o 21.191 21.581 0.00 0.72752 0.03
30 14 4 o 282.416 287.612 0.00 0.72752 0.44
27 19 5 o 6.241 6.333 0.00 0.72654 0.01
29 15 7 o 0.770 0.781 180.00 0.72654 0.00
25 21 7 o 82.133 83.345 0.00 0.72654 0.13
23 19 15 o 6.242 6.334 0.00 0.72654 0.01
33 5 1 o 348.298 353.436 0.00 0.72654 0.54
24 20 12 o 338.761 357.316 180.00 0.72491 0.52
31 9 9 o 1.259 1.331 180.00 0.72394 0.00
33 5 3 o 14.141 14.946 0.00 0.72394 0.02
27 15 13 o 66.188 69.956 180.00 0.72394 0.10
20 20 18 o 1.684 1.781 180.00 0.72362 0.00
32 8 6 o 8.713 9.216 180.00 0.72362 0.01
28 14 12 o 156.850 165.910 180.00 0.72362 0.24
28 18 4 o 0.178 0.188 180.00 0.72362 0.00
24 22 8 o 119.758 126.675 0.00 0.72362 0.18
32 10 2 o 279.519 300.275 0.00 0.72234 0.42
26 16 14 o 104.969 112.764 0.00 0.72234 0.16
29 17 1 o 464.670 513.307 180.00 0.72138 0.70
31 13 1 o 96.332 106.415 0.00 0.72138 0.15
31 11 7 o 2.013 2.224 0.00 0.72138 0.00
29 13 11 o 21.502 23.752 0.00 0.72138 0.03
30 14 6 o 617.572 687.856 0.00 0.72106 0.93
22 18 18 o 155.051 172.697 180.00 0.72106 0.12
29 17 3 o 26.207 29.702 0.00 0.71884 0.04
25 17 15 o 3.032 3.436 180.00 0.71884 0.00
31 13 3 o 173.744 196.919 180.00 0.71884 0.26
27 19 7 o 515.540 584.307 180.00 0.71884 0.77
27 17 11 o 17.507 19.842 180.00 0.71884 0.03
23 23 9 o 22.259 25.228 0.00 0.71884 0.02
33 5 5 o 269.290 305.210 180.00 0.71884 0.20
33 7 1 o 47.392 53.713 180.00 0.71884 0.07
23 21 13 o 144.551 163.833 0.00 0.71884 0.22
32 10 4 o 41.955 46.564 0.00 0.71853 0.06
28 16 10 o 112.675 125.054 0.00 0.71853 0.17
22 20 16 o 5.805 6.443 0.00 0.71853 0.01
26 20 8 o 0.118 0.131 180.00 0.71853 0.00
30 12 10 o 44.203 44.758 0.00 0.71727 0.07
28 18 6 o 1884.487 1908.114 0.00 0.71727 2.78
26 18 12 o 168.795 170.912 180.00 0.71727 0.25
25 21 9 o 82.822 82.561 180.00 0.71633 0.12
29 15 9 o 8.407 8.380 180.00 0.71633 0.01
33 7 3 o 119.009 118.634 0.00 0.71633 0.17
24 24 0 o 0.782 0.837 0.00 0.71477 0.00
32 8 8 o 156.874 167.946 180.00 0.71477 0.11
29 17 5 o 973.039 1046.908 0.00 0.71385 1.41
25 19 13 o 9.277 9.982 180.00 0.71385 0.01
25 23 1 o 60.440 65.028 0.00 0.71385 0.09
31 13 5 o 161.811 174.094 0.00 0.71385 0.23
24 24 2 o 39.775 42.551 0.00 0.71354 0.03
24 18 16 o 68.408 73.182 0.00 0.71354 0.10
24 22 10 o 173.828 184.689 0.00 0.71231 0.25
34 2 0 o 0.028 0.030 0.00 0.71231 0.00
30 16 2 o 1373.872 1459.719 0.00 0.71231 1.97
30 14 8 o 107.671 114.399 180.00 0.71231 0.15
26 22 0 o 31.610 33.585 180.00 0.71231 0.02
32 10 6 o 245.385 260.718 0.00 0.71231 0.35
31 11 9 o 89.704 96.112 180.00 0.71139 0.13
25 23 3 o 0.238 0.255 0.00 0.71139 0.00
33 7 5 o 621.497 665.894 0.00 0.71139 0.89
21 19 19 o 6.603 7.075 180.00 0.71139 0.00
34 2 2 o 7.155 7.702 180.00 0.71108 0.01
26 22 2 o 13.699 14.747 0.00 0.71108 0.02
22 22 14 o 18.710 20.141 180.00 0.71108 0.01
32 12 0 o 773.441 853.924 180.00 0.70986 0.55
24 24 4 o 110.652 122.166 0.00 0.70986 0.08
21 21 17 o 206.441 227.341 180.00 0.70895 0.15
33 9 1 o 23.212 25.562 180.00 0.70895 0.03
27 21 1 o 80.829 89.012 180.00 0.70895 0.11
27 19 9 o 1050.983 1157.386 0.00 0.70895 1.48
32 12 2 o 34.513 37.844 0.00 0.70865 0.05
30 16 4 o 333.241 365.396 180.00 0.70865 0.47
28 18 8 o 0.167 0.183 0.00 0.70865 0.00
24 20 14 o 68.619 75.241 0.00 0.70865 0.10
26 20 10 o 488.961 530.551 180.00 0.70744 0.68
28 14 14 o 230.451 250.052 0.00 0.70744 0.16
26 22 4 o 3.557 3.860 0.00 0.70744 0.00
34 4 2 o 53.477 58.025 180.00 0.70744 0.07
23 23 11 o 2865.191 3063.074 0.00 0.70654 1.99
25 23 5 o 2.270 2.427 0.00 0.70654 0.00
33 9 3 o 175.650 187.781 180.00 0.70654 0.24
29 13 13 o 7.113 7.605 0.00 0.70654 0.00
27 21 3 o 5.366 5.737 180.00 0.70654 0.01
27 15 15 o 26.821 28.674 0.00 0.70654 0.02
23 19 17 o 44.386 47.451 0.00 0.70654 0.06
29 17 7 o 368.280 393.715 0.00 0.70654 0.51
31 13 7 o 1.847 1.974 180.00 0.70654 0.00
28 16 12 o 2.312 2.410 180.00 0.70505 0.00
28 20 0 o 10.000 10.423 180.00 0.70505 0.01
32 12 4 o 313.837 327.118 180.00 0.70505 0.43
29 15 11 o 0.000 0.000 0.00 0.70416 0.00
31 15 1 o 12.243 13.524 180.00 0.70416 0.02
27 17 13 o 18.074 19.965 0.00 0.70416 0.02
25 21 11 o 60.829 67.192 180.00 0.70416 0.08
33 7 7 o 6.675 7.373 180.00 0.70416 0.00
30 12 12 o 2.579 2.969 180.00 0.70386 0.00
24 24 6 o 0.090 0.103 0.00 0.70386 0.00
28 20 2 o 109.647 126.195 180.00 0.70386 0.15
34 4 4 o 27.287 31.405 180.00 0.70386 0.02
26 16 16 o 48.044 55.294 180.00 0.70386 0.03
32 10 8 o 0.014 0.016 180.00 0.70386 0.00
30 16 6 o 19.210 27.440 0.00 0.70268 0.03
34 6 0 o 208.632 298.022 0.00 0.70268 0.14
33 9 5 o 5.387 8.739 0.00 0.70180 0.01
27 21 5 o 0.500 0.811 180.00 0.70180 0.00
31 15 3 o 66.684 108.180 0.00 0.70180 0.09
23 21 15 o 75.412 122.340 0.00 0.70180 0.10
26 18 14 o 101.751 170.353 180.00 0.70150 0.14
34 6 2 o 11.586 19.397 180.00 0.70150 0.02
30 14 10 o 2.970 4.973 0.00 0.70150 0.00
26 22 6 o 32.206 53.920 180.00 0.70150 0.04
20 20 20 o 18.492 28.132 0.00 0.70033 0.00
28 20 4 o 59.668 90.774 180.00 0.70033 0.08
31 11 11 o 10.829 13.187 180.00 0.69946 0.01
25 17 17 o 4.244 5.168 180.00 0.69946 0.00
25 23 7 o 36.757 44.762 180.00 0.69946 0.05
29 19 1 o 40.219 48.978 180.00 0.69946 0.05
24 22 12 o 0.634 0.732 0.00 0.69917 0.00
32 12 6 o 45.063 52.032 180.00 0.69917 0.06
22 20 18 o 6.590 7.042 0.00 0.69801 0.01
34 6 4 o 97.422 104.105 0.00 0.69801 0.13
28 18 10 o 1.511 1.614 180.00 0.69801 0.00
27 19 11 o 379.716 397.840 180.00 0.69715 0.50
25 19 15 o 2.711 2.841 180.00 0.69715 0.00
31 15 5 o 56.774 59.483 180.00 0.69715 0.07
33 11 1 o 2031.587 2128.553 180.00 0.69715 2.67
31 13 9 o 171.797 179.997 0.00 0.69715 0.23
29 17 9 o 60.013 62.877 0.00 0.69715 0.08
29 19 3 o 173.539 181.822 180.00 0.69715 0.23
24 24 8 o 836.047 858.391 180.00 0.69571 0.55
35 1 1 o 48.145 46.829 180.00 0.69258 0.03
29 19 5 o 36.112 35.125 0.00 0.69258 0.05
23 23 13 o 183.585 178.567 180.00 0.69258 0.12
30 18 2 o 0.577 0.563 0.00 0.69230 0.00
34 6 6 o 2460.166 2401.481 0.00 0.69230 1.58
33 9 7 o 65.681 65.832 180.00 0.69485 0.09
33 11 3 o 4.562 4.573 180.00 0.69485 0.01
27 21 7 o 5.175 5.187 180.00 0.69485 0.01
26 20 12 o 72.735 72.197 0.00 0.69457 0.09
28 20 6 o 6.983 6.931 180.00 0.69457 0.01
30 16 8 o 219.093 217.473 0.00 0.69457 0.28
32 12 8 o 31.533 31.118 180.00 0.69118 0.04
24 20 16 o 64.637 63.786 180.00 0.69118 0.08
22 22 16 o 89.237 86.462 0.00 0.69343 0.06
24 18 18 o 161.681 156.654 180.00 0.69343 0.10
26 22 8 o 1012.819 981.330 180.00 0.69343 1.31
34 8 2 o 15.961 15.465 0.00 0.69343 0.02
30 18 0 o 411.500 398.706 180.00 0.69343 0.27
32 10 10 o 45.093 43.691 0.00 0.69343 0.03
32 14 2 o 201.093 194.841 180.00 0.69343 0.26
25 23 9 o 1318.625 1289.507 180.00 0.69034 1.67
31 15 7 o 423.182 413.837 180.00 0.69034 0.54
35 3 1 o 57.015 55.756 180.00 0.69034 0.07
33 11 5 o 60.280 58.949 180.00 0.69034 0.08
29 15 13 o 71.950 70.362 0.00 0.69034 0.09
25 21 13 o 0.531 0.519 180.00 0.69034 0.00
34 8 4 o 150.061 145.916 180.00 0.69006 0.19
28 16 14 o 54.527 53.021 0.00 0.69006 0.07
32 14 4 o 0.071 0.069 180.00 0.69006 0.00
30 18 4 o 194.061 188.313 180.00 0.68894 0.24
30 14 12 o 27.149 26.345 180.00 0.68894 0.03
21 21 19 o 0.063 0.062 0.00 0.68811 0.00
35 3 3 o 137.844 135.920 180.00 0.68811 0.09
27 17 15 o 65.076 64.168 0.00 0.68811 0.08
28 20 8 o 6765.854 6759.474 0.00 0.68673 8.39
31 13 11 o 104.290 105.544 180.00 0.68591 0.13
31 17 1 o 163.880 165.851 0.00 0.68591 0.20
27 21 9 o 299.373 302.973 0.00 0.68591 0.37
25 25 1 o 481.262 487.050 0.00 0.68591 0.30
35 5 1 o 92.100 93.208 0.00 0.68591 0.11
23 19 19 o 363.966 368.344 0.00 0.68591 0.22
29 19 7 o 475.104 480.818 0.00 0.68591 0.59
33 9 9 o 2009.579 2033.746 0.00 0.68591 1.24
29 17 11 o 235.187 238.015 180.00 0.68591 0.29
24 24 10 o 208.601 211.965 0.00 0.68564 0.13
28 18 12 o 73.555 74.741 180.00 0.68564 0.09
34 8 6 o 53.713 55.188 180.00 0.68454 0.07
34 10 0 o 3575.045 3673.227 180.00 0.68454 2.19
26 24 2 o 13.705 14.081 0.00 0.68454 0.02
32 14 6 o 235.487 241.954 180.00 0.68454 0.29
30 16 10 o 20.697 21.265 180.00 0.68454 0.03
24 22 14 o 198.712 204.169 0.00 0.68454 0.24
26 18 16 o 41.477 42.616 180.00 0.68454 0.05
33 13 1 o 0.307 0.317 0.00 0.68373 0.00
27 19 13 o 284.491 293.086 180.00 0.68373 0.35
31 17 3 o 2553.229 2630.364 180.00 0.68373 3.11
25 25 3 o 22.547 23.229 0.00 0.68373 0.01
33 11 7 o 75.674 77.960 180.00 0.68373 0.09
23 21 17 o 0.110 0.113 0.00 0.68373 0.00
35 5 3 o 67.466 69.504 180.00 0.68373 0.08
27 23 1 o 39.778 40.979 180.00 0.68373 0.05
30 18 6 o 8.519 8.775 180.00 0.68346 0.01
34 10 2 o 99.792 102.781 180.00 0.68346 0.12
26 22 10 o 83.678 86.185 180.00 0.68346 0.10
27 23 3 o 19.844 19.393 180.00 0.68156 0.02
33 13 3 o 1.254 1.226 180.00 0.68156 0.00
31 15 9 o 5.008 4.894 0.00 0.68156 0.01
26 24 4 o 0.128 0.124 180.00 0.68130 0.00
32 12 10 o 1.405 1.358 180.00 0.68130 0.00
26 20 14 o 57.045 54.263 180.00 0.68022 0.07
34 10 4 o 2.428 2.309 0.00 0.68022 0.00
28 22 2 o 1.240 1.180 180.00 0.68022 0.00
25 19 17 o 1943.411 1862.655 180.00 0.67942 2.31
35 7 1 o 80.513 77.167 0.00 0.67942 0.10
35 5 5 o 426.937 409.196 0.00 0.67942 0.25
31 17 5 o 1.005 0.964 0.00 0.67942 0.00
25 23 11 o 54.380 52.120 0.00 0.67942 0.06
25 25 5 o 590.375 565.843 0.00 0.67942 0.35
32 16 0 o 0.918 0.897 0.00 0.67809 0.00
27 23 5 o 726.817 706.920 180.00 0.67730 0.85
35 7 3 o 129.852 126.298 180.00 0.67730 0.15
33 13 5 o 253.085 246.156 180.00 0.67730 0.30
29 21 1 o 6.427 6.251 180.00 0.67730 0.01
23 23 15 o 73.948 71.923 0.00 0.67730 0.04
29 19 9 o 1136.625 1105.510 0.00 0.67730 1.33
34 8 8 o 266.370 257.648 0.00 0.67704 0.16
32 16 2 o 41.861 40.490 180.00 0.67704 0.05
32 14 8 o 1.324 1.280 180.00 0.67704 0.00
22 20 20 o 8.442 8.166 180.00 0.67704 0.00
28 20 10 o 17.759 17.178 180.00 0.67704 0.02
28 22 4 o 73.905 71.485 180.00 0.67704 0.09
26 24 6 o 130.892 123.919 0.00 0.67599 0.15
30 18 8 o 91.483 86.609 0.00 0.67599 0.11
25 21 15 o 323.419 300.145 0.00 0.67520 0.37
29 21 3 o 18.715 17.368 0.00 0.67520 0.02
27 21 11 o 1.586 1.471 180.00 0.67520 0.00
33 11 9 o 2.295 2.129 180.00 0.67520 0.00
29 15 15 o 11.502 10.674 0.00 0.67520 0.01
22 22 18 o 6.950 6.409 0.00 0.67494 0.00
34 10 6 o 38.919 35.891 180.00 0.67494 0.05
30 14 14 o 1.444 1.332 0.00 0.67494 0.00
24 24 12 o 24.527 22.329 0.00 0.67390 0.01
32 16 4 o 58.589 53.338 180.00 0.67390 0.07
36 0 0 o 44.412 40.431 180.00 0.67390 0.01
28 16 16 o 3129.455 2848.966 0.00 0.67390 1.80
29 17 13 o 54.282 48.205 180.00 0.67312 0.06
31 17 7 o 66.951 59.456 0.00 0.67312 0.08
31 13 13 o 15.034 13.351 0.00 0.67312 0.01
35 7 5 o 0.235 0.209 0.00 0.67312 0.00
25 25 7 o 73.734 65.479 0.00 0.67312 0.04
24 20 18 o 34.676 30.347 180.00 0.67286 0.04
30 16 12 o 1.642 1.437 180.00 0.67286 0.00
28 18 14 o 280.175 229.242 180.00 0.67183 0.32
30 20 2 o 25.119 20.553 0.00 0.67183 0.03
28 22 6 o 1250.695 1023.329 180.00 0.67183 1.42
26 22 12 o 4.398 3.599 0.00 0.67183 0.00
34 12 2 o 161.193 131.889 0.00 0.67183 0.18
36 2 2 o 163.993 134.180 180.00 0.67183 0.09
35 9 1 o 215.815 172.295 0.00 0.67105 0.24
27 17 17 o 1882.740 1503.074 0.00 0.67105 1.06
33 13 7 o 29.511 23.560 180.00 0.67105 0.03
29 21 5 o 17.830 14.234 180.00 0.67105 0.02
31 15 11 o 0.269 0.215 180.00 0.67105 0.00
27 23 7 o 98.057 78.284 180.00 0.67105 0.11
36 4 0 o 4.324 3.503 180.00 0.66977 0.00
32 12 12 o 489.284 396.422 0.00 0.66977 0.27
35 9 3 o 38.857 32.589 180.00 0.66901 0.04
33 15 1 o 14.823 12.432 0.00 0.66901 0.02
27 19 15 o 57.990 48.635 180.00 0.66901 0.06
26 24 8 o 11.068 9.441 180.00 0.66876 0.01
36 4 2 o 16.224 13.840 0.00 0.66876 0.02
32 16 6 o 0.000 0.000 0.00 0.66876 0.00
30 20 4 o 9.625 8.210 180.00 0.66876 0.01
34 12 4 o 9.569 8.163 180.00 0.66876 0.01
24 22 16 o 19.415 16.563 0.00 0.66876 0.02
34 10 8 o 559.369 501.086 0.00 0.66774 0.62
32 14 10 o 137.430 123.110 180.00 0.66774 0.15
21 21 21 o 326.805 295.750 180.00 0.66698 0.06
29 19 11 o 102.111 92.408 0.00 0.66698 0.11
33 15 3 o 349.347 316.150 0.00 0.66698 0.39
31 19 1 o 142.530 128.986 0.00 0.66698 0.16
35 7 7 o 168.145 152.167 0.00 0.66698 0.09
25 23 13 o 712.441 644.741 0.00 0.66698 0.79
26 18 18 o 6.768 6.153 0.00 0.66673 0.00
30 18 10 o 5.256 4.778 0.00 0.66673 0.01
36 4 4 o 253.806 240.956 180.00 0.66573 0.14
28 20 12 o 223.763 212.434 180.00 0.66573 0.24
35 9 5 o 51.126 49.735 0.00 0.66498 0.06
23 21 19 o 50.024 48.663 180.00 0.66498 0.05
31 19 3 o 89.791 87.348 180.00 0.66498 0.10
29 21 7 o 32.274 31.396 180.00 0.66498 0.04
33 11 11 o 0.034 0.033 0.00 0.66498 0.00
25 25 9 o 144.217 140.294 0.00 0.66498 0.08
31 17 9 o 70.813 68.887 180.00 0.66498 0.08
26 20 16 o 196.058 191.094 180.00 0.66473 0.21
28 22 8 o 4.249 4.141 0.00 0.66473 0.00
34 12 6 o 274.709 268.001 180.00 0.66373 0.30
36 6 2 o 619.759 604.626 180.00 0.66373 0.67
30 20 6 o 59.726 58.268 180.00 0.66373 0.06
27 21 13 o 196.127 196.129 180.00 0.66299 0.21
33 13 9 o 15.919 15.919 0.00 0.66299 0.02
33 15 5 o 78.044 78.045 0.00 0.66299 0.08
27 23 9 o 8.469 8.469 0.00 0.66299 0.01
32 16 8 o 31.482 33.312 180.00 0.66175 0.03
25 19 19 o 173.950 185.191 0.00 0.66102 0.09
31 19 5 o 274.860 292.621 180.00 0.66102 0.29
35 11 1 o 786.364 837.179 0.00 0.66102 0.84
23 23 17 o 7.183 7.647 0.00 0.66102 0.00
36 6 4 o 69.129 73.431 180.00 0.66077 0.07
24 24 14 o 77.261 82.069 0.00 0.66077 0.04
26 26 0 o 416.600 438.874 0.00 0.65979 0.11
30 16 14 o 90.358 95.189 180.00 0.65979 0.10
32 18 2 o 46.955 49.466 180.00 0.65979 0.05
26 24 10 o 9.797 10.321 0.00 0.65979 0.01
34 14 0 o 4.443 4.680 180.00 0.65979 0.00
25 21 17 o 8.655 8.964 0.00 0.65906 0.01
31 15 13 o 21.684 22.460 0.00 0.65906 0.02
35 11 3 o 85.763 88.832 180.00 0.65906 0.09
29 17 15 o 151.430 156.847 0.00 0.65906 0.16
27 25 1 o 35.134 36.391 0.00 0.65906 0.04
35 9 7 o 37.584 38.929 0.00 0.65906 0.04
26 22 14 o 897.761 922.751 0.00 0.65882 0.94
34 10 10 o 117.952 121.235 180.00 0.65882 0.06
34 14 2 o 682.759 701.765 0.00 0.65882 0.72
26 26 2 o 13.921 14.308 0.00 0.65882 0.01
36 8 0 o 5669.862 5692.032 0.00 0.65785 2.96
28 24 0 o 188.298 189.034 180.00 0.65785 0.10
33 15 7 o 290.034 288.743 180.00 0.65712 0.30
27 25 3 o 0.462 0.460 180.00 0.65712 0.00
29 21 9 o 338.838 337.330 180.00 0.65712 0.35
28 18 16 o 104.396 103.624 0.00 0.65688 0.11
32 14 12 o 13.373 13.274 0.00 0.65688 0.01
28 24 2 o 2.687 2.667 0.00 0.65688 0.00
32 18 4 o 15.021 14.910 180.00 0.65688 0.02
30 20 8 o 28.667 28.455 180.00 0.65688 0.03
36 8 2 o 1.721 1.709 180.00 0.65688 0.00
34 12 8 o 4.732 4.697 0.00 0.65688 0.00
34 14 4 o 63.180 61.565 0.00 0.65592 0.07
36 6 6 o 44.758 43.614 0.00 0.65592 0.02
28 22 10 o 130.922 127.577 180.00 0.65592 0.14
30 18 12 o 148.886 145.082 0.00 0.65592 0.15
22 22 20 o 0.456 0.445 180.00 0.65592 0.00
26 26 4 o 197.652 192.601 0.00 0.65592 0.10
37 1 1 o 41.905 40.642 180.00 0.65520 0.02
31 19 7 o 0.021 0.021 0.00 0.65520 0.00
29 23 1 o 0.513 0.498 180.00 0.65520 0.00
25 25 11 o 829.950 804.928 180.00 0.65520 0.43
31 17 11 o 14.879 14.431 0.00 0.65520 0.02
29 19 13 o 316.976 307.420 180.00 0.65520 0.33
35 11 5 o 76.984 74.663 180.00 0.65520 0.08
24 20 20 o 522.011 515.441 180.00 0.65401 0.27
28 24 4 o 33.497 33.075 180.00 0.65401 0.03
36 8 4 o 11.984 11.833 0.00 0.65401 0.01
33 17 1 o 6.845 6.673 0.00 0.65330 0.01
27 19 17 o 83.657 81.558 0.00 0.65330 0.08
33 13 11 o 374.013 364.628 0.00 0.65330 0.38
37 3 1 o 1.427 1.391 180.00 0.65330 0.00
27 23 11 o 0.090 0.088 180.00 0.65330 0.00
27 25 5 o 72.268 70.455 0.00 0.65330 0.07
25 23 15 o 45.810 44.661 0.00 0.65330 0.05
29 23 3 o 27.252 26.568 0.00 0.65330 0.03
32 16 10 o 64.326 62.128 0.00 0.65306 0.07
28 20 14 o 178.376 172.280 180.00 0.65306 0.18
32 18 6 o 9.112 8.565 180.00 0.65212 0.01
24 22 18 o 16.899 15.884 0.00 0.65212 0.02
30 22 0 o 64.821 60.930 0.00 0.65212 0.03
37 3 3 o 1.894 1.766 180.00 0.65141 0.00
33 17 3 o 1.504 1.401 0.00 0.65141 0.00
35 9 9 o 477.737 445.302 0.00 0.65141 0.24
26 26 6 o 84.750 78.750 180.00 0.65118 0.04
34 14 6 o 62.715 58.275 180.00 0.65118 0.06
30 22 2 o 276.825 257.227 0.00 0.65118 0.28
35 11 7 o 36.179 35.577 180.00 0.64954 0.04
29 23 5 o 12.704 12.493 180.00 0.64954 0.01
35 13 1 o 69.338 68.185 180.00 0.64954 0.07
33 15 9 o 281.440 276.762 180.00 0.64954 0.28
37 5 1 o 0.009 0.009 0.00 0.64954 0.00
27 21 15 o 44.301 43.564 180.00 0.64954 0.04
26 24 12 o 196.859 195.906 180.00 0.64931 0.20
36 8 6 o 487.541 485.181 0.00 0.64931 0.48
28 24 6 o 65.238 64.922 0.00 0.64931 0.06
36 10 2 o 15.505 16.089 180.00 0.64838 0.02
30 22 4 o 161.796 167.888 0.00 0.64838 0.16
34 12 10 o 262.310 272.186 0.00 0.64838 0.26
30 20 10 o 282.027 292.645 0.00 0.64838 0.28
26 20 18 o 459.322 476.616 0.00 0.64838 0.45
31 19 9 o 37.002 39.376 0.00 0.64769 0.04
27 25 7 o 177.972 189.387 180.00 0.64769 0.17
33 17 5 o 3.640 3.873 180.00 0.64769 0.00
35 13 3 o 448.255 477.007 0.00 0.64769 0.44
37 5 3 o 497.878 529.813 180.00 0.64769 0.49
31 21 1 o 154.440 164.346 0.00 0.64769 0.15
29 21 11 o 4.875 5.187 180.00 0.64769 0.00
24 24 16 o 215.693 224.018 0.00 0.64654 0.11
23 21 21 o 59.732 60.113 0.00 0.64585 0.03
31 15 15 o 55.858 56.214 180.00 0.64585 0.03
31 21 3 o 98.313 98.940 0.00 0.64585 0.10
30 16 16 o 3.517 3.505 0.00 0.64562 0.00
28 22 12 o 29.146 29.047 180.00 0.64562 0.03
36 10 4 o 128.122 127.689 180.00 0.64562 0.12
32 18 8 o 7.443 7.418 180.00 0.64562 0.01
32 14 14 o 110.842 107.679 0.00 0.64471 0.05
34 14 8 o 588.526 571.733 180.00 0.64471 0.57
34 16 2 o 12.118 11.772 180.00 0.64471 0.01
26 22 16 o 139.244 135.270 180.00 0.64471 0.13
26 26 8 o 474.056 460.529 180.00 0.64471 0.23
31 17 13 o 133.598 130.056 180.00 0.64403 0.13
25 25 13 o 529.131 515.103 180.00 0.64403 0.25
29 17 17 o 453.916 441.881 180.00 0.64403 0.22
29 23 7 o 186.721 181.771 0.00 0.64403 0.18
23 23 19 o 34.848 33.924 180.00 0.64403 0.02
37 7 1 o 119.998 116.817 0.00 0.64403 0.12
37 5 5 o 9.388 9.139 180.00 0.64403 0.00
35 13 5 o 221.368 215.499 180.00 0.64403 0.21
30 18 14 o 100.921 98.654 180.00 0.64380 0.10
30 22 6 o 77.717 75.971 180.00 0.64380 0.07
32 20 0 o 51.859 51.862 0.00 0.64290 0.02
28 24 8 o 77.053 77.058 180.00 0.64290 0.07
36 8 8 o 85.746 85.752 180.00 0.64290 0.04
32 16 12 o 19.118 19.119 180.00 0.64290 0.02
27 23 13 o 50.799 52.185 0.00 0.64222 0.05
33 17 7 o 55.686 57.205 180.00 0.64222 0.05
29 19 15 o 8.117 8.338 0.00 0.64222 0.01
33 13 13 o 579.450 595.261 180.00 0.64222 0.27
31 21 5 o 34.376 35.314 0.00 0.64222 0.03
37 7 3 o 48.905 50.239 0.00 0.64222 0.05
25 21 19 o 43.417 44.601 180.00 0.64222 0.04
35 11 9 o 67.216 69.050 0.00 0.64222 0.06
34 16 4 o 0.000 0.000 180.00 0.64199 0.00
32 20 2 o 9.221 9.563 180.00 0.64199 0.01
36 10 6 o 49.741 52.554 180.00 0.64110 0.05
28 18 18 o 428.402 452.628 180.00 0.64110 0.20
33 15 11 o 55.374 58.257 0.00 0.64043 0.05
27 25 9 o 170.344 179.215 180.00 0.64043 0.16
36 12 0 o 40.261 41.272 180.00 0.63931 0.02
28 20 16 o 3.024 3.100 180.00 0.63931 0.00
32 20 4 o 65.229 66.869 180.00 0.63931 0.06
25 23 17 o 111.890 114.036 0.00 0.63865 0.10
37 7 5 o 78.713 80.223 0.00 0.63865 0.07
31 19 11 o 1104.239 1125.423 0.00 0.63865 1.02
35 13 7 o 35.236 35.912 180.00 0.63865 0.03
34 12 12 o 245.863 251.660 0.00 0.63843 0.11
30 20 12 o 39.990 40.933 0.00 0.63843 0.04
36 12 2 o 335.754 343.670 180.00 0.63843 0.31
26 24 14 o 49.634 52.757 180.00 0.63755 0.05
34 16 6 o 171.098 181.864 180.00 0.63755 0.16
38 2 0 o 46.077 48.976 0.00 0.63755 0.02
32 18 10 o 52.866 56.192 180.00 0.63755 0.05
30 22 8 o 1106.455 1176.079 0.00 0.63755 1.02
29 21 13 o 9.760 10.638 180.00 0.63689 0.01
27 19 19 o 142.630 155.461 180.00 0.63689 0.07
37 9 1 o 688.044 749.944 180.00 0.63689 0.63
33 19 1 o 57.031 62.161 0.00 0.63689 0.05
31 21 7 o 107.097 116.732 0.00 0.63689 0.10
35 15 1 o 16.215 17.674 180.00 0.63689 0.01
29 23 9 o 3.822 4.166 0.00 0.63689 0.00
22 22 22 o 2232.031 2438.176 0.00 0.63667 0.34
38 2 2 o 100.700 110.001 0.00 0.63667 0.05
34 14 10 o 76.992 84.103 180.00 0.63667 0.07
26 26 10 o 70.664 77.190 180.00 0.63667 0.03
36 12 4 o 47.439 50.725 0.00 0.63579 0.04
37 9 3 o 0.180 0.188 180.00 0.63514 0.00
27 27 1 o 409.583 427.316 0.00 0.63514 0.19
27 21 17 o 1.130 1.179 0.00 0.63514 0.00
33 17 9 o 17.660 18.425 180.00 0.63514 0.02
33 19 3 o 1358.925 1417.762 180.00 0.63514 1.23
35 15 3 o 43.648 45.538 180.00 0.63514 0.04
24 22 20 o 214.633 222.114 180.00 0.63492 0.19
28 24 10 o 9.055 9.371 0.00 0.63492 0.01
32 20 6 o 36.223 37.485 0.00 0.63492 0.03
36 10 8 o 174.924 181.021 0.00 0.63492 0.16
28 26 2 o 7.883 7.748 180.00 0.63405 0.01
28 22 14 o 4.050 3.981 0.00 0.63405 0.00
38 4 2 o 17.944 17.637 0.00 0.63405 0.02
29 25 1 o 11.745 10.748 180.00 0.63340 0.01
27 27 3 o 134.671 123.242 180.00 0.63340 0.06
37 7 7 o 0.030 0.027 180.00 0.63340 0.00
35 11 11 o 214.292 196.106 0.00 0.63340 0.10
33 19 5 o 1.136 0.940 0.00 0.63168 0.00
31 17 15 o 8.843 7.314 0.00 0.63168 0.01
25 25 15 o 203.548 168.359 0.00 0.63168 0.09
35 13 9 o 192.712 159.396 180.00 0.63168 0.17
29 25 3 o 3.073 2.541 0.00 0.63168 0.00
37 9 5 o 51.382 42.499 0.00 0.63168 0.05
35 15 5 o 12.152 10.051 180.00 0.63168 0.01
27 25 11 o 0.591 0.489 180.00 0.63168 0.00
24 24 18 o 72.322 60.169 0.00 0.63147 0.03
34 16 8 o 0.007 0.005 180.00 0.63147 0.00
38 4 4 o 591.271 491.918 0.00 0.63147 0.26
32 16 14 o 0.111 0.093 0.00 0.63147 0.00
36 12 6 o 30.520 25.392 180.00 0.63147 0.03
26 20 20 o 5.946 4.947 0.00 0.63147 0.00
28 26 4 o 14.846 12.352 180.00 0.63147 0.01
38 6 0 o 0.006 0.005 0.00 0.63062 0.00
34 18 0 o 72.229 61.570 0.00 0.63062 0.03
30 18 16 o 59.305 50.554 0.00 0.63062 0.05
30 24 2 o 5.145 4.386 0.00 0.63062 0.00
33 15 13 o 1091.823 939.047 0.00 0.62998 0.96
27 27 5 o 21.243 18.270 0.00 0.62998 0.01
31 21 9 o 174.009 149.661 0.00 0.62998 0.15
27 23 15 o 161.680 139.057 180.00 0.62998 0.14
26 22 18 o 24.051 20.730 180.00 0.62976 0.02
34 18 2 o 52.428 45.188 180.00 0.62976 0.05
38 6 2 o 304.087 262.100 180.00 0.62976 0.27
30 22 10 o 100.197 86.362 180.00 0.62976 0.09
32 20 8 o 2.817 2.431 0.00 0.62892 0.00
29 25 5 o 22.319 19.580 180.00 0.62828 0.02
29 23 11 o 3.300 2.895 0.00 0.62828 0.00
37 11 1 o 36.686 32.184 180.00 0.62828 0.03
31 23 1 o 40.366 35.412 0.00 0.62828 0.04
31 19 13 o 6.096 5.348 180.00 0.62828 0.01
29 19 17 o 0.454 0.399 180.00 0.62828 0.00
32 18 12 o 4.659 4.124 0.00 0.62807 0.00
30 24 4 o 229.146 202.840 0.00 0.62807 0.20
34 18 4 o 159.316 144.293 180.00 0.62723 0.14
26 26 12 o 1.837 1.663 180.00 0.62723 0.00
30 20 14 o 36.402 32.969 0.00 0.62723 0.03
34 14 12 o 4.179 3.785 0.00 0.62723 0.00
38 6 4 o 184.291 166.913 180.00 0.62723 0.16
36 14 2 o 229.752 208.088 0.00 0.62723 0.20
28 26 6 o 102.328 92.679 0.00 0.62723 0.09
36 10 10 o 149.271 135.196 180.00 0.62723 0.06
35 15 7 o 3.732 3.376 180.00 0.62661 0.00
33 19 7 o 9.500 8.594 180.00 0.62661 0.01
31 23 3 o 324.623 293.662 0.00 0.62661 0.28
37 9 7 o 121.820 110.201 180.00 0.62661 0.10
23 23 21 o 0.151 0.137 180.00 0.62661 0.00
33 17 11 o 2013.716 1821.653 180.00 0.62661 1.73
37 11 3 o 154.517 139.780 180.00 0.62661 0.13
28 24 12 o 2.129 1.938 0.00 0.62556 0.00
36 12 8 o 127.330 115.879 0.00 0.62556 0.11
27 27 7 o 330.080 302.029 0.00 0.62494 0.14
25 21 21 o 1.362 1.247 180.00 0.62494 0.00
29 21 15 o 48.689 44.552 0.00 0.62494 0.04
36 14 4 o 59.283 54.429 180.00 0.62473 0.05
26 24 16 o 220.317 202.277 0.00 0.62473 0.19
28 20 18 o 2.311 2.122 180.00 0.62473 0.00
38 8 2 o 402.847 378.244 0.00 0.62391 0.34
32 22 2 o 390.328 366.489 0.00 0.62391 0.33
30 24 6 o 175.952 165.206 180.00 0.62391 0.15
34 16 10 o 177.223 166.399 180.00 0.62391 0.15
37 11 5 o 168.436 159.614 0.00 0.62329 0.14
35 17 1 o 10.043 9.517 0.00 0.62329 0.01
35 13 11 o 0.061 0.058 0.00 0.62329 0.00
31 23 5 o 2.700 2.559 180.00 0.62329 0.00
25 23 19 o 321.736 304.887 180.00 0.62329 0.27
29 25 7 o 17.988 17.046 180.00 0.62329 0.02
34 18 6 o 48.210 45.780 180.00 0.62308 0.04
38 6 6 o 14.775 14.030 180.00 0.62308 0.01
27 25 13 o 2.155 2.012 180.00 0.62165 0.00
35 17 3 o 192.402 179.568 0.00 0.62165 0.16
31 21 11 o 133.808 124.883 180.00 0.62165 0.11
39 1 1 o 923.029 861.459 0.00 0.62165 0.38
28 26 8 o 105.054 97.073 0.00 0.62145 0.09
32 20 10 o 5.599 5.173 180.00 0.62145 0.00
32 22 4 o 22.372 20.672 0.00 0.62145 0.02
38 8 4 o 8.940 8.260 180.00 0.62145 0.01
28 22 16 o 2.050 1.894 0.00 0.62145 0.00
36 14 6 o 212.644 190.420 0.00 0.62063 0.18
30 22 12 o 64.071 57.375 180.00 0.62063 0.05
35 15 9 o 68.077 60.499 0.00 0.62002 0.06
33 21 1 o 388.565 345.309 0.00 0.62002 0.32
39 3 1 o 75.159 66.792 0.00 0.62002 0.06
33 19 9 o 558.300 496.149 180.00 0.62002 0.46
27 21 19 o 235.469 209.256 0.00 0.62002 0.19
37 9 9 o 0.235 0.209 180.00 0.62002 0.00
32 16 16 o 0.064 0.058 0.00 0.61901 0.00
37 11 7 o 100.633 91.407 0.00 0.61841 0.08
39 3 3 o 1202.638 1092.376 0.00 0.61841 0.49
31 17 17 o 27.368 24.859 0.00 0.61841 0.01
27 27 9 o 309.443 281.072 0.00 0.61841 0.13
31 23 7 o 200.390 182.018 0.00 0.61841 0.16
25 25 17 o 991.508 900.603 0.00 0.61841 0.40
33 21 3 o 3.535 3.211 0.00 0.61841 0.00
35 17 5 o 0.962 0.874 0.00 0.61841 0.00
33 15 15 o 264.903 240.616 0.00 0.61841 0.11
37 13 1 o 164.305 149.241 0.00 0.61841 0.13
29 23 13 o 16.521 15.006 0.00 0.61841 0.01
30 24 8 o 1.505 1.369 0.00 0.61821 0.00
36 12 10 o 91.061 82.833 180.00 0.61821 0.07
24 22 22 o 83.370 76.619 180.00 0.61741 0.03
38 8 6 o 6.942 6.380 180.00 0.61741 0.01
32 22 6 o 43.086 39.597 180.00 0.61741 0.03
38 10 0 o 7.490 6.884 0.00 0.61741 0.00
32 18 14 o 25.815 23.724 0.00 0.61741 0.02
34 18 8 o 59.215 54.420 180.00 0.61741 0.05
39 5 1 o 75.623 70.659 180.00 0.61681 0.06
37 13 3 o 98.030 91.594 0.00 0.61681 0.08
31 19 15 o 155.119 144.935 0.00 0.61681 0.13
27 23 17 o 3.409 3.186 0.00 0.61681 0.00
33 17 13 o 0.511 0.477 180.00 0.61681 0.00
29 25 9 o 357.604 334.126 0.00 0.61681 0.29
38 10 2 o 18.058 16.987 180.00 0.61661 0.01
30 18 18 o 0.228 0.214 0.00 0.61661 0.00
26 26 14 o 77.236 72.653 180.00 0.61661 0.03
34 14 14 o 4925.717 4633.415 0.00 0.61661 1.98
24 24 20 o 9.700 9.358 180.00 0.61581 0.00
36 16 0 o 116.666 112.546 180.00 0.61581 0.05
33 21 5 o 288.093 279.906 180.00 0.61522 0.23
39 5 3 o 8.668 8.422 0.00 0.61522 0.01
34 16 12 o 303.566 295.037 180.00 0.61502 0.24
36 16 2 o 769.385 747.770 0.00 0.61502 0.61
36 14 8 o 6.912 6.717 0.00 0.61502 0.01
30 20 16 o 20.752 20.169 180.00 0.61502 0.02
28 24 14 o 89.947 87.420 180.00 0.61502 0.07
28 26 10 o 44.479 43.373 0.00 0.61423 0.04
38 10 4 o 49.940 48.699 0.00 0.61423 0.04
26 22 20 o 7.431 7.247 180.00 0.61423 0.01
34 20 2 o 521.829 508.859 180.00 0.61423 0.41
35 17 7 o 0.695 0.682 180.00 0.61364 0.00
29 19 19 o 197.775 193.940 0.00 0.61364 0.08
37 13 5 o 14.792 14.505 0.00 0.61364 0.01
35 13 13 o 53.675 52.634 0.00 0.61364 0.02
36 16 4 o 210.642 207.611 0.00 0.61266 0.17
32 20 12 o 724.981 714.548 180.00 0.61266 0.57
28 28 0 o 4311.377 4249.334 0.00 0.61266 0.85
39 5 5 o 3606.295 3509.559 180.00 0.61208 1.41
39 7 1 o 0.194 0.189 0.00 0.61208 0.00
37 11 9 o 74.830 72.823 180.00 0.61208 0.06
29 21 17 o 1.262 1.228 0.00 0.61208 0.00
31 23 9 o 828.794 806.562 180.00 0.61208 0.65
29 27 1 o 76.658 74.601 0.00 0.61208 0.06
35 15 11 o 0.003 0.003 180.00 0.61208 0.00
31 21 13 o 151.971 147.894 180.00 0.61208 0.12
33 19 11 o 0.750 0.730 0.00 0.61208 0.00
38 8 8 o 8.235 7.963 0.00 0.61188 0.00
34 20 4 o 190.252 183.975 0.00 0.61188 0.15
28 28 2 o 31.562 30.520 180.00 0.61188 0.01
32 22 8 o 34.961 33.808 180.00 0.61188 0.03
30 24 10 o 48.906 46.076 0.00 0.61111 0.04
26 24 18 o 2.996 2.823 0.00 0.61111 0.00
30 26 0 o 1041.708 981.417 180.00 0.61111 0.40
33 21 7 o 46.407 43.074 0.00 0.61053 0.04
27 27 11 o 330.622 306.882 180.00 0.61053 0.13
27 25 15 o 336.781 312.599 180.00 0.61053 0.26
39 7 3 o 179.315 166.440 0.00 0.61053 0.14
29 27 3 o 0.469 0.435 0.00 0.61053 0.00
38 10 6 o 1.357 1.254 180.00 0.61033 0.00
34 18 10 o 158.455 146.441 180.00 0.61033 0.12
30 26 2 o 45.744 42.275 180.00 0.61033 0.04
30 22 14 o 735.649 679.871 0.00 0.61033 0.57
28 28 4 o 285.442 261.059 0.00 0.60956 0.11
28 20 20 o 1705.779 1560.069 0.00 0.60956 0.66
36 12 12 o 39.633 36.248 180.00 0.60956 0.02
37 13 7 o 51.827 48.005 0.00 0.60899 0.04
35 19 1 o 16.829 15.588 0.00 0.60899 0.01
23 23 23 o 1237.104 1145.889 180.00 0.60899 0.16
31 25 1 o 674.989 625.220 180.00 0.60899 0.52
29 25 11 o 7.946 7.360 0.00 0.60899 0.01
36 16 6 o 7.410 6.928 0.00 0.60879 0.01
38 12 2 o 1.009 0.995 0.00 0.60803 0.00
30 26 4 o 209.825 206.985 180.00 0.60803 0.16
34 20 6 o 21.460 21.170 180.00 0.60803 0.02
36 14 10 o 167.892 165.619 0.00 0.60803 0.13
28 22 18 o 98.081 96.753 0.00 0.60803 0.07
29 27 5 o 63.882 65.129 0.00 0.60746 0.05
25 23 21 o 112.274 114.466 0.00 0.60746 0.09
37 15 1 o 63.248 64.483 0.00 0.60746 0.05
35 17 9 o 35.942 36.644 0.00 0.60746 0.03
35 19 3 o 64.244 65.498 180.00 0.60746 0.05
31 25 3 o 16.835 17.164 0.00 0.60746 0.01
39 7 5 o 197.885 201.748 0.00 0.60746 0.15
29 23 15 o 31.709 32.328 0.00 0.60746 0.02
40 0 0 o 1702.519 1786.109 0.00 0.60651 0.16
32 24 0 o 168.916 177.209 180.00 0.60651 0.06
39 9 1 o 130.451 139.533 0.00 0.60594 0.10
37 15 3 o 324.751 347.362 0.00 0.60594 0.24
33 17 15 o 7.476 7.997 0.00 0.60594 0.01
32 18 16 o 8.388 9.013 0.00 0.60575 0.01
28 26 12 o 0.109 0.117 0.00 0.60575 0.00
32 24 2 o 37.907 40.732 0.00 0.60575 0.03
28 28 6 o 26.027 27.967 180.00 0.60575 0.01
38 12 4 o 4.677 5.026 180.00 0.60575 0.00
38 10 8 o 13.929 14.954 0.00 0.60500 0.01
32 22 10 o 95.912 102.971 0.00 0.60500 0.07
34 16 14 o 33.334 35.787 180.00 0.60500 0.02
26 26 16 o 1.759 1.888 180.00 0.60500 0.00
40 2 2 o 112.042 120.288 0.00 0.60500 0.04
33 21 9 o 3.892 4.149 180.00 0.60443 0.00
39 9 3 o 1012.138 1078.885 180.00 0.60443 0.75
35 19 5 o 18.838 20.080 180.00 0.60443 0.01
37 11 11 o 18.415 19.629 0.00 0.60443 0.01
27 21 21 o 113.591 121.082 180.00 0.60443 0.04
25 25 19 o 12.974 13.830 180.00 0.60443 0.00
31 25 5 o 501.528 534.602 180.00 0.60443 0.37
31 23 11 o 0.050 0.053 0.00 0.60443 0.00
31 19 17 o 801.233 854.072 180.00 0.60443 0.60
30 26 6 o 5.458 5.818 0.00 0.60424 0.00
40 4 0 o 1.573 1.692 0.00 0.60350 0.00
36 16 8 o 136.649 147.023 0.00 0.60350 0.10
28 24 16 o 177.797 191.295 180.00 0.60350 0.13
32 24 4 o 48.049 51.697 0.00 0.60350 0.04
35 15 13 o 2.573 2.783 180.00 0.60294 0.00
33 19 13 o 580.304 627.462 180.00 0.60294 0.43
37 13 9 o 28.664 30.993 180.00 0.60294 0.02
39 7 7 o 23.359 25.258 0.00 0.60294 0.01
27 23 19 o 2.285 2.470 0.00 0.60294 0.00
37 15 5 o 73.152 79.097 0.00 0.60294 0.05
33 23 1 o 103.376 111.776 0.00 0.60294 0.08
29 27 7 o 167.506 181.118 180.00 0.60294 0.12
32 20 14 o 149.983 162.247 180.00 0.60275 0.11
34 20 8 o 66.595 72.040 180.00 0.60275 0.05
40 4 2 o 55.880 60.449 0.00 0.60275 0.04
30 24 12 o 131.435 142.182 180.00 0.60275 0.10
38 12 6 o 325.122 352.837 180.00 0.60201 0.24
30 20 18 o 249.739 271.027 180.00 0.60201 0.18
34 18 12 o 147.748 160.342 0.00 0.60201 0.11
36 18 2 o 1.997 2.167 180.00 0.60201 0.00
27 27 13 o 0.881 0.957 180.00 0.60145 0.00
33 23 3 o 30.457 33.072 0.00 0.60145 0.02
31 21 15 o 89.132 96.786 0.00 0.60145 0.07
39 9 5 o 7.148 7.762 0.00 0.60145 0.01
28 28 8 o 124.955 133.813 180.00 0.60053 0.05
40 4 4 o 62.923 67.384 180.00 0.60053 0.02
31 25 7 o 140.736 151.578 0.00 0.59998 0.10
35 19 7 o 0.883 0.951 0.00 0.59998 0.00
35 17 11 o 76.009 81.864 0.00 0.59998 0.05
29 25 13 o 50.902 54.823 180.00 0.59998 0.04
32 24 6 o 0.202 0.219 0.00 0.59980 0.00
36 18 4 o 50.026 54.170 180.00 0.59980 0.04
36 14 12 o 316.602 342.831 180.00 0.59980 0.23
24 24 22 o 22.387 24.242 0.00 0.59980 0.01
38 14 0 o 82.245 90.730 0.00 0.59906 0.03
40 6 2 o 53.807 59.358 0.00 0.59906 0.04
30 22 16 o 100.750 111.144 0.00 0.59906 0.07
30 26 8 o 130.580 144.052 0.00 0.59906 0.09
34 22 0 o 825.157 910.286 0.00 0.59906 0.30
37 15 7 o 15.434 17.082 180.00 0.59852 0.01
39 11 1 o 85.584 94.724 180.00 0.59852 0.06
33 23 5 o 86.855 96.130 0.00 0.59852 0.06
29 21 19 o 71.433 79.062 0.00 0.59852 0.05
27 25 17 o 59.460 65.810 180.00 0.59852 0.04
38 14 2 o 7.643 8.477 180.00 0.59833 0.01
38 10 10 o 158.826 176.150 0.00 0.59833 0.06
26 22 22 o 45.700 50.685 180.00 0.59833 0.02
34 22 2 o 57.902 64.217 180.00 0.59833 0.04
39 11 3 o 0.571 0.626 0.00 0.59707 0.00
33 21 11 o 193.718 212.115 0.00 0.59707 0.14
39 9 7 o 190.731 208.845 0.00 0.59707 0.14
29 27 9 o 21.973 24.060 0.00 0.59707 0.02
40 6 4 o 86.221 93.254 180.00 0.59688 0.06
26 24 20 o 57.131 61.792 0.00 0.59688 0.04
32 22 12 o 57.258 61.928 180.00 0.59688 0.04
36 16 10 o 107.368 116.126 0.00 0.59688 0.08
38 12 8 o 54.633 59.089 180.00 0.59688 0.04
38 14 4 o 186.482 193.677 0.00 0.59616 0.13
34 20 10 o 98.398 102.194 0.00 0.59616 0.07
34 22 4 o 25.927 26.927 180.00 0.59616 0.02
36 18 6 o 134.023 139.194 180.00 0.59616 0.09
28 26 14 o 262.007 272.115 180.00 0.59616 0.18
37 13 11 o 34.372 34.890 180.00 0.59562 0.02
37 17 1 o 40.678 41.292 0.00 0.59562 0.03
31 23 13 o 287.338 291.674 0.00 0.59562 0.20
29 23 17 o 54.671 55.495 0.00 0.59562 0.04
40 8 0 o 198.298 196.482 180.00 0.59473 0.07
32 24 8 o 275.836 273.310 180.00 0.59473 0.19
39 11 5 o 1407.539 1403.786 180.00 0.59419 0.98
33 17 17 o 1565.573 1561.398 0.00 0.59419 0.54
31 25 9 o 1.368 1.365 0.00 0.59419 0.00
35 19 9 o 42.837 42.722 0.00 0.59419 0.03
35 21 1 o 0.039 0.039 180.00 0.59419 0.00
33 23 7 o 189.454 188.948 0.00 0.59419 0.13
37 17 3 o 226.249 225.646 180.00 0.59419 0.16
40 8 2 o 26.457 26.486 180.00 0.59401 0.02
28 22 20 o 27.325 27.355 180.00 0.59401 0.02
28 28 10 o 2.680 2.683 0.00 0.59401 0.00
34 16 16 o 309.961 310.301 0.00 0.59401 0.11
40 6 6 o 2102.203 2120.666 0.00 0.59330 0.73
32 18 18 o 25.732 25.958 0.00 0.59330 0.01
30 24 14 o 31.782 32.061 0.00 0.59330 0.02
37 15 9 o 6.763 6.814 0.00 0.59277 0.00
33 19 15 o 106.366 107.170 180.00 0.59277 0.07
35 15 15 o 91.366 92.057 180.00 0.59277 0.03
35 21 3 o 147.737 148.854 0.00 0.59277 0.10
38 14 6 o 16.450 16.561 180.00 0.59260 0.01
30 26 10 o 10.390 10.461 0.00 0.59260 0.01
34 18 14 o 53.016 53.376 180.00 0.59260 0.04
34 22 6 o 1492.790 1502.944 0.00 0.59260 1.03
26 26 18 o 467.933 471.116 180.00 0.59260 0.16
40 8 4 o 418.486 419.492 180.00 0.59189 0.29
32 20 16 o 407.865 408.846 180.00 0.59189 0.28
35 17 13 o 161.026 163.177 0.00 0.59136 0.11
27 27 15 o 4.633 4.695 180.00 0.59136 0.00
37 17 5 o 0.240 0.243 0.00 0.59136 0.00
39 9 9 o 361.980 366.815 0.00 0.59136 0.12
29 29 1 o 142.899 144.807 180.00 0.59136 0.05
25 23 23 o 1.008 1.022 180.00 0.59136 0.00
41 1 1 o 85.449 86.590 0.00 0.59136 0.03
31 19 19 o 86.562 87.718 180.00 0.59136 0.03
36 18 8 o 471.138 482.588 0.00 0.59119 0.32
28 24 18 o 13.679 14.011 0.00 0.59119 0.01
36 14 14 o 33.296 36.833 180.00 0.59049 0.01
38 12 10 o 5.562 6.152 0.00 0.59049 0.00
30 28 2 o 10.034 11.100 0.00 0.59049 0.01
35 21 5 o 27.496 31.922 180.00 0.58996 0.02
25 25 21 o 19.561 22.709 180.00 0.58996 0.01
29 27 11 o 593.156 688.626 0.00 0.58996 0.40
29 25 15 o 46.639 54.145 180.00 0.58996 0.03
39 11 7 o 208.753 242.352 180.00 0.58996 0.14
31 21 17 o 24.666 28.636 180.00 0.58996 0.02
29 29 3 o 53.832 62.496 180.00 0.58996 0.02
39 13 1 o 36.828 42.756 180.00 0.58996 0.02
31 27 1 o 40.448 46.958 0.00 0.58996 0.03
41 3 1 o 2.960 3.436 0.00 0.58996 0.00
36 20 0 o 1007.977 1137.931 0.00 0.58909 0.34
36 16 12 o 22.791 25.729 180.00 0.58909 0.02
33 21 13 o 17.692 19.150 180.00 0.58857 0.01
33 23 9 o 56.842 61.528 0.00 0.58857 0.04
39 13 3 o 10.134 10.970 180.00 0.58857 0.01
27 23 21 o 13.151 14.235 0.00 0.58857 0.01
31 27 3 o 36.168 39.149 0.00 0.58857 0.02
41 3 3 o 102.062 110.475 0.00 0.58857 0.03
30 20 20 o 9.929 10.630 180.00 0.58840 0.00
34 20 12 o 31.177 33.377 180.00 0.58840 0.02
32 24 10 o 4.329 4.635 180.00 0.58840 0.00
40 8 6 o 0.643 0.688 0.00 0.58840 0.00
36 20 2 o 23.609 25.275 180.00 0.58840 0.02
30 28 4 o 53.674 57.461 180.00 0.58840 0.04
40 10 2 o 79.721 83.419 180.00 0.58771 0.05
34 22 8 o 26.302 27.522 180.00 0.58771 0.02
32 22 14 o 214.809 224.773 0.00 0.58771 0.14
32 26 2 o 22.441 23.482 0.00 0.58771 0.01
38 16 2 o 22.506 23.550 0.00 0.58771 0.01
38 14 8 o 236.277 247.238 180.00 0.58771 0.16
41 5 1 o 39.331 41.062 180.00 0.58719 0.03
29 29 5 o 454.399 474.393 180.00 0.58719 0.15
37 17 7 o 197.281 205.961 0.00 0.58719 0.13
37 13 13 o 144.277 150.626 180.00 0.58719 0.05
35 19 11 o 75.325 78.639 180.00 0.58719 0.05
31 25 11 o 427.014 445.803 180.00 0.58719 0.28
30 22 18 o 2.936 3.069 180.00 0.58702 0.00
36 20 4 o 129.467 137.308 180.00 0.58633 0.09
28 28 12 o 1897.544 2012.479 0.00 0.58633 0.63
27 25 19 o 3.307 3.547 180.00 0.58582 0.00
33 25 1 o 17.269 18.519 0.00 0.58582 0.01
41 5 3 o 267.336 286.684 0.00 0.58582 0.18
31 27 5 o 79.306 85.045 0.00 0.58582 0.05
31 23 15 o 2.339 2.508 0.00 0.58582 0.00
35 21 7 o 102.378 109.788 180.00 0.58582 0.07
37 15 11 o 195.882 210.059 180.00 0.58582 0.13
39 13 5 o 15.031 16.119 0.00 0.58582 0.01
40 10 4 o 0.059 0.064 0.00 0.58565 0.00
38 16 4 o 3.822 4.105 0.00 0.58565 0.00
28 26 16 o 0.003 0.003 180.00 0.58565 0.00
32 26 4 o 9.072 9.742 0.00 0.58565 0.01
30 28 6 o 168.935 178.220 180.00 0.58497 0.11
30 26 12 o 14.898 15.717 180.00 0.58497 0.01
36 18 10 o 30.930 32.630 0.00 0.58497 0.02
29 21 21 o 11.135 11.277 0.00 0.58446 0.00
39 11 9 o 10.999 11.140 0.00 0.58446 0.01
33 25 3 o 5.691 5.764 0.00 0.58446 0.00
24 24 24 o 17.869 17.357 0.00 0.58361 0.00
40 8 8 o 765.407 743.508 0.00 0.58361 0.25
41 7 1 o 54.407 52.951 180.00 0.58310 0.04
37 19 1 o 87.295 84.959 0.00 0.58310 0.06
29 29 7 o 52.060 50.667 180.00 0.58310 0.02
41 5 5 o 18.005 17.523 180.00 0.58310 0.01
29 23 19 o 3.803 3.701 0.00 0.58310 0.00
30 24 16 o 241.770 236.167 0.00 0.58294 0.16
38 12 12 o 32.161 31.416 0.00 0.58294 0.01
36 20 6 o 248.632 242.870 180.00 0.58294 0.16
40 10 6 o 291.990 294.724 180.00 0.58226 0.19
26 24 22 o 151.830 153.252 180.00 0.58226 0.10
34 24 2 o 18.695 18.870 0.00 0.58226 0.01
32 26 6 o 117.130 118.227 0.00 0.58226 0.08
38 16 6 o 242.952 245.226 0.00 0.58226 0.16
34 18 16 o 175.624 177.268 0.00 0.58226 0.11
31 27 7 o 3.219 3.397 0.00 0.58176 0.00
33 25 5 o 35.962 37.955 180.00 0.58176 0.02
39 13 7 o 5.890 6.216 180.00 0.58176 0.00
35 17 15 o 6.913 7.297 0.00 0.58176 0.00
37 17 9 o 257.753 272.043 0.00 0.58176 0.16
37 19 3 o 10.623 11.212 180.00 0.58176 0.01
33 23 11 o 1534.387 1619.455 180.00 0.58176 0.98
29 27 13 o 10.066 10.624 180.00 0.58176 0.01
33 19 17 o 37.499 39.578 0.00 0.58176 0.02
41 7 3 o 6.311 6.660 180.00 0.58176 0.00
38 14 10 o 195.747 210.210 180.00 0.58159 0.12
34 22 10 o 0.048 0.051 180.00 0.58159 0.00
32 24 12 o 1.346 1.533 180.00 0.58093 0.00
40 12 0 o 98.457 112.186 180.00 0.58093 0.03
27 27 17 o 297.465 343.100 180.00 0.58043 0.09
35 21 9 o 9.629 11.106 180.00 0.58043 0.01
39 15 1 o 2.013 2.321 0.00 0.58043 0.00
40 12 2 o 18.335 21.079 180.00 0.58026 0.01
36 16 14 o 130.061 149.526 0.00 0.58026 0.08
32 20 18 o 16.229 18.658 0.00 0.58026 0.01
30 28 8 o 5.238 6.022 0.00 0.58026 0.00
34 24 4 o 0.084 0.097 0.00 0.58026 0.00
26 26 20 o 3.079 3.418 0.00 0.57960 0.00
34 20 14 o 75.790 84.151 0.00 0.57960 0.05
28 22 22 o 580.391 644.415 0.00 0.57960 0.18
35 19 13 o 21.704 23.301 0.00 0.57910 0.01
35 23 1 o 6.111 6.561 180.00 0.57910 0.00
33 21 15 o 4.479 4.809 0.00 0.57910 0.00
39 15 3 o 368.753 395.880 0.00 0.57910 0.23
37 19 5 o 551.485 592.055 180.00 0.57910 0.35
31 25 13 o 149.764 160.781 0.00 0.57910 0.09
29 25 17 o 36.660 39.357 0.00 0.57910 0.02
41 7 5 o 1.946 2.090 180.00 0.57910 0.00
40 12 4 o 51.831 53.905 180.00 0.57828 0.03
28 24 20 o 68.800 71.553 0.00 0.57828 0.04
36 20 8 o 91.225 94.875 180.00 0.57828 0.06
35 23 3 o 92.733 96.815 0.00 0.57779 0.06
29 29 9 o 2.149 2.243 180.00 0.57779 0.00
37 15 13 o 18.718 19.541 0.00 0.57779 0.01
31 21 19 o 1.058 1.104 180.00 0.57779 0.00
39 11 11 o 190.906 199.309 0.00 0.57779 0.06
33 25 7 o 0.944 0.985 0.00 0.57779 0.00
41 9 1 o 226.490 236.459 0.00 0.57779 0.14
28 28 14 o 1.840 1.932 180.00 0.57762 0.00
32 26 8 o 23.015 24.175 0.00 0.57762 0.01
40 10 8 o 2.152 2.261 180.00 0.57762 0.00
38 16 8 o 59.919 62.939 0.00 0.57762 0.04
36 18 12 o 0.410 0.430 180.00 0.57762 0.00
32 22 16 o 1.489 1.564 0.00 0.57762 0.00
42 2 0 o 203.709 225.143 0.00 0.57697 0.06
34 24 6 o 72.257 79.861 0.00 0.57697 0.04
38 18 0 o 108.971 120.438 180.00 0.57697 0.03
39 15 5 o 142.132 165.176 0.00 0.57648 0.09
41 9 3 o 5.897 6.853 180.00 0.57648 0.00
39 13 9 o 256.242 297.787 180.00 0.57648 0.16
31 27 9 o 3.148 3.658 180.00 0.57648 0.00
38 18 2 o 2.384 2.807 180.00 0.57632 0.00
30 26 14 o 37.097 43.692 180.00 0.57632 0.02
42 2 2 o 121.878 143.546 180.00 0.57632 0.04
37 17 11 o 0.446 0.532 180.00 0.57518 0.00
37 19 7 o 64.286 76.719 0.00 0.57518 0.04
31 23 17 o 19.505 23.277 0.00 0.57518 0.01
35 23 5 o 348.037 415.353 0.00 0.57518 0.21
41 7 7 o 81.347 97.081 180.00 0.57518 0.02
25 25 23 o 147.077 175.524 180.00 0.57518 0.04
40 12 6 o 45.914 54.733 0.00 0.57502 0.03
28 26 18 o 98.721 118.347 180.00 0.57438 0.06
36 22 2 o 365.228 437.835 0.00 0.57438 0.22
38 18 4 o 28.913 34.661 0.00 0.57438 0.02
30 22 20 o 49.490 59.329 0.00 0.57438 0.03
42 4 2 o 42.169 50.553 0.00 0.57438 0.03
30 28 10 o 28.868 34.607 0.00 0.57438 0.02
38 14 12 o 0.364 0.436 180.00 0.57438 0.00
34 22 12 o 1370.103 1642.480 180.00 0.57438 0.83
27 23 23 o 273.453 331.560 0.00 0.57390 0.08
33 23 13 o 1.683 2.041 180.00 0.57390 0.00
35 21 11 o 2.842 3.446 180.00 0.57390 0.00
41 9 5 o 117.045 141.916 0.00 0.57390 0.07
33 25 9 o 482.109 625.712 0.00 0.57262 0.29
29 27 15 o 2.703 3.509 180.00 0.57262 0.00
27 25 21 o 0.581 0.754 180.00 0.57262 0.00
39 15 7 o 0.005 0.006 0.00 0.57262 0.00
34 24 8 o 38.654 50.447 0.00 0.57246 0.02
32 24 14 o 0.520 0.679 180.00 0.57246 0.00
36 22 4 o 16.405 21.410 180.00 0.57246 0.01
36 20 10 o 16.562 21.615 180.00 0.57246 0.01
42 4 4 o 0.136 0.177 180.00 0.57246 0.00
32 26 10 o 3.303 4.246 0.00 0.57182 0.00
42 6 0 o 20.009 25.725 180.00 0.57182 0.01
40 10 10 o 12.452 16.009 180.00 0.57182 0.00
30 30 0 o 606.067 779.219 0.00 0.57182 0.09
40 14 2 o 171.000 219.854 0.00 0.57182 0.10
30 24 18 o 10.204 13.119 180.00 0.57182 0.01
38 16 10 o 54.594 70.192 0.00 0.57182 0.03
29 29 11 o 401.212 489.883 0.00 0.57134 0.12
35 17 17 o 7.220 8.816 180.00 0.57134 0.00
35 23 7 o 19.115 23.339 180.00 0.57134 0.01
41 11 1 o 25.159 30.719 0.00 0.57134 0.01
31 29 1 o 28.234 34.474 0.00 0.57134 0.02
34 18 18 o 113.696 135.833 180.00 0.57119 0.03
30 30 2 o 42.469 50.738 180.00 0.57119 0.01
38 18 6 o 35.787 42.755 180.00 0.57119 0.02
42 6 2 o 519.113 620.184 0.00 0.57119 0.31
32 28 0 o 375.662 411.485 180.00 0.57055 0.11
36 16 16 o 232.188 254.329 180.00 0.57055 0.07
40 12 8 o 0.241 0.264 180.00 0.57055 0.00
31 25 15 o 64.616 67.442 0.00 0.57008 0.04
31 29 3 o 1.628 1.699 180.00 0.57008 0.00
41 9 7 o 2.177 2.273 0.00 0.57008 0.00
39 17 1 o 57.717 60.242 180.00 0.57008 0.03
39 13 11 o 20.999 21.918 0.00 0.57008 0.01
29 23 21 o 9.764 10.191 0.00 0.57008 0.01
31 27 11 o 20.607 21.508 180.00 0.57008 0.01
35 19 15 o 14.940 15.594 180.00 0.57008 0.01
33 19 19 o 989.424 1032.708 180.00 0.57008 0.29
37 21 1 o 44.387 46.329 180.00 0.57008 0.03
41 11 3 o 100.721 105.127 180.00 0.57008 0.06
37 19 9 o 7.184 7.498 0.00 0.57008 0.00
34 20 16 o 9.032 9.306 0.00 0.56992 0.01
40 14 4 o 146.669 151.106 0.00 0.56992 0.09
32 28 2 o 2.225 2.293 0.00 0.56992 0.00
30 30 4 o 512.279 499.678 0.00 0.56929 0.15
36 18 14 o 108.685 106.012 180.00 0.56929 0.06
36 22 6 o 0.740 0.722 180.00 0.56929 0.00
42 6 4 o 311.120 303.467 180.00 0.56929 0.18
33 21 17 o 78.790 72.420 0.00 0.56883 0.05
37 15 15 o 111.513 102.497 180.00 0.56883 0.03
39 17 3 o 30.448 27.986 0.00 0.56883 0.02
37 21 3 o 8.462 7.778 0.00 0.56883 0.00
27 27 19 o 27.784 25.538 180.00 0.56883 0.01
33 27 1 o 452.073 415.524 180.00 0.56883 0.26
32 28 4 o 95.001 80.098 180.00 0.56805 0.06
28 28 16 o 161.222 135.931 180.00 0.56805 0.05
32 20 20 o 357.574 301.481 180.00 0.56805 0.10
33 27 3 o 19.713 16.684 0.00 0.56758 0.01
31 29 5 o 202.201 171.133 0.00 0.56758 0.12
41 11 5 o 5.897 4.991 180.00 0.56758 0.00
37 17 13 o 33.602 28.439 0.00 0.56758 0.02
29 25 19 o 4.243 3.591 180.00 0.56758 0.00
39 15 9 o 0.595 0.503 0.00 0.56758 0.00
30 28 12 o 8.402 7.185 180.00 0.56742 0.00
26 24 24 o 63.121 53.980 0.00 0.56742 0.02
38 18 8 o 53.458 47.858 0.00 0.56680 0.03
30 26 16 o 10.127 9.066 180.00 0.56680 0.01
40 14 6 o 6.609 5.917 180.00 0.56680 0.00
34 24 10 o 213.668 191.286 180.00 0.56680 0.12
42 8 2 o 98.263 87.970 0.00 0.56680 0.06
34 26 0 o 94.155 84.292 180.00 0.56680 0.03
32 22 18 o 5.960 5.335 0.00 0.56680 0.00
35 23 9 o 0.461 0.416 180.00 0.56634 0.00
37 21 5 o 8.190 7.386 180.00 0.56634 0.00
33 25 11 o 2.683 2.420 0.00 0.56634 0.00
35 21 13 o 3.475 3.134 180.00 0.56634 0.00
39 17 5 o 14.498 13.074 0.00 0.56634 0.01
34 22 14 o 34.967 31.417 180.00 0.56619 0.02
30 30 6 o 211.533 190.057 0.00 0.56619 0.06
26 26 22 o 1.232 1.107 180.00 0.56619 0.00
34 26 2 o 19.185 17.238 180.00 0.56619 0.01
38 14 14 o 42.753 38.412 180.00 0.56619 0.01
42 6 6 o 54.636 49.089 180.00 0.56619 0.02
36 20 12 o 1258.725 1099.676 0.00 0.56557 0.72
41 9 9 o 53.205 45.773 180.00 0.56511 0.02
33 23 15 o 1.384 1.191 0.00 0.56511 0.00
33 27 5 o 639.142 549.860 180.00 0.56511 0.36
31 21 21 o 58.269 50.129 0.00 0.56511 0.02
32 26 12 o 43.179 37.052 0.00 0.56496 0.02
42 8 4 o 26.102 22.399 180.00 0.56496 0.01
36 22 8 o 180.479 154.870 0.00 0.56496 0.10
28 24 22 o 12.164 10.438 0.00 0.56496 0.01
32 28 6 o 94.766 81.320 180.00 0.56496 0.05
38 16 12 o 72.952 62.601 180.00 0.56496 0.04
40 12 10 o 36.113 30.989 0.00 0.56496 0.02
34 26 4 o 95.656 81.614 180.00 0.56434 0.05
38 20 2 o 5.848 4.990 0.00 0.56434 0.00
41 13 1 o 48.130 40.674 0.00 0.56389 0.03
35 25 1 o 26.951 22.775 0.00 0.56389 0.02
31 23 19 o 122.882 103.845 0.00 0.56389 0.07
43 1 1 o 24.167 20.423 180.00 0.56389 0.01
37 19 11 o 298.440 252.206 0.00 0.56389 0.17
29 29 13 o 22.707 19.189 0.00 0.56389 0.01
31 29 7 o 18.391 15.542 180.00 0.56389 0.01
41 11 7 o 95.772 80.935 0.00 0.56389 0.05
42 10 2 o 3.364 2.642 0.00 0.56132 0.00
38 18 10 o 170.811 134.154 0.00 0.56132 0.09
34 26 6 o 12.626 9.916 180.00 0.56132 0.01
30 22 22 o 109.828 86.258 180.00 0.56132 0.03
40 16 0 o 220.387 178.108 180.00 0.56313 0.06
32 24 16 o 153.854 124.338 0.00 0.56313 0.09
40 16 4 o 91.608 73.045 0.00 0.56072 0.05
32 28 8 o 42.538 33.918 180.00 0.56072 0.02
36 24 0 o 202.510 161.473 0.00 0.56072 0.06
39 13 13 o 9.721 7.625 180.00 0.56267 0.00
37 21 7 o 21.204 16.632 0.00 0.56267 0.01
31 27 13 o 1.916 1.503 0.00 0.56267 0.00
39 17 7 o 273.266 214.337 180.00 0.56267 0.15
35 25 3 o 52.693 41.330 180.00 0.56267 0.03
29 27 17 o 58.303 45.730 180.00 0.56267 0.03
41 13 3 o 349.848 274.404 0.00 0.56267 0.20
43 3 1 o 90.897 71.295 180.00 0.56267 0.05
38 20 4 o 4.894 3.813 180.00 0.56252 0.00
40 14 8 o 99.661 77.651 180.00 0.56252 0.06
40 16 2 o 0.001 0.001 180.00 0.56252 0.00
28 26 20 o 52.213 40.682 180.00 0.56252 0.03
42 8 6 o 37.661 29.173 0.00 0.56192 0.02
42 10 0 o 564.572 437.331 0.00 0.56192 0.16
30 30 8 o 105.252 81.531 180.00 0.56192 0.03
39 15 11 o 2.463 1.926 180.00 0.56147 0.00
33 27 7 o 2.339 1.829 180.00 0.56147 0.00
43 3 3 o 69.602 54.417 180.00 0.56147 0.02
