#------------------------------------------------------------------------------
#$Date: 2016-02-12 10:26:44 +0200 (Fri, 12 Feb 2016) $
#$Revision: 176405 $
#$URL: svn://www.crystallography.net/cod/cif/7/22/42/7224243.cif $
#------------------------------------------------------------------------------
#
# This file is available in the Crystallography Open Database (COD),
# http://www.crystallography.net/
#
# All data on this site have been placed in the public domain by the
# contributors.
#
data_7224243
loop_
_publ_author_name
'Attfield, Martin'
'Feygenson, Mikhail'
'Neuefeind, Joerg C.'
'Proffen, Thomas E.'
'Hriljac, J. A.'
'Lucas, Timothy C.'
_publ_section_title
;
 Reprobing the mechanism of negative thermal expansion in siliceous
 faujasite
;
_journal_name_full               'RSC Adv.'
_journal_paper_doi               10.1039/C5RA23827G
_journal_year                    2016
_chemical_formula_sum            'O2 Si'
_chemical_formula_weight         60.08
_chemical_name_systematic        ' ?'
_space_group_IT_number           227
_symmetry_cell_setting           cubic
_symmetry_space_group_name_Hall  '-F 4vw 2vw 3'
_symmetry_space_group_name_H-M   'F d -3 m :2'
_audit_creation_date             2015-07-02T12:48
_audit_creation_method           'from EXP file using GSAS2CIF'
_audit_update_record
' 2015-07-02T12:48  Initial CIF as created by GSAS2CIF'
_cell_angle_alpha                90.0
_cell_angle_beta                 90.0
_cell_angle_gamma                90.0
_cell_formula_units_Z            192
_cell_length_a                   24.2852(8)
_cell_length_b                   24.2852
_cell_length_c                   24.2852
_cell_volume                     14322.7(5)
_computing_structure_refinement  GSAS
_diffrn_radiation_probe          neutron
_exptl_absorpt_correction_T_max  1.00000
_exptl_absorpt_correction_T_min  1.00000
_exptl_absorpt_process_details
;   GSAS Absorption/surface roughness correction: function number 0
 No correction is applied.
;
_pd_block_id                     2015-07-02T12:48|ZDDAYC35A790KBANK5|zdday|nomad
_pd_calc_method                  'Rietveld Refinement'
_pd_instr_location               ' ?'
_pd_meas_2theta_fixed            154.000
_pd_meas_number_of_points        3000
_pd_phase_name                   zdday
_pd_proc_info_datetime           2015-07-02T12:48:31
_pd_proc_info_excluded_regions   ' ?'
_pd_proc_ls_background_function
;   GSAS Background function number 1 with 12 terms.
 Shifted Chebyshev function of 1st kind
      1:   8.760380E-02 2:   1.407170E-02 3:  -1.082000E-03 4:  -7.899150E-04
      5:   6.629700E-05 6:   6.748890E-03 7:  -2.196370E-03 8:  -9.668750E-03
      9:  -6.133510E-0310:   2.140760E-0311:  -4.882430E-0412:  -7.273150E-04
;
_pd_proc_ls_peak_cutoff          0.00200
_pd_proc_ls_profile_function
;
 TOF Profile function number-3 with  21 terms
 Profile coefficients for exponential pseudovoigt
  convolution Von Dreele, 1990 (unpublished)
 Peak tails are ignored  where the intensity is below 0.0020 times the peak
   Aniso. broadening axis   0.0   0.0   1.0
;
_pd_proc_ls_prof_R_factor        0.0291
_pd_proc_ls_prof_wR_expected     0.0179
_pd_proc_ls_prof_wR_factor       0.0352
_pd_proc_number_of_points        3000
_pd_spec_mounting                ' ?'
_refine_ls_goodness_of_fit_all   1.99
_refine_ls_matrix_type           full
_refine_ls_number_parameters     32
_refine_ls_number_restraints     0
_refine_ls_R_Fsqd_factor         0.04704
_refine_ls_shift/su_max          0.02
_refine_ls_shift/su_mean         0.00
_reflns_d_resolution_high        0.560
_reflns_d_resolution_low         1.558
_reflns_limit_h_max              43
_reflns_limit_h_min              1
_reflns_limit_k_max              30
_reflns_limit_k_min              0
_reflns_limit_l_max              25
_reflns_limit_l_min              0
_reflns_number_total             1940
_cod_data_source_file            c5ra23827g2.cif
_cod_data_source_block           ZDDAYC35A790KBANK5_publ
_cod_depositor_comments
;
The following automatic conversions were performed:

'_geom_bond_publ_flag' value 'N' changed to 'n' according to
/usr/data/users/saulius/crontab/automatic-downloads/rss-feeds/RSC/lib/dictionaries/cif_core.dic
dictionary named 'cif_core.dic' version 2.4.2 from 2011-04-26 (46
times).

'_geom_angle_publ_flag' value 'N' changed to 'n' according to
/usr/data/users/saulius/crontab/automatic-downloads/rss-feeds/RSC/lib/dictionaries/cif_core.dic
dictionary named 'cif_core.dic' version 2.4.2 from 2011-04-26 (10
times).

Automatic conversion script
Id: cif_fix_values 4268 2015-11-12 08:31:59Z antanas 
;
_cod_original_cell_volume        14322.8(13)
_cod_original_sg_symbol_H-M      'F d -3 m'
_cod_database_code               7224243
_gsas_exptl_extinct_corr_t_min   1.00000
_gsas_exptl_extinct_corr_t_max   1.00000
loop_
_symmetry_equiv_pos_site_id
_symmetry_equiv_pos_as_xyz
1 +x,+y,+z
2 +z,+x,+y
3 +y,+z,+x
4 +x+1/4,+y+1/4,-z
5 -z,+x+1/4,+y+1/4
6 +y+1/4,-z,+x+1/4
7 -z+1/4,+x+1/2,-y+3/4
8 -y+3/4,-z+1/4,+x+1/2
9 +y+1/2,-z+1/4,-x+3/4
10 -x+3/4,+y+1/2,-z+1/4
11 -z+1/4,-x+3/4,+y+1/2
12 +x+1/2,-y+3/4,-z+1/4
13 +y,+x,+z
14 +z,+y,+x
15 +x,+z,+y
16 +y+1/4,+x+1/4,-z
17 -z,+y+1/4,+x+1/4
18 +x+1/4,-z,+y+1/4
19 -z+1/4,+y+1/2,-x+3/4
20 -x+3/4,-z+1/4,+y+1/2
21 +x+1/2,-z+1/4,-y+3/4
22 -y+3/4,+x+1/2,-z+1/4
23 -z+1/4,-y+3/4,+x+1/2
24 +y+1/2,-x+3/4,-z+1/4
-1 -x,-y,-z
-2 -z,-x,-y
-3 -y,-z,-x
-4 -x+3/4,-y+3/4,+z
-5 +z,-x+3/4,-y+3/4
-6 -y+3/4,+z,-x+3/4
-7 +z+3/4,-x+1/2,+y+1/4
-8 +y+1/4,+z+3/4,-x+1/2
-9 -y+1/2,+z+3/4,+x+1/4
-10 +x+1/4,-y+1/2,+z+3/4
-11 +z+3/4,+x+1/4,-y+1/2
-12 -x+1/2,+y+1/4,+z+3/4
-13 -y,-x,-z
-14 -z,-y,-x
-15 -x,-z,-y
-16 -y+3/4,-x+3/4,+z
-17 +z,-y+3/4,-x+3/4
-18 -x+3/4,+z,-y+3/4
-19 +z+3/4,-y+1/2,+x+1/4
-20 +x+1/4,+z+3/4,-y+1/2
-21 -x+1/2,+z+3/4,+y+1/4
-22 +y+1/4,-x+1/2,+z+3/4
-23 +z+3/4,+y+1/4,-x+1/2
-24 -y+1/2,+x+1/4,+z+3/4
101 +x,+y+1/2,+z+1/2
102 +z,+x+1/2,+y+1/2
103 +y,+z+1/2,+x+1/2
104 +x+1/4,+y+3/4,-z+1/2
105 -z,+x+3/4,+y+3/4
106 +y+1/4,-z+1/2,+x+3/4
107 -z+1/4,+x,-y+1/4
108 -y+3/4,-z+3/4,+x
109 +y+1/2,-z+3/4,-x+1/4
110 -x+3/4,+y,-z+3/4
111 -z+1/4,-x+1/4,+y
112 +x+1/2,-y+1/4,-z+3/4
113 +y,+x+1/2,+z+1/2
114 +z,+y+1/2,+x+1/2
115 +x,+z+1/2,+y+1/2
116 +y+1/4,+x+3/4,-z+1/2
117 -z,+y+3/4,+x+3/4
118 +x+1/4,-z+1/2,+y+3/4
119 -z+1/4,+y,-x+1/4
120 -x+3/4,-z+3/4,+y
121 +x+1/2,-z+3/4,-y+1/4
122 -y+3/4,+x,-z+3/4
123 -z+1/4,-y+1/4,+x
124 +y+1/2,-x+1/4,-z+3/4
-101 -x,-y+1/2,-z+1/2
-102 -z,-x+1/2,-y+1/2
-103 -y,-z+1/2,-x+1/2
-104 -x+3/4,-y+1/4,+z+1/2
-105 +z,-x+1/4,-y+1/4
-106 -y+3/4,+z+1/2,-x+1/4
-107 +z+3/4,-x,+y+3/4
-108 +y+1/4,+z+1/4,-x
-109 -y+1/2,+z+1/4,+x+3/4
-110 +x+1/4,-y,+z+1/4
-111 +z+3/4,+x+3/4,-y
-112 -x+1/2,+y+3/4,+z+1/4
-113 -y,-x+1/2,-z+1/2
-114 -z,-y+1/2,-x+1/2
-115 -x,-z+1/2,-y+1/2
-116 -y+3/4,-x+1/4,+z+1/2
-117 +z,-y+1/4,-x+1/4
-118 -x+3/4,+z+1/2,-y+1/4
-119 +z+3/4,-y,+x+3/4
-120 +x+1/4,+z+1/4,-y
-121 -x+1/2,+z+1/4,+y+3/4
-122 +y+1/4,-x,+z+1/4
-123 +z+3/4,+y+3/4,-x
-124 -y+1/2,+x+3/4,+z+1/4
201 +x+1/2,+y,+z+1/2
202 +z+1/2,+x,+y+1/2
203 +y+1/2,+z,+x+1/2
204 +x+3/4,+y+1/4,-z+1/2
205 -z+1/2,+x+1/4,+y+3/4
206 +y+3/4,-z,+x+3/4
207 -z+3/4,+x+1/2,-y+1/4
208 -y+1/4,-z+1/4,+x
209 +y,-z+1/4,-x+1/4
210 -x+1/4,+y+1/2,-z+3/4
211 -z+3/4,-x+3/4,+y
212 +x,-y+3/4,-z+3/4
213 +y+1/2,+x,+z+1/2
214 +z+1/2,+y,+x+1/2
215 +x+1/2,+z,+y+1/2
216 +y+3/4,+x+1/4,-z+1/2
217 -z+1/2,+y+1/4,+x+3/4
218 +x+3/4,-z,+y+3/4
219 -z+3/4,+y+1/2,-x+1/4
220 -x+1/4,-z+1/4,+y
221 +x,-z+1/4,-y+1/4
222 -y+1/4,+x+1/2,-z+3/4
223 -z+3/4,-y+3/4,+x
224 +y,-x+3/4,-z+3/4
-201 -x+1/2,-y,-z+1/2
-202 -z+1/2,-x,-y+1/2
-203 -y+1/2,-z,-x+1/2
-204 -x+1/4,-y+3/4,+z+1/2
-205 +z+1/2,-x+3/4,-y+1/4
-206 -y+1/4,+z,-x+1/4
-207 +z+1/4,-x+1/2,+y+3/4
-208 +y+3/4,+z+3/4,-x
-209 -y,+z+3/4,+x+3/4
-210 +x+3/4,-y+1/2,+z+1/4
-211 +z+1/4,+x+1/4,-y
-212 -x,+y+1/4,+z+1/4
-213 -y+1/2,-x,-z+1/2
-214 -z+1/2,-y,-x+1/2
-215 -x+1/2,-z,-y+1/2
-216 -y+1/4,-x+3/4,+z+1/2
-217 +z+1/2,-y+3/4,-x+1/4
-218 -x+1/4,+z,-y+1/4
-219 +z+1/4,-y+1/2,+x+3/4
-220 +x+3/4,+z+3/4,-y
-221 -x,+z+3/4,+y+3/4
-222 +y+3/4,-x+1/2,+z+1/4
-223 +z+1/4,+y+1/4,-x
-224 -y,+x+1/4,+z+1/4
301 +x+1/2,+y+1/2,+z
302 +z+1/2,+x+1/2,+y
303 +y+1/2,+z+1/2,+x
304 +x+3/4,+y+3/4,-z
305 -z+1/2,+x+3/4,+y+1/4
306 +y+3/4,-z+1/2,+x+1/4
307 -z+3/4,+x,-y+3/4
308 -y+1/4,-z+3/4,+x+1/2
309 +y,-z+3/4,-x+3/4
310 -x+1/4,+y,-z+1/4
311 -z+3/4,-x+1/4,+y+1/2
312 +x,-y+1/4,-z+1/4
313 +y+1/2,+x+1/2,+z
314 +z+1/2,+y+1/2,+x
315 +x+1/2,+z+1/2,+y
316 +y+3/4,+x+3/4,-z
317 -z+1/2,+y+3/4,+x+1/4
318 +x+3/4,-z+1/2,+y+1/4
319 -z+3/4,+y,-x+3/4
320 -x+1/4,-z+3/4,+y+1/2
321 +x,-z+3/4,-y+3/4
322 -y+1/4,+x,-z+1/4
323 -z+3/4,-y+1/4,+x+1/2
324 +y,-x+1/4,-z+1/4
-301 -x+1/2,-y+1/2,-z
-302 -z+1/2,-x+1/2,-y
-303 -y+1/2,-z+1/2,-x
-304 -x+1/4,-y+1/4,+z
-305 +z+1/2,-x+1/4,-y+3/4
-306 -y+1/4,+z+1/2,-x+3/4
-307 +z+1/4,-x,+y+1/4
-308 +y+3/4,+z+1/4,-x+1/2
-309 -y,+z+1/4,+x+1/4
-310 +x+3/4,-y,+z+3/4
-311 +z+1/4,+x+3/4,-y+1/2
-312 -x,+y+3/4,+z+3/4
-313 -y+1/2,-x+1/2,-z
-314 -z+1/2,-y+1/2,-x
-315 -x+1/2,-z+1/2,-y
-316 -y+1/4,-x+1/4,+z
-317 +z+1/2,-y+1/4,-x+3/4
-318 -x+1/4,+z+1/2,-y+3/4
-319 +z+1/4,-y,+x+1/4
-320 +x+3/4,+z+1/4,-y+1/2
-321 -x,+z+1/4,+y+1/4
-322 +y+3/4,-x,+z+3/4
-323 +z+1/4,+y+3/4,-x+1/2
-324 -y,+x+3/4,+z+3/4
loop_
_atom_site_type_symbol
_atom_site_label
_atom_site_fract_x
_atom_site_fract_y
_atom_site_fract_z
_atom_site_occupancy
_atom_site_thermal_displace_type
_atom_site_U_iso_or_equiv
_atom_site_symmetry_multiplicity
Si Si1 0.94617(11) 0.12593(11) 0.03574(15) 1.0 Uiso 0.0047(4) 192
O O1 0.0 -0.10629(10) 0.10629(10) 1.0 Uiso 0.0069(8) 96
O O2 -0.00342(9) -0.00342(9) 0.14100(15) 1.0 Uiso 0.0086(8) 96
O O3 0.07604(10) 0.07604(10) -0.03550(13) 1.0 Uiso 0.0084(6) 96
O O4 0.07099(11) 0.07099(11) 0.32102(14) 1.0 Uiso 0.0065(7) 96
loop_
_atom_type_symbol
_atom_type_number_in_cell
_atom_type_scat_length_neutron
_atom_type_scat_source
Si 192.0 0.4149 International_Tables_Vol_C
O 384.0 0.5803 International_Tables_Vol_C
loop_
_geom_angle_atom_site_label_1
_geom_angle_atom_site_label_2
_geom_angle_atom_site_label_3
_geom_angle
_geom_angle_site_symmetry_1
_geom_angle_site_symmetry_3
_geom_angle_publ_flag
O1 Si1 O2 110.71(24) 3_655 3_655 n
O1 Si1 O3 108.71(24) 3_655 2_655 n
O1 Si1 O4 108.63(25) 3_655 111_533 n
O2 Si1 O3 108.74(23) 3_655 2_655 n
O2 Si1 O4 109.53(26) 3_655 111_533 n
O3 Si1 O4 110.52(28) 2_655 111_533 n
Si1 O1 Si1 139.12(32) 2_545 -14_556 n
Si1 O2 Si1 149.87(30) 2_545 15_455 n
Si1 O3 Si1 145.91(30) 3_554 14_554 n
Si1 O4 Si1 142.31(32) -117_446 -206_446 n
loop_
_geom_bond_atom_site_label_1
_geom_bond_atom_site_label_2
_geom_bond_distance
_geom_bond_site_symmetry_2
_geom_bond_publ_flag
Si1 Si1 3.076(7) 14_654 n
Si1 Si1 3.098(7) 15_555 n
Si1 Si1 3.024(6) -13_665 n
Si1 Si1 3.034(7) 221_555 n
Si1 O1 1.6136(32) 3_655 n
Si1 O2 1.5929(34) 3_655 n
Si1 O3 1.6199(31) 2_655 n
Si1 O3 3.533(4) -3_655 n
Si1 O3 3.581(4) -105_644 n
Si1 O4 1.6027(32) 111_655 n
O1 Si1 1.6136(32) 2_545 n
O1 Si1 1.6136(32) -14_556 n
O1 O2 2.6380(26) 1_555 n
O1 O2 2.6380(26) -3_555 n
O1 O3 2.628(4) 3_555 n
O1 O3 2.628(4) -1_555 n
O1 O4 2.6124(17) 209_555 n
O1 O4 2.6124(17) -312_434 n
O2 Si1 1.5929(34) 2_545 n
O2 Si1 1.5929(34) 15_455 n
O2 O1 2.6380(26) 1_555 n
O2 O1 2.6380(26) 13_555 n
O2 O3 2.6114(29) 2_555 n
O2 O3 2.6114(29) 3_555 n
O2 O4 2.6101(32) 107_555 n
O2 O4 2.6101(32) 209_555 n
O3 Si1 1.6199(31) 3_554 n
O3 Si1 1.6199(31) 14_554 n
O3 Si1 3.533(4) -2_565 n
O3 Si1 3.533(4) -15_655 n
O3 Si1 3.581(4) 123_554 n
O3 Si1 3.581(4) 208_554 n
O3 O1 2.628(4) 2_555 n
O3 O1 2.628(4) 15_555 n
O3 O2 2.6114(29) 2_555 n
O3 O2 2.6114(29) 3_555 n
O3 O4 2.6481(33) 310_555 n
O3 O4 2.6481(33) 312_555 n
O4 Si1 1.6027(32) -117_545 n
O4 Si1 1.6027(32) -206_455 n
O4 O1 2.6124(17) 107_555 n
O4 O1 2.6124(17) 221_555 n
O4 O2 2.6101(32) 107_555 n
O4 O2 2.6101(32) 209_555 n
O4 O3 2.6481(33) 310_555 n
O4 O3 2.6481(33) 312_555 n
loop_
_pd_meas_time_of_flight
_pd_proc_d_spacing
_pd_meas_intensity_total
_pd_proc_ls_weight
_pd_proc_intensity_bkg_calc
_pd_calc_intensity_total
1377.39 . 0.095(4) . . .
1378.53 . 0.087(5) . . .
1379.68 . 0.092(4) . . .
1380.82 . 0.089(4) . . .
1381.97 . 0.085(5) . . .
1383.12 . 0.087(5) . . .
1384.27 . 0.081(5) . . .
1385.42 . 0.086(4) . . .
1386.57 . 0.090(4) . . .
1387.72 . 0.100(4) . . .
1388.88 . 0.084(5) . . .
1390.03 . 0.092(4) . . .
1391.18 . 0.086(5) . . .
1392.34 . 0.094(4) . . .
1393.50 . 0.093(4) . . .
1394.66 . 0.080(5) . . .
1395.81 . 0.086(5) . . .
1396.97 . 0.083(4) . . .
1398.13 . 0.084(4) . . .
1399.30 . 0.087(4) . . .
1400.46 . 0.091(4) . . .
1401.62 . 0.089(4) . . .
1402.79 . 0.095(4) . . .
1403.95 . 0.087(4) . . .
1405.12 . 0.089(4) . . .
1406.29 . 0.090(4) . . .
1407.46 . 0.093(4) . . .
1408.62 . 0.087(4) . . .
1409.80 . 0.083(4) . . .
1410.97 . 0.087(4) . . .
1412.14 . 0.083(5) . . .
1413.31 . 0.086(4) . . .
1414.49 . 0.090(4) . . .
1415.66 . 0.088(4) . . .
1416.84 . 0.087(4) . . .
1418.02 . 0.087(4) . . .
1419.19 . 0.086(4) . . .
1420.37 . 0.087(4) . . .
1421.55 . 0.093(4) . . .
1422.73 . 0.080(4) . . .
1423.92 . 0.088(4) . . .
1425.10 . 0.092(4) . . .
1426.28 . 0.091(4) . . .
1427.47 . 0.088(4) . . .
1428.65 . 0.089(4) . . .
1429.84 . 0.087(4) . . .
1431.03 . 0.089(4) . . .
1432.22 . 0.077(4) . . .
1433.41 . 0.093(4) . . .
1434.60 . 0.083(4) . . .
1435.79 . 0.096(4) . . .
1436.99 . 0.094(4) . . .
1438.18 . 0.092(4) . . .
1439.37 . 0.086(4) . . .
1440.57 . 0.089(4) . . .
1441.77 . 0.082(4) . . .
1442.97 . 0.085(4) . . .
1444.16 . 0.084(4) . . .
1445.36 . 0.083(4) . . .
1446.57 . 0.090(4) . . .
1447.77 . 0.087(4) . . .
1448.97 . 0.086(4) . . .
1450.17 . 0.078(4) . . .
1451.38 . 0.085(4) . . .
1452.59 . 0.089(4) . . .
1453.79 . 0.087(4) . . .
1455.00 . 0.078(4) . . .
1456.21 . 0.086(4) . . .
1457.42 . 0.092(4) . . .
1458.63 . 0.087(4) . . .
1459.84 . 0.093(4) . . .
1461.05 . 0.089(4) . . .
1462.27 . 0.089(4) . . .
1463.48 . 0.088(4) . . .
1464.70 . 0.084(4) . . .
1465.92 . 0.081(4) . . .
1467.13 . 0.089(4) . . .
1468.35 . 0.089(4) . . .
1469.57 . 0.089(4) . . .
1470.80 . 0.077(4) . . .
1472.02 . 0.085(4) . . .
1473.24 . 0.091(4) . . .
1474.46 . 0.090(4) . . .
1475.69 . 0.089(4) . . .
1476.92 . 0.081(4) . . .
1478.14 . 0.087(4) . . .
1479.37 . 0.087(4) . . .
1480.60 . 0.092(4) . . .
1481.83 . 0.094(4) . . .
1483.06 . 0.086(4) . . .
1484.29 . 0.082(4) . . .
1485.53 . 0.088(4) . . .
1486.76 . 0.092(4) . . .
1488.00 . 0.088(4) . . .
1489.23 . 0.091(4) . . .
1490.47 . 0.095(4) . . .
1491.71 . 0.091(4) . . .
1492.95 . 0.084(4) . . .
1494.19 . 0.090(4) . . .
1495.43 . 0.088(4) . . .
1496.67 . 0.086(4) . . .
1497.92 . 0.095(4) . . .
1499.16 . 0.087(4) . . .
1500.41 . 0.085(4) . . .
1501.65 . 0.091(4) . . .
1502.90 . 0.085(4) . . .
1504.15 . 0.091(4) . . .
1505.40 . 0.082(4) . . .
1506.65 . 0.088(4) . . .
1507.90 . 0.089(4) . . .
1509.16 . 0.097(4) . . .
1510.41 . 0.090(4) . . .
1511.66 . 0.097(4) . . .
1512.92 . 0.091(4) . . .
1514.18 . 0.080(4) . . .
1515.44 . 0.094(4) . . .
1516.70 . 0.087(4) . . .
1517.96 . 0.088(4) . . .
1519.22 . 0.081(4) . . .
1520.48 . 0.091(4) . . .
1521.74 . 0.092(4) . . .
1523.01 . 0.083(4) . . .
1524.27 . 0.088(4) . . .
1525.54 . 0.087(4) . . .
1526.81 . 0.084(4) . . .
1528.08 . 0.088(4) . . .
1529.34 . 0.084(4) . . .
1530.62 . 0.088(4) . . .
1531.89 . 0.090(4) . . .
1533.16 . 0.087(4) . . .
1534.43 . 0.090(4) . . .
1535.71 . 0.090(4) . . .
1536.99 . 0.085(4) . . .
1538.26 . 0.088(4) . . .
1539.54 . 0.090(4) . . .
1540.82 . 0.095(4) . . .
1542.10 . 0.080(4) . . .
1543.38 . 0.082(4) . . .
1544.66 . 0.085(4) . . .
1545.95 . 0.082(4) . . .
1547.23 . 0.089(4) . . .
1548.52 . 0.087(4) . . .
1549.80 . 0.079(4) . . .
1551.09 . 0.089(4) . . .
1552.38 . 0.088(4) . . .
1553.67 . 0.089(4) . . .
1554.96 . 0.091(4) . . .
1556.25 . 0.091(4) . . .
1557.55 . 0.096(4) . . .
1558.84 . 0.091(4) . . .
1560.14 . 0.092(4) . . .
1561.43 . 0.082(4) . . .
1562.73 . 0.093(4) . . .
1564.03 . 0.087(4) . . .
1565.33 . 0.083(4) . . .
1566.63 . 0.088(4) . . .
1567.93 . 0.083(4) . . .
1569.23 . 0.085(4) . . .
1570.54 . 0.090(4) . . .
1571.84 . 0.091(4) . . .
1573.15 . 0.082(4) . . .
1574.45 . 0.084(4) . . .
1575.76 . 0.092(4) . . .
1577.07 . 0.088(4) . . .
1578.38 . 0.087(4) . . .
1579.69 . 0.093(4) . . .
1581.01 . 0.088(4) . . .
1582.32 . 0.089(4) . . .
1583.64 . 0.089(4) . . .
1584.95 . 0.089(4) . . .
1586.27 . 0.082(4) . . .
1587.59 . 0.081(4) . . .
1588.91 . 0.079(4) . . .
1590.23 . 0.084(4) . . .
1591.55 . 0.088(4) . . .
1592.87 . 0.089(4) . . .
1594.19 . 0.082(4) . . .
1595.52 . 0.083(4) . . .
1596.84 . 0.085(4) . . .
1598.17 . 0.087(4) . . .
1599.50 . 0.083(4) . . .
1600.83 . 0.085(4) . . .
1602.16 . 0.087(4) . . .
1603.49 . 0.090(4) . . .
1604.82 . 0.084(4) . . .
1606.15 . 0.086(4) . . .
1607.49 . 0.080(4) . . .
1608.82 . 0.090(4) . . .
1610.16 . 0.083(4) . . .
1611.50 . 0.082(4) . . .
1612.84 . 0.084(4) . . .
1614.18 . 0.088(4) . . .
1615.52 . 0.087(4) . . .
1616.86 . 0.084(4) . . .
1618.21 . 0.087(4) . . .
1619.55 . 0.090(4) . . .
1620.90 . 0.097(4) . . .
1622.24 . 0.091(4) . . .
1623.59 . 0.092(4) . . .
1624.94 . 0.089(4) . . .
1626.29 . 0.092(4) . . .
1627.64 . 0.093(4) . . .
1628.99 . 0.083(4) . . .
1630.35 . 0.095(4) . . .
1631.70 . 0.086(4) . . .
1633.06 . 0.087(4) . . .
1634.41 . 0.082(4) . . .
1635.77 . 0.083(4) . . .
1637.13 . 0.091(4) . . .
1638.49 . 0.089(4) . . .
1639.85 . 0.086(4) . . .
1641.22 . 0.084(4) . . .
1642.58 . 0.094(4) . . .
1643.94 . 0.084(4) . . .
1645.31 . 0.083(4) . . .
1646.68 . 0.084(4) . . .
1648.05 . 0.095(4) . . .
1649.41 . 0.087(4) . . .
1650.79 . 0.083(4) . . .
1652.16 . 0.090(4) . . .
1653.53 . 0.085(4) . . .
1654.90 . 0.086(4) . . .
1656.28 . 0.088(4) . . .
1657.65 . 0.088(4) . . .
1659.03 . 0.084(4) . . .
1660.41 . 0.092(4) . . .
1661.79 . 0.082(4) . . .
1663.17 . 0.087(4) . . .
1664.55 . 0.091(4) . . .
1665.94 . 0.088(4) . . .
1667.32 . 0.084(4) . . .
1668.71 . 0.087(4) . . .
1670.09 . 0.089(4) . . .
1671.48 . 0.091(4) . . .
1672.87 . 0.087(4) . . .
1674.26 . 0.086(4) . . .
1675.65 . 0.092(4) . . .
1677.04 . 0.084(4) . . .
1678.44 . 0.095(4) . . .
1679.83 . 0.087(4) . . .
1681.23 . 0.082(4) . . .
1682.62 . 0.092(4) . . .
1684.02 . 0.083(4) . . .
1685.42 . 0.087(4) . . .
1686.82 . 0.088(4) . . .
1688.22 . 0.085(4) . . .
1689.63 . 0.086(4) . . .
1691.03 . 0.091(4) . . .
1692.43 . 0.087(4) . . .
1693.84 . 0.090(4) . . .
1695.25 . 0.091(4) . . .
1696.66 . 0.085(4) . . .
1698.07 . 0.091(4) . . .
1699.48 . 0.087(4) . . .
1700.89 . 0.092(4) . . .
1702.30 . 0.094(4) . . .
1703.72 . 0.086(4) . . .
1705.13 . 0.091(4) . . .
1706.55 . 0.084(4) . . .
1707.97 . 0.082(4) . . .
1709.39 . 0.084(4) . . .
1710.81 . 0.089(4) . . .
1712.23 . 0.084(4) . . .
1713.65 . 0.092(4) . . .
1715.08 . 0.087(4) . . .
1716.50 . 0.083(4) . . .
1717.93 . 0.091(4) . . .
1719.35 . 0.083(4) . . .
1720.78 . 0.086(4) . . .
1722.21 . 0.093(4) . . .
1723.64 . 0.076(4) . . .
1725.08 . 0.084(4) . . .
1726.51 . 0.094(4) . . .
1727.94 . 0.087(4) . . .
1729.38 . 0.088(4) . . .
1730.82 . 0.093(4) . . .
1732.25 . 0.085(4) . . .
1733.69 . 0.085(4) . . .
1735.13 . 0.080(4) . . .
1736.58 . 0.085(4) . . .
1738.02 . 0.094(4) . . .
1739.46 . 0.085(4) . . .
1740.91 . 0.084(4) . . .
1742.35 . 0.086(4) . . .
1743.80 . 0.093(4) . . .
1745.25 . 0.077(4) . . .
1746.70 . 0.076(4) . . .
1748.15 . 0.085(4) . . .
1749.61 . 0.084(4) . . .
1751.06 . 0.082(4) . . .
1752.51 . 0.087(4) . . .
1753.97 . 0.087(4) . . .
1755.43 . 0.083(4) . . .
1756.89 . 0.083(4) . . .
1758.35 . 0.089(4) . . .
1759.81 . 0.090(4) . . .
1761.27 . 0.092(4) . . .
1762.73 . 0.088(4) . . .
1764.20 . 0.083(4) . . .
1765.66 . 0.088(4) . . .
1767.13 . 0.082(4) . . .
1768.60 . 0.086(4) . . .
1770.07 . 0.084(4) . . .
1771.54 . 0.089(4) . . .
1773.01 . 0.079(4) . . .
1774.48 . 0.086(4) . . .
1775.96 . 0.080(4) . . .
1777.43 . 0.088(4) . . .
1778.91 . 0.086(4) . . .
1780.39 . 0.085(4) . . .
1781.87 . 0.089(4) . . .
1783.35 . 0.092(4) . . .
1784.83 . 0.090(4) . . .
1786.31 . 0.086(4) . . .
1787.80 . 0.082(4) . . .
1789.28 . 0.087(4) . . .
1790.77 . 0.086(4) . . .
1792.26 . 0.083(4) . . .
1793.75 . 0.091(4) . . .
1795.24 . 0.091(4) . . .
1796.73 . 0.078(4) . . .
1798.22 . 0.088(4) . . .
1799.72 . 0.089(4) . . .
1801.21 . 0.093(4) . . .
1802.71 . 0.092(4) . . .
1804.21 . 0.090(4) . . .
1805.71 . 0.093(4) . . .
1807.21 . 0.090(4) . . .
1808.71 . 0.095(4) . . .
1810.21 . 0.085(4) . . .
1811.71 . 0.086(4) . . .
1813.22 . 0.086(4) . . .
1814.73 . 0.088(4) . . .
1816.23 . 0.092(4) . . .
1817.74 . 0.082(4) . . .
1819.25 . 0.090(4) . . .
1820.77 . 0.085(4) . . .
1822.28 . 0.090(4) . . .
1823.79 . 0.094(4) . . .
1825.31 . 0.091(4) . . .
1826.83 . 0.088(4) . . .
1828.34 . 0.082(4) . . .
1829.86 . 0.090(4) . . .
1831.38 . 0.090(4) . . .
1832.90 . 0.088(4) . . .
1834.43 . 0.084(4) . . .
1835.95 . 0.085(4) . . .
1837.48 . 0.085(4) . . .
1839.00 . 0.091(4) . . .
1840.53 . 0.093(4) . . .
1842.06 . 0.080(4) . . .
1843.59 . 0.086(4) . . .
1845.12 . 0.087(4) . . .
1846.66 . 0.083(4) . . .
1848.19 . 0.084(4) . . .
1849.73 . 0.081(4) . . .
1851.26 . 0.093(4) . . .
1852.80 . 0.086(4) . . .
1854.34 . 0.085(4) . . .
1855.88 . 0.088(4) . . .
1857.42 . 0.088(4) . . .
1858.97 . 0.084(4) . . .
1860.51 . 0.099(4) . . .
1862.06 . 0.079(4) . . .
1863.60 . 0.091(4) . . .
1865.15 . 0.088(4) . . .
1866.70 . 0.090(4) . . .
1868.25 . 0.088(4) . . .
1869.81 . 0.090(4) . . .
1871.36 . 0.083(4) . . .
1872.92 . 0.087(4) . . .
1874.47 . 0.090(4) . . .
1876.03 . 0.089(4) . . .
1877.59 . 0.084(4) . . .
1879.15 . 0.087(4) . . .
1880.71 . 0.089(4) . . .
1882.27 . 0.088(4) . . .
1883.84 . 0.080(4) . . .
1885.40 . 0.084(4) . . .
1886.97 . 0.086(4) . . .
1888.54 . 0.086(4) . . .
1890.11 . 0.085(4) . . .
1891.68 . 0.082(4) . . .
1893.25 . 0.088(4) . . .
1894.82 . 0.085(4) . . .
1896.39 . 0.081(4) . . .
1897.97 . 0.079(4) . . .
1899.55 . 0.090(4) . . .
1901.13 . 0.081(4) . . .
1902.71 . 0.083(4) . . .
1904.29 . 0.092(4) . . .
1905.87 . 0.084(4) . . .
1907.45 . 0.081(4) . . .
1909.04 . 0.081(4) . . .
1910.62 . 0.094(4) . . .
1912.21 . 0.087(4) . . .
1913.80 . 0.088(4) . . .
1915.39 . 0.083(4) . . .
1916.98 . 0.085(4) . . .
1918.57 . 0.089(4) . . .
1920.17 . 0.078(4) . . .
1921.76 . 0.091(4) . . .
1923.36 . 0.084(4) . . .
1924.96 . 0.087(4) . . .
1926.56 . 0.080(4) . . .
1928.16 . 0.077(4) . . .
1929.76 . 0.086(4) . . .
1931.37 . 0.094(4) . . .
1932.97 . 0.084(4) . . .
1934.58 . 0.085(4) . . .
1936.18 . 0.087(4) . . .
1937.79 . 0.079(4) . . .
1939.40 . 0.082(4) . . .
1941.01 . 0.081(4) . . .
1942.63 . 0.087(4) . . .
1944.24 . 0.078(4) . . .
1945.86 . 0.088(4) . . .
1947.47 . 0.085(4) . . .
1949.09 . 0.086(4) . . .
1950.71 . 0.082(4) . . .
1952.33 . 0.083(4) . . .
1953.95 . 0.089(4) . . .
1955.58 . 0.082(4) . . .
1957.20 . 0.082(4) . . .
1958.83 . 0.087(4) . . .
1960.46 . 0.079(4) . . .
1962.08 . 0.081(4) . . .
1963.72 . 0.083(4) . . .
1965.35 . 0.084(4) . . .
1966.98 . 0.082(4) . . .
1968.61 . 0.090(4) . . .
1970.25 . 0.088(4) . . .
1971.89 . 0.089(4) . . .
1973.53 . 0.090(4) . . .
1975.17 . 0.096(4) . . .
1976.81 . 0.086(4) . . .
1978.45 . 0.088(4) . . .
1980.09 . 0.078(4) . . .
1981.74 . 0.088(4) . . .
1983.39 . 0.076(4) . . .
1985.03 . 0.086(4) . . .
1986.68 . 0.086(4) . . .
1988.33 . 0.090(4) . . .
1989.99 . 0.091(4) . . .
1991.64 . 0.079(4) . . .
1993.29 . 0.083(4) . . .
1994.95 . 0.085(4) . . .
1996.61 . 0.084(4) . . .
1998.27 . 0.085(4) . . .
1999.93 . 0.085(4) . . .
2001.59 . 0.080(4) . . .
2003.25 . 0.092(4) . . .
2004.92 . 0.093(4) . . .
2006.58 . 0.084(4) . . .
2008.25 . 0.088(4) . . .
2009.92 . 0.084(4) . . .
2011.59 . 0.091(4) . . .
2013.26 . 0.087(4) . . .
2014.93 . 0.088(4) . . .
2016.61 . 0.091(4) . . .
2018.28 . 0.095(4) . . .
2019.96 . 0.081(4) . . .
2021.64 . 0.085(4) . . .
2023.32 . 0.085(4) . . .
2025.00 . 0.084(4) . . .
2026.68 . 0.080(4) . . .
2028.37 . 0.087(4) . . .
2030.05 . 0.091(4) . . .
2031.74 . 0.087(4) . . .
2033.43 . 0.085(4) . . .
2035.12 . 0.090(4) . . .
2036.81 . 0.085(4) . . .
2038.50 . 0.088(4) . . .
2040.19 . 0.086(4) . . .
2041.89 . 0.087(4) . . .
2043.58 . 0.082(4) . . .
2045.28 . 0.087(4) . . .
2046.98 . 0.084(4) . . .
2048.68 . 0.089(4) . . .
2050.38 . 0.083(4) . . .
2052.09 . 0.091(4) . . .
2053.79 . 0.091(4) . . .
2055.50 . 0.082(4) . . .
2057.21 . 0.088(4) . . .
2058.92 . 0.090(4) . . .
2060.63 . 0.088(4) . . .
2062.34 . 0.084(4) . . .
2064.05 . 0.080(4) . . .
2065.77 . 0.091(4) . . .
2067.49 . 0.076(4) . . .
2069.20 . 0.088(4) . . .
2070.92 . 0.085(4) . . .
2072.64 . 0.091(4) . . .
2074.37 . 0.089(4) . . .
2076.09 . 0.090(4) . . .
2077.81 . 0.088(4) . . .
2079.54 . 0.093(4) . . .
2081.27 . 0.085(4) . . .
2083.00 . 0.090(4) . . .
2084.73 . 0.089(4) . . .
2086.46 . 0.089(4) . . .
2088.19 . 0.093(4) . . .
2089.93 . 0.093(4) . . .
2091.67 . 0.084(4) . . .
2093.40 . 0.084(4) . . .
2095.14 . 0.090(4) . . .
2096.88 . 0.093(4) . . .
2098.63 . 0.085(4) . . .
2100.37 . 0.090(4) . . .
2102.12 . 0.083(4) . . .
2103.86 . 0.085(4) . . .
2105.61 . 0.088(4) . . .
2107.36 . 0.091(4) . . .
2109.11 . 0.089(4) . . .
2110.86 . 0.087(4) . . .
2112.62 . 0.084(4) . . .
2114.37 . 0.085(4) . . .
2116.13 . 0.091(4) . . .
2117.89 . 0.088(4) . . .
2119.65 . 0.088(4) . . .
2121.41 . 0.088(4) . . .
2123.17 . 0.085(4) . . .
2124.94 . 0.091(4) . . .
2126.70 . 0.084(4) . . .
2128.47 . 0.087(4) . . .
2130.24 . 0.082(4) . . .
2132.01 . 0.083(4) . . .
2133.78 . 0.084(4) . . .
2135.55 . 0.089(4) . . .
2137.33 . 0.088(4) . . .
2139.10 . 0.082(4) . . .
2140.88 . 0.087(4) . . .
2142.66 . 0.081(4) . . .
2144.44 . 0.087(4) . . .
2146.22 . 0.092(4) . . .
2148.00 . 0.083(4) . . .
2149.79 . 0.081(4) . . .
2151.57 . 0.086(4) . . .
2153.36 . 0.089(4) . . .
2155.15 . 0.087(4) . . .
2156.94 . 0.085(4) . . .
2158.73 . 0.086(4) . . .
2160.53 . 0.083(4) . . .
2162.32 . 0.074(4) . . .
2164.12 . 0.077(4) . . .
2165.92 . 0.085(4) . . .
2167.72 . 0.079(4) . . .
2169.52 . 0.089(4) . . .
2171.32 . 0.083(4) . . .
2173.13 . 0.086(4) . . .
2174.93 . 0.082(4) . . .
2176.74 . 0.081(4) . . .
2178.55 . 0.089(4) . . .
2180.36 . 0.085(4) . . .
2182.17 . 0.085(4) . . .
2183.98 . 0.082(4) . . .
2185.80 . 0.078(4) . . .
2187.61 . 0.084(4) . . .
2189.43 . 0.077(4) . . .
2191.25 . 0.0908(35) . . .
2193.07 . 0.081(4) . . .
2194.89 . 0.083(4) . . .
2196.72 . 0.088(4) . . .
2198.54 . 0.086(4) . . .
2200.37 . 0.084(4) . . .
2202.20 . 0.088(4) . . .
2204.03 . 0.087(4) . . .
2205.86 . 0.080(4) . . .
2207.69 . 0.087(4) . . .
2209.53 . 0.082(4) . . .
2211.36 . 0.079(4) . . .
2213.20 . 0.081(4) . . .
2215.04 . 0.080(4) . . .
2216.88 . 0.081(4) . . .
2218.72 . 0.086(4) . . .
2220.56 . 0.083(4) . . .
2222.41 . 0.079(4) . . .
2224.26 . 0.075(4) . . .
2226.10 . 0.0896(35) . . .
2227.95 . 0.090(4) . . .
2229.80 . 0.089(4) . . .
2231.66 . 0.079(4) . . .
2233.51 . 0.086(4) . . .
2235.37 . 0.0882(35) . . .
2237.23 . 0.084(4) . . .
2239.08 . 0.0936(35) . . .
2240.94 . 0.088(4) . . .
2242.81 . 0.079(4) . . .
2244.67 . 0.0903(35) . . .
2246.54 . 0.0930(35) . . .
2248.40 . 0.085(4) . . .
2250.27 . 0.089(4) . . .
2252.14 . 0.085(4) . . .
2254.01 . 0.093(4) . . .
2255.88 . 0.076(4) . . .
2257.76 . 0.0927(35) . . .
2259.63 . 0.088(4) . . .
2261.51 . 0.086(4) . . .
2263.39 . 0.087(4) . . .
2265.27 . 0.080(4) . . .
2267.15 . 0.096(4) . . .
2269.04 . 0.088(4) . . .
2270.92 . 0.089(4) . . .
2272.81 . 0.089(4) . . .
2274.70 . 0.086(4) . . .
2276.59 . 0.090(4) . . .
2278.48 . 0.086(4) . . .
2280.37 . 0.0931(35) . . .
2282.27 . 0.089(4) . . .
2284.16 . 0.089(4) . . .
2286.06 . 0.083(4) . . .
2287.96 . 0.082(4) . . .
2289.86 . 0.088(4) . . .
2291.77 . 0.088(4) . . .
2293.67 . 0.093(4) . . .
2295.58 . 0.088(4) . . .
2297.48 . 0.079(4) . . .
2299.39 . 0.094(4) . . .
2301.30 . 0.090(4) . . .
2303.21 . 0.0968(35) . . .
2305.13 . 0.0880(35) . . .
2307.04 . 0.091(4) . . .
2308.96 . 0.0931(35) . . .
2310.88 . 0.092(4) . . .
2312.80 . 0.096(4) . . .
2314.72 . 0.088(4) . . .
2316.64 . 0.084(4) . . .
2318.57 . 0.088(4) . . .
2320.50 . 0.090(4) . . .
2322.42 . 0.085(4) . . .
2324.35 . 0.086(4) . . .
2326.29 . 0.088(4) . . .
2328.22 . 0.087(4) . . .
2330.15 . 0.087(4) . . .
2332.09 . 0.084(4) . . .
2334.03 . 0.080(4) . . .
2335.97 . 0.089(4) . . .
2337.91 . 0.088(4) . . .
2339.85 . 0.083(4) . . .
2341.79 . 0.087(4) . . .
2343.74 . 0.0858(35) . . .
2345.69 . 0.0865(35) . . .
2347.64 . 0.0903(35) . . .
2349.59 . 0.0901(35) . . .
2351.54 . 0.0886(35) . . .
2353.49 . 0.085(4) . . .
2355.45 . 0.0869(35) . . .
2357.41 . 0.0858(35) . . .
2359.36 . 0.0893(35) . . .
2361.32 . 0.0872(35) . . .
2363.29 . 0.086(4) . . .
2365.25 . 0.0861(35) . . .
2367.22 . 0.0885(35) . . .
2369.18 . 0.084(4) . . .
2371.15 . 0.0931(35) . . .
2373.12 . 0.0865(34) . . .
2375.09 . 0.086(4) . . .
2377.07 . 0.0844(35) . . .
2379.04 . 0.0879(35) . . .
2381.02 . 0.0866(35) . . .
2383.00 . 0.0885(34) . . .
2384.98 . 0.079(4) . . .
2386.96 . 0.0812(35) . . .
2388.94 . 0.0886(35) . . .
2390.93 . 0.0856(34) . . .
2392.91 . 0.0879(35) . . .
2394.90 . 0.0859(34) . . .
2396.89 . 0.0906(34) . . .
2398.88 . 0.0907(34) . . .
2400.88 . 0.0905(34) . . .
2402.87 . 0.0844(35) . . .
2404.87 . 0.0869(35) . . .
2406.87 . 0.0925(34) . . .
2408.87 . 0.0827(35) . . .
2410.87 . 0.0894(34) . . .
2412.87 . 0.0872(35) . . .
2414.88 . 0.0808(35) . . .
2416.88 . 0.0886(35) . . .
2418.89 . 0.0902(34) . . .
2420.90 . 0.0881(34) . . .
2422.91 . 0.0803(34) . . .
2424.93 . 0.0835(35) . . .
2426.94 . 0.0859(35) . . .
2428.96 . 0.0829(34) . . .
2430.97 . 0.0891(34) . . .
2432.99 . 0.0851(35) . . .
2435.02 . 0.0925(34) . . .
2437.04 . 0.0844(34) . . .
2439.06 . 0.0832(34) . . .
2441.09 . 0.0863(34) . . .
2443.12 . 0.0784(35) . . .
2445.15 . 0.0829(34) . . .
2447.18 . 0.0912(34) . . .
2449.21 . 0.0844(34) . . .
2451.25 . 0.0896(34) . . .
2453.29 . 0.0875(34) . . .
2455.32 . 0.0875(34) . . .
2457.37 . 0.0870(35) . . .
2459.41 . 0.0943(33) . . .
2461.45 . 0.0851(34) . . .
2463.50 . 0.0868(34) . . .
2465.54 . 0.0836(34) . . .
2467.59 . 0.0796(34) . . .
2469.64 . 0.0889(34) . . .
2471.69 . 0.0892(34) . . .
2473.75 . 0.0853(34) . . .
2475.80 . 0.0841(34) . . .
2477.86 . 0.0885(34) . . .
2479.92 . 0.0884(34) . . .
2481.98 . 0.0912(33) . . .
2484.04 . 0.0874(34) . . .
2486.11 . 0.0888(34) . . .
2488.17 . 0.0883(34) . . .
2490.24 . 0.0874(34) . . .
2492.31 . 0.0879(34) . . .
2494.38 . 0.0851(34) . . .
2496.45 . 0.0845(34) . . .
2498.53 . 0.0894(34) . . .
2500.60 . 0.0873(33) . . .
2502.68 . 0.0840(34) . . .
2504.76 . 0.0854(34) . . .
2506.84 . 0.0797(34) . . .
2508.92 . 0.0854(34) . . .
2511.01 . 0.0819(34) . . .
2513.09 . 0.0872(34) . . .
2515.18 . 0.0858(34) . . .
2517.27 . 0.0842(33) . . .
2519.36 . 0.0862(34) . . .
2521.46 . 0.0806(34) . . .
2523.55 . 0.0901(33) . . .
2525.65 . 0.0844(33) . . .
2527.75 . 0.0829(33) . . .
2529.85 . 0.0770(34) . . .
2531.95 . 0.0863(33) . . .
2534.05 . 0.0873(33) . . .
2536.16 . 0.0801(34) . . .
2538.27 . 0.0873(33) . . .
2540.38 . 0.0878(33) . . .
2542.49 . 0.0927(33) . . .
2544.60 . 0.0852(33) . . .
2546.71 . 0.0813(33) . . .
2548.83 . 0.0856(33) . . .
2550.95 . 0.0815(34) . . .
2553.07 . 0.0845(34) . . .
2555.19 . 0.0837(33) . . .
2557.31 . 0.0830(34) . . .
2559.44 . 0.0829(34) . . .
2561.56 . 0.0836(33) . . .
2563.69 . 0.0857(33) . . .
2565.82 . 0.0925(33) . . .
2567.95 . 0.0868(33) . . .
2570.09 . 0.0871(34) . . .
2572.22 . 0.0856(33) . . .
2574.36 . 0.0861(34) . . .
2576.50 . 0.0850(34) . . .
2578.64 . 0.0888(33) . . .
2580.78 . 0.0892(33) . . .
2582.93 . 0.0855(34) . . .
2585.07 . 0.0917(33) . . .
2587.22 . 0.0836(34) . . .
2589.37 . 0.0873(34) . . .
2591.52 . 0.0908(34) . . .
2593.68 . 0.0875(34) . . .
2595.83 . 0.0882(34) . . .
2597.99 . 0.0922(33) . . .
2600.15 . 0.0858(34) . . .
2602.31 . 0.0934(33) . . .
2604.47 . 0.0908(33) . . .
2606.63 . 0.0930(34) . . .
2608.80 . 0.0858(34) . . .
2610.97 . 0.0902(34) . . .
2613.14 . 0.0905(34) . . .
2615.31 . 0.0842(34) . . .
2617.48 . 0.0857(34) . . .
2619.66 . 0.0938(34) . . .
2621.83 . 0.0906(34) . . .
2624.01 . 0.0886(33) . . .
2626.19 . 0.0875(34) . . .
2628.37 . 0.0882(34) . . .
2630.56 . 0.0862(34) . . .
2632.74 . 0.0886(34) . . .
2634.93 . 0.0952(33) . . .
2637.12 . 0.0906(34) . . .
2639.31 . 0.0928(34) . . .
2641.50 . 0.0908(34) . . .
2643.70 . 0.0892(34) . . .
2645.90 . 0.0966(33) . . .
2648.09 . 0.0885(34) . . .
2650.29 . 0.0925(34) . . .
2652.50 . 0.0892(34) . . .
2654.70 . 0.0952(34) . . .
2656.91 . 0.0925(34) . . .
2659.11 . 0.0900(34) . . .
2661.32 . 0.0901(34) . . .
2663.53 . 0.0853(34) . . .
2665.75 . 0.0888(34) . . .
2667.96 . 0.0890(34) . . .
2670.18 . 0.0900(34) . . .
2672.40 . 0.0878(34) . . .
2674.62 . 0.0915(34) . . .
2676.84 . 0.0962(34) . . .
2679.07 . 0.0913(34) . . .
2681.29 . 0.0930(34) . . .
2683.52 . 0.0910(34) . . .
2685.75 . 0.0965(34) . . .
2687.98 . 0.0927(34) . . .
2690.21 . 0.0899(34) . . .
2692.45 . 0.0961(34) . . .
2694.69 . 0.0894(34) . . .
2696.93 . 0.0902(34) . . .
2699.17 . 0.0931(34) . . .
2701.41 . 0.0864(34) . . .
2703.65 . 0.0954(34) . . .
2705.90 . 0.0930(34) . . .
2708.15 . 0.0948(34) . . .
2710.40 . 0.0863(35) . . .
2712.65 . 0.0886(34) . . .
2714.91 . 0.0914(34) . . .
2717.16 . 0.0924(34) . . .
2719.42 . 0.0909(34) . . .
2721.68 . 0.0900(34) . . .
2723.94 . 0.0905(34) . . .
2726.20 . 0.0961(34) . . .
2728.47 . 0.0865(35) . . .
2730.74 . 0.0958(34) . . .
2733.00 . 0.0998(33) . . .
2735.28 . 0.0912(34) . . .
2737.55 . 0.0899(34) . . .
2739.82 . 0.0921(34) . . .
2742.10 . 0.0966(33) . . .
2744.38 . 0.0903(34) . . .
2746.66 . 0.0947(34) . . .
2748.94 . 0.0863(34) . . .
2751.22 . 0.0892(34) . . .
2753.51 . 0.0901(34) . . .
2755.80 . 0.0933(34) . . .
2758.09 . 0.0913(34) . . .
2760.38 . 0.0954(34) . . .
2762.67 . 0.0978(33) . . .
2764.97 . 0.1001(34) . . .
2767.27 . 0.0905(34) . . .
2769.57 . 0.0960(33) . . .
2771.87 . 0.0930(33) . . .
2774.17 . 0.0929(33) . . .
2776.47 . 0.0918(33) . . .
2778.78 . 0.0949(33) . . .
2781.09 . 0.0953(34) . . .
2783.40 . 0.0898(34) . . .
2785.71 . 0.0868(33) . . .
2788.03 . 0.0892(34) . . .
2790.35 . 0.0917(33) . . .
2792.66 . 0.0902(33) . . .
2794.98 . 0.0900(33) . . .
2797.31 . 0.0938(33) . . .
2799.63 . 0.0907(33) . . .
2801.96 . 0.0854(33) . . .
2804.29 . 0.0898(33) . . .
2806.62 . 0.0892(33) . . .
2808.95 . 0.0903(33) . . .
2811.28 . 0.0827(33) . . .
2813.62 . 0.0872(33) . . .
2815.96 . 0.0842(33) . . .
2818.30 . 0.0889(33) . . .
2820.64 . 0.0887(33) . . .
2822.98 . 0.0844(33) . . .
2825.33 . 0.0805(33) . . .
2827.67 . 0.0883(32) . . .
2830.02 . 0.0853(33) . . .
2832.38 . 0.0816(33) . . .
2834.73 . 0.0898(32) . . .
2837.08 . 0.0791(33) . . .
2839.44 . 0.0867(33) . . .
2841.80 . 0.0898(32) . . .
2844.16 . 0.0886(33) . . .
2846.52 . 0.0873(33) . . .
2848.89 . 0.0845(32) . . .
2851.26 . 0.0865(32) . . .
2853.63 . 0.0875(32) . . .
2856.00 . 0.0842(33) . . .
2858.37 . 0.0902(32) . . .
2860.75 . 0.0880(32) . . .
2863.12 . 0.0838(33) . . .
2865.50 . 0.0883(33) . . .
2867.88 . 0.0881(32) . . .
2870.27 . 0.0822(33) . . .
2872.65 . 0.0900(32) . . .
2875.04 . 0.0853(33) . . .
2877.43 . 0.0914(32) . . .
2879.82 . 0.0829(33) . . .
2882.21 . 0.0868(32) . . .
2884.60 . 0.0899(32) . . .
2887.00 . 0.0900(32) . . .
2889.40 . 0.0836(32) . . .
2891.80 . 0.0880(32) . . .
2894.20 . 0.0883(32) . . .
2896.61 . 0.0876(32) . . .
2899.02 . 0.0925(32) . . .
2901.42 . 0.0847(33) . . .
2903.84 . 0.0908(32) . . .
2906.25 . 0.0847(33) . . .
2908.66 . 0.0798(33) . . .
2911.08 . 0.0872(33) . . .
2913.50 . 0.0900(32) . . .
2915.92 . 0.0901(32) . . .
2918.34 . 0.0920(32) . . .
2920.77 . 0.0874(32) . . .
2923.19 . 0.0815(33) . . .
2925.62 . 0.0905(32) . . .
2928.05 . 0.0879(33) . . .
2930.49 . 0.0880(32) . . .
2932.92 . 0.0881(32) . . .
2935.36 . 0.0895(32) . . .
2937.80 . 0.0906(32) . . .
2940.24 . 0.0846(33) . . .
2942.68 . 0.0898(32) . . .
2945.13 . 0.0913(32) . . .
2947.57 . 0.0892(32) . . .
2950.02 . 0.0969(32) . . .
2952.47 . 0.0928(32) . . .
2954.93 . 0.0901(32) . . .
2957.38 . 0.0908(33) . . .
2959.84 . 0.0897(33) . . .
2962.30 . 0.0978(32) . . .
2964.76 . 0.0868(33) . . .
2967.22 . 0.0923(32) . . .
2969.69 . 0.0973(32) . . .
2972.16 . 0.0899(32) . . .
2974.63 . 0.0897(33) . . .
2977.10 . 0.0989(32) . . .
2979.57 . 0.0913(33) . . .
2982.05 . 0.0953(33) . . .
2984.53 . 0.0894(32) . . .
2987.01 . 0.0869(33) . . .
2989.49 . 0.0904(33) . . .
2991.97 . 0.0971(32) . . .
2994.46 . 0.0950(32) . . .
2996.95 . 0.0891(33) . . .
2999.44 . 0.0851(33) . . .
3001.93 . 0.0882(32) . . .
3004.42 . 0.0904(33) . . .
3006.92 . 0.0931(32) . . .
3009.42 . 0.0920(32) . . .
3011.92 . 0.0896(32) . . .
3014.42 . 0.0928(32) . . .
3016.93 . 0.0918(33) . . .
3019.43 . 0.0880(32) . . .
3021.94 . 0.0947(32) . . .
3024.45 . 0.0842(33) . . .
3026.97 . 0.0962(32) . . .
3029.48 . 0.0928(32) . . .
3032.00 . 0.0924(32) . . .
3034.52 . 0.0867(32) . . .
3037.04 . 0.0946(32) . . .
3039.56 . 0.0853(32) . . .
3042.09 . 0.0963(32) . . .
3044.61 . 0.0912(32) . . .
3047.14 . 0.0922(32) . . .
3049.68 . 0.0984(31) . . .
3052.21 . 0.0926(32) . . .
3054.75 . 0.0875(32) . . .
3057.29 . 0.0877(32) . . .
3059.83 . 0.0875(32) . . .
3062.37 . 0.0901(32) . . .
3064.91 . 0.0926(33) . . .
3067.46 . 0.0909(32) . . .
3070.01 . 0.0881(32) . . .
3072.56 . 0.0958(32) . . .
3075.11 . 0.0897(32) . . .
3077.67 . 0.0896(32) . . .
3080.22 . 0.0861(33) . . .
3082.78 . 0.0923(32) . . .
3085.34 . 0.0865(32) . . .
3087.91 . 0.0927(32) . . .
3090.47 . 0.0953(32) . . .
3093.04 . 0.0881(32) . . .
3095.61 . 0.0913(32) . . .
3098.18 . 0.0918(32) . . .
3100.76 . 0.0881(32) . . .
3103.33 . 0.0895(32) . . .
3105.91 . 0.0921(32) . . .
3108.49 . 0.0911(32) . . .
3111.08 . 0.0955(32) . . .
3113.66 . 0.0905(32) . . .
3116.25 . 0.0839(32) . . .
3118.84 . 0.0949(32) . . .
3121.43 . 0.0953(32) . . .
3124.02 . 0.0888(32) . . .
3126.62 . 0.0923(32) . . .
3129.22 . 0.0884(32) . . .
3131.82 . 0.0851(33) . . .
3134.42 . 0.0956(32) . . .
3137.02 . 0.0884(32) . . .
3139.63 . 0.0950(32) . . .
3142.24 . 0.0916(32) . . .
3144.85 . 0.0999(32) . . .
3147.46 . 0.0990(32) . . .
3150.08 . 0.0893(32) . . .
3152.70 . 0.0917(32) . . .
3155.32 . 0.0913(32) . . .
3157.94 . 0.0909(32) . . .
3160.56 . 0.0919(32) . . .
3163.19 . 0.0924(32) . . .
3165.82 . 0.0943(32) . . .
3168.45 . 0.0960(32) . . .
3171.08 . 0.0928(32) . . .
3173.71 . 0.0888(32) . . .
3176.35 . 0.0871(32) . . .
3178.99 . 0.0951(32) . . .
3181.63 . 0.0903(32) . . .
3184.28 . 0.0918(32) . . .
3186.92 . 0.0942(32) . . .
3189.57 . 0.0895(32) . . .
3192.22 . 0.0896(32) . . .
3194.87 . 0.0922(32) . . .
3197.53 . 0.0861(32) . . .
3200.18 . 0.0911(32) . . .
3202.84 . 0.0879(32) . . .
3205.50 . 0.0960(32) . . .
3208.17 . 0.0893(32) . . .
3210.83 . 0.0892(32) . . .
3213.50 . 0.0898(32) . . .
3216.17 . 0.0895(32) . . .
3218.84 . 0.0881(32) . . .
3221.52 . 0.0946(31) . . .
3224.19 . 0.0910(32) . . .
3226.87 . 0.0920(32) . . .
3229.55 . 0.0960(32) . . .
3232.24 . 0.0938(32) . . .
3234.92 . 0.0903(32) . . .
3237.61 . 0.0959(32) . . .
3240.30 . 0.0971(32) . . .
3242.99 . 0.0896(32) . . .
3245.69 . 0.1036(31) . . .
3248.39 . 0.1035(31) . . .
3251.08 . 0.0926(32) . . .
3253.79 . 0.0947(32) . . .
3256.49 . 0.0926(32) . . .
3259.20 . 0.0964(32) . . .
3261.90 . 0.0974(32) . . .
3264.61 . 0.0918(32) . . .
3267.33 . 0.0961(32) . . .
3270.04 . 0.0964(32) . . .
3272.76 . 0.0920(32) . . .
3275.48 . 0.0970(32) . . .
3278.20 . 0.0989(32) . . .
3280.92 . 0.0940(32) . . .
3283.65 . 0.0985(32) . . .
3286.38 . 0.0972(32) . . .
3289.11 . 0.0984(32) . . .
3291.84 . 0.0982(32) . . .
3294.58 . 0.1024(32) . . .
3297.31 . 0.0990(32) . . .
3300.05 . 0.1019(32) . . .
3302.80 . 0.1006(32) . . .
3305.54 . 0.0987(32) . . .
3308.29 . 0.1050(32) . . .
3311.04 . 0.0980(32) . . .
3313.79 . 0.0958(32) . . .
3316.54 . 0.1005(32) . . .
3319.30 . 0.0943(32) . . .
3322.05 . 0.1028(32) . . .
3324.81 . 0.0965(32) . . .
3327.58 . 0.1016(32) . . .
3330.34 . 0.0949(32) . . .
3333.11 . 0.0924(32) . . .
3335.88 . 0.0996(32) . . .
3338.65 . 0.0961(32) . . .
3341.43 . 0.0933(32) . . .
3344.20 . 0.0967(32) . . .
3346.98 . 0.0988(32) . . .
3349.76 . 0.0947(32) . . .
3352.54 . 0.0986(31) . . .
3355.33 . 0.0994(32) . . .
3358.12 . 0.1006(32) . . .
3360.91 . 0.0996(31) . . .
3363.70 . 0.0990(31) . . .
3366.50 . 0.0951(32) . . .
3369.29 . 0.0968(31) . . .
3372.09 . 0.0983(32) . . .
3374.89 . 0.0973(31) . . .
3377.70 . 0.0977(32) . . .
3380.50 . 0.0995(31) . . .
3383.31 . 0.0980(31) . . .
3386.13 . 0.0981(31) . . .
3388.94 . 0.0966(31) . . .
3391.75 . 0.0934(31) . . .
3394.57 . 0.0937(31) . . .
3397.39 . 0.0935(31) . . .
3400.22 . 0.0959(31) . . .
3403.04 . 0.0955(31) . . .
3405.87 . 0.0927(31) . . .
3408.70 . 0.0909(31) . . .
3411.53 . 0.0947(31) . . .
3414.37 . 0.0952(31) . . .
3417.20 . 0.0957(30) . . .
3420.04 . 0.0914(31) . . .
3422.88 . 0.0911(31) . . .
3425.73 . 0.0945(31) . . .
3428.57 . 0.0959(30) . . .
3431.42 . 0.0943(30) . . .
3434.27 . 0.0941(30) . . .
3437.13 . 0.0946(30) . . .
3439.98 . 0.0926(30) . . .
3442.84 . 0.0872(31) . . .
3445.70 . 0.0981(30) . . .
3448.57 . 0.0847(30) . . .
3451.43 . 0.0908(30) . . .
3454.30 . 0.0892(30) . . .
3457.17 . 0.0868(30) . . .
3460.04 . 0.0913(30) . . .
3462.92 . 0.0899(30) . . .
3465.79 . 0.0913(30) . . .
3468.67 . 0.0936(30) . . .
3471.56 . 0.0940(30) . . .
3474.44 . 0.0934(30) . . .
3477.33 . 0.0977(30) . . .
3480.22 . 0.0919(30) . . .
3483.11 . 0.0916(30) . . .
3486.00 . 0.0928(30) . . .
3488.90 . 0.0866(30) . . .
3491.80 . 0.0860(30) . . .
3494.70 . 0.0946(29) . . .
3497.60 . 0.0907(30) . . .
3500.51 . 0.0862(30) . . .
3503.42 . 0.0915(30) . . .
3506.33 . 0.0916(30) . . .
3509.2 . 0.0891(29) . . .
3512.2 . 0.0897(29) . . .
3515.1 . 0.0837(29) . . .
3518.0 . 0.0883(29) . . .
3520.9 . 0.0880(29) . . .
3523.8 . 0.0868(29) . . .
3526.8 . 0.0857(29) . . .
3529.7 . 0.0895(29) . . .
3532.6 . 0.0910(30) . . .
3535.6 . 0.0852(30) . . .
3538.5 . 0.0878(29) . . .
3541.5 . 0.0900(29) . . .
3544.4 . 0.0854(29) . . .
3547.3 . 0.0850(29) . . .
3550.3 . 0.0893(29) . . .
3553.2 . 0.0884(29) . . .
3556.2 . 0.0873(29) . . .
3559.1 . 0.0853(29) . . .
3562.1 . 0.0847(29) . . .
3565.1 . 0.0850(29) . . .
3568.0 . 0.0890(29) . . .
3571.0 . 0.0846(29) . . .
3574.0 . 0.0874(29) . . .
3576.9 . 0.0861(29) . . .
3579.9 . 0.0883(29) . . .
3582.9 . 0.0883(29) . . .
3585.8 . 0.0945(29) . . .
3588.8 . 0.0869(29) . . .
3591.8 . 0.0847(29) . . .
3594.8 . 0.0889(29) . . .
3597.8 . 0.0902(29) . . .
3600.8 . 0.0841(29) . . .
3603.8 . 0.0885(29) . . .
3606.8 . 0.0890(29) . . .
3609.8 . 0.0840(29) . . .
3612.8 . 0.0829(29) . . .
3615.8 . 0.0886(29) . . .
3618.8 . 0.0870(29) . . .
3621.8 . 0.0883(29) . . .
3624.8 . 0.0891(29) . . .
3627.8 . 0.0908(29) . . .
3630.8 . 0.0880(29) . . .
3633.8 . 0.0927(29) . . .
3636.8 . 0.0886(29) . . .
3639.9 . 0.0892(29) . . .
3642.9 . 0.0913(29) . . .
3645.9 . 0.0870(29) . . .
3648.9 . 0.0897(29) . . .
3652.0 . 0.0864(30) . . .
3655.0 . 0.0867(29) . . .
3658.0 . 0.0970(29) . . .
3661.1 . 0.0868(30) . . .
3664.1 . 0.0920(29) . . .
3667.2 . 0.0942(29) . . .
3670.2 . 0.0934(29) . . .
3673.3 . 0.0902(29) . . .
3676.3 . 0.0889(29) . . .
3679.4 . 0.0898(29) . . .
3682.4 . 0.0934(29) . . .
3685.5 . 0.0892(30) . . .
3688.6 . 0.0935(29) . . .
3691.6 . 0.0910(29) . . .
3694.7 . 0.0946(30) . . .
3697.8 . 0.0950(29) . . .
3700.8 . 0.0937(30) . . .
3703.9 . 0.0940(30) . . .
3707.0 . 0.0910(30) . . .
3710.1 . 0.0933(29) . . .
3713.1 . 0.0839(30) . . .
3716.2 . 0.0921(30) . . .
3719.3 . 0.0855(30) . . .
3722.4 . 0.0957(30) . . .
3725.5 . 0.0934(30) . . .
3728.6 . 0.0957(30) . . .
3731.7 . 0.1006(30) . . .
3734.8 . 0.0966(30) . . .
3737.9 . 0.1012(30) . . .
3741.0 . 0.1037(30) . . .
3744.1 . 0.0975(30) . . .
3747.2 . 0.0999(30) . . .
3750.3 . 0.0983(30) . . .
3753.5 . 0.0973(30) . . .
3756.6 . 0.1018(30) . . .
3759.7 . 0.0974(30) . . .
3762.8 . 0.0970(30) . . .
3765.9 . 0.1043(30) . . .
3769.1 . 0.0999(30) . . .
3772.2 . 0.1003(30) . . .
3775.3 . 0.0981(30) . . .
3778.5 . 0.1000(30) . . .
3781.6 . 0.1020(30) . . .
3784.8 . 0.0938(30) . . .
3787.9 . 0.0969(30) . . .
3791.0 . 0.0952(30) . . .
3794.2 . 0.1019(30) . . .
3797.4 . 0.0943(30) . . .
3800.5 . 0.0971(30) . . .
3803.7 . 0.1050(30) . . .
3806.8 . 0.0989(30) . . .
3810.0 . 0.0943(30) . . .
3813.2 . 0.0997(30) . . .
3816.3 . 0.0988(30) . . .
3819.5 . 0.0977(30) . . .
3822.7 . 0.0982(31) . . .
3825.8 . 0.0976(31) . . .
3829.0 . 0.0998(31) . . .
3832.2 . 0.1064(30) . . .
3835.4 . 0.1060(30) . . .
3838.6 . 0.1033(30) . . .
3841.8 . 0.1035(30) . . .
3845.0 . 0.0923(31) . . .
3848.2 . 0.0995(30) . . .
3851.3 . 0.1002(31) . . .
3854.5 . 0.1038(31) . . .
3857.8 . 0.1060(30) . . .
3861.0 . 0.1119(30) . . .
3864.2 . 0.1042(31) . . .
3867.4 . 0.1085(31) . . .
3870.6 . 0.1053(31) . . .
3873.8 . 0.1056(31) . . .
3877.0 . 0.1058(31) . . .
3880.2 . 0.1032(31) . . .
3883.5 . 0.1050(31) . . .
3886.7 . 0.1088(30) . . .
3889.9 . 0.1056(30) . . .
3893.2 . 0.1059(30) . . .
3896.4 . 0.1016(30) . . .
3899.6 . 0.0989(30) . . .
3902.9 . 0.1017(30) . . .
3906.1 . 0.1026(30) . . .
3909.4 . 0.1042(30) . . .
3912.6 . 0.1044(30) . . .
3915.9 . 0.1011(30) . . .
3919.1 . 0.1043(30) . . .
3922.4 . 0.1059(30) . . .
3925.6 . 0.1034(30) . . .
3928.9 . 0.0999(30) . . .
3932.2 . 0.0969(30) . . .
3935.4 . 0.1041(30) . . .
3938.7 . 0.0981(31) . . .
3942.0 . 0.0995(31) . . .
3945.2 . 0.1091(30) . . .
3948.5 . 0.1052(30) . . .
3951.8 . 0.0976(30) . . .
3955.1 . 0.1046(30) . . .
3958.4 . 0.0964(30) . . .
3961.7 . 0.1000(30) . . .
3964.9 . 0.1035(30) . . .
3968.2 . 0.1005(30) . . .
3971.5 . 0.0997(30) . . .
3974.8 . 0.1009(30) . . .
3978.1 . 0.1046(30) . . .
3981.4 . 0.1073(30) . . .
3984.8 . 0.1012(30) . . .
3988.1 . 0.1000(30) . . .
3991.4 . 0.1022(30) . . .
3994.7 . 0.1038(30) . . .
3998.0 . 0.1037(30) . . .
4001.3 . 0.1084(30) . . .
4004.7 . 0.1079(30) . . .
4008.0 . 0.1052(30) . . .
4011.3 . 0.0994(30) . . .
4014.7 . 0.1050(30) . . .
4018.0 . 0.1006(30) . . .
4021.3 . 0.0987(30) . . .
4024.7 . 0.0981(30) . . .
4028.0 . 0.1034(29) . . .
4031.4 . 0.1010(30) . . .
4034.7 . 0.0976(30) . . .
4038.1 . 0.1001(30) . . .
4041.4 . 0.0967(30) . . .
4044.8 . 0.0982(30) . . .
4048.1 . 0.1030(29) . . .
4051.5 . 0.1035(29) . . .
4054.9 . 0.0999(29) . . .
4058.2 . 0.1017(29) . . .
4061.6 . 0.0970(29) . . .
4065.0 . 0.0966(29) . . .
4068.4 . 0.0990(29) . . .
4071.7 . 0.0954(29) . . .
4075.1 . 0.0903(29) . . .
4078.5 . 0.0961(29) . . .
4081.9 . 0.0949(29) . . .
4085.3 . 0.0955(29) . . .
4088.7 . 0.0990(29) . . .
4092.1 . 0.0928(29) . . .
4095.5 . 0.0974(29) . . .
4098.9 . 0.0908(29) . . .
4102.3 . 0.0922(29) . . .
4105.7 . 0.0969(29) . . .
4109.1 . 0.0911(29) . . .
4112.5 . 0.0963(29) . . .
4115.9 . 0.0937(29) . . .
4119.4 . 0.0997(29) . . .
4122.8 . 0.0996(29) . . .
4126.2 . 0.0911(29) . . .
4129.6 . 0.0965(29) . . .
4133.1 . 0.0955(29) . . .
4136.5 . 0.0958(29) . . .
4139.9 . 0.0896(29) . . .
4143.4 . 0.0874(29) . . .
4146.8 . 0.0899(29) . . .
4150.3 . 0.0903(29) . . .
4153.7 . 0.0842(29) . . .
4157.2 . 0.0888(29) . . .
4160.6 . 0.0857(29) . . .
4164.1 . 0.0872(29) . . .
4167.5 . 0.0887(29) . . .
4171.0 . 0.0872(29) . . .
4174.5 . 0.0937(29) . . .
4177.9 . 0.0912(29) . . .
4181.4 . 0.0930(29) . . .
4184.9 . 0.0964(29) . . .
4188.4 . 0.0950(29) . . .
4191.8 . 0.0870(29) . . .
4195.3 . 0.0922(29) . . .
4198.8 . 0.0937(29) . . .
4202.3 . 0.0946(29) . . .
4205.8 . 0.0924(29) . . .
4209.3 . 0.0937(29) . . .
4212.8 . 0.0946(29) . . .
4216.3 . 0.0941(29) . . .
4219.8 . 0.0996(29) . . .
4223.3 . 0.0958(29) . . .
4226.8 . 0.0939(29) . . .
4230.3 . 0.0975(29) . . .
4233.8 . 0.0966(29) . . .
4237.3 . 0.0969(29) . . .
4240.9 . 0.0893(29) . . .
4244.4 . 0.0958(29) . . .
4247.9 . 0.0925(29) . . .
4251.4 . 0.0988(29) . . .
4255.0 . 0.1002(29) . . .
4258.5 . 0.0975(29) . . .
4262.1 . 0.0997(29) . . .
4265.6 . 0.1011(29) . . .
4269.1 . 0.0917(29) . . .
4272.7 . 0.1006(29) . . .
4276.2 . 0.1021(29) . . .
4279.8 . 0.1068(29) . . .
4283.3 . 0.1114(29) . . .
4286.9 . 0.1092(30) . . .
4290.5 . 0.1131(29) . . .
4294.0 . 0.1075(30) . . .
4297.6 . 0.1073(29) . . .
4301.2 . 0.1083(30) . . .
4304.7 . 0.1126(30) . . .
4308.3 . 0.1135(30) . . .
4311.9 . 0.1106(30) . . .
4315.5 . 0.1027(30) . . .
4319.1 . 0.1010(30) . . .
4322.7 . 0.1005(29) . . .
4326.3 . 0.1002(29) . . .
4329.8 . 0.0968(29) . . .
4333.4 . 0.0977(29) . . .
4337.0 . 0.1023(29) . . .
4340.6 . 0.0995(29) . . .
4344.3 . 0.0980(30) . . .
4347.9 . 0.0992(29) . . .
4351.5 . 0.1012(29) . . .
4355.1 . 0.1047(29) . . .
4358.7 . 0.1067(29) . . .
4362.3 . 0.1027(30) . . .
4366.0 . 0.1064(29) . . .
4369.6 . 0.1091(29) . . .
4373.2 . 0.1027(29) . . .
4376.9 . 0.1012(29) . . .
4380.5 . 0.0963(29) . . .
4384.1 . 0.0983(29) . . .
4387.8 . 0.0928(29) . . .
4391.4 . 0.0999(29) . . .
4395.1 . 0.1005(29) . . .
4398.7 . 0.1021(29) . . .
4402.4 . 0.1057(29) . . .
4406.0 . 0.1053(30) . . .
4409.7 . 0.1037(29) . . .
4413.4 . 0.1023(29) . . .
4417.0 . 0.0989(29) . . .
4420.7 . 0.0979(30) . . .
4424.4 . 0.1011(29) . . .
4428.0 . 0.1042(29) . . .
4431.7 . 0.1053(29) . . .
4435.4 . 0.0956(29) . . .
4439.1 . 0.0928(29) . . .
4442.8 . 0.1017(29) . . .
4446.5 . 0.0955(29) . . .
4450.2 . 0.0920(29) . . .
4453.9 . 0.0962(29) . . .
4457.6 . 0.0934(29) . . .
4461.3 . 0.0998(29) . . .
4465.0 . 0.0958(29) . . .
4468.7 . 0.1021(29) . . .
4472.4 . 0.0949(29) . . .
4476.1 . 0.0953(29) . . .
4479.8 . 0.0932(29) . . .
4483.6 . 0.0964(29) . . .
4487.3 . 0.0972(29) . . .
4491.0 . 0.0976(29) . . .
4494.7 . 0.0956(29) . . .
4498.5 . 0.0904(29) . . .
4502.2 . 0.0940(29) . . .
4506.0 . 0.0934(29) . . .
4509.7 . 0.0898(29) . . .
4513.4 . 0.0926(29) . . .
4517.2 . 0.0999(29) . . .
4520.9 . 0.0968(29) . . .
4524.7 . 0.0948(29) . . .
4528.5 . 0.0892(29) . . .
4532.2 . 0.0926(29) . . .
4536.0 . 0.0906(29) . . .
4539.8 . 0.0898(29) . . .
4543.5 . 0.0915(29) . . .
4547.3 . 0.0892(29) . . .
4551.1 . 0.0954(29) . . .
4554.9 . 0.0978(29) . . .
4558.7 . 0.0961(29) . . .
4562.4 . 0.1013(29) . . .
4566.2 . 0.1014(29) . . .
4570.0 . 0.0924(29) . . .
4573.8 . 0.0987(29) . . .
4577.6 . 0.0984(29) . . .
4581.4 . 0.1034(28) . . .
4585.2 . 0.1007(28) . . .
4589.0 . 0.0962(29) . . .
4592.9 . 0.0943(29) . . .
4596.7 . 0.0921(29) . . .
4600.5 . 0.1033(29) . . .
4604.3 . 0.1043(29) . . .
4608.1 . 0.1112(28) . . .
4612.0 . 0.1079(29) . . .
4615.8 . 0.1022(29) . . .
4619.6 . 0.0964(29) . . .
4623.5 . 0.0939(29) . . .
4627.3 . 0.1000(28) . . .
4631.2 . 0.0990(28) . . .
4635.0 . 0.0937(29) . . .
4638.9 . 0.0903(29) . . .
4642.7 . 0.0887(29) . . .
4646.6 . 0.0857(29) . . .
4650.4 . 0.0930(28) . . .
4654.3 . 0.0878(28) . . .
4658.2 . 0.0864(29) . . .
4662.0 . 0.0920(28) . . .
4665.9 . 0.0903(28) . . .
4669.8 . 0.0866(29) . . .
4673.7 . 0.0924(28) . . .
4677.6 . 0.0934(29) . . .
4681.4 . 0.0974(29) . . .
4685.3 . 0.1075(28) . . .
4689.2 . 0.1036(28) . . .
4693.1 . 0.0980(28) . . .
4697.0 . 0.0971(28) . . .
4700.9 . 0.0930(28) . . .
4704.8 . 0.0977(28) . . .
4708.7 . 0.0963(28) . . .
4712.6 . 0.0908(28) . . .
4716.6 . 0.0886(28) . . .
4720.5 . 0.0926(28) . . .
4724.4 . 0.0901(28) . . .
4728.3 . 0.0891(28) . . .
4732.3 . 0.0813(28) . . .
4736.2 . 0.0854(28) . . .
4740.1 . 0.0913(28) . . .
4744.1 . 0.0943(28) . . .
4748.0 . 0.0923(28) . . .
4751.9 . 0.0940(28) . . .
4755.9 . 0.0928(28) . . .
4759.9 . 0.1015(28) . . .
4763.8 . 0.0957(28) . . .
4767.8 . 0.1034(29) . . .
4771.7 . 0.1069(28) . . .
4775.7 . 0.1081(28) . . .
4779.7 . 0.1014(28) . . .
4783.6 . 0.1008(29) . . .
4787.6 . 0.0954(29) . . .
4791.6 . 0.0916(29) . . .
4795.6 . 0.0846(29) . . .
4799.5 . 0.0928(28) . . .
4803.5 . 0.0904(28) . . .
4807.5 . 0.0928(29) . . .
4811.5 . 0.0941(29) . . .
4815.5 . 0.1023(28) . . .
4819.5 . 0.1040(29) . . .
4823.5 . 0.1048(29) . . .
4827.5 . 0.1033(29) . . .
4831.5 . 0.0967(29) . . .
4835.6 . 0.0907(28) . . .
4839.6 . 0.0988(28) . . .
4843.6 . 0.0998(28) . . .
4847.6 . 0.0975(29) . . .
4851.7 . 0.0954(29) . . .
4855.7 . 0.0949(29) . . .
4859.7 . 0.0990(29) . . .
4863.8 . 0.1010(29) . . .
4867.8 . 0.0971(29) . . .
4871.8 . 0.0949(29) . . .
4875.9 . 0.0900(29) . . .
4879.9 . 0.0922(29) . . .
4884.0 . 0.0904(29) . . .
4888.1 . 0.0890(29) . . .
4892.1 . 0.0899(29) . . .
4896.2 . 0.0990(28) . . .
4900.2 . 0.0910(29) . . .
4904.3 . 0.0993(29) . . .
4908.4 . 0.1036(29) . . .
4912.5 . 0.1004(29) . . .
4916.6 . 0.1019(29) . . .
4920.6 . 0.1036(29) . . .
4924.7 . 0.0980(30) . . .
4928.8 . 0.0996(29) . . .
4932.9 . 0.1053(29) . . .
4937.0 . 0.1014(29) . . .
4941.1 . 0.1030(30) . . .
4945.2 . 0.1128(29) . . .
4949.3 . 0.1179(29) . . .
4953.4 . 0.1028(30) . . .
4957.6 . 0.1002(30) . . .
4961.7 . 0.0969(29) . . .
4965.8 . 0.0888(30) . . .
4969.9 . 0.1041(29) . . .
4974.1 . 0.1006(29) . . .
4978.2 . 0.1014(29) . . .
4982.3 . 0.1028(30) . . .
4986.5 . 0.1089(30) . . .
4990.6 . 0.1123(30) . . .
4994.8 . 0.1202(30) . . .
4998.9 . 0.1156(30) . . .
5003.1 . 0.1104(30) . . .
5007.2 . 0.1106(30) . . .
5011.4 . 0.1084(30) . . .
5015.5 . 0.1033(30) . . .
5019.7 . 0.1056(30) . . .
5023.9 . 0.1074(30) . . .
5028.1 . 0.1032(30) . . .
5032.2 . 0.1040(30) . . .
5036.4 . 0.1090(30) . . .
5040.6 . 0.1070(30) . . .
5044.8 . 0.1137(30) . . .
5049.0 . 0.1096(30) . . .
5053.2 . 0.1098(30) . . .
5057.4 . 0.1148(30) . . .
5061.6 . 0.1085(31) . . .
5065.8 . 0.1071(31) . . .
5070.0 . 0.1108(31) . . .
5074.2 . 0.1087(31) . . .
5078.4 . 0.1064(31) . . .
5082.6 . 0.1059(31) . . .
5086.9 . 0.1033(31) . . .
5091.1 . 0.1039(31) . . .
5095.3 . 0.1084(31) . . .
5099.6 . 0.1059(31) . . .
5103.8 . 0.1054(31) . . .
5108.0 . 0.1068(31) . . .
5112.3 . 0.1032(31) . . .
5116.5 . 0.1122(31) . . .
5120.8 . 0.1146(31) . . .
5125.0 . 0.1263(31) . . .
5129.3 . 0.1290(31) . . .
5133.5 . 0.1279(31) . . .
5137.8 . 0.1263(31) . . .
5142.1 . 0.1270(31) . . .
5146.4 . 0.1212(32) . . .
5150.6 . 0.1274(31) . . .
5154.9 . 0.1293(31) . . .
5159.2 . 0.1243(32) . . .
5163.5 . 0.1268(32) . . .
5167.8 . 0.1191(32) . . .
5172.1 . 0.1197(32) . . .
5176.4 . 0.1183(32) . . .
5180.7 . 0.1228(31) . . .
5185.0 . 0.1209(32) . . .
5189.3 . 0.1225(32) . . .
5193.6 . 0.1256(32) . . .
5197.9 . 0.1349(32) . . .
5202.2 . 0.1349(32) . . .
5206.5 . 0.1293(32) . . .
5210.9 . 0.1226(32) . . .
5215.2 . 0.1156(32) . . .
5219.5 . 0.1155(32) . . .
5223.9 . 0.1130(32) . . .
5228.2 . 0.1085(32) . . .
5232.6 . 0.1127(32) . . .
5236.9 . 0.1174(32) . . .
5241.3 . 0.1219(32) . . .
5245.6 . 0.1198(32) . . .
5250.0 . 0.1147(32) . . .
5254.3 . 0.1119(32) . . .
5258.7 . 0.1137(32) . . .
5263.1 . 0.1224(32) . . .
5267.4 . 0.1256(32) . . .
5271.8 . 0.1221(32) . . .
5276.2 . 0.1173(32) . . .
5280.6 . 0.1198(32) . . .
5285.0 . 0.1224(32) . . .
5289.4 . 0.1262(32) . . .
5293.8 . 0.1273(32) . . .
5298.2 . 0.1275(32) . . .
5302.6 . 0.1326(33) . . .
5307.0 . 0.1387(32) . . .
5311.4 . 0.1496(32) . . .
5315.8 . 0.1461(32) . . .
5320.2 . 0.1463(32) . . .
5324.6 . 0.1272(32) . . .
5329.0 . 0.1249(32) . . .
5333.5 . 0.1201(32) . . .
5337.9 . 0.1183(32) . . .
5342.3 . 0.1219(32) . . .
5346.8 . 0.1250(32) . . .
5351.2 . 0.1196(32) . . .
5355.7 . 0.1190(31) . . .
5360.1 . 0.1239(31) . . .
5364.6 . 0.1177(32) . . .
5369.0 . 0.1234(32) . . .
5373.5 . 0.1178(32) . . .
5378.0 . 0.1236(31) . . .
5382.4 . 0.1276(31) . . .
5386.9 . 0.1219(31) . . .
5391.4 . 0.1226(31) . . .
5395.9 . 0.1199(32) . . .
5400.3 . 0.1292(32) . . .
5404.8 . 0.1258(32) . . .
5409.3 . 0.1268(32) . . .
5413.8 . 0.1232(31) . . .
5418.3 . 0.1161(31) . . .
5422.8 . 0.1058(31) . . .
5427.3 . 0.1077(31) . . .
5431.8 . 0.1060(31) . . .
5436.3 . 0.0992(31) . . .
5440.9 . 0.1114(31) . . .
5445.4 . 0.1103(31) . . .
5449.9 . 0.1143(31) . . .
5454.4 . 0.1072(31) . . .
5459.0 . 0.1144(30) . . .
5463.5 . 0.1062(31) . . .
5468.0 . 0.1003(31) . . .
5472.6 . 0.1063(30) . . .
5477.1 . 0.1021(30) . . .
5481.7 . 0.1065(30) . . .
5486.2 . 0.1010(30) . . .
5490.8 . 0.1069(30) . . .
5495.4 . 0.1046(30) . . .
5499.9 . 0.1139(30) . . .
5504.5 . 0.1185(30) . . .
5509.1 . 0.1175(30) . . .
5513.6 . 0.1224(30) . . .
5518.2 . 0.1259(30) . . .
5522.8 . 0.1225(30) . . .
5527.4 . 0.1114(30) . . .
5532.0 . 0.1172(30) . . .
5536.6 . 0.1205(30) . . .
5541.2 . 0.1260(30) . . .
5545.8 . 0.1343(30) . . .
5550.4 . 0.1383(30) . . .
5555.0 . 0.1378(30) . . .
5559.6 . 0.1298(30) . . .
5564.2 . 0.1237(29) . . .
5568.9 . 0.1145(29) . . .
5573.5 . 0.1185(29) . . .
5578.1 . 0.1159(29) . . .
5582.8 . 0.1260(29) . . .
5587.4 . 0.1347(30) . . .
5592.0 . 0.1408(29) . . .
5596.7 . 0.1329(29) . . .
5601.3 . 0.1193(29) . . .
5606.0 . 0.1083(29) . . .
5610.7 . 0.1087(29) . . .
5615.3 . 0.1086(29) . . .
5620.0 . 0.1053(29) . . .
5624.7 . 0.0954(29) . . .
5629.3 . 0.0931(28) . . .
5634.0 . 0.0962(28) . . .
5638.7 . 0.1063(28) . . .
5643.4 . 0.1001(28) . . .
5648.1 . 0.1048(28) . . .
5652.8 . 0.0965(28) . . .
5657.4 . 0.1022(28) . . .
5662.1 . 0.0930(28) . . .
5666.9 . 0.0912(28) . . .
5671.6 . 0.0852(28) . . .
5676.3 . 0.0845(28) . . .
5681.0 . 0.0885(28) . . .
5685.7 . 0.0871(28) . . .
5690.4 . 0.0927(28) . . .
5695.2 . 0.0944(28) . . .
5699.9 . 0.0948(28) . . .
5704.6 . 0.0912(28) . . .
5709.4 . 0.0956(28) . . .
5714.1 . 0.0945(28) . . .
5718.9 . 0.0950(27) . . .
5723.6 . 0.0869(28) . . .
5728.4 . 0.0865(27) . . .
5733.1 . 0.0894(27) . . .
5737.9 . 0.0852(27) . . .
5742.7 . 0.0963(27) . . .
5747.4 . 0.1014(28) . . .
5752.2 . 0.1173(28) . . .
5757.0 . 0.1238(28) . . .
5761.8 . 0.1168(28) . . .
5766.6 . 0.1033(28) . . .
5771.4 . 0.0974(27) . . .
5776.1 . 0.0968(27) . . .
5780.9 . 0.0936(27) . . .
5785.8 . 0.0978(27) . . .
5790.6 . 0.0970(27) . . .
5795.4 . 0.0890(27) . . .
5800.2 . 0.0981(27) . . .
5805.0 . 0.0966(27) . . .
5809.8 . 0.1008(27) . . .
5814.7 . 0.1030(27) . . .
5819.5 . 0.1042(27) . . .
5824.3 . 0.1001(27) . . .
5829.2 . 0.1048(27) . . .
5834.0 . 0.0975(27) . . .
5838.9 . 0.0904(27) . . .
5843.7 . 0.0976(27) . . .
5848.6 . 0.0899(27) . . .
5853.4 . 0.0932(27) . . .
5858.3 . 0.0931(27) . . .
5863.2 . 0.0875(27) . . .
5868.0 . 0.0838(27) . . .
5872.9 . 0.0862(26) . . .
5877.8 . 0.0822(27) . . .
5882.7 . 0.0772(27) . . .
5887.5 . 0.0859(27) . . .
5892.4 . 0.0853(27) . . .
5897.3 . 0.0804(27) . . .
5902.2 . 0.0850(27) . . .
5907.1 . 0.0830(27) . . .
5912.0 . 0.0844(27) . . .
5917.0 . 0.0852(27) . . .
5921.9 . 0.0863(27) . . .
5926.8 . 0.0906(27) . . .
5931.7 0.56124 0.0917(27) 137522. 0.06599 0.09183
5936.7 0.56171 0.0910(27) 133312. 0.06628 0.09376
5941.6 0.56217 0.0951(27) 137246. 0.06656 0.09267
5946.5 0.56264 0.0861(27) 137326. 0.06684 0.08927
5951.5 0.56311 0.0845(27) 136490. 0.06711 0.08608
5956.4 0.56358 0.0946(27) 139633. 0.06737 0.08495
5961.4 0.56405 0.0904(27) 136706. 0.06764 0.08559
5966.3 0.56451 0.0923(27) 139612. 0.06790 0.08660
5971.3 0.56498 0.0903(27) 139020. 0.06815 0.08741
5976.2 0.56545 0.0925(27) 139687. 0.06840 0.08879
5981.2 0.56592 0.0946(27) 137964. 0.06865 0.09167
5986.2 0.56639 0.0973(27) 138175. 0.06889 0.09583
5991.1 0.56686 0.0955(27) 133537. 0.06912 0.09921
5996.1 0.56733 0.0984(27) 136846. 0.06936 0.09935
6001.1 0.56781 0.0984(27) 138132. 0.06959 0.09623
6006.1 0.56828 0.0917(27) 135585. 0.06981 0.09213
6011.1 0.56875 0.0907(27) 139418. 0.07003 0.08920
6016.1 0.56922 0.0878(27) 138179. 0.07025 0.08822
6021.1 0.56970 0.0895(27) 135780. 0.07046 0.08916
6026.1 0.57017 0.0878(27) 134504. 0.07067 0.09185
6031.1 0.57064 0.0981(27) 136884. 0.07088 0.09566
6036.1 0.57112 0.0994(27) 137044. 0.07108 0.09959
6041.1 0.57159 0.1006(27) 133305. 0.07128 0.10286
6046.1 0.57207 0.1021(27) 134000. 0.07147 0.10521
6051.1 0.57254 0.1042(27) 134080. 0.07166 0.10663
6056.2 0.57302 0.1115(27) 134591. 0.07185 0.10657
6061.2 0.57349 0.1008(27) 134490. 0.07203 0.10452
6066.2 0.57397 0.0987(27) 136002. 0.07221 0.10111
6071.3 0.57445 0.0964(27) 136371. 0.07239 0.09826
6076.3 0.57493 0.0972(27) 134863. 0.07256 0.09843
6081.4 0.57540 0.1000(27) 136035. 0.07273 0.10267
6086.4 0.57588 0.1071(27) 135658. 0.07289 0.10822
6091.5 0.57636 0.1040(28) 131184. 0.07305 0.11019
6096.6 0.57684 0.0973(28) 131984. 0.07321 0.10682
6101.6 0.57732 0.0979(27) 132948. 0.07337 0.10090
6106.7 0.57780 0.0970(27) 135640. 0.07352 0.09605
6111.8 0.57828 0.0944(27) 134248. 0.07367 0.09349
6116.8 0.57876 0.0951(27) 136143. 0.07381 0.09266
6121.9 0.57924 0.0963(27) 136136. 0.07396 0.09301
6127.0 0.57972 0.0961(27) 134249. 0.07410 0.09460
6132.1 0.58020 0.0999(27) 135662. 0.07423 0.09746
6137.2 0.58069 0.1011(27) 133005. 0.07436 0.10037
6142.3 0.58117 0.1021(27) 133658. 0.07449 0.10139
6147.4 0.58165 0.0983(28) 131594. 0.07462 0.10042
6152.5 0.58213 0.0988(27) 134304. 0.07475 0.10033
6157.6 0.58262 0.1034(28) 131536. 0.07487 0.10418
6162.7 0.58310 0.1168(27) 133906. 0.07498 0.11168
6167.9 0.58359 0.1158(28) 128579. 0.07510 0.11830
6173.0 0.58407 0.1146(28) 127803. 0.07521 0.11957
6178.1 0.58456 0.1136(28) 127879. 0.07532 0.11512
6183.2 0.58504 0.1128(28) 132071. 0.07543 0.10758
6188.4 0.58553 0.0982(27) 132404. 0.07553 0.09990
6193.5 0.58602 0.0927(28) 129801. 0.07563 0.09465
6198.7 0.58650 0.0946(28) 130723. 0.07573 0.09378
6203.8 0.58699 0.0954(28) 129982. 0.07583 0.09788
6209.0 0.58748 0.1069(28) 129062. 0.07592 0.10527
6214.1 0.58797 0.1089(28) 127130. 0.07601 0.11273
6219.3 0.58846 0.1155(28) 127800. 0.07610 0.11729
6224.5 0.58894 0.1145(28) 127116. 0.07619 0.11769
6229.6 0.58943 0.1064(28) 125559. 0.07627 0.11469
6234.8 0.58992 0.1105(28) 128586. 0.07636 0.11067
6240.0 0.59041 0.1072(28) 128999. 0.07643 0.10816
6245.2 0.59090 0.1078(28) 128791. 0.07651 0.10786
6250.4 0.59140 0.1099(28) 127290. 0.07659 0.10866
6255.6 0.59189 0.1097(28) 126483. 0.07666 0.10982
6260.8 0.59238 0.1116(28) 125896. 0.07673 0.11236
6266.0 0.59287 0.1215(28) 127040. 0.07680 0.11789
6271.2 0.59336 0.1254(28) 123392. 0.07686 0.12656
6276.4 0.59386 0.1383(29) 122108. 0.07692 0.13645
6281.6 0.59435 0.1405(29) 119562. 0.07699 0.14457
6286.8 0.59484 0.1483(29) 119262. 0.07705 0.14942
6292.0 0.59534 0.1512(29) 121943. 0.07710 0.15147
6297.3 0.59583 0.1518(29) 121020. 0.07716 0.14987
6302.5 0.59633 0.1474(29) 122466. 0.07721 0.14235
6307.7 0.59682 0.1234(29) 119026. 0.07726 0.13051
6313.0 0.59732 0.1190(29) 122524. 0.07731 0.11960
6318.2 0.59782 0.1197(28) 125464. 0.07736 0.11263
6323.5 0.59831 0.1091(28) 123634. 0.07741 0.10836
6328.7 0.59881 0.1005(28) 124319. 0.07745 0.10468
6334.0 0.59931 0.1016(28) 124309. 0.07749 0.10141
6339.2 0.59981 0.0943(29) 122854. 0.07753 0.09980
6344.5 0.60030 0.0966(28) 123211. 0.07757 0.10031
6349.8 0.60080 0.0945(29) 122053. 0.07761 0.10130
6355.1 0.60130 0.0984(28) 124837. 0.07764 0.10090
6360.3 0.60180 0.1031(28) 127652. 0.07768 0.09872
6365.6 0.60230 0.0983(28) 127140. 0.07771 0.09594
6370.9 0.60280 0.0949(28) 125347. 0.07774 0.09502
6376.2 0.60330 0.0984(28) 123867. 0.07777 0.09770
6381.5 0.60381 0.1047(28) 123817. 0.07780 0.10350
6386.8 0.60431 0.1096(29) 121071. 0.07783 0.11030
6392.1 0.60481 0.1128(29) 120956. 0.07785 0.11654
6397.4 0.60531 0.1171(29) 122233. 0.07788 0.12222
6402.7 0.60582 0.1241(29) 118382. 0.07790 0.12700
6408.1 0.60632 0.1287(29) 117940. 0.07792 0.12802
6413.4 0.60682 0.1251(29) 121018. 0.07794 0.12322
6418.7 0.60733 0.1135(29) 120970. 0.07796 0.11520
6424.0 0.60783 0.1081(29) 119827. 0.07797 0.10805
6429.4 0.60834 0.1076(28) 124548. 0.07799 0.10344
6434.7 0.60884 0.1003(29) 118434. 0.07801 0.10126
6440.1 0.60935 0.1049(29) 121191. 0.07802 0.10137
6445.4 0.60985 0.1020(29) 120290. 0.07803 0.10408
6450.8 0.61036 0.1135(29) 120318. 0.07804 0.10971
6456.1 0.61087 0.1170(29) 116949. 0.07805 0.11741
6461.5 0.61138 0.1262(29) 115336. 0.07806 0.12483
6466.9 0.61188 0.1350(29) 116847. 0.07807 0.13016
6472.2 0.61239 0.1366(29) 117623. 0.07808 0.13462
6477.6 0.61290 0.1407(29) 115081. 0.07809 0.14162
6483.0 0.61341 0.1530(30) 112512. 0.07809 0.15252
6488.4 0.61392 0.1602(30) 111348. 0.07810 0.16181
6493.8 0.61443 0.1613(30) 110342. 0.07810 0.16108
6499.2 0.61494 0.1519(29) 115647. 0.07810 0.14947
6504.6 0.61545 0.1324(29) 115295. 0.07811 0.13528
6510.0 0.61596 0.1312(29) 116098. 0.07811 0.12662
6515.4 0.61648 0.1282(29) 114962. 0.07811 0.12487
6520.8 0.61699 0.1347(29) 118514. 0.07811 0.12754
6526.2 0.61750 0.1352(30) 114456. 0.07811 0.13347
6531.7 0.61801 0.1400(30) 113238. 0.07811 0.14135
6537.1 0.61853 0.1483(30) 111958. 0.07810 0.14616
6542.5 0.61904 0.1478(30) 113918. 0.07810 0.14418
6547.9 0.61956 0.1356(30) 114192. 0.07810 0.13825
6553.4 0.62007 0.1376(29) 116039. 0.07809 0.13236
6558.8 0.62059 0.1302(29) 117390. 0.07809 0.12648
6564.3 0.62110 0.1190(29) 115143. 0.07809 0.12045
6569.7 0.62162 0.1174(29) 117934. 0.07808 0.11568
6575.2 0.62214 0.1153(29) 118153. 0.07807 0.11212
6580.7 0.62265 0.1109(29) 117611. 0.07807 0.10907
6586.1 0.62317 0.1132(29) 119062. 0.07806 0.10640
6591.6 0.62369 0.0993(29) 116778. 0.07805 0.10407
6597.1 0.62421 0.1034(29) 117585. 0.07805 0.10324
6602.6 0.62472 0.1064(29) 115911. 0.07804 0.10510
6608.0 0.62524 0.1154(29) 119603. 0.07803 0.10878
6613.5 0.62576 0.1165(29) 116774. 0.07802 0.11109
6619.0 0.62628 0.1136(29) 116509. 0.07801 0.11067
6624.5 0.62680 0.1087(29) 116606. 0.07800 0.10995
6630.0 0.62733 0.1137(29) 116892. 0.07799 0.11322
6635.5 0.62785 0.1193(29) 115340. 0.07798 0.12159
6641.1 0.62837 0.1325(30) 113968. 0.07797 0.12963
6646.6 0.62889 0.1303(30) 112303. 0.07796 0.13001
6652.1 0.62941 0.1254(29) 117093. 0.07795 0.12202
6657.6 0.62994 0.1130(29) 116798. 0.07794 0.11171
6663.2 0.63046 0.1048(29) 118201. 0.07793 0.10559
6668.7 0.63098 0.1037(29) 117602. 0.07792 0.10595
6674.2 0.63151 0.1102(29) 116414. 0.07791 0.10988
6679.8 0.63203 0.1122(29) 116484. 0.07790 0.11173
6685.3 0.63256 0.1115(29) 119017. 0.07789 0.10902
6690.9 0.63308 0.1012(29) 116912. 0.07788 0.10361
6696.4 0.63361 0.0975(29) 119650. 0.07787 0.09790
6702.0 0.63414 0.0910(29) 115646. 0.07785 0.09287
6707.6 0.63466 0.0949(29) 120555. 0.07784 0.08984
6713.1 0.63519 0.0862(29) 117200. 0.07783 0.09026
6718.7 0.63572 0.0941(29) 119118. 0.07782 0.09540
6724.3 0.63625 0.1067(29) 119063. 0.07781 0.10482
6729.9 0.63678 0.1147(29) 116498. 0.07780 0.11486
6735.5 0.63730 0.1256(29) 116927. 0.07779 0.12145
6741.1 0.63783 0.1240(29) 118252. 0.07778 0.12564
6746.7 0.63836 0.1245(30) 114686. 0.07777 0.13105
6752.3 0.63890 0.1289(30) 114335. 0.07776 0.13746
6757.9 0.63943 0.1365(30) 112177. 0.07775 0.14113
6763.5 0.63996 0.1336(30) 112974. 0.07774 0.13951
6769.1 0.64049 0.1315(30) 113118. 0.07773 0.13233
6774.8 0.64102 0.1246(30) 114606. 0.07772 0.12104
6780.4 0.64155 0.1075(29) 116512. 0.07771 0.10907
6786.0 0.64209 0.0955(29) 115675. 0.07770 0.10013
6791.7 0.64262 0.0975(29) 118673. 0.07769 0.09554
6797.3 0.64316 0.0950(29) 119810. 0.07768 0.09462
6803.0 0.64369 0.0966(29) 118591. 0.07767 0.09576
6808.6 0.64422 0.0961(29) 117274. 0.07767 0.09768
6814.3 0.64476 0.1029(29) 120484. 0.07766 0.10016
6819.9 0.64530 0.1037(29) 118665. 0.07765 0.10406
6825.6 0.64583 0.1131(29) 117822. 0.07764 0.10848
6831.3 0.64637 0.1151(29) 118693. 0.07764 0.11080
6836.9 0.64691 0.1141(29) 118632. 0.07763 0.10905
6842.6 0.64744 0.1045(29) 117086. 0.07763 0.10463
6848.3 0.64798 0.1038(29) 118263. 0.07762 0.10109
6854.0 0.64852 0.0976(29) 116737. 0.07761 0.10186
6859.7 0.64906 0.1046(29) 116767. 0.07761 0.10804
6865.4 0.64960 0.1136(29) 115494. 0.07761 0.11679
6871.1 0.65014 0.1210(29) 115630. 0.07760 0.12328
6876.8 0.65068 0.1237(29) 116417. 0.07760 0.12442
6882.5 0.65122 0.1138(29) 115187. 0.07760 0.12010
6888.2 0.65176 0.1069(29) 115741. 0.07759 0.11226
6894.0 0.65230 0.0997(29) 117712. 0.07759 0.10406
6899.7 0.65284 0.0968(29) 118280. 0.07759 0.09811
6905.4 0.65339 0.0953(29) 120719. 0.07759 0.09493
6911.2 0.65393 0.0963(29) 120788. 0.07759 0.09404
6916.9 0.65447 0.0977(29) 119628. 0.07759 0.09524
6922.7 0.65502 0.1033(29) 119049. 0.07759 0.09755
6928.4 0.65556 0.0995(29) 117885. 0.07759 0.09955
6934.2 0.65611 0.1026(29) 118450. 0.07759 0.10117
6939.9 0.65665 0.1054(29) 118158. 0.07759 0.10317
6945.7 0.65720 0.1100(29) 119869. 0.07760 0.10583
6951.5 0.65774 0.1157(29) 120108. 0.07760 0.10933
6957.2 0.65829 0.1192(29) 118991. 0.07760 0.11637
6963.0 0.65884 0.1234(30) 114396. 0.07761 0.12970
6968.8 0.65938 0.1474(30) 112627. 0.07761 0.14687
6974.6 0.65993 0.1625(30) 112739. 0.07762 0.16018
6980.4 0.66048 0.1628(30) 112547. 0.07762 0.16278
6986.2 0.66103 0.1536(30) 111573. 0.07763 0.15412
6992.0 0.66158 0.1368(30) 114569. 0.07764 0.13990
6997.8 0.66213 0.1238(29) 115058. 0.07765 0.12752
7003.6 0.66268 0.1255(29) 117808. 0.07765 0.11951
7009.4 0.66323 0.1120(29) 116474. 0.07766 0.11311
7015.3 0.66378 0.1066(29) 119014. 0.07767 0.10650
7021.1 0.66433 0.0998(29) 119769. 0.07768 0.10177
7026.9 0.66488 0.0994(29) 120349. 0.07769 0.10082
7032.8 0.66544 0.1052(29) 118833. 0.07771 0.10281
7038.6 0.66599 0.0994(29) 116736. 0.07772 0.10426
7044.5 0.66654 0.1095(29) 119007. 0.07773 0.10433
7050.3 0.66710 0.0995(29) 118822. 0.07775 0.10381
7056.2 0.66765 0.1041(29) 120195. 0.07776 0.10460
7062.0 0.66821 0.1067(29) 119197. 0.07777 0.10777
7067.9 0.66876 0.1096(29) 118098. 0.07779 0.11186
7073.8 0.66932 0.1141(29) 117247. 0.07781 0.11268
7079.6 0.66987 0.1111(29) 119749. 0.07782 0.10845
7085.5 0.67043 0.1051(29) 119715. 0.07784 0.10162
7091.4 0.67099 0.0964(29) 118991. 0.07786 0.09613
7097.3 0.67155 0.0958(29) 118963. 0.07788 0.09478
7103.2 0.67210 0.1022(29) 121316. 0.07790 0.09848
7109.1 0.67266 0.1114(29) 119959. 0.07792 0.10639
7115.0 0.67322 0.1176(29) 118427. 0.07794 0.11455
7120.9 0.67378 0.1329(29) 118994. 0.07796 0.11836
7126.8 0.67434 0.1179(29) 116077. 0.07798 0.11698
7132.8 0.67490 0.1164(29) 119856. 0.07801 0.11433
7138.7 0.67546 0.1165(29) 119471. 0.07803 0.11319
7144.6 0.67602 0.1105(29) 117016. 0.07805 0.11218
7150.6 0.67658 0.1165(29) 120434. 0.07808 0.10952
7156.5 0.67715 0.1064(29) 118112. 0.07811 0.10661
7162.5 0.67771 0.1087(29) 121370. 0.07813 0.10707
7168.4 0.67827 0.1153(29) 119586. 0.07816 0.11323
7174.4 0.67884 0.1256(29) 117583. 0.07819 0.12292
7180.3 0.67940 0.1317(29) 116641. 0.07821 0.12949
7186.3 0.67997 0.1307(29) 117587. 0.07824 0.13057
7192.3 0.68053 0.1232(29) 116233. 0.07827 0.13060
7198.2 0.68110 0.1320(29) 117299. 0.07830 0.13179
7204.2 0.68166 0.1335(29) 117504. 0.07833 0.12933
7210.2 0.68223 0.1213(29) 119086. 0.07837 0.11940
7216.2 0.68280 0.1075(29) 118142. 0.07840 0.10653
7222.2 0.68336 0.1019(29) 121519. 0.07843 0.09780
7228.2 0.68393 0.0992(29) 121850. 0.07847 0.09837
7234.2 0.68450 0.1115(29) 120650. 0.07850 0.11128
7240.2 0.68507 0.1376(29) 116954. 0.07853 0.13629
7246.2 0.68564 0.1669(30) 112396. 0.07857 0.16444
7252.2 0.68621 0.1916(30) 112365. 0.07861 0.18533
7258.3 0.68678 0.1938(30) 110417. 0.07864 0.19937
7264.3 0.68735 0.2071(31) 107343. 0.07868 0.21824
7270.3 0.68792 0.2383(31) 104588. 0.07872 0.24501
7276.4 0.68849 0.2645(31) 102899. 0.07876 0.26315
7282.4 0.68906 0.2555(31) 103386. 0.07880 0.25191
7288.5 0.68964 0.2156(30) 108977. 0.07884 0.21261
7294.5 0.69021 0.1672(30) 113187. 0.07888 0.16791
7300.6 0.69078 0.1433(29) 118237. 0.07892 0.13720
7306.7 0.69136 0.1231(29) 114924. 0.07896 0.12596
7312.7 0.69193 0.1303(29) 117651. 0.07900 0.12641
7318.8 0.69251 0.1375(29) 118691. 0.07904 0.12925
7324.9 0.69308 0.1275(29) 116000. 0.07909 0.12932
7331.0 0.69366 0.1238(29) 116286. 0.07913 0.13008
7337.1 0.69423 0.1303(29) 116011. 0.07918 0.13268
7343.2 0.69481 0.1420(29) 119439. 0.07922 0.13579
7349.3 0.69539 0.1384(29) 117781. 0.07927 0.13445
7355.4 0.69597 0.1240(29) 116867. 0.07931 0.12795
7361.5 0.69654 0.1200(29) 120968. 0.07936 0.11945
7367.6 0.69712 0.1081(29) 120375. 0.07941 0.11373
7373.7 0.69770 0.1135(29) 120846. 0.07945 0.11438
7379.8 0.69828 0.1211(29) 119697. 0.07950 0.12228
7386.0 0.69886 0.1293(29) 117884. 0.07955 0.13189
7392.1 0.69944 0.1348(29) 120179. 0.07960 0.13394
7398.3 0.70003 0.1272(29) 118517. 0.07965 0.12533
7404.4 0.70061 0.1106(29) 120616. 0.07970 0.11126
7410.6 0.70119 0.0993(28) 123821. 0.07975 0.09962
7416.7 0.70177 0.0939(28) 125455. 0.07980 0.09281
7422.9 0.70235 0.0845(28) 123837. 0.07985 0.09034
7429.0 0.70294 0.0878(28) 124016. 0.07991 0.09070
7435.2 0.70352 0.0852(28) 125333. 0.07996 0.09215
7441.4 0.70411 0.0923(28) 124788. 0.08001 0.09285
7447.6 0.70469 0.0933(28) 127572. 0.08007 0.09229
7453.8 0.70528 0.0902(28) 125767. 0.08012 0.09231
7460.0 0.70586 0.0891(28) 123780. 0.08017 0.09383
7466.2 0.70645 0.0963(28) 123839. 0.08023 0.09751
7472.4 0.70704 0.1039(28) 124964. 0.08028 0.10428
7478.6 0.70763 0.1097(29) 120826. 0.08034 0.11499
7484.8 0.70821 0.1227(29) 117425. 0.08039 0.12770
7491.0 0.70880 0.1404(29) 118498. 0.08045 0.13684
7497.2 0.70939 0.1324(29) 119202. 0.08051 0.13948
7503.5 0.70998 0.1343(29) 117707. 0.08056 0.13905
7509.7 0.71057 0.1333(29) 120796. 0.08062 0.13908
7515.9 0.71116 0.1326(29) 117646. 0.08068 0.13757
7522.2 0.71175 0.1320(29) 121569. 0.08073 0.13233
7528.4 0.71234 0.1236(29) 120451. 0.08079 0.12686
7534.7 0.71294 0.1299(29) 122783. 0.08085 0.12707
7540.9 0.71353 0.1337(29) 120010. 0.08091 0.13368
7547.2 0.71412 0.1427(29) 120083. 0.08097 0.14090
7553.5 0.71471 0.1424(29) 120660. 0.08103 0.14290
7559.8 0.71531 0.1344(29) 119949. 0.08108 0.13851
7566.0 0.71590 0.1307(29) 121477. 0.08114 0.12999
7572.3 0.71650 0.1183(29) 121178. 0.08120 0.11961
7578.6 0.71709 0.1164(28) 125720. 0.08126 0.11047
7584.9 0.71769 0.1053(28) 125345. 0.08132 0.10681
7591.2 0.71829 0.1085(29) 122235. 0.08138 0.11098
7597.5 0.71888 0.1174(29) 121392. 0.08144 0.12056
7603.8 0.71948 0.1328(29) 122244. 0.08150 0.12965
7610.2 0.72008 0.1290(29) 119231. 0.08156 0.13472
7616.5 0.72068 0.1344(29) 122311. 0.08162 0.13438
7622.8 0.72128 0.1271(29) 120828. 0.08169 0.12925
7629.1 0.72187 0.1160(29) 120230. 0.08175 0.12265
7635.5 0.72247 0.1107(29) 121274. 0.08181 0.11909
7641.8 0.72307 0.1161(29) 121825. 0.08187 0.11926
7648.2 0.72368 0.1153(29) 121692. 0.08193 0.11893
7654.5 0.72428 0.1115(29) 121074. 0.08199 0.11529
7660.9 0.72488 0.1083(29) 122153. 0.08205 0.10955
7667.3 0.72548 0.1061(28) 123929. 0.08211 0.10498
7673.6 0.72608 0.1009(29) 121489. 0.08217 0.10213
7680.0 0.72669 0.1035(29) 122599. 0.08224 0.10165
7686.4 0.72729 0.1016(29) 121300. 0.08230 0.10398
7692.8 0.72790 0.1113(29) 120959. 0.08236 0.11226
7699.2 0.72850 0.1255(29) 117977. 0.08242 0.12945
7705.6 0.72911 0.1536(29) 116122. 0.08248 0.15389
7712.0 0.72971 0.1777(30) 112310. 0.08254 0.17705
7718.4 0.73032 0.1924(30) 110731. 0.08260 0.19266
7724.8 0.73093 0.1991(30) 110839. 0.08266 0.19812
7731.2 0.73153 0.1864(30) 109989. 0.08272 0.18989
7737.6 0.73214 0.1668(30) 113454. 0.08278 0.16791
7744.1 0.73275 0.1333(29) 115056. 0.08284 0.14234
7750.5 0.73336 0.1256(29) 117957. 0.08290 0.12433
7756.9 0.73397 0.1230(29) 120621. 0.08296 0.11820
7763.4 0.73458 0.1270(29) 118678. 0.08302 0.12446
7769.8 0.73519 0.1415(29) 115561. 0.08308 0.14758
7776.3 0.73580 0.1783(30) 110370. 0.08314 0.18434
7782.7 0.73641 0.2220(31) 107392. 0.08320 0.21663
7789.2 0.73702 0.2281(31) 106873. 0.08326 0.22217
7795.7 0.73763 0.1910(30) 108269. 0.08332 0.19649
7802.2 0.73825 0.1516(30) 112572. 0.08338 0.16078
7808.6 0.73886 0.1325(29) 116187. 0.08344 0.13371
7815.1 0.73948 0.1175(29) 116861. 0.08350 0.11826
7821.6 0.74009 0.1092(29) 118068. 0.08355 0.10940
7828.1 0.74070 0.1041(29) 118828. 0.08361 0.10467
7834.6 0.74132 0.1075(29) 120004. 0.08367 0.10321
7841.1 0.74194 0.1049(29) 119947. 0.08373 0.10263
7847.6 0.74255 0.1017(29) 118153. 0.08378 0.10461
7854.2 0.74317 0.1056(29) 118297. 0.08384 0.10997
7860.7 0.74379 0.1154(29) 117508. 0.08390 0.12316
7867.2 0.74441 0.1378(30) 113165. 0.08395 0.14193
7873.8 0.74502 0.1570(30) 113937. 0.08401 0.15596
7880.3 0.74564 0.1500(30) 111284. 0.08406 0.15677
7886.9 0.74626 0.1403(30) 112269. 0.08412 0.14812
7893.4 0.74688 0.1396(29) 117703. 0.08417 0.13988
7900.0 0.74750 0.1360(29) 116420. 0.08422 0.13728
7906.5 0.74813 0.1397(29) 116260. 0.08428 0.13792
7913.1 0.74875 0.1339(30) 113853. 0.08433 0.13624
7919.7 0.74937 0.1288(30) 114341. 0.08438 0.13111
7926.3 0.74999 0.1250(29) 115813. 0.08443 0.12722
7932.8 0.75062 0.1312(29) 115531. 0.08448 0.13170
7939.4 0.75124 0.1441(30) 114633. 0.08453 0.14104
7946.0 0.75186 0.1493(30) 111771. 0.08458 0.14815
7952.6 0.75249 0.1527(30) 112390. 0.08463 0.15034
7959.2 0.75311 0.1487(30) 111929. 0.08468 0.15211
7965.9 0.75374 0.1548(30) 110690. 0.08473 0.15511
7972.5 0.75437 0.1615(30) 111742. 0.08478 0.15527
7979.1 0.75499 0.1500(30) 111310. 0.08482 0.14761
7985.7 0.75562 0.1327(30) 113491. 0.08487 0.13421
7992.4 0.75625 0.1096(30) 111342. 0.08492 0.12056
7999.0 0.75688 0.1056(29) 115926. 0.08496 0.10920
8005.6 0.75751 0.0998(29) 115134. 0.08501 0.10188
8012.3 0.75813 0.0924(29) 114927. 0.08505 0.09745
8019.0 0.75876 0.0969(29) 118154. 0.08509 0.09475
8025.6 0.75940 0.0933(29) 117547. 0.08514 0.09236
8032.3 0.76003 0.0878(29) 115306. 0.08518 0.09109
8039.0 0.76066 0.0840(29) 115227. 0.08522 0.09078
8045.6 0.76129 0.0935(29) 115836. 0.08526 0.09256
8052.3 0.76192 0.0924(30) 113319. 0.08530 0.09724
8059.0 0.76256 0.0961(30) 111807. 0.08534 0.10373
8065.7 0.76319 0.1088(30) 111976. 0.08538 0.11042
8072.4 0.76382 0.1106(30) 110828. 0.08541 0.11607
8079.1 0.76446 0.1181(30) 109301. 0.08545 0.12047
8085.8 0.76509 0.1262(30) 112202. 0.08549 0.12270
8092.6 0.76573 0.1267(30) 110121. 0.08552 0.12328
8099.3 0.76637 0.1222(30) 110567. 0.08556 0.12778
8106.0 0.76700 0.1358(31) 106372. 0.08559 0.14195
8112.7 0.76764 0.1573(31) 105482. 0.08562 0.16208
8119.5 0.76828 0.1747(31) 103832. 0.08565 0.17716
8126.2 0.76892 0.1779(31) 103500. 0.08569 0.18324
8133.0 0.76956 0.1766(31) 102772. 0.08572 0.18608
8139.7 0.77020 0.1847(31) 102087. 0.08574 0.19245
8146.5 0.77084 0.1983(31) 102602. 0.08577 0.20058
8153.3 0.77148 0.2046(31) 101214. 0.08580 0.19821
8160.0 0.77212 0.1830(31) 103904. 0.08583 0.17951
8166.8 0.77276 0.1524(31) 104468. 0.08585 0.15253
8173.6 0.77340 0.1255(31) 106973. 0.08588 0.12898
8180.4 0.77404 0.1226(30) 109329. 0.08590 0.11396
8187.2 0.77469 0.1068(31) 107456. 0.08592 0.10611
8194.0 0.77533 0.1045(30) 107840. 0.08595 0.10252
8200.8 0.77597 0.1016(30) 109418. 0.08597 0.10099
8207.6 0.77662 0.1012(30) 108930. 0.08599 0.10109
8214.5 0.77727 0.1049(30) 109332. 0.08601 0.10293
8221.3 0.77791 0.1076(30) 108806. 0.08602 0.10539
8228.1 0.77856 0.1088(30) 108075. 0.08604 0.10772
8234.9 0.77920 0.1150(30) 109111. 0.08606 0.11044
8241.8 0.77985 0.1201(30) 109785. 0.08607 0.11452
8248.6 0.78050 0.1209(31) 106505. 0.08609 0.11894
8255.5 0.78115 0.1291(31) 107412. 0.08610 0.12103
8262.3 0.78180 0.1247(31) 106413. 0.08611 0.12052
8269.2 0.78245 0.1232(31) 106377. 0.08612 0.12086
8276.1 0.78310 0.1223(31) 104489. 0.08613 0.12478
8283.0 0.78375 0.1327(31) 104578. 0.08614 0.12926
8289.8 0.78440 0.1283(31) 105496. 0.08615 0.12792
8296.7 0.78505 0.1242(31) 106978. 0.08616 0.11948
8303.6 0.78570 0.1100(30) 107561. 0.08616 0.10947
8310.5 0.78636 0.0971(31) 107203. 0.08617 0.10359
8317.4 0.78701 0.1100(30) 110212. 0.08617 0.10293
8324.3 0.78766 0.1058(30) 107841. 0.08617 0.10521
8331.3 0.78832 0.1095(30) 108522. 0.08617 0.10771
8338.2 0.78897 0.1113(30) 108664. 0.08617 0.10883
8345.1 0.78963 0.1113(30) 107542. 0.08617 0.10928
8352.0 0.79029 0.1183(30) 109428. 0.08617 0.11057
8359.0 0.79094 0.1195(31) 106933. 0.08617 0.11325
8365.9 0.79160 0.1192(31) 106002. 0.08616 0.11783
8372.9 0.79226 0.1313(31) 106697. 0.08616 0.12578
8379.8 0.79292 0.1477(31) 107059. 0.08615 0.13949
8386.8 0.79358 0.1628(31) 104591. 0.08614 0.15621
8393.8 0.79423 0.1695(31) 101325. 0.08614 0.16568
8400.7 0.79489 0.1659(31) 103099. 0.08613 0.16083
8407.7 0.79556 0.1507(31) 104819. 0.08611 0.14637
8414.7 0.79622 0.1375(31) 106508. 0.08610 0.13329
8421.7 0.79688 0.1289(31) 105486. 0.08609 0.13018
8428.7 0.79754 0.1441(31) 105657. 0.08607 0.14018
8435.7 0.79820 0.1672(31) 103808. 0.08606 0.15992
8442.7 0.79887 0.1891(31) 101962. 0.08604 0.18317
8449.7 0.79953 0.2066(32) 99718. 0.08602 0.20988
8456.7 0.80019 0.2435(32) 97087. 0.08600 0.24041
8463.8 0.80086 0.2776(32) 95067. 0.08598 0.25874
8470.8 0.80152 0.2607(32) 96389. 0.08596 0.24548
8477.8 0.80219 0.2161(32) 100352. 0.08594 0.20634
8484.9 0.80286 0.1692(31) 102544. 0.08591 0.16733
8491.9 0.80352 0.1550(31) 105451. 0.08589 0.14623
8499.0 0.80419 0.1520(31) 106906. 0.08586 0.14459
8506.1 0.80486 0.1641(31) 106052. 0.08583 0.15498
8513.1 0.80553 0.1729(31) 104495. 0.08581 0.16665
8520.2 0.80620 0.1816(31) 105393. 0.08578 0.17213
8527.3 0.80687 0.1773(31) 104886. 0.08574 0.17035
8534.4 0.80754 0.1762(31) 105618. 0.08571 0.16329
8541.5 0.80821 0.1703(30) 107980. 0.08568 0.15397
8548.6 0.80888 0.1528(30) 108119. 0.08564 0.14541
8555.7 0.80955 0.1500(30) 109466. 0.08561 0.14486
8562.8 0.81023 0.1674(30) 108784. 0.08557 0.15791
8569.9 0.81090 0.1879(31) 106067. 0.08553 0.18006
8577.0 0.81157 0.2066(31) 104251. 0.08549 0.19352
8584.1 0.81225 0.1953(31) 105497. 0.08545 0.18467
8591.3 0.81292 0.1679(30) 107891. 0.08541 0.16138
8598.4 0.81360 0.1458(30) 112059. 0.08537 0.14357
8605.5 0.81428 0.1468(30) 112220. 0.08532 0.14221
8612.7 0.81495 0.1600(30) 110694. 0.08528 0.15535
8619.8 0.81563 0.1707(30) 108422. 0.08523 0.17266
8627.0 0.81631 0.1891(30) 110196. 0.08518 0.18334
8634.2 0.81699 0.1853(30) 111849. 0.08513 0.18180
8641.4 0.81766 0.1712(30) 110897. 0.08508 0.17063
8648.5 0.81834 0.1569(30) 112428. 0.08503 0.15569
8655.7 0.81902 0.1479(30) 114466. 0.08498 0.14175
8662.9 0.81970 0.1385(29) 117246. 0.08492 0.13446
8670.1 0.82039 0.1481(29) 116497. 0.08487 0.14494
8677.3 0.82107 0.1819(30) 114378. 0.08481 0.17828
8684.5 0.82175 0.2284(30) 109098. 0.08476 0.21853
8691.7 0.82243 0.2528(30) 108415. 0.08470 0.23634
8699.0 0.82312 0.2301(30) 110521. 0.08464 0.21909
8706.2 0.82380 0.1895(30) 114000. 0.08458 0.18551
8713.4 0.82448 0.1629(29) 117679. 0.08452 0.15947
8720.7 0.82517 0.1541(29) 117264. 0.08445 0.15148
8727.9 0.82586 0.1593(29) 116716. 0.08439 0.15616
8735.2 0.82654 0.1729(29) 120922. 0.08432 0.15847
8742.4 0.82723 0.1606(29) 120154. 0.08426 0.14894
8749.7 0.82792 0.1400(28) 123564. 0.08419 0.13193
8757.0 0.82860 0.1214(28) 126184. 0.08412 0.11717
8764.2 0.82929 0.1138(28) 129532. 0.08405 0.10951
8771.5 0.82998 0.1116(28) 126397. 0.08398 0.10974
8778.8 0.83067 0.1111(28) 125760. 0.08391 0.11413
8786.1 0.83136 0.1248(28) 129148. 0.08384 0.11988
8793.4 0.83205 0.1256(28) 127158. 0.08376 0.12591
8800.7 0.83274 0.1284(28) 126912. 0.08369 0.13325
8808.0 0.83344 0.1450(28) 128190. 0.08361 0.14016
8815.3 0.83413 0.1413(28) 126401. 0.08353 0.14070
8822.7 0.83482 0.1326(28) 130383. 0.08345 0.13142
8830.0 0.83552 0.1185(28) 132128. 0.08338 0.11819
8837.3 0.83621 0.1063(27) 133915. 0.08329 0.10952
8844.7 0.83691 0.1099(27) 136447. 0.08321 0.10920
8852.0 0.83760 0.1147(27) 133457. 0.08313 0.11554
8859.4 0.83830 0.1223(27) 134795. 0.08305 0.12400
8866.7 0.83899 0.1322(27) 136064. 0.08296 0.13167
8874.1 0.83969 0.1341(27) 133598. 0.08288 0.13767
8881.5 0.84039 0.1351(27) 133651. 0.08279 0.14318
8888.9 0.84109 0.1456(27) 134511. 0.08271 0.14786
8896.2 0.84179 0.1457(27) 132489. 0.08262 0.14650
8903.6 0.84249 0.1292(27) 133552. 0.08253 0.13581
8911.0 0.84319 0.1155(27) 138360. 0.08244 0.12150
8918.4 0.84389 0.1122(27) 140653. 0.08235 0.11285
8925.8 0.84459 0.1088(27) 141106. 0.08226 0.11566
8933.3 0.84529 0.1282(26) 143835. 0.08216 0.12975
8940.7 0.84599 0.1482(27) 139760. 0.08207 0.14670
8948.1 0.84669 0.1553(27) 139782. 0.08197 0.15610
8955.5 0.84740 0.1561(27) 140077. 0.08188 0.15463
8963.0 0.84810 0.1376(27) 138120. 0.08178 0.14612
8970.4 0.84881 0.1298(27) 140186. 0.08169 0.13901
8977.9 0.84951 0.1307(26) 143868. 0.08159 0.13751
8985.3 0.85022 0.1333(26) 145695. 0.08149 0.13767
8992.8 0.85092 0.1266(26) 144905. 0.08139 0.13254
9000.3 0.85163 0.1200(26) 150990. 0.08129 0.12194
9007.8 0.85234 0.1116(25) 154730. 0.08119 0.11155
9015.2 0.85305 0.0990(25) 153922. 0.08109 0.10524
9022.7 0.85376 0.0950(25) 154415. 0.08099 0.10323
9030.2 0.85447 0.0999(25) 155873. 0.08088 0.10185
9037.7 0.85518 0.0958(25) 157122. 0.08078 0.09954
9045.3 0.85589 0.0885(25) 156238. 0.08067 0.09667
9052.8 0.85660 0.0893(25) 160747. 0.08057 0.09520
9060.3 0.85731 0.0908(25) 159661. 0.08046 0.09695
9067.8 0.85802 0.0971(25) 158445. 0.08036 0.10359
9075.4 0.85874 0.1113(25) 157197. 0.08025 0.11444
9082.9 0.85945 0.1298(25) 157786. 0.08014 0.12679
9090.4 0.86016 0.1274(26) 150547. 0.08003 0.13435
9098.0 0.86088 0.1341(25) 156475. 0.07992 0.13147
9105.6 0.86159 0.1172(25) 158967. 0.07982 0.12095
9113.1 0.86231 0.1055(25) 161323. 0.07971 0.11093
9120.7 0.86303 0.0983(25) 161175. 0.07959 0.10657
9128.3 0.86374 0.1088(25) 165522. 0.07948 0.10731
9135.9 0.86446 0.1100(25) 164309. 0.07937 0.10937
9143.4 0.86518 0.1056(25) 161427. 0.07926 0.10975
9151.0 0.86590 0.1070(25) 165116. 0.07915 0.10964
9158.6 0.86662 0.1072(25) 164711. 0.07903 0.11196
9166.3 0.86734 0.1175(25) 165367. 0.07892 0.11864
9173.9 0.86806 0.1289(24) 167297. 0.07881 0.12980
9181.5 0.86878 0.1356(25) 161530. 0.07869 0.13962
9189.1 0.86950 0.1378(25) 162883. 0.07858 0.14076
9196.8 0.87023 0.1273(25) 163752. 0.07846 0.13401
9204.4 0.87095 0.1222(25) 165485. 0.07835 0.12754
9212.0 0.87167 0.1217(24) 166871. 0.07823 0.12578
9219.7 0.87240 0.1226(24) 167334. 0.07812 0.12706
9227.4 0.87312 0.1211(24) 166979. 0.07800 0.12717
9235.0 0.87385 0.1220(24) 167770. 0.07788 0.12277
9242.7 0.87457 0.1119(24) 172098. 0.07777 0.11450
9250.4 0.87530 0.1083(24) 175312. 0.07765 0.10606
9258.1 0.87603 0.0971(24) 171473. 0.07753 0.09950
9265.8 0.87676 0.0948(24) 173444. 0.07742 0.09479
9273.5 0.87748 0.0978(24) 180471. 0.07730 0.09062
9281.2 0.87821 0.0873(24) 177803. 0.07718 0.08749
9288.9 0.87894 0.0850(24) 178008. 0.07706 0.08728
9296.6 0.87967 0.0887(24) 179910. 0.07695 0.09053
9304.3 0.88040 0.0907(24) 177319. 0.07683 0.09592
9312.1 0.88114 0.0968(24) 178665. 0.07671 0.10088
9319.8 0.88187 0.1019(24) 176614. 0.07659 0.10389
9327.5 0.88260 0.1079(24) 176888. 0.07647 0.10906
9335.3 0.88333 0.1230(24) 171752. 0.07636 0.12649
9343.0 0.88407 0.1579(25) 165510. 0.07624 0.16707
9350.8 0.88480 0.2168(25) 157162. 0.07612 0.22434
9358.6 0.88554 0.2651(26) 148416. 0.07600 0.26441
9366.3 0.88627 0.2593(26) 151235. 0.07588 0.25677
9374.1 0.88701 0.1973(25) 156050. 0.07577 0.21134
9381.9 0.88775 0.1577(24) 167568. 0.07565 0.16236
9389.7 0.88849 0.1240(24) 171601. 0.07553 0.13222
9397.5 0.88922 0.1180(24) 174678. 0.07541 0.12241
9405.3 0.88996 0.1245(24) 175671. 0.07530 0.12388
9413.1 0.89070 0.1253(24) 175087. 0.07518 0.12543
9421.0 0.89144 0.1182(24) 175231. 0.07506 0.12209
9428.8 0.89218 0.1119(24) 176340. 0.07495 0.11414
9436.6 0.89292 0.1062(24) 178270. 0.07483 0.10970
9444.5 0.89367 0.1049(24) 180044. 0.07471 0.10843
9452.3 0.89441 0.1030(24) 180468. 0.07460 0.10907
9460.2 0.89515 0.1079(23) 183552. 0.07448 0.10721
9468.0 0.89590 0.0954(24) 180520. 0.07437 0.10131
9475.9 0.89664 0.0896(23) 181899. 0.07425 0.09451
9483.8 0.89739 0.0964(23) 185714. 0.07414 0.09359
9491.6 0.89813 0.1046(23) 186886. 0.07403 0.10309
9499.5 0.89888 0.1214(24) 179525. 0.07391 0.12386
9507.4 0.89963 0.1421(24) 171055. 0.07380 0.14623
9515.3 0.90037 0.1532(24) 170143. 0.07369 0.15372
9523.2 0.90112 0.1414(24) 172625. 0.07358 0.14208
9531.1 0.90187 0.1239(24) 180679. 0.07346 0.12468
9539.1 0.90262 0.1117(24) 179429. 0.07335 0.11673
9547.0 0.90337 0.1231(24) 179397. 0.07324 0.12353
9554.9 0.90412 0.1399(24) 176544. 0.07313 0.13848
9562.9 0.90487 0.1458(24) 171177. 0.07303 0.14845
9570.8 0.90562 0.1436(24) 174590. 0.07292 0.14647
9578.8 0.90638 0.1346(24) 178580. 0.07281 0.13507
9586.7 0.90713 0.1191(23) 182183. 0.07270 0.12237
9594.7 0.90788 0.1052(23) 183602. 0.07260 0.10962
9602.7 0.90864 0.0989(23) 183948. 0.07249 0.09917
9610.6 0.90939 0.0919(23) 188048. 0.07239 0.09206
9618.6 0.91015 0.0890(23) 188824. 0.07228 0.08757
9626.6 0.91090 0.0848(23) 187757. 0.07218 0.08469
9634.6 0.91166 0.0878(23) 192128. 0.07208 0.08379
9642.6 0.91242 0.0872(23) 193920. 0.07198 0.08537
9650.6 0.91318 0.0863(23) 187220. 0.07188 0.09043
9658.7 0.91394 0.1011(23) 190828. 0.07178 0.10125
9666.7 0.91470 0.1095(23) 182069. 0.07168 0.11299
9674.7 0.91546 0.1199(23) 184264. 0.07158 0.11728
9682.7 0.91622 0.1095(23) 185240. 0.07148 0.11123
9690.8 0.91698 0.1019(23) 188083. 0.07139 0.10076
9698.8 0.91774 0.0939(23) 191155. 0.07129 0.09323
9706.9 0.91850 0.0965(23) 192640. 0.07120 0.09299
9715.0 0.91927 0.0987(23) 189503. 0.07111 0.10057
9723.0 0.92003 0.1100(23) 187590. 0.07102 0.11028
9731.1 0.92079 0.1113(23) 183757. 0.07093 0.11388
9739.2 0.92156 0.1083(23) 186941. 0.07084 0.10897
9747.3 0.92233 0.0986(23) 186916. 0.07075 0.10038
9755.4 0.92309 0.0944(23) 193775. 0.07066 0.09362
9763.5 0.92386 0.0914(23) 195399. 0.07058 0.09142
9771.6 0.92463 0.0901(23) 191014. 0.07049 0.09336
9779.7 0.92539 0.0974(23) 192764. 0.07041 0.09533
9787.9 0.92616 0.0933(23) 191996. 0.07033 0.09372
9796.0 0.92693 0.0904(23) 190629. 0.07025 0.08986
9804.1 0.92770 0.0932(23) 195065. 0.07017 0.08978
9812.3 0.92847 0.0986(23) 191818. 0.07009 0.10068
9820.4 0.92925 0.1289(23) 190579. 0.07001 0.12483
9828.6 0.93002 0.1518(24) 178581. 0.06994 0.15249
9836.8 0.93079 0.1691(24) 178094. 0.06986 0.16615
9844.9 0.93156 0.1636(23) 184190. 0.06979 0.16067
9853.1 0.93234 0.1426(23) 183774. 0.06972 0.14673
9861.3 0.93311 0.1321(23) 186601. 0.06965 0.13329
9869.5 0.93389 0.1230(23) 189836. 0.06958 0.12140
9877.7 0.93467 0.1096(23) 190103. 0.06952 0.11265
9885.9 0.93544 0.1083(23) 192603. 0.06945 0.10929
9894.1 0.93622 0.1097(23) 191835. 0.06939 0.10828
9902.3 0.93700 0.1075(23) 193241. 0.06933 0.10395
9910.6 0.93778 0.0962(23) 192364. 0.06927 0.09527
9918.8 0.93856 0.0881(22) 199809. 0.06921 0.08589
9927.0 0.93933 0.0804(22) 199409. 0.06915 0.07873
9935.3 0.94012 0.0748(22) 199034. 0.06909 0.07484
9943.5 0.94090 0.0766(22) 199951. 0.06904 0.07327
9951.8 0.94168 0.0753(22) 199021. 0.06899 0.07309
9960.1 0.94246 0.0788(22) 203285. 0.06894 0.07394
9968.4 0.94324 0.0761(22) 198050. 0.06889 0.07526
9976.6 0.94403 0.0780(22) 199378. 0.06884 0.07677
9984.9 0.94481 0.0844(22) 202684. 0.06880 0.07852
9993.2 0.94560 0.0856(22) 201575. 0.06875 0.08221
10001.5 0.94638 0.0890(23) 196394. 0.06871 0.08992
10009.8 0.94717 0.0999(23) 195243. 0.06867 0.10002
10018.2 0.94796 0.1037(23) 190716. 0.06863 0.10725
10026.5 0.94874 0.1082(23) 196255. 0.06860 0.10855
10034.8 0.94953 0.1062(23) 194972. 0.06856 0.10565
10043.1 0.95032 0.0978(23) 195130. 0.06853 0.10119
10051.5 0.95111 0.0998(22) 198821. 0.06850 0.09806
10059.8 0.95190 0.1016(22) 198262. 0.06847 0.10112
10068.2 0.95269 0.1069(23) 192001. 0.06844 0.11220
10076.6 0.95349 0.1232(23) 189798. 0.06842 0.12411
10084.9 0.95428 0.1279(23) 190646. 0.06840 0.12636
10093.3 0.95507 0.1140(23) 190875. 0.06838 0.11762
10101.7 0.95586 0.1032(23) 192551. 0.06836 0.10477
10110.1 0.95666 0.0943(22) 197725. 0.06834 0.09346
10118.5 0.95745 0.0856(23) 196742. 0.06833 0.08599
10126.9 0.95825 0.0863(22) 200450. 0.06831 0.08265
10135.3 0.95905 0.0836(22) 201155. 0.06830 0.08214
10143.7 0.95984 0.0858(22) 199651. 0.06829 0.08223
10152.2 0.96064 0.0839(22) 201533. 0.06829 0.08149
10160.6 0.96144 0.0801(22) 201166. 0.06828 0.08014
10169.1 0.96224 0.0839(22) 202802. 0.06828 0.07844
10177.5 0.96304 0.0801(22) 202738. 0.06828 0.07789
10186.0 0.96384 0.0830(22) 204262. 0.06828 0.07990
10194.4 0.96464 0.0898(22) 201509. 0.06829 0.08516
10202.9 0.96544 0.0939(22) 201536. 0.06829 0.09124
10211.4 0.96624 0.0991(22) 198670. 0.06830 0.09461
10219.9 0.96704 0.0967(22) 200289. 0.06831 0.09474
10228.3 0.96785 0.0895(23) 196767. 0.06833 0.09288
10236.8 0.96865 0.0921(22) 197952. 0.06834 0.09019
10245.4 0.96946 0.0889(22) 200672. 0.06836 0.08946
10253.9 0.97026 0.0958(22) 201839. 0.06838 0.09410
10262.4 0.97107 0.1057(22) 203166. 0.06840 0.10289
10270.9 0.97188 0.1067(23) 196191. 0.06842 0.10835
10279.4 0.97268 0.1043(23) 193259. 0.06845 0.10490
10288.0 0.97349 0.0982(22) 200680. 0.06848 0.09543
10296.5 0.97430 0.0868(22) 202166. 0.06851 0.08673
10305.1 0.97511 0.0863(22) 203080. 0.06854 0.08373
10313.7 0.97592 0.0911(22) 203424. 0.06858 0.08797
10322.2 0.97673 0.1030(22) 202026. 0.06862 0.09776
10330.8 0.97754 0.1078(23) 195803. 0.06866 0.10752
10339.4 0.97836 0.1162(23) 196215. 0.06870 0.11164
10348.0 0.97917 0.1144(22) 198652. 0.06875 0.11051
10356.6 0.97998 0.1113(23) 195740. 0.06879 0.10789
10365.2 0.98080 0.1099(22) 198457. 0.06884 0.10583
10373.8 0.98161 0.1086(22) 200184. 0.06890 0.10747
10382.4 0.98243 0.1135(23) 194529. 0.06895 0.11626
10391.0 0.98324 0.1300(23) 193288. 0.06901 0.12898
10399.7 0.98406 0.1360(23) 191257. 0.06907 0.13471
10408.3 0.98488 0.1285(23) 192847. 0.06913 0.12756
10417.0 0.98570 0.1138(23) 195648. 0.06919 0.11298
10425.6 0.98652 0.1000(22) 200221. 0.06926 0.09935
10434.3 0.98734 0.0953(22) 199963. 0.06933 0.09044
10442.9 0.98816 0.0909(22) 200913. 0.06940 0.08728
10451.6 0.98898 0.0907(22) 198831. 0.06947 0.09193
10460.3 0.98980 0.1058(22) 200762. 0.06955 0.10494
10469.0 0.99062 0.1182(23) 191758. 0.06963 0.11921
10477.7 0.99145 0.1224(23) 193659. 0.06971 0.12460
10486.4 0.99227 0.1156(23) 193190. 0.06979 0.11875
10495.1 0.99309 0.1065(23) 196853. 0.06988 0.10837
10503.8 0.99392 0.0979(22) 202086. 0.06996 0.09822
10512.6 0.99475 0.0882(22) 198754. 0.07005 0.08981
10521.3 0.99557 0.0852(22) 200104. 0.07015 0.08415
10530.0 0.99640 0.0841(22) 199853. 0.07024 0.08160
10538.8 0.99723 0.0888(22) 204403. 0.07034 0.08094
10547.5 0.99806 0.0820(22) 201465. 0.07044 0.08065
10556.3 0.99889 0.0778(22) 198500. 0.07054 0.08033
10565.1 0.99972 0.0854(22) 202153. 0.07065 0.07979
10573.9 1.00055 0.0865(22) 204287. 0.07076 0.07951
10582.7 1.00138 0.0827(22) 201390. 0.07087 0.07936
10591.4 1.00221 0.0810(22) 200010. 0.07098 0.08053
10600.2 1.00304 0.0850(22) 200334. 0.07109 0.08382
10609.1 1.00388 0.0888(22) 200320. 0.07121 0.08929
10617.9 1.00471 0.0993(23) 195797. 0.07133 0.09929
10626.7 1.00555 0.1145(23) 189869. 0.07145 0.11691
10635.5 1.00638 0.1431(23) 191654. 0.07158 0.13740
10644.4 1.00722 0.1521(23) 186484. 0.07170 0.14725
10653.2 1.00805 0.1391(23) 187092. 0.07183 0.14001
10662.1 1.00889 0.1269(23) 191021. 0.07196 0.12520
10670.9 1.00973 0.1141(23) 195600. 0.07210 0.11532
10679.8 1.01057 0.1122(23) 193834. 0.07223 0.11266
10688.7 1.01141 0.1137(23) 193791. 0.07237 0.11135
10697.5 1.01225 0.1094(23) 193286. 0.07251 0.10691
10706.4 1.01309 0.0980(23) 191846. 0.07266 0.10054
10715.3 1.01393 0.0987(23) 196750. 0.07280 0.09445
10724.2 1.01478 0.0907(23) 196874. 0.07295 0.08897
10733.1 1.01562 0.0889(23) 195835. 0.07310 0.08395
10742.0 1.01646 0.0822(23) 195779. 0.07325 0.08172
10751.0 1.01731 0.0807(23) 196931. 0.07341 0.08159
10759.9 1.01815 0.0838(22) 198070. 0.07356 0.08218
10768.8 1.01900 0.0828(22) 198086. 0.07372 0.08176
10777.8 1.01985 0.0804(23) 196357. 0.07389 0.07998
10786.8 1.02069 0.0801(22) 199341. 0.07405 0.07839
10795.7 1.02154 0.0778(23) 195837. 0.07422 0.07784
10804.7 1.02239 0.0869(22) 198608. 0.07438 0.07960
10813.7 1.02324 0.0892(22) 198279. 0.07455 0.08567
10822.6 1.02409 0.0979(23) 193186. 0.07473 0.09661
10831.6 1.02494 0.1058(23) 186432. 0.07490 0.10869
10840.6 1.02579 0.1225(23) 190719. 0.07508 0.11516
10849.6 1.02665 0.1178(23) 188542. 0.07526 0.11370
10858.7 1.02750 0.1097(23) 188714. 0.07544 0.10907
10867.7 1.02835 0.1101(23) 189778. 0.07562 0.10702
10876.7 1.02921 0.1180(23) 189806. 0.07581 0.11424
10885.8 1.03006 0.1413(23) 183204. 0.07600 0.14142
10894.8 1.03092 0.1924(24) 174348. 0.07619 0.19319
10903.9 1.03177 0.2488(25) 164627. 0.07638 0.24971
10912.9 1.03263 0.2763(25) 159369. 0.07657 0.27513
10922.0 1.03349 0.2579(25) 164632. 0.07677 0.25541
10931.1 1.03435 0.2097(24) 170978. 0.07697 0.21116
10940.1 1.03521 0.1656(24) 177833. 0.07717 0.16887
10949.2 1.03607 0.1404(23) 183433. 0.07737 0.13925
10958.3 1.03693 0.1246(23) 183804. 0.07757 0.12328
10967.4 1.03779 0.1240(23) 186809. 0.07778 0.12217
10976.5 1.03865 0.1436(23) 185160. 0.07798 0.13628
10985.7 1.03952 0.1604(24) 177622. 0.07819 0.15690
10994.8 1.04038 0.1774(24) 176281. 0.07841 0.16767
11003.9 1.04124 0.1660(24) 177710. 0.07862 0.15927
11013.1 1.04211 0.1446(23) 182703. 0.07883 0.13842
11022.2 1.04298 0.1226(23) 185425. 0.07905 0.11730
11031.4 1.04384 0.1106(23) 189005. 0.07927 0.10313
11040.5 1.04471 0.1060(23) 190440. 0.07949 0.09744
11049.7 1.04558 0.1066(23) 190463. 0.07971 0.10230
11058.9 1.04645 0.1214(23) 186212. 0.07993 0.12084
11068.1 1.04732 0.1497(24) 178957. 0.08016 0.14892
11077.3 1.04819 0.1679(24) 175768. 0.08039 0.17070
11086.5 1.04906 0.1768(24) 177269. 0.08061 0.17424
11095.7 1.04993 0.1612(24) 179033. 0.08084 0.16506
11104.9 1.05080 0.1507(24) 177594. 0.08108 0.15303
11114.1 1.05168 0.1391(24) 180992. 0.08131 0.14005
11123.4 1.05255 0.1296(23) 182948. 0.08154 0.12779
11132.6 1.05342 0.1217(23) 184891. 0.08178 0.12357
11141.9 1.05430 0.1337(23) 181272. 0.08202 0.13476
11151.1 1.05518 0.1566(24) 176680. 0.08226 0.15759
11160.4 1.05605 0.1697(24) 172381. 0.08250 0.17431
11169.7 1.05693 0.1708(24) 175698. 0.08274 0.17029
11179.0 1.05781 0.1459(24) 177207. 0.08298 0.15042
11188.2 1.05869 0.1274(24) 180995. 0.08323 0.12859
11197.5 1.05957 0.1133(23) 181966. 0.08347 0.11339
11206.8 1.06045 0.1101(23) 184967. 0.08372 0.10610
11216.2 1.06133 0.1046(24) 180332. 0.08397 0.10847
11225.5 1.06221 0.1203(23) 181172. 0.08422 0.12212
11234.8 1.06309 0.1416(24) 176229. 0.08447 0.14327
11244.1 1.06398 0.1601(24) 171279. 0.08472 0.16084
11253.5 1.06486 0.1713(24) 173558. 0.08497 0.16839
11262.8 1.06575 0.1693(24) 171150. 0.08523 0.17170
11272.2 1.06663 0.1763(24) 170794. 0.08548 0.17471
11281.6 1.06752 0.1710(24) 168593. 0.08574 0.17164
11290.9 1.06841 0.1591(24) 170271. 0.08599 0.15884
11300.3 1.06929 0.1418(24) 173852. 0.08625 0.14557
11309.7 1.07018 0.1379(24) 176056. 0.08651 0.14060
11319.1 1.07107 0.1391(24) 175355. 0.08677 0.14113
11328.5 1.07196 0.1362(24) 173253. 0.08703 0.13822
11337.9 1.07285 0.1274(24) 176438. 0.08729 0.12859
11347.3 1.07374 0.1128(24) 177886. 0.08755 0.11623
11356.8 1.07464 0.1067(24) 180163. 0.08781 0.10565
11366.2 1.07553 0.0973(24) 179769. 0.08808 0.09884
11375.6 1.07642 0.0956(24) 179768. 0.08834 0.09485
11385.1 1.07732 0.0948(24) 179944. 0.08861 0.09290
11394.6 1.07821 0.0913(24) 177921. 0.08887 0.09258
11404.0 1.07911 0.0936(24) 178214. 0.08914 0.09467
11413.5 1.08000 0.0993(24) 178244. 0.08940 0.09937
11423.0 1.08090 0.1074(24) 175433. 0.08967 0.10861
11432.5 1.08180 0.1257(24) 173849. 0.08993 0.12724
11442.0 1.08270 0.1496(24) 167658. 0.09020 0.15779
11451.5 1.08360 0.1805(25) 161042. 0.09047 0.18767
11461.0 1.08450 0.1926(25) 160257. 0.09074 0.19689
11470.5 1.08540 0.1754(25) 162123. 0.09100 0.18364
11480.1 1.08630 0.1589(25) 164909. 0.09127 0.16668
11489.6 1.08721 0.1537(25) 165611. 0.09154 0.16202
11499.1 1.08811 0.1628(25) 163034. 0.09181 0.16860
11508.7 1.08901 0.1643(25) 160697. 0.09208 0.17329
11518.3 1.08992 0.1577(25) 160392. 0.09235 0.16584
11527.8 1.09082 0.1406(25) 163605. 0.09262 0.14841
11537.4 1.09173 0.1231(25) 166126. 0.09288 0.12993
11547.0 1.09264 0.1115(24) 167083. 0.09315 0.11622
11556.6 1.09355 0.1032(24) 166960. 0.09342 0.10812
11566.2 1.09445 0.1032(25) 165507. 0.09369 0.10484
11575.8 1.09536 0.1052(25) 165710. 0.09396 0.10920
11585.4 1.09627 0.1195(25) 164323. 0.09423 0.12230
11595.0 1.09718 0.1393(25) 163065. 0.09449 0.14144
11604.7 1.09810 0.1500(25) 156476. 0.09476 0.15618
11614.3 1.09901 0.1509(25) 158098. 0.09503 0.15754
11624.0 1.09992 0.1431(25) 158380. 0.09530 0.14910
11633.6 1.10084 0.1311(25) 160807. 0.09556 0.13984
11643.3 1.10175 0.1200(25) 157897. 0.09583 0.13186
11653.0 1.10267 0.1144(25) 159948. 0.09609 0.12360
11662.6 1.10358 0.1077(25) 160149. 0.09636 0.11557
11672.3 1.10450 0.0980(25) 158123. 0.09662 0.10974
11682.0 1.10542 0.0983(25) 160517. 0.09688 0.10684
11691.7 1.10634 0.0956(25) 160296. 0.09715 0.10599
11701.5 1.10726 0.0970(25) 159996. 0.09741 0.10557
11711.2 1.10818 0.0988(25) 160809. 0.09767 0.10447
11720.9 1.10910 0.0952(25) 159770. 0.09793 0.10261
11730.7 1.11002 0.0925(25) 156825. 0.09819 0.10136
11740.4 1.11094 0.0954(25) 159173. 0.09845 0.10061
11750.2 1.11186 0.0933(25) 157663. 0.09871 0.10041
11759.9 1.11279 0.0956(25) 155727. 0.09896 0.10185
11769.7 1.11371 0.1042(25) 157106. 0.09922 0.10682
11779.5 1.11464 0.1115(26) 153750. 0.09947 0.11811
11789.3 1.11556 0.1203(26) 148384. 0.09973 0.13452
11799.1 1.11649 0.1367(26) 147056. 0.09998 0.14732
11808.9 1.11742 0.1361(26) 145921. 0.10023 0.14814
11818.7 1.11835 0.1249(26) 144861. 0.10048 0.13910
11828.5 1.11928 0.1199(26) 148102. 0.10073 0.12826
11838.3 1.12021 0.1132(26) 146940. 0.10098 0.11991
11848.2 1.12114 0.1119(26) 147550. 0.10122 0.11414
11858.0 1.12207 0.1116(26) 149851. 0.10147 0.11072
11867.9 1.12300 0.1129(26) 147794. 0.10171 0.11058
11877.7 1.12394 0.1236(26) 147231. 0.10195 0.11566
11887.6 1.12487 0.1314(26) 142654. 0.10219 0.12749
11897.5 1.12580 0.1560(27) 139584. 0.10243 0.14764
11907.3 1.12674 0.1918(27) 136080. 0.10266 0.18698
11917.2 1.12768 0.2613(28) 129256. 0.10290 0.26947
11927.1 1.12861 0.3839(29) 120597. 0.10313 0.39693
11937.1 1.12955 0.4895(30) 112344. 0.10336 0.50441
11947.0 1.13049 0.5110(30) 111311. 0.10359 0.51543
11956.9 1.13143 0.4225(29) 115929. 0.10382 0.43770
11966.8 1.13237 0.3221(29) 121938. 0.10405 0.34141
11976.8 1.13331 0.2634(28) 126876. 0.10427 0.27426
11986.7 1.13425 0.2379(28) 129535. 0.10449 0.23919
11996.7 1.13519 0.2219(28) 128747. 0.10471 0.21870
12006.7 1.13614 0.2108(28) 130015. 0.10493 0.19909
12016.6 1.13708 0.1913(28) 132098. 0.10515 0.17991
12026.6 1.13803 0.1752(27) 132538. 0.10536 0.16807
12036.6 1.13897 0.1653(28) 131008. 0.10557 0.16366
12046.6 1.13992 0.1613(28) 130536. 0.10578 0.15933
12056.6 1.14087 0.1570(28) 131553. 0.10599 0.14819
12066.6 1.14181 0.1422(28) 131195. 0.10620 0.14179
12076.7 1.14276 0.1440(28) 130805. 0.10640 0.14300
12086.7 1.14371 0.1515(28) 129699. 0.10660 0.15174
12096.7 1.14466 0.1574(28) 126724. 0.10680 0.15892
12106.8 1.14561 0.1581(28) 127238. 0.10699 0.15624
12116.9 1.14657 0.1434(28) 127514. 0.10718 0.14541
12126.9 1.14752 0.1344(28) 128671. 0.10738 0.13321
12137.0 1.14847 0.1255(28) 128090. 0.10756 0.12399
12147.1 1.14943 0.1218(28) 127379. 0.10775 0.11798
12157.2 1.15038 0.1162(28) 127823. 0.10793 0.11467
12167.3 1.15134 0.1262(28) 127165. 0.10811 0.11404
12177.4 1.15229 0.1288(28) 125156. 0.10829 0.11888
12187.5 1.15325 0.1436(28) 123204. 0.10846 0.13740
12197.6 1.15421 0.1836(29) 120551. 0.10863 0.18093
12207.8 1.15517 0.2505(29) 116084. 0.10880 0.24516
12217.9 1.15613 0.3001(30) 110830. 0.10897 0.29726
12228.1 1.15709 0.3130(30) 111262. 0.10913 0.30881
12238.2 1.15805 0.2949(30) 112223. 0.10929 0.29488
12248.4 1.15901 0.2742(30) 110323. 0.10945 0.28626
12258.6 1.15998 0.2740(30) 111120. 0.10961 0.28200
12268.8 1.16094 0.2690(30) 112190. 0.10976 0.26319
12278.9 1.16191 0.2385(30) 112564. 0.10991 0.23178
12289.2 1.16287 0.2236(29) 114947. 0.11005 0.21172
12299.4 1.16384 0.2409(30) 111739. 0.11019 0.22853
12309.6 1.16480 0.2995(30) 108621. 0.11033 0.29455
12319.8 1.16577 0.4020(31) 103669. 0.11047 0.38794
12330.0 1.16674 0.4644(32) 98824. 0.11060 0.44937
12340.3 1.16771 0.4474(32) 98452. 0.11073 0.43847
12350.5 1.16868 0.3870(31) 101206. 0.11086 0.38171
12360.8 1.16965 0.3340(31) 105048. 0.11098 0.32810
12371.1 1.17062 0.3050(31) 106393. 0.11110 0.29259
12381.4 1.17160 0.2861(31) 107010. 0.11121 0.26367
12391.6 1.17257 0.2766(31) 107369. 0.11133 0.24920
12401.9 1.17355 0.3052(31) 104908. 0.11144 0.28643
12412.2 1.17452 0.4063(32) 99269. 0.11154 0.41018
12422.6 1.17550 0.5743(33) 91847. 0.11165 0.58296
12432.9 1.17647 0.6872(34) 86888. 0.11174 0.68597
12443.2 1.17745 0.6447(33) 89171. 0.11184 0.64491
12453.6 1.17843 0.5072(32) 95009. 0.11193 0.51293
12463.9 1.17941 0.3758(32) 100585. 0.11202 0.38005
12474.3 1.18039 0.2805(31) 104140. 0.11211 0.28335
12484.6 1.18137 0.2397(30) 108104. 0.11219 0.22216
12495.0 1.18235 0.2004(30) 109295. 0.11227 0.18355
12505.4 1.18333 0.1860(30) 110727. 0.11234 0.15951
12515.8 1.18432 0.1729(30) 110982. 0.11241 0.14769
12526.2 1.18530 0.1769(30) 109554. 0.11248 0.15330
12536.6 1.18629 0.2093(30) 108571. 0.11254 0.18666
12547.0 1.18727 0.2635(31) 105468. 0.11260 0.25176
12557.4 1.18826 0.3412(31) 101847. 0.11266 0.32238
12567.8 1.18925 0.3702(32) 99823. 0.11271 0.34896
12578.3 1.19023 0.3414(31) 101547. 0.11276 0.32265
12588.7 1.19122 0.2749(31) 103805. 0.11280 0.27123
12599.2 1.19221 0.2315(31) 107356. 0.11284 0.22654
12609.7 1.19320 0.2014(30) 108628. 0.11288 0.19502
12620.1 1.19420 0.1844(30) 110816. 0.11291 0.17134
12630.6 1.19519 0.1597(30) 110820. 0.11294 0.15297
12641.1 1.19618 0.1518(30) 111795. 0.11297 0.14129
12651.6 1.19717 0.1467(30) 111187. 0.11299 0.13928
12662.1 1.19817 0.1554(30) 110897. 0.11301 0.15100
12672.7 1.19917 0.1732(30) 110545. 0.11302 0.17511
12683.2 1.20016 0.2037(30) 109375. 0.11303 0.19687
12693.7 1.20116 0.2000(30) 108431. 0.11304 0.19998
12704.3 1.20216 0.1877(30) 109579. 0.11304 0.18498
12714.8 1.20316 0.1714(30) 112286. 0.11304 0.16834
12725.4 1.20416 0.1591(30) 112830. 0.11303 0.15641
12736.0 1.20516 0.1469(30) 112368. 0.11302 0.14757
12746.6 1.20616 0.1394(30) 112614. 0.11301 0.13959
12757.2 1.20716 0.1411(30) 114220. 0.11299 0.13479
12767.8 1.20816 0.1435(29) 115138. 0.11297 0.13758
12778.4 1.20917 0.1536(30) 114475. 0.11295 0.15028
12789.0 1.21017 0.1640(30) 112603. 0.11292 0.16684
12799.6 1.21118 0.1777(30) 112604. 0.11289 0.17486
12810.2 1.21218 0.1658(30) 112457. 0.11285 0.16900
12820.9 1.21319 0.1563(30) 114799. 0.11281 0.15493
12831.5 1.21420 0.1381(29) 115024. 0.11276 0.14186
12842.2 1.21521 0.1355(29) 117093. 0.11272 0.13245
12852.9 1.21622 0.1282(29) 116812. 0.11266 0.12646
12863.5 1.21723 0.1228(29) 116765. 0.11261 0.12261
12874.2 1.21824 0.1245(29) 117328. 0.11255 0.12035
12884.9 1.21925 0.1284(29) 117404. 0.11248 0.12164
12895.6 1.22027 0.1414(29) 116729. 0.11242 0.13264
12906.4 1.22128 0.1740(29) 115556. 0.11234 0.16723
12917.1 1.22229 0.2353(30) 110857. 0.11227 0.24092
12927.8 1.22331 0.3314(31) 106501. 0.11219 0.34299
12938.6 1.22433 0.4118(31) 102380. 0.11210 0.41982
12949.3 1.22534 0.4115(31) 103347. 0.11202 0.42191
12960.1 1.22636 0.3522(31) 106149. 0.11193 0.36785
12970.8 1.22738 0.2973(30) 111228. 0.11183 0.31078
12981.6 1.22840 0.2606(30) 113295. 0.11173 0.27394
12992.4 1.22942 0.2401(29) 115165. 0.11163 0.24615
13003.2 1.23044 0.2133(29) 117654. 0.11152 0.21536
13014.0 1.23147 0.1819(29) 120002. 0.11142 0.18451
13024.8 1.23249 0.1612(29) 121425. 0.11130 0.16075
13035.6 1.23351 0.1527(28) 123988. 0.11118 0.14684
13046.5 1.23454 0.1485(28) 124326. 0.11106 0.14264
13057.3 1.23557 0.1495(28) 124399. 0.11094 0.14582
13068.2 1.23659 0.1528(28) 125114. 0.11081 0.15126
13079.0 1.23762 0.1612(28) 126598. 0.11068 0.15144
13089.9 1.23865 0.1565(28) 127368. 0.11054 0.15426
13100.8 1.23968 0.1671(28) 128313. 0.11040 0.16797
13111.6 1.24071 0.1881(28) 125484. 0.11026 0.19493
13122.5 1.24174 0.2165(28) 125762. 0.11012 0.21691
13133.4 1.24277 0.2119(28) 126149. 0.10997 0.21585
13144.4 1.24380 0.1950(28) 129581. 0.10981 0.19453
13155.3 1.24484 0.1689(28) 131268. 0.10966 0.17092
13166.2 1.24587 0.1663(27) 133636. 0.10950 0.15980
13177.1 1.24691 0.1773(28) 131490. 0.10933 0.17555
13188.1 1.24794 0.2252(28) 127514. 0.10917 0.23389
13199.1 1.24898 0.3163(29) 122854. 0.10900 0.32452
13210.0 1.25002 0.3886(29) 117876. 0.10882 0.39142
13221.0 1.25106 0.3841(29) 118748. 0.10865 0.38655
13232.0 1.25210 0.3223(28) 124118. 0.10847 0.32772
13243.0 1.25314 0.2472(28) 128894. 0.10828 0.26188
13254.0 1.25418 0.2023(27) 132756. 0.10810 0.21248
13265.0 1.25522 0.1739(27) 137071. 0.10791 0.17907
13276.0 1.25626 0.1534(27) 138568. 0.10772 0.15588
13287.0 1.25731 0.1355(27) 138583. 0.10752 0.13937
13298.1 1.25835 0.1278(27) 141421. 0.10732 0.12913
13309.1 1.25940 0.1273(27) 142240. 0.10712 0.12516
13320.2 1.26044 0.1317(27) 142208. 0.10692 0.13039
13331.3 1.26149 0.1434(27) 140752. 0.10671 0.14805
13342.3 1.26254 0.1696(27) 140117. 0.10650 0.17273
13353.4 1.26359 0.1839(27) 138397. 0.10629 0.18766
13364.5 1.26464 0.1806(27) 140696. 0.10607 0.18223
13375.6 1.26569 0.1604(26) 142982. 0.10586 0.16318
13386.7 1.26674 0.1422(26) 146205. 0.10564 0.14482
13397.9 1.26779 0.1261(26) 146512. 0.10541 0.13115
13409.0 1.26885 0.1216(26) 148357. 0.10519 0.12197
13420.1 1.26990 0.1132(26) 148789. 0.10496 0.11599
13431.3 1.27096 0.1113(26) 148825. 0.10473 0.11242
13442.4 1.27201 0.1171(26) 150017. 0.10450 0.11181
13453.6 1.27307 0.1221(26) 149420. 0.10426 0.11795
13464.8 1.27413 0.1422(26) 146903. 0.10402 0.14104
13476.0 1.27519 0.1872(26) 143093. 0.10378 0.19340
13487.2 1.27625 0.2597(27) 137166. 0.10354 0.26639
13498.4 1.27731 0.3194(27) 132811. 0.10330 0.31735
13509.6 1.27837 0.3177(27) 134442. 0.10305 0.31333
13520.8 1.27943 0.2666(27) 137651. 0.10280 0.27255
13532.1 1.28049 0.2283(26) 142646. 0.10255 0.23375
13543.3 1.28156 0.1992(26) 144272. 0.10230 0.21167
13554.6 1.28262 0.1880(26) 145619. 0.10205 0.19722
13565.8 1.28369 0.1728(26) 148489. 0.10179 0.17919
13577.1 1.28475 0.1553(26) 152249. 0.10154 0.15821
13588.4 1.28582 0.1349(26) 153066. 0.10128 0.14052
13599.7 1.28689 0.1272(25) 155149. 0.10102 0.12998
13611.0 1.28796 0.1308(25) 155671. 0.10076 0.12961
13622.3 1.28903 0.1411(25) 155612. 0.10050 0.14394
13633.6 1.29010 0.1656(26) 151405. 0.10023 0.17278
13644.9 1.29117 0.1996(26) 151711. 0.09997 0.20075
13656.3 1.29225 0.2058(26) 149081. 0.09970 0.20684
13667.6 1.29332 0.1843(26) 151773. 0.09943 0.18878
13679.0 1.29440 0.1615(25) 156507. 0.09916 0.16430
13690.3 1.29547 0.1367(25) 158216. 0.09889 0.14453
13701.7 1.29655 0.1290(25) 162603. 0.09862 0.13123
13713.1 1.29762 0.1155(25) 162110. 0.09835 0.12187
13724.5 1.29870 0.1112(25) 162554. 0.09808 0.11444
13735.9 1.29978 0.1039(25) 164761. 0.09780 0.10894
13747.3 1.30086 0.1069(25) 166550. 0.09753 0.10522
13758.7 1.30194 0.1018(25) 165549. 0.09725 0.10366
13770.2 1.30302 0.0995(25) 165238. 0.09698 0.10590
13781.6 1.30411 0.1054(25) 162974. 0.09670 0.11469
13793.0 1.30519 0.1254(25) 162993. 0.09643 0.12927
13804.5 1.30628 0.1406(25) 163442. 0.09615 0.14136
13816.0 1.30736 0.1404(25) 161206. 0.09588 0.14308
13827.5 1.30845 0.1400(25) 163459. 0.09560 0.14099
13839.0 1.30954 0.1461(25) 162458. 0.09532 0.14866
13850.4 1.31062 0.1674(25) 159177. 0.09505 0.17202
13862.0 1.31171 0.1981(25) 157799. 0.09477 0.19653
13873.5 1.31280 0.2065(25) 157105. 0.09450 0.20033
13885.0 1.31389 0.1839(25) 159317. 0.09422 0.18191
13896.5 1.31499 0.1590(25) 162933. 0.09394 0.15693
13908.1 1.31608 0.1370(25) 165087. 0.09367 0.13700
13919.6 1.31717 0.1279(24) 168365. 0.09340 0.12609
13931.2 1.31827 0.1328(24) 167125. 0.09312 0.12897
13942.8 1.31936 0.1479(25) 161758. 0.09285 0.15388
13954.4 1.32046 0.1932(25) 160470. 0.09258 0.19884
13966.0 1.32156 0.2322(25) 154148. 0.09230 0.23643
13977.6 1.32265 0.2363(25) 154327. 0.09203 0.23902
13989.2 1.32375 0.2105(25) 159535. 0.09177 0.21257
14000.8 1.32485 0.1764(25) 160854. 0.09150 0.18367
14012.4 1.32595 0.1619(25) 165975. 0.09123 0.16725
14024.1 1.32706 0.1562(24) 166968. 0.09096 0.16015
14035.7 1.32816 0.1487(25) 165929. 0.09070 0.15151
14047.4 1.32926 0.1405(24) 169378. 0.09044 0.13842
14059.1 1.33037 0.1286(24) 170168. 0.09018 0.12460
14070.8 1.33147 0.1188(24) 172378. 0.08992 0.11468
14082.4 1.33258 0.1117(24) 170778. 0.08966 0.11122
14094.1 1.33369 0.1185(24) 172340. 0.08940 0.11632
14105.9 1.33479 0.1302(24) 170104. 0.08915 0.12985
14117.6 1.33590 0.1466(24) 169404. 0.08890 0.14681
14129.3 1.33701 0.1609(24) 166765. 0.08865 0.15763
14141.0 1.33812 0.1624(25) 166481. 0.08840 0.15772
14152.8 1.33924 0.1549(24) 166799. 0.08815 0.14990
14164.6 1.34035 0.1577(24) 167881. 0.08791 0.15031
14176.3 1.34146 0.1804(25) 165924. 0.08767 0.17565
14188.1 1.34258 0.2286(25) 161360. 0.08743 0.22240
14199.9 1.34369 0.2637(25) 154860. 0.08719 0.25665
14211.7 1.34481 0.2601(25) 155354. 0.08696 0.25057
14223.5 1.34593 0.2225(25) 159849. 0.08673 0.21555
14235.3 1.34705 0.1867(25) 166187. 0.08650 0.17953
14247.1 1.34816 0.1643(24) 168994. 0.08628 0.15996
14259.0 1.34929 0.1665(25) 165409. 0.08606 0.16732
14270.8 1.35041 0.1956(25) 161786. 0.08584 0.20347
14282.7 1.35153 0.2371(25) 157262. 0.08563 0.24462
14294.6 1.35265 0.2555(25) 156600. 0.08542 0.25534
14306.4 1.35378 0.2292(25) 158637. 0.08521 0.23079
14318.3 1.35490 0.1911(25) 165964. 0.08500 0.19288
14330.2 1.35603 0.1547(24) 168903. 0.08480 0.15941
14342.1 1.35715 0.1342(24) 173923. 0.08461 0.13496
14354.0 1.35828 0.1176(24) 175117. 0.08441 0.11825
14366.0 1.35941 0.1026(24) 172752. 0.08423 0.10604
14377.9 1.36054 0.0989(24) 176678. 0.08404 0.09882
14389.9 1.36167 0.0940(24) 176576. 0.08386 0.09385
14401.8 1.36280 0.0944(24) 178182. 0.08368 0.09040
14413.8 1.36393 0.0946(24) 179124. 0.08351 0.08801
14425.8 1.36507 0.0878(24) 178263. 0.08334 0.08635
14437.7 1.36620 0.0843(24) 177080. 0.08318 0.08520
14449.7 1.36734 0.0860(24) 178831. 0.08302 0.08440
14461.7 1.36847 0.0836(24) 178125. 0.08287 0.08389
14473.8 1.36961 0.0857(24) 178947. 0.08272 0.08358
14485.8 1.37075 0.0880(24) 180400. 0.08257 0.08305
14497.8 1.37189 0.0873(24) 181009. 0.08243 0.08299
14509.9 1.37303 0.0910(23) 182698. 0.08230 0.08300
14521.9 1.37417 0.0817(24) 177953. 0.08217 0.08367
14534.0 1.37531 0.0852(24) 178672. 0.08204 0.08572
14546.1 1.37645 0.0944(23) 181216. 0.08192 0.08905
14558.2 1.37760 0.0956(24) 178972. 0.08181 0.09168
14570.3 1.37874 0.0963(24) 178744. 0.08170 0.09169
14582.4 1.37989 0.0914(24) 179362. 0.08160 0.08965
14594.5 1.38103 0.0912(24) 179550. 0.08150 0.08735
14606.6 1.38218 0.0918(24) 178679. 0.08141 0.08598
14618.7 1.38333 0.0958(24) 179859. 0.08132 0.08684
14630.9 1.38448 0.1047(24) 180180. 0.08124 0.09345
14643.0 1.38563 0.1213(24) 176104. 0.08117 0.11367
14655.2 1.38678 0.1556(24) 170012. 0.08110 0.15527
14667.4 1.38793 0.2028(25) 164188. 0.08104 0.20799
14679.6 1.38909 0.2384(25) 160328. 0.08098 0.23827
14691.8 1.39024 0.2257(25) 161200. 0.08093 0.22730
14704.0 1.39140 0.1923(24) 167164. 0.08089 0.19303
14716.2 1.39255 0.1539(24) 170602. 0.08085 0.15939
14728.4 1.39371 0.1318(24) 175833. 0.08082 0.13486
14740.7 1.39487 0.1127(24) 174843. 0.08080 0.11840
14752.9 1.39603 0.1068(24) 178702. 0.08078 0.10714
14765.2 1.39719 0.1024(24) 180804. 0.08077 0.09910
14777.4 1.39835 0.0942(24) 179599. 0.08076 0.09334
14789.7 1.39951 0.0908(24) 178022. 0.08077 0.08946
14802.0 1.40067 0.0931(23) 182601. 0.08078 0.08741
14814.3 1.40184 0.0875(24) 179498. 0.08079 0.08783
14826.6 1.40300 0.0970(24) 180660. 0.08082 0.09156
14838.9 1.40417 0.0999(24) 179476. 0.08085 0.09744
14851.3 1.40533 0.1092(24) 179737. 0.08088 0.10187
14863.6 1.40650 0.1057(24) 178882. 0.08093 0.10256
14876.0 1.40767 0.0990(24) 178923. 0.08098 0.09967
14888.3 1.40884 0.1041(23) 181724. 0.08104 0.09642
14900.7 1.41001 0.1024(24) 180195. 0.08111 0.09575
14913.1 1.41118 0.1069(24) 180492. 0.08118 0.10378
14925.5 1.41236 0.1244(24) 176818. 0.08126 0.12639
14937.9 1.41353 0.1559(24) 172417. 0.08135 0.15718
14950.3 1.41470 0.1768(24) 171580. 0.08145 0.17469
14962.7 1.41588 0.1724(24) 172066. 0.08155 0.16763
14975.1 1.41706 0.1457(24) 172914. 0.08166 0.14730
14987.6 1.41823 0.1287(24) 178339. 0.08178 0.12766
15000.0 1.41941 0.1099(24) 179226. 0.08191 0.11328
15012.5 1.42059 0.1003(24) 180195. 0.08204 0.10376
15025.0 1.42177 0.1017(23) 183420. 0.08218 0.09862
15037.4 1.42295 0.1026(23) 182607. 0.08233 0.09914
15049.9 1.42414 0.1022(24) 178188. 0.08249 0.10828
15062.4 1.42532 0.1174(24) 177608. 0.08266 0.12429
15075.0 1.42650 0.1329(24) 177033. 0.08283 0.13633
15087.5 1.42769 0.1358(24) 176977. 0.08301 0.13525
15100.0 1.42888 0.1283(24) 178060. 0.08320 0.12565
15112.6 1.43006 0.1194(24) 179734. 0.08339 0.11863
15125.1 1.43125 0.1195(24) 177784. 0.08360 0.12276
15137.7 1.43244 0.1353(24) 174618. 0.08381 0.13882
15150.3 1.43363 0.1569(24) 174248. 0.08403 0.15551
15162.9 1.43482 0.1616(24) 173519. 0.08426 0.15684
15175.5 1.43601 0.1464(24) 176280. 0.08449 0.14368
15188.1 1.43721 0.1253(24) 178875. 0.08474 0.12733
15200.7 1.43840 0.1123(23) 181461. 0.08499 0.11432
15213.3 1.43960 0.1009(23) 183758. 0.08525 0.10529
15226.0 1.44079 0.0961(23) 184723. 0.08551 0.09932
15238.6 1.44199 0.0897(23) 183594. 0.08578 0.09586
15251.3 1.44319 0.0923(23) 184298. 0.08607 0.09525
15263.9 1.44439 0.0970(23) 187457. 0.08635 0.09799
15276.6 1.44559 0.0985(23) 182718. 0.08665 0.10333
15289.3 1.44679 0.1076(23) 185927. 0.08695 0.10659
15302.0 1.44799 0.1066(23) 183903. 0.08727 0.10577
15314.7 1.44920 0.1069(23) 183540. 0.08758 0.10484
15327.5 1.45040 0.1181(23) 183297. 0.08791 0.11277
15340.2 1.45160 0.1403(24) 178753. 0.08824 0.14213
15352.9 1.45281 0.1876(24) 171458. 0.08858 0.19452
15365.7 1.45402 0.2346(25) 165069. 0.08893 0.24138
15378.5 1.45523 0.2478(25) 163305. 0.08928 0.24784
15391.2 1.45644 0.2184(24) 168395. 0.08964 0.21930
15404.0 1.45765 0.1743(24) 173165. 0.09001 0.18348
15416.8 1.45886 0.1453(24) 175565. 0.09038 0.15536
15429.6 1.46007 0.1283(24) 180586. 0.09076 0.13724
15442.5 1.46128 0.1209(24) 180557. 0.09114 0.13017
15455.3 1.46250 0.1310(24) 180662. 0.09153 0.13682
15468.1 1.46371 0.1468(24) 177766. 0.09193 0.15433
15481.0 1.46493 0.1657(24) 173330. 0.09233 0.17009
15493.9 1.46615 0.1719(24) 173083. 0.09274 0.17463
15506.7 1.46736 0.1621(24) 173589. 0.09315 0.16821
15519.6 1.46858 0.1497(24) 173920. 0.09357 0.15485
15532.5 1.46980 0.1390(24) 176748. 0.09399 0.14070
15545.4 1.47103 0.1310(24) 173933. 0.09442 0.13395
15558.3 1.47225 0.1413(24) 173824. 0.09485 0.14457
15571.3 1.47347 0.1764(24) 167492. 0.09529 0.18383
15584.2 1.47470 0.2241(25) 158316. 0.09573 0.23515
15597.1 1.47592 0.2578(25) 154200. 0.09618 0.25928
15610.1 1.47715 0.2385(26) 153115. 0.09662 0.24180
15623.1 1.47837 0.2055(25) 159089. 0.09707 0.20601
15636.1 1.47960 0.1673(25) 162289. 0.09753 0.17382
15649.0 1.48083 0.1474(25) 166205. 0.09798 0.15060
15662.1 1.48206 0.1345(25) 164822. 0.09844 0.13505
15675.1 1.48329 0.1275(25) 163294. 0.09890 0.12604
15688.1 1.48453 0.1381(25) 158815. 0.09936 0.12872
15701.1 1.48576 0.1691(26) 153488. 0.09982 0.15872
15714.2 1.48700 0.2373(27) 141205. 0.10028 0.23807
15727.2 1.48823 0.3517(28) 127717. 0.10074 0.34843
15740.3 1.48947 0.4320(29) 118738. 0.10121 0.41435
15753.4 1.49071 0.4289(29) 117626. 0.10167 0.39372
15766.5 1.49194 0.3469(29) 121595. 0.10213 0.32686
15779.6 1.49318 0.2682(28) 125582. 0.10258 0.26297
15792.7 1.49442 0.2225(28) 129150. 0.10304 0.22403
15805.8 1.49567 0.2049(28) 130058. 0.10349 0.21029
15818.9 1.49691 0.2114(28) 128718. 0.10394 0.21086
15832.1 1.49815 0.2076(28) 124586. 0.10439 0.20588
15845.2 1.49940 0.1914(28) 123296. 0.10483 0.18798
15858.4 1.50064 0.1656(28) 123519. 0.10527 0.16606
15871.6 1.50189 0.1461(28) 123736. 0.10570 0.14811
15884.8 1.50314 0.1366(28) 125449. 0.10613 0.13542
15898.0 1.50439 0.1275(28) 123322. 0.10654 0.12688
15911.2 1.50564 0.1215(29) 121226. 0.10695 0.12169
15924.4 1.50689 0.1206(29) 117713. 0.10736 0.12069
15937.6 1.50814 0.1324(29) 115409. 0.10775 0.12875
15950.9 1.50939 0.1624(30) 113201. 0.10813 0.15529
15964.1 1.51065 0.2055(31) 106584. 0.10850 0.19942
15977.4 1.51190 0.2482(31) 102406. 0.10886 0.23631
15990.7 1.51316 0.2565(32) 99907. 0.10921 0.23789
16003.9 1.51442 0.2243(32) 100480. 0.10954 0.21305
16017.2 1.51568 0.1968(31) 102943. 0.10986 0.18586
16030.5 1.51694 0.1769(31) 104205. 0.11017 0.16988
16043.9 1.51820 0.1745(31) 101746. 0.11046 0.17179
16057.2 1.51946 0.1900(32) 99981. 0.11073 0.19007
16070.5 1.52072 0.2091(32) 95843. 0.11098 0.20673
16083.9 1.52198 0.2081(33) 93569. 0.11121 0.20315
16097.3 1.52325 0.1874(33) 94027. 0.11142 0.18404
16110.6 1.52451 0.1626(32) 95230. 0.11161 0.16358
16124.0 1.52578 0.1450(32) 95078. 0.11178 0.14792
16137.4 1.52705 0.1300(32) 95119. 0.11192 0.13694
16150.8 1.52832 0.1197(33) 93337. 0.11204 0.12943
16164.3 1.52959 0.1192(33) 92477. 0.11213 0.12461
16177.7 1.53086 0.1168(33) 91276. 0.11219 0.12304
16191.1 1.53213 0.1278(34) 87067. 0.11222 0.12859
16204.6 1.53340 0.1429(35) 83603. 0.11222 0.14774
16218.0 1.53468 0.182(4) 79448. 0.1122 0.1796
16231.5 1.53595 0.210(4) 77430. 0.1121 0.2026
16245.0 1.53723 0.206(4) 73745. 0.1120 0.2001
16258.5 1.53851 0.183(4) 75567. 0.1119 0.1810
16272.0 1.53979 0.157(4) 75676. 0.1117 0.1612
16285.5 1.54107 0.137(4) 74282. 0.1115 0.1467
16299.1 1.54235 0.121(4) 73283. 0.1112 0.1376
16312.6 1.54363 0.126(4) 73077. 0.1109 0.1337
16326.2 1.54491 0.122(4) 70231. 0.1105 0.1316
16339.7 1.54619 0.122(4) 69644. 0.1101 0.1282
16353.3 1.54748 0.110(4) 66675. 0.1096 0.1234
16366.9 1.54876 0.108(4) 64264. 0.1091 0.1189
16380.5 1.55005 0.099(4) 62740. 0.1085 0.1154
16394.1 1.55134 0.102(4) 60194. 0.1079 0.1127
16407.7 1.55263 0.102(4) 58929. 0.1072 0.1106
16421.4 1.55392 0.104(4) 56380. 0.1065 0.1091
16435.0 1.55521 0.114(4) 55257. 0.1056 0.1090
16448.7 1.55650 0.112(4) 51178. 0.1047 0.1137
16462.3 1.55780 0.137(5) 48452. 0.1038 0.1318
16476.0 1.55909 0.182(5) 45148. 0.1027 0.1711
16489.7 1.56039 0.223(5) 42970. 0.1016 0.2144
16503.4 1.56168 0.235(5) 40326. 0.1004 0.2284
16517.1 1.56298 0.219(5) 40140. 0.0992 0.2089
16530.8 1.56428 0.194(5) 39377. 0.0978 0.1788
16544.6 1.56558 0.161(5) 39674. 0.0963 0.1533
16558.3 1.56688 0.138(5) 39463. 0.0948 0.1344
16572.1 1.56818 0.123(5) 39234. 0.0931 0.1207
16585.8 1.56948 0.114(5) 39427. 0.0914 0.1105
16599.6 1.57079 0.101(5) 39282. 0.0895 0.1029
16613.4 . 0.123(7) . . .
16624.0 . -0.0000220(16) . . .
loop_
_refln_index_h
_refln_index_k
_refln_index_l
_refln_observed_status
_refln_F_squared_meas
_refln_F_squared_calc
_refln_phase_calc
_refln_d_spacing
_gsas_i100_meas
9 9 9 o 1026.761 929.408 0.00 1.55790 4.24
15 3 3 o 120.483 109.059 180.00 1.55790 1.49
13 7 5 o 54.763 49.571 0.00 1.55790 1.36
11 11 1 o 2180.939 1974.152 0.00 1.55790 27.01
12 8 6 o 6.442 5.781 0.00 1.55470 0.16
14 6 4 o 8.719 58.987 0.00 1.54211 0.21
12 10 2 o 6.806 46.048 180.00 1.54211 0.16
11 11 3 o 1.573 1.759 0.00 1.53287 0.02
11 9 7 o 727.469 813.430 0.00 1.53287 16.89
13 9 1 o 4.487 5.017 180.00 1.53287 0.10
15 5 1 o 102.441 114.546 0.00 1.53287 2.38
16 0 0 o 6738.115 6980.342 0.00 1.51783 18.80
15 5 3 o 1391.088 1267.674 0.00 1.50901 30.33
13 9 3 o 149.190 135.954 180.00 1.50901 3.25
12 10 4 o 15.754 14.300 180.00 1.50611 0.34
16 2 2 o 548.469 543.363 0.00 1.49465 5.76
10 10 8 o 927.072 918.443 0.00 1.49465 9.73
14 8 2 o 0.784 0.777 180.00 1.49465 0.02
13 7 7 o 267.572 254.682 180.00 1.48623 2.75
11 11 5 o 7105.730 6763.409 180.00 1.48623 72.90
14 6 6 o 0.123 0.114 0.00 1.48346 0.00
16 4 0 o 0.005 0.005 180.00 1.47251 0.00
12 8 8 o 3516.589 3619.450 0.00 1.47251 34.76
13 9 5 o 21.205 22.640 180.00 1.46446 0.41
15 5 5 o 486.792 519.716 180.00 1.46446 4.71
15 7 1 o 49.599 52.954 180.00 1.46446 0.96
16 4 2 o 640.352 694.338 180.00 1.46180 12.30
14 8 4 o 4.129 4.477 180.00 1.46180 0.08
12 10 6 o 1809.883 1922.660 180.00 1.45132 33.77
11 9 9 o 397.948 406.799 0.00 1.44361 3.63
15 7 3 o 13.514 13.814 180.00 1.44361 0.25
12 12 0 o 3046.409 3171.365 0.00 1.43102 13.43
16 4 4 o 104.125 108.396 180.00 1.43102 0.92
11 11 7 o 117.345 122.097 180.00 1.42363 1.01
13 11 1 o 146.054 151.969 0.00 1.42363 2.52
17 1 1 o 849.819 884.240 180.00 1.42363 7.34
12 12 2 o 22.707 23.664 180.00 1.42119 0.19
16 6 2 o 19.673 19.541 0.00 1.41155 0.33
14 8 6 o 1177.945 1170.072 180.00 1.41155 19.67
14 10 0 o 18.019 17.899 0.00 1.41155 0.15
13 11 3 o 2.598 2.164 180.00 1.40445 0.04
13 9 7 o 36.978 30.801 180.00 1.40445 0.61
17 3 1 o 71.341 59.424 180.00 1.40445 1.17
15 7 5 o 0.989 0.824 0.00 1.40445 0.02
10 10 10 o 1.388 1.132 0.00 1.40211 0.00
14 10 2 o 270.905 220.989 180.00 1.40211 4.40
12 12 4 o 67.368 61.674 180.00 1.39285 0.53
15 9 1 o 34.538 34.319 0.00 1.38603 0.54
17 3 3 o 4161.126 4134.795 180.00 1.38603 32.29
16 6 4 o 47.579 41.451 180.00 1.38378 0.73
12 10 8 o 80.934 70.509 180.00 1.38378 1.25
14 10 4 o 225.664 143.830 0.00 1.37488 3.39
15 9 3 o 1.158 0.193 0.00 1.36832 0.02
13 11 5 o 3.569 0.595 180.00 1.36832 0.05
17 5 1 o 33.030 5.504 0.00 1.36832 0.49
16 8 0 o 18.119 12.701 180.00 1.35759 0.13
17 5 3 o 0.036 0.035 180.00 1.35127 0.00
11 11 9 o 58.205 57.325 0.00 1.35127 0.41
15 7 7 o 194.490 191.552 180.00 1.35127 1.36
12 12 6 o 584.898 592.427 0.00 1.34918 4.07
16 8 2 o 1966.314 1991.627 0.00 1.34918 27.40
14 8 8 o 0.133 0.135 180.00 1.34918 0.00
18 2 0 o 6.165 5.898 180.00 1.34093 0.04
16 6 6 o 5123.353 4901.316 0.00 1.34093 34.83
15 9 5 o 326.458 308.382 180.00 1.33484 4.36
13 9 9 o 879.214 830.532 180.00 1.33484 5.87
14 10 6 o 19.524 18.674 180.00 1.33283 0.26
18 2 2 o 865.418 827.754 180.00 1.33283 5.74
16 8 4 o 579.416 573.040 180.00 1.32487 7.51
17 5 5 o 3019.958 3122.683 0.00 1.31899 19.22
13 13 1 o 550.117 568.829 0.00 1.31899 3.50
13 11 7 o 192.675 199.229 0.00 1.31899 2.45
17 7 1 o 263.970 272.949 0.00 1.31899 3.36
18 4 2 o 3.127 3.088 0.00 1.30937 0.04
12 10 10 o 941.555 929.730 0.00 1.30937 5.82
14 12 2 o 1150.740 1136.288 0.00 1.30937 14.22
17 7 3 o 22.360 24.470 0.00 1.30370 0.27
13 13 3 o 1270.822 1390.719 0.00 1.30370 7.72
15 11 1 o 26.940 29.482 0.00 1.30370 0.33
12 12 8 o 133.079 166.268 180.00 1.29441 0.79
15 11 3 o 1424.352 1530.449 0.00 1.28893 16.53
15 9 7 o 144.759 155.542 0.00 1.28893 1.68
16 8 6 o 6.483 6.886 180.00 1.28712 0.07
18 4 4 o 8.150 8.656 180.00 1.28712 0.05
14 12 4 o 98.896 105.043 0.00 1.28712 1.14
14 10 8 o 385.301 418.680 180.00 1.27994 4.35
18 6 0 o 40.180 43.661 180.00 1.27994 0.23
16 10 2 o 351.025 381.436 180.00 1.27994 3.96
13 13 5 o 1563.688 1605.271 180.00 1.27464 8.68
17 7 5 o 731.001 750.440 0.00 1.27464 8.11
19 1 1 o 27.353 28.081 0.00 1.27464 0.15
11 11 11 o 12665.290 13002.094 0.00 1.27464 23.43
18 6 2 o 87.724 87.378 180.00 1.27289 0.97
17 9 1 o 19.613 20.601 180.00 1.26083 0.21
13 11 9 o 937.375 984.567 180.00 1.26083 9.96
15 11 5 o 1.450 1.523 180.00 1.26083 0.02
19 3 1 o 379.948 399.077 180.00 1.26083 4.04
16 10 4 o 37.394 38.822 0.00 1.25913 0.40
18 6 4 o 97.105 103.489 0.00 1.25242 1.00
14 12 6 o 29.328 31.256 0.00 1.25242 0.30
19 3 3 o 135.170 140.313 0.00 1.24745 0.69
17 9 3 o 4996.398 5186.498 180.00 1.24745 50.88
16 8 8 o 3822.174 3868.188 0.00 1.23930 18.96
19 5 1 o 13.808 12.880 0.00 1.23449 0.13
17 7 7 o 129.446 120.741 180.00 1.23449 0.63
13 13 7 o 962.626 897.898 0.00 1.23449 4.70
15 9 9 o 114.179 106.502 0.00 1.23449 0.56
12 12 10 o 204.364 186.406 0.00 1.23290 0.99
14 14 0 o 378.421 384.495 0.00 1.22659 0.90
16 10 6 o 700.838 712.087 180.00 1.22659 6.67
18 8 2 o 434.659 441.635 180.00 1.22659 4.14
17 9 5 o 3.241 3.354 0.00 1.22192 0.03
15 11 7 o 762.427 789.059 180.00 1.22192 7.15
15 13 1 o 5.024 5.200 180.00 1.22192 0.05
19 5 3 o 4813.452 4981.586 180.00 1.22192 45.13
14 10 10 o 1021.178 1014.851 180.00 1.22038 4.76
14 14 2 o 1.920 1.908 180.00 1.22038 0.01
18 6 6 o 52.914 52.586 180.00 1.22038 0.25
20 0 0 o 179.235 144.160 180.00 1.21426 0.20
16 12 0 o 62.305 50.112 180.00 1.21426 0.28
15 13 3 o 137.444 132.321 0.00 1.20973 1.24
14 12 8 o 692.448 668.509 180.00 1.20824 6.21
18 8 4 o 435.270 420.222 180.00 1.20824 3.90
16 12 2 o 8.331 8.043 0.00 1.20824 0.07
20 2 2 o 440.891 412.302 180.00 1.20230 1.94
14 14 4 o 195.700 183.010 0.00 1.20230 0.86
19 7 1 o 1238.357 1180.937 0.00 1.19790 10.72
13 11 11 o 654.257 623.920 180.00 1.19790 2.83
17 11 1 o 224.175 213.780 180.00 1.19790 1.94
19 5 5 o 90.125 85.946 0.00 1.19790 0.39
20 4 0 o 163.958 143.324 180.00 1.19068 0.69
16 12 4 o 388.759 339.834 180.00 1.19068 3.29
13 13 9 o 3.193 2.887 0.00 1.18641 0.01
17 9 7 o 1055.701 954.456 0.00 1.18641 8.80
19 7 3 o 516.587 467.044 180.00 1.18641 4.30
17 11 3 o 2.223 2.010 180.00 1.18641 0.02
15 13 5 o 3595.396 3250.588 0.00 1.18641 29.96
16 10 8 o 285.151 245.139 0.00 1.18500 2.36
20 4 2 o 163.920 140.919 180.00 1.18500 1.36
18 10 0 o 159.723 122.617 0.00 1.17940 0.65
18 8 6 o 52.376 40.208 180.00 1.17940 0.43
15 11 9 o 1.997 1.904 0.00 1.17525 0.02
14 14 6 o 25047.215 24374.900 0.00 1.17387 100.00
18 10 2 o 67.695 65.878 180.00 1.17387 0.54
12 12 12 o 6421.662 5921.863 180.00 1.16842 8.39
20 4 4 o 1698.075 1565.913 180.00 1.16842 6.65
17 11 5 o 6635.044 6338.720 180.00 1.16439 51.29
19 7 5 o 9.966 9.521 180.00 1.16439 0.08
16 12 6 o 1269.749 1208.039 180.00 1.16305 9.77
14 12 10 o 192.729 188.651 0.00 1.15775 1.46
18 10 4 o 0.025 0.024 0.00 1.15775 0.00
20 6 2 o 2467.452 2415.239 180.00 1.15775 18.64
15 13 7 o 183.353 178.296 0.00 1.15383 1.37
21 1 1 o 375.416 365.064 0.00 1.15383 1.40
19 9 1 o 4104.842 3991.645 0.00 1.15383 30.59
17 9 9 o 0.634 0.567 0.00 1.14355 0.00
21 3 1 o 75.690 67.760 180.00 1.14355 0.54
19 9 3 o 5.702 5.105 0.00 1.14355 0.04
15 15 1 o 0.514 0.461 0.00 1.14355 0.00
20 6 4 o 594.316 558.998 0.00 1.14228 4.25
18 8 8 o 1015.092 954.769 0.00 1.14228 3.63
16 14 2 o 772.088 719.589 0.00 1.13726 5.43
16 10 10 o 214.687 200.090 0.00 1.13726 0.76
14 14 8 o 60.445 56.335 180.00 1.13726 0.21
21 3 3 o 933.701 868.964 0.00 1.13354 3.24
17 13 1 o 56.058 52.171 0.00 1.13354 0.39
13 13 11 o 154.372 143.669 180.00 1.13354 0.54
19 7 7 o 27.318 25.424 0.00 1.13354 0.09
17 11 7 o 33.284 30.976 0.00 1.13354 0.23
15 15 3 o 110.197 102.556 0.00 1.13354 0.38
18 10 6 o 946.698 908.737 180.00 1.13231 6.54
16 12 8 o 7.835 8.068 180.00 1.12741 0.05
20 8 0 o 19429.641 20009.406 0.00 1.12741 66.00
17 13 3 o 1.148 1.061 0.00 1.12379 0.01
21 5 1 o 231.036 213.498 180.00 1.12379 1.55
15 11 11 o 7.081 6.543 0.00 1.12379 0.02
19 9 5 o 572.465 529.011 180.00 1.12379 3.84
20 8 2 o 0.128 0.111 180.00 1.12259 0.00
16 14 4 o 7.834 6.767 180.00 1.12259 0.05
18 12 2 o 73.377 82.157 0.00 1.11782 0.48
20 6 6 o 0.000 0.000 180.00 1.11782 0.00
21 5 3 o 35.783 51.354 0.00 1.11428 0.23
15 15 5 o 1392.743 1998.764 0.00 1.11428 4.51
15 13 9 o 121.322 174.112 0.00 1.11428 0.79
20 8 4 o 0.000 4.840 0.00 1.10846 0.00
17 13 5 o 0.000 104.913 180.00 1.10502 0.00
19 11 1 o 0.000 13.748 0.00 1.10502 0.00
14 12 12 o 0.000 56.079 180.00 1.10387 0.00
18 12 4 o 0.000 1.072 180.00 1.10387 0.00
22 2 0 o 406.463 721.333 0.00 1.09934 1.25
18 10 8 o 15.122 26.836 180.00 1.09934 0.09
16 14 6 o 33.227 58.966 180.00 1.09934 0.20
19 11 3 o 840.599 1007.468 0.00 1.09598 5.10
19 9 7 o 15.201 18.219 180.00 1.09598 0.09
21 5 5 o 621.643 745.047 180.00 1.09598 1.89
17 11 9 o 42.223 50.605 180.00 1.09598 0.26
21 7 1 o 2.639 3.162 180.00 1.09598 0.02
22 2 2 o 261.475 305.103 0.00 1.09486 0.79
14 14 10 o 45.762 53.397 0.00 1.09486 0.14
15 15 7 o 674.457 782.338 180.00 1.08716 1.98
21 7 3 o 616.691 715.333 0.00 1.08716 3.62
16 12 10 o 396.115 450.731 180.00 1.08607 2.32
20 8 6 o 334.205 380.285 180.00 1.08607 1.96
20 10 2 o 24.245 26.445 180.00 1.08175 0.14
22 4 2 o 1837.154 2003.890 0.00 1.08175 10.58
18 12 6 o 702.512 766.271 0.00 1.08175 4.05
17 13 7 o 175.108 189.717 0.00 1.07855 1.00
13 13 13 o 120.109 130.129 180.00 1.07855 0.11
19 11 5 o 0.936 1.014 0.00 1.07855 0.01
16 16 0 o 0.019 0.019 0.00 1.07327 0.00
15 13 11 o 162.205 168.077 180.00 1.07014 0.89
17 15 1 o 1.768 1.832 0.00 1.07014 0.01
21 7 5 o 66.365 68.768 0.00 1.07014 0.37
16 14 8 o 886.551 921.887 0.00 1.06910 4.87
22 4 4 o 31.570 32.828 0.00 1.06910 0.09
16 16 2 o 4.400 4.576 180.00 1.06910 0.01
20 10 4 o 4.994 5.193 0.00 1.06910 0.03
22 6 0 o 3015.238 3059.068 180.00 1.06498 8.16
18 14 0 o 572.567 580.890 180.00 1.06498 1.55
17 15 3 o 732.323 740.091 180.00 1.06192 3.92
19 9 9 o 6.453 6.522 180.00 1.06192 0.02
21 9 1 o 922.726 932.514 180.00 1.06192 4.93
18 14 2 o 347.521 354.240 180.00 1.06091 1.85
22 6 2 o 9.496 9.679 180.00 1.06091 0.05
18 10 10 o 0.345 0.352 0.00 1.06091 0.00
16 16 4 o 179.001 180.295 0.00 1.05688 0.47
20 8 8 o 7.983 8.041 180.00 1.05688 0.02
19 13 1 o 815.386 834.498 180.00 1.05389 4.23
21 9 3 o 71.294 72.965 180.00 1.05389 0.37
23 1 1 o 1022.417 1046.381 0.00 1.05389 2.65
19 11 7 o 0.310 0.318 180.00 1.05389 0.00
17 11 11 o 2020.693 2068.055 180.00 1.05389 5.24
15 15 9 o 164.821 168.684 0.00 1.05389 0.43
18 12 8 o 7.039 7.202 0.00 1.05290 0.04
20 10 6 o 0.027 0.027 180.00 1.04896 0.00
18 14 4 o 395.322 401.407 180.00 1.04896 2.01
22 6 4 o 372.276 378.007 180.00 1.04896 1.90
14 14 12 o 409.847 416.156 180.00 1.04896 1.04
17 15 5 o 645.736 643.401 0.00 1.04604 3.25
17 13 9 o 1368.574 1363.625 0.00 1.04604 6.89
21 7 7 o 6.707 6.683 180.00 1.04604 0.02
19 13 3 o 0.052 0.052 0.00 1.04604 0.00
23 3 1 o 568.120 566.066 0.00 1.04604 2.86
16 12 12 o 2.033 1.691 0.00 1.04122 0.01
20 12 0 o 20.977 17.453 180.00 1.04122 0.05
21 9 5 o 103.898 92.891 180.00 1.03836 0.51
23 3 3 o 3683.666 3293.413 0.00 1.03836 9.00
16 16 6 o 1862.711 1693.484 0.00 1.03741 4.54
20 12 2 o 98.545 89.592 0.00 1.03741 0.48
16 14 10 o 9.250 9.017 0.00 1.03365 0.04
22 8 2 o 347.682 338.942 0.00 1.03365 1.67
23 5 1 o 628.600 626.130 180.00 1.03085 2.99
19 13 5 o 1443.631 1437.957 180.00 1.03085 6.86
18 14 6 o 275.301 274.063 180.00 1.02992 1.30
22 6 6 o 7885.876 7850.406 0.00 1.02992 18.66
20 12 4 o 369.341 350.569 180.00 1.02624 1.72
21 11 1 o 791.106 722.979 0.00 1.02350 3.65
15 13 13 o 30.566 27.934 180.00 1.02350 0.07
19 11 9 o 12.169 11.121 0.00 1.02350 0.06
17 15 7 o 250.342 228.784 0.00 1.02350 1.16
23 5 3 o 51.688 47.236 180.00 1.02350 0.24
20 10 8 o 62.544 54.736 180.00 1.02259 0.29
22 8 4 o 157.580 137.908 180.00 1.02259 0.72
18 12 10 o 6.509 4.803 0.00 1.01899 0.03
21 11 3 o 4.657 3.984 180.00 1.01631 0.02
15 15 11 o 205.267 175.598 180.00 1.01631 0.46
21 9 7 o 154.798 132.424 0.00 1.01631 0.69
16 16 8 o 78.585 69.738 180.00 1.01189 0.17
24 0 0 o 2147.499 1905.741 0.00 1.01189 1.18
17 17 1 o 93.588 89.490 0.00 1.00926 0.20
19 13 7 o 25.430 24.316 180.00 1.00926 0.11
23 7 1 o 292.905 280.079 0.00 1.00926 1.28
17 13 11 o 201.451 192.630 0.00 1.00926 0.88
23 5 5 o 567.459 542.611 0.00 1.00926 1.24
20 12 6 o 128.645 124.919 180.00 1.00839 0.56
22 8 6 o 25.738 25.144 0.00 1.00493 0.11
22 10 0 o 2846.862 2781.146 0.00 1.00493 6.10
18 16 2 o 17.304 16.904 0.00 1.00493 0.07
18 14 8 o 466.267 455.504 0.00 1.00493 2.00
24 2 2 o 993.139 970.214 0.00 1.00493 2.13
21 11 5 o 35.590 34.711 180.00 1.00236 0.15
23 7 3 o 10.253 10.000 0.00 1.00236 0.04
17 17 3 o 8.089 7.890 0.00 1.00236 0.02
19 15 1 o 89.112 86.913 0.00 1.00236 0.38
14 14 14 o 3.412 3.234 0.00 1.00151 0.00
22 10 2 o 265.174 251.334 180.00 1.00151 1.12
24 4 0 o 506.422 380.047 180.00 0.99812 1.06
17 15 9 o 8.181 6.375 180.00 0.99560 0.03
19 15 3 o 220.956 172.189 180.00 0.99560 0.91
18 16 4 o 0.121 0.096 180.00 0.99476 0.00
16 14 12 o 44.018 34.853 180.00 0.99476 0.18
24 4 2 o 21.328 16.888 0.00 0.99476 0.09
20 14 2 o 334.152 326.131 0.00 0.99144 1.36
20 10 10 o 90.491 88.318 0.00 0.99144 0.18
22 10 4 o 8.059 7.866 0.00 0.99144 0.03
23 7 5 o 1611.317 1637.322 0.00 0.98897 6.48
21 9 9 o 11.637 11.825 180.00 0.98897 0.02
17 17 5 o 210.507 213.904 0.00 0.98897 0.42
19 11 11 o 0.374 0.380 0.00 0.98897 0.00
20 12 8 o 172.717 160.183 0.00 0.98490 0.68
24 4 4 o 27.446 25.454 0.00 0.98490 0.05
19 15 5 o 468.770 453.277 180.00 0.98248 1.84
19 13 9 o 7.405 7.160 0.00 0.98248 0.03
23 9 1 o 10.778 10.422 0.00 0.98248 0.04
21 13 1 o 12.324 11.916 180.00 0.98248 0.05
21 11 7 o 17.880 17.289 0.00 0.98248 0.07
18 12 12 o 412.439 403.034 0.00 0.98167 0.81
22 8 8 o 632.778 618.348 0.00 0.98167 1.24
20 14 4 o 497.974 486.618 180.00 0.98167 1.94
16 16 10 o 1374.317 1342.976 0.00 0.98167 2.68
24 6 2 o 63.768 60.409 0.00 0.97848 0.25
18 16 6 o 683.667 647.654 180.00 0.97848 2.64
21 13 3 o 320.720 295.110 0.00 0.97611 1.22
23 9 3 o 496.559 456.909 180.00 0.97611 1.90
15 15 13 o 99.636 91.680 180.00 0.97611 0.19
22 10 6 o 2.454 2.236 0.00 0.97532 0.01
18 14 10 o 644.787 587.312 180.00 0.97532 2.45
23 7 7 o 9.460 9.121 0.00 0.96986 0.02
25 1 1 o 34.266 33.038 180.00 0.96986 0.06
17 13 13 o 355.284 342.555 180.00 0.96986 0.66
17 17 7 o 2346.112 2262.057 180.00 0.96986 4.36
24 6 4 o 56.269 54.448 0.00 0.96909 0.21
20 14 6 o 135.225 131.541 0.00 0.96602 0.50
22 12 2 o 373.387 363.214 180.00 0.96602 1.37
25 3 1 o 94.665 84.297 180.00 0.96373 0.34
21 13 5 o 67.584 60.182 180.00 0.96373 0.25
19 15 7 o 201.466 179.401 0.00 0.96373 0.73
17 15 11 o 499.324 444.637 0.00 0.96373 1.81
23 9 5 o 0.737 0.656 180.00 0.96373 0.00
24 8 0 o 511.392 411.965 180.00 0.95996 0.91
25 3 3 o 1.249 1.051 180.00 0.95772 0.00
21 11 9 o 383.763 323.006 0.00 0.95772 1.36
18 16 8 o 0.161 0.138 180.00 0.95697 0.00
24 8 2 o 14.278 12.235 180.00 0.95697 0.05
20 12 10 o 4.186 3.587 0.00 0.95697 0.01
22 12 4 o 42.698 36.589 180.00 0.95697 0.15
24 6 6 o 100.870 98.176 0.00 0.95401 0.18
18 18 0 o 49.221 47.906 0.00 0.95401 0.04
22 10 8 o 47.747 46.472 180.00 0.95401 0.17
16 14 14 o 430.559 419.057 180.00 0.95401 0.75
25 5 1 o 16.393 16.715 0.00 0.95181 0.06
19 13 11 o 53.922 54.981 180.00 0.95181 0.19
19 17 1 o 86.512 88.211 0.00 0.95181 0.30
23 11 1 o 1835.651 1871.710 180.00 0.95181 6.34
18 18 2 o 0.024 0.025 0.00 0.95108 0.00
24 8 4 o 500.992 511.521 180.00 0.94818 1.70
20 16 0 o 12.914 13.185 0.00 0.94818 0.02
16 16 12 o 283.128 289.078 0.00 0.94818 0.48
23 11 3 o 1.067 1.079 0.00 0.94602 0.00
19 17 3 o 863.800 874.022 180.00 0.94602 2.91
21 13 7 o 141.580 143.255 180.00 0.94602 0.48
23 9 7 o 2.107 2.132 0.00 0.94602 0.01
17 17 9 o 7.103 7.187 0.00 0.94602 0.01
25 5 3 o 16.679 16.876 180.00 0.94602 0.06
20 14 8 o 13.186 12.982 0.00 0.94530 0.04
20 16 2 o 285.311 280.901 180.00 0.94530 0.96
22 12 6 o 281.840 220.967 180.00 0.94245 0.94
18 18 4 o 3.371 2.643 180.00 0.94245 0.01
18 14 12 o 10.441 8.186 0.00 0.94245 0.03
21 15 1 o 136.266 92.914 0.00 0.94033 0.45
19 15 9 o 1.715 1.169 180.00 0.94033 0.01
20 16 4 o 1.887 1.555 180.00 0.93682 0.01
15 15 15 o 0.037 0.034 180.00 0.93474 0.00
19 17 5 o 41.509 38.428 180.00 0.93474 0.13
23 11 5 o 508.487 470.743 180.00 0.93474 1.63
21 15 3 o 193.404 179.048 0.00 0.93474 0.62
25 5 5 o 65.082 60.251 180.00 0.93474 0.10
25 7 1 o 92.371 85.515 180.00 0.93474 0.30
24 8 6 o 445.360 424.413 0.00 0.93405 1.43
22 14 0 o 0.688 0.692 0.00 0.93130 0.00
18 16 10 o 139.515 140.435 180.00 0.93130 0.44
24 10 2 o 1068.090 1075.134 0.00 0.93130 3.38
26 2 0 o 86.330 86.899 180.00 0.93130 0.14
21 11 11 o 402.055 400.112 180.00 0.92925 0.63
17 15 13 o 22.469 22.360 0.00 0.92925 0.07
25 7 3 o 64.228 63.918 180.00 0.92925 0.20
26 2 2 o 18.678 18.470 180.00 0.92857 0.03
22 10 10 o 47.168 46.644 180.00 0.92857 0.07
18 18 6 o 1414.530 1398.795 180.00 0.92857 2.21
22 14 2 o 2751.614 2721.006 0.00 0.92857 8.60
20 12 12 o 2.466 2.381 0.00 0.92587 0.00
21 13 9 o 207.374 204.252 0.00 0.92385 0.64
21 15 5 o 202.964 199.908 0.00 0.92385 0.62
23 9 9 o 343.731 338.555 180.00 0.92385 0.53
24 10 4 o 261.596 261.027 180.00 0.92319 0.80
20 16 6 o 78.850 78.679 0.00 0.92319 0.24
22 12 8 o 16.696 16.660 180.00 0.92319 0.05
26 4 2 o 47.077 48.089 0.00 0.92053 0.14
22 14 4 o 13.208 13.492 180.00 0.92053 0.04
20 14 10 o 213.980 218.579 0.00 0.92053 0.65
19 13 13 o 105.123 107.217 0.00 0.91855 0.16
17 17 11 o 2906.846 2964.736 180.00 0.91855 4.35
25 7 5 o 23.564 24.033 180.00 0.91855 0.07
23 13 1 o 27.137 27.677 180.00 0.91855 0.08
23 11 7 o 42.044 42.882 180.00 0.91855 0.13
19 17 7 o 10.094 10.295 0.00 0.91855 0.03
24 8 8 o 260.320 254.409 180.00 0.91528 0.38
25 9 1 o 1178.470 1187.949 0.00 0.91334 3.45
23 13 3 o 222.114 223.901 0.00 0.91334 0.65
19 15 11 o 294.660 297.030 0.00 0.91334 0.86
26 4 4 o 0.170 0.173 0.00 0.91270 0.00
16 16 14 o 348.630 354.836 0.00 0.91270 0.51
18 18 8 o 129.167 122.175 180.00 0.91013 0.19
24 10 6 o 68.723 65.002 0.00 0.91013 0.20
26 6 0 o 320.520 303.169 180.00 0.91013 0.46
25 9 3 o 16.676 15.789 0.00 0.90822 0.05
21 15 7 o 5.892 5.579 0.00 0.90822 0.02
26 6 2 o 75.691 73.337 180.00 0.90758 0.22
22 14 6 o 36.738 35.596 0.00 0.90758 0.10
18 14 14 o 370.533 359.010 0.00 0.90758 0.53
20 16 8 o 122.722 127.147 0.00 0.90506 0.35
24 12 0 o 1731.195 1793.620 180.00 0.90506 2.44
25 7 7 o 810.047 834.010 0.00 0.90318 1.13
19 19 1 o 2000.789 2059.976 0.00 0.90318 2.80
23 13 5 o 66.744 68.719 0.00 0.90318 0.19
18 16 12 o 784.123 805.490 180.00 0.90255 2.19
24 12 2 o 649.672 667.376 180.00 0.90255 1.81
26 6 4 o 15.332 15.845 0.00 0.90007 0.04
20 18 2 o 6.038 6.240 0.00 0.90007 0.02
22 12 10 o 34.326 35.474 180.00 0.90007 0.09
25 9 5 o 2459.743 2521.778 0.00 0.89822 6.73
21 17 1 o 14.379 14.742 0.00 0.89822 0.04
27 1 1 o 1085.192 1112.560 0.00 0.89822 1.49
21 13 11 o 170.428 174.726 0.00 0.89822 0.47
19 17 9 o 177.439 181.914 180.00 0.89822 0.49
23 11 9 o 7.093 7.271 180.00 0.89822 0.02
19 19 3 o 152.691 156.542 0.00 0.89822 0.21
24 12 4 o 77.576 81.566 180.00 0.89517 0.21
17 15 15 o 258.503 286.972 0.00 0.89335 0.35
27 3 1 o 245.421 272.450 0.00 0.89335 0.66
21 17 3 o 80.319 89.165 0.00 0.89335 0.22
20 18 4 o 204.690 228.125 0.00 0.89274 0.55
24 10 8 o 299.145 333.394 0.00 0.89274 0.80
20 14 12 o 177.088 197.362 0.00 0.89274 0.47
22 16 2 o 57.808 62.748 0.00 0.89034 0.15
22 14 8 o 632.584 686.638 0.00 0.89034 1.67
26 8 2 o 5.135 5.574 0.00 0.89034 0.01
25 11 1 o 22.949 24.255 0.00 0.88855 0.06
19 19 5 o 1675.078 1770.426 180.00 0.88855 2.20
21 15 9 o 0.242 0.256 0.00 0.88855 0.00
27 3 3 o 1167.725 1234.194 0.00 0.88855 1.53
17 17 13 o 112.201 118.588 180.00 0.88855 0.15
23 13 7 o 79.846 84.391 0.00 0.88855 0.21
26 6 6 o 16.162 17.129 180.00 0.88796 0.02
18 18 10 o 9.866 10.457 180.00 0.88796 0.01
19 15 13 o 48.970 51.282 0.00 0.88383 0.13
25 11 3 o 7645.458 8006.522 180.00 0.88383 19.62
25 9 7 o 0.507 0.531 0.00 0.88383 0.00
23 15 1 o 1.737 1.819 0.00 0.88383 0.00
21 17 5 o 0.992 1.039 0.00 0.88383 0.00
27 5 1 o 637.449 667.554 180.00 0.88383 1.64
22 16 4 o 13.955 14.636 180.00 0.88325 0.04
24 12 6 o 0.516 0.542 180.00 0.88325 0.00
20 16 10 o 87.498 91.769 180.00 0.88325 0.22
26 8 4 o 103.779 108.844 0.00 0.88325 0.27
20 18 6 o 458.293 496.527 180.00 0.88092 1.16
23 15 3 o 759.114 873.372 180.00 0.87918 1.91
27 5 3 o 2.394 2.754 180.00 0.87918 0.01
16 16 16 o 689.316 692.825 180.00 0.87632 0.28
23 11 11 o 156.657 149.797 0.00 0.87461 0.19
19 19 7 o 355.754 340.175 180.00 0.87461 0.44
25 11 5 o 1.977 1.891 0.00 0.87461 0.00
19 17 11 o 84.181 80.494 180.00 0.87461 0.21
22 12 12 o 387.635 376.819 0.00 0.87405 0.48
26 10 0 o 248.153 260.239 0.00 0.87179 0.30
26 8 6 o 725.115 760.431 0.00 0.87179 1.76
24 10 10 o 425.166 445.874 180.00 0.87179 0.52
18 16 14 o 138.348 145.085 0.00 0.87179 0.34
24 14 2 o 211.934 222.254 180.00 0.87179 0.51
22 16 6 o 11.317 11.868 180.00 0.87179 0.03
21 13 13 o 1463.026 1594.148 180.00 0.87011 1.76
27 5 5 o 0.534 0.581 0.00 0.87011 0.00
21 17 7 o 57.426 62.573 0.00 0.87011 0.14
23 13 9 o 86.560 94.318 0.00 0.87011 0.21
23 15 5 o 4.161 4.534 180.00 0.87011 0.01
27 7 1 o 31.496 34.319 180.00 0.87011 0.08
26 10 2 o 146.909 160.893 180.00 0.86955 0.35
22 14 10 o 27.608 30.236 180.00 0.86955 0.07
28 0 0 o 19162.344 20628.846 0.00 0.86733 5.70
24 12 8 o 33.341 35.892 0.00 0.86733 0.08
27 7 3 o 58.716 62.935 180.00 0.86568 0.14
25 9 9 o 70.881 75.973 0.00 0.86568 0.08
21 15 11 o 92.902 99.577 0.00 0.86568 0.22
24 14 4 o 523.255 564.248 180.00 0.86513 1.23
20 18 8 o 67.041 72.293 180.00 0.86513 0.16
25 13 1 o 212.958 237.235 180.00 0.86131 0.49
25 11 7 o 94.075 104.799 0.00 0.86131 0.22
26 10 4 o 169.198 182.855 180.00 0.86294 0.39
18 18 12 o 36.718 39.681 180.00 0.86294 0.04
28 2 2 o 1549.611 1674.689 0.00 0.86294 1.81
20 14 14 o 40.786 44.078 180.00 0.86294 0.05
28 4 0 o 514.438 554.652 180.00 0.85861 0.59
20 20 0 o 7635.845 8232.746 0.00 0.85861 4.36
20 16 12 o 6.246 6.735 180.00 0.85861 0.01
17 17 15 o 11.335 13.068 0.00 0.85701 0.01
25 13 3 o 0.934 1.077 0.00 0.85701 0.00
27 7 5 o 296.921 342.308 180.00 0.85701 0.67
21 19 1 o 174.014 200.614 0.00 0.85701 0.39
23 15 7 o 19.718 22.732 0.00 0.85701 0.04
19 19 9 o 59.824 68.969 0.00 0.85701 0.07
20 20 2 o 31.456 38.362 180.00 0.85647 0.04
28 4 2 o 66.179 80.708 180.00 0.85647 0.15
26 8 8 o 108.835 132.730 180.00 0.85647 0.12
22 16 8 o 11.333 13.821 0.00 0.85647 0.03
24 14 6 o 166.978 243.485 180.00 0.85435 0.37
22 18 0 o 13.686 19.957 0.00 0.85435 0.02
19 15 15 o 66.024 90.010 0.00 0.85277 0.07
27 9 1 o 99.605 135.791 0.00 0.85277 0.22
21 17 9 o 31.902 43.491 180.00 0.85277 0.07
21 19 3 o 132.249 180.295 0.00 0.85277 0.29
26 10 6 o 225.405 298.095 180.00 0.85224 0.50
22 18 2 o 63.282 83.690 180.00 0.85225 0.14
20 20 4 o 332.085 383.956 180.00 0.85015 0.36
28 4 4 o 262.411 303.399 180.00 0.85015 0.29
27 9 3 o 240.909 269.742 0.00 0.84860 0.53
23 13 11 o 116.925 130.918 0.00 0.84860 0.25
25 13 5 o 1419.943 1589.884 180.00 0.84860 3.10
19 17 13 o 134.232 150.297 180.00 0.84860 0.29
23 17 1 o 63.131 70.687 0.00 0.84860 0.14
24 12 10 o 2.686 3.009 0.00 0.84808 0.01
26 12 2 o 1038.392 1122.174 180.00 0.84602 2.24
22 14 12 o 124.623 134.679 180.00 0.84602 0.27
28 6 2 o 0.955 1.032 180.00 0.84602 0.00
22 18 4 o 346.992 374.989 0.00 0.84602 0.75
20 18 10 o 95.945 103.687 180.00 0.84602 0.21
27 7 7 o 600.931 628.246 180.00 0.84448 0.64
23 17 3 o 27.739 29.000 0.00 0.84448 0.06
21 19 5 o 242.486 253.508 180.00 0.84448 0.52
25 11 9 o 2151.993 2249.809 180.00 0.84448 4.60
24 16 0 o 244.095 267.637 180.00 0.84194 0.26
23 15 9 o 18.721 20.395 180.00 0.84043 0.04
21 15 13 o 78.459 85.477 0.00 0.84043 0.16
27 9 5 o 38.856 42.332 0.00 0.84043 0.08
26 12 4 o 280.631 303.856 0.00 0.83992 0.59
18 16 16 o 1812.482 1962.483 0.00 0.83992 1.90
24 16 2 o 921.279 997.524 0.00 0.83992 1.93
28 6 4 o 261.889 283.563 180.00 0.83992 0.55
24 14 8 o 29.645 32.099 0.00 0.83992 0.06
20 20 6 o 18.699 20.246 180.00 0.83992 0.02
26 10 8 o 116.244 123.073 180.00 0.83792 0.24
22 16 10 o 1403.493 1485.946 0.00 0.83792 2.91
23 17 5 o 3.435 3.556 0.00 0.83643 0.01
19 19 11 o 771.538 798.614 180.00 0.83643 0.79
29 1 1 o 833.058 862.293 180.00 0.83643 0.86
25 13 7 o 178.132 184.384 0.00 0.83643 0.37
22 18 6 o 1.078 1.112 0.00 0.83593 0.00
18 18 14 o 501.396 517.095 180.00 0.83593 0.51
28 8 0 o 68.985 70.172 0.00 0.83396 0.07
24 16 4 o 1.834 1.866 180.00 0.83396 0.00
29 3 1 o 70.971 70.701 0.00 0.83249 0.14
21 17 11 o 98.101 97.727 0.00 0.83249 0.20
25 15 1 o 91.316 90.968 180.00 0.83249 0.18
21 19 7 o 5.382 5.361 180.00 0.83249 0.01
27 11 1 o 1191.749 1187.207 0.00 0.83249 2.41
20 16 14 o 980.064 973.932 180.00 0.83200 1.97
28 8 2 o 395.395 392.921 0.00 0.83200 0.80
28 6 6 o 2535.403 2498.937 180.00 0.83005 2.53
26 12 6 o 2.480 2.445 0.00 0.83005 0.00
27 11 3 o 15.304 14.592 180.00 0.82860 0.03
27 9 7 o 58.991 56.248 0.00 0.82860 0.12
25 15 3 o 0.025 0.024 0.00 0.82860 0.00
29 3 3 o 1176.818 1122.100 180.00 0.82860 1.17
20 20 8 o 39.315 34.652 180.00 0.82620 0.04
24 12 12 o 44.409 39.141 180.00 0.82620 0.04
28 8 4 o 329.104 290.069 0.00 0.82620 0.64
17 17 17 o 19983.725 17769.521 0.00 0.82477 6.48
25 11 11 o 0.035 0.031 0.00 0.82477 0.00
23 13 13 o 775.294 689.391 0.00 0.82477 0.75
23 17 7 o 26.423 23.495 0.00 0.82477 0.05
29 5 1 o 117.359 104.356 0.00 0.82477 0.23
20 18 12 o 8.444 7.607 180.00 0.82429 0.02
24 16 6 o 148.448 133.737 0.00 0.82429 0.29
24 14 10 o 85.454 79.995 180.00 0.82240 0.16
26 14 0 o 834.960 781.623 180.00 0.82240 0.80
22 18 8 o 208.241 194.938 180.00 0.82240 0.40
27 11 5 o 2.018 1.884 180.00 0.82099 0.00
25 15 5 o 446.794 417.112 0.00 0.82099 0.85
19 17 15 o 383.818 358.319 180.00 0.82099 0.73
25 13 9 o 116.902 109.136 180.00 0.82099 0.22
23 15 11 o 3.907 3.647 0.00 0.82099 0.01
29 5 3 o 0.375 0.350 0.00 0.82099 0.00
22 14 14 o 16005.159 14937.930 0.00 0.82052 15.25
26 14 2 o 44.872 41.880 180.00 0.82052 0.09
26 10 10 o 278.799 260.209 180.00 0.82052 0.27
21 21 1 o 8.127 7.679 180.00 0.81726 0.01
21 19 9 o 296.591 280.241 180.00 0.81726 0.56
26 12 8 o 947.181 900.115 180.00 0.81680 1.77
28 8 6 o 10.803 10.266 180.00 0.81680 0.02
22 16 12 o 820.395 779.630 180.00 0.81680 1.54
28 10 2 o 634.200 612.525 0.00 0.81496 1.18
26 14 4 o 412.600 398.499 180.00 0.81496 0.77
22 20 2 o 2898.902 2799.829 0.00 0.81496 5.38
21 21 3 o 1682.078 1615.370 0.00 0.81359 1.55
23 19 1 o 106.751 102.517 0.00 0.81359 0.20
27 9 9 o 911.047 874.917 0.00 0.81359 0.84
21 15 15 o 41.208 39.574 0.00 0.81359 0.04
29 7 1 o 87.249 83.789 0.00 0.81359 0.16
29 5 5 o 1833.169 1760.469 180.00 0.81359 1.69
19 19 13 o 37.114 35.642 0.00 0.81359 0.03
24 16 8 o 126.434 117.584 0.00 0.81131 0.23
27 11 7 o 97.907 89.355 180.00 0.80996 0.18
25 15 7 o 849.870 775.636 0.00 0.80996 1.54
27 13 1 o 84.072 76.729 0.00 0.80996 0.15
23 19 3 o 3777.262 3447.327 0.00 0.80996 6.84
23 17 9 o 149.486 136.429 0.00 0.80996 0.27
29 7 3 o 337.860 308.349 0.00 0.80996 0.61
21 17 13 o 1099.839 1003.771 180.00 0.80996 1.99
28 10 4 o 4.717 4.286 0.00 0.80951 0.01
20 20 10 o 21.071 19.145 0.00 0.80951 0.02
22 20 4 o 224.124 203.636 0.00 0.80951 0.40
24 18 2 o 365.645 325.101 180.00 0.80772 0.65
30 2 0 o 258.664 229.982 0.00 0.80772 0.23
18 18 16 o 1312.818 1167.246 0.00 0.80772 1.17
27 13 3 o 263.728 230.879 180.00 0.80638 0.47
21 21 5 o 33.415 29.253 180.00 0.80638 0.03
26 14 6 o 2505.726 2197.483 0.00 0.80593 4.45
22 18 10 o 226.982 199.059 180.00 0.80593 0.40
30 2 2 o 61.502 53.937 180.00 0.80593 0.05
28 8 8 o 7375.287 6606.788 0.00 0.80416 6.49
20 16 16 o 485.284 434.718 180.00 0.80416 0.43
23 19 5 o 2.696 2.425 0.00 0.80285 0.00
25 13 11 o 1100.244 989.610 180.00 0.80285 1.92
25 17 1 o 34.484 31.016 0.00 0.80285 0.06
29 7 5 o 11.356 10.214 180.00 0.80285 0.02
24 18 4 o 3.124 2.817 180.00 0.80241 0.01
24 14 12 o 163.080 147.065 180.00 0.80241 0.28
20 18 14 o 162.229 149.248 180.00 0.80066 0.28
22 20 6 o 65.353 60.124 0.00 0.80066 0.11
26 12 10 o 3.513 3.231 0.00 0.80066 0.01
28 10 6 o 42.275 38.892 180.00 0.80066 0.07
30 4 2 o 1.544 1.421 0.00 0.80066 0.00
21 19 11 o 661.993 618.544 0.00 0.79936 1.14
29 9 1 o 117.801 110.069 0.00 0.79936 0.20
27 13 5 o 2.762 2.581 0.00 0.79936 0.00
25 17 3 o 7583.325 7085.593 180.00 0.79936 13.02
23 15 13 o 1799.501 1681.391 0.00 0.79936 3.09
28 12 0 o 8413.252 8019.803 0.00 0.79720 7.14
25 15 9 o 181.829 172.882 0.00 0.79592 0.31
21 21 7 o 104.506 99.364 0.00 0.79592 0.09
27 11 9 o 62.650 59.567 0.00 0.79592 0.11
29 9 3 o 82.090 78.051 0.00 0.79592 0.14
30 4 4 o 468.495 445.404 180.00 0.79549 0.39
24 16 10 o 18.090 17.199 0.00 0.79549 0.03
28 12 2 o 1.684 1.601 180.00 0.79549 0.00
24 18 6 o 24.184 22.760 0.00 0.79379 0.04
30 6 0 o 107.322 101.003 0.00 0.79379 0.09
26 16 2 o 948.409 892.564 180.00 0.79379 1.58
26 14 8 o 58.590 55.141 0.00 0.79379 0.10
22 16 14 o 0.008 0.007 180.00 0.79379 0.00
19 17 17 o 0.284 0.263 180.00 0.79252 0.00
23 17 11 o 4232.227 3917.873 180.00 0.79252 7.02
25 17 5 o 8.940 8.276 0.00 0.79252 0.01
23 19 7 o 109.552 101.415 180.00 0.79252 0.18
29 7 7 o 0.554 0.512 0.00 0.79252 0.00
30 6 2 o 188.182 172.812 0.00 0.79210 0.31
20 20 12 o 2222.123 1968.545 0.00 0.79042 1.82
28 12 4 o 88.376 78.291 180.00 0.79042 0.15
27 13 7 o 198.105 170.805 180.00 0.78916 0.32
19 19 15 o 248.625 214.363 180.00 0.78916 0.20
29 9 5 o 70.255 60.573 180.00 0.78916 0.11
26 16 4 o 288.824 248.482 180.00 0.78875 0.47
22 20 8 o 197.221 169.674 180.00 0.78875 0.32
28 10 8 o 13.554 11.661 0.00 0.78875 0.02
22 18 12 o 590.824 524.901 180.00 0.78709 0.95
30 6 4 o 379.649 337.288 180.00 0.78709 0.61
21 17 15 o 319.776 293.526 0.00 0.78585 0.51
27 15 1 o 226.051 207.495 0.00 0.78585 0.36
25 17 7 o 558.055 538.663 0.00 0.78258 0.88
29 11 1 o 1418.958 1369.648 0.00 0.78258 2.24
21 21 9 o 23.943 23.111 0.00 0.78258 0.02
25 13 13 o 1.781 1.719 180.00 0.78258 0.00
27 15 3 o 28.234 27.253 180.00 0.78258 0.04
31 1 1 o 110.536 106.695 0.00 0.78258 0.09
28 12 6 o 220.291 212.184 180.00 0.78218 0.35
24 18 8 o 339.155 326.674 0.00 0.78218 0.53
26 12 12 o 19.819 19.090 180.00 0.78218 0.02
26 16 6 o 154.958 143.688 180.00 0.78056 0.24
22 22 0 o 1099.382 1019.424 180.00 0.78056 0.43
30 8 2 o 141.829 131.514 0.00 0.78056 0.22
24 14 14 o 179.551 166.492 0.00 0.78056 0.14
23 21 1 o 50.554 45.062 180.00 0.77935 0.08
29 9 7 o 226.967 202.314 0.00 0.77935 0.35
27 11 11 o 7.863 7.009 0.00 0.77935 0.01
23 19 9 o 1.159 1.033 0.00 0.77935 0.00
21 19 13 o 0.941 0.839 0.00 0.77935 0.00
31 3 1 o 235.725 210.121 180.00 0.77935 0.37
29 11 3 o 434.907 387.668 0.00 0.77935 0.67
25 15 11 o 328.035 292.404 180.00 0.77935 0.51
22 22 2 o 10.885 9.634 180.00 0.77895 0.01
26 14 10 o 580.626 513.874 180.00 0.77895 0.90
30 6 6 o 1.308 1.158 0.00 0.77895 0.00
18 18 18 o 122.870 108.744 180.00 0.77895 0.03
24 20 0 o 2.400 2.131 180.00 0.77735 0.00
24 16 12 o 746.766 663.032 180.00 0.77735 1.15
27 13 9 o 40.047 36.396 180.00 0.77616 0.06
31 3 3 o 0.450 0.409 180.00 0.77616 0.00
23 21 3 o 102.310 92.982 180.00 0.77616 0.16
23 15 15 o 993.330 902.769 180.00 0.77616 0.76
27 15 5 o 0.097 0.088 0.00 0.77616 0.00
30 8 4 o 73.498 67.336 0.00 0.77576 0.11
20 18 16 o 0.277 0.253 0.00 0.77576 0.00
24 20 2 o 35.632 32.645 0.00 0.77576 0.05
22 22 4 o 70.314 65.197 0.00 0.77419 0.05
28 14 2 o 329.378 305.406 180.00 0.77419 0.50
22 20 10 o 58.014 53.792 0.00 0.77419 0.09
28 10 10 o 31.818 29.503 0.00 0.77419 0.02
25 19 1 o 296.436 272.789 180.00 0.77301 0.45
23 17 13 o 32.773 30.158 180.00 0.77301 0.05
31 5 1 o 32.309 29.731 0.00 0.77301 0.05
29 11 5 o 34.944 32.156 180.00 0.77301 0.05
28 12 8 o 53.108 51.049 180.00 0.77106 0.08
24 20 4 o 652.877 627.571 180.00 0.77106 0.97
25 17 9 o 2108.292 2085.553 0.00 0.76989 3.11
23 21 5 o 996.596 985.847 0.00 0.76989 1.47
25 19 3 o 2.536 2.508 0.00 0.76989 0.00
31 5 3 o 406.795 402.408 180.00 0.76989 0.60
28 14 4 o 202.466 202.655 0.00 0.76951 0.30
20 20 14 o 20.878 20.898 180.00 0.76951 0.02
22 16 16 o 1025.808 1026.766 0.00 0.76951 0.76
26 16 8 o 2118.508 2120.487 0.00 0.76951 3.12
26 18 0 o 1.984 2.077 180.00 0.76797 0.00
24 18 10 o 239.756 251.034 0.00 0.76797 0.35
30 8 6 o 2204.924 2308.640 180.00 0.76797 3.23
30 10 0 o 119.884 125.524 0.00 0.76797 0.09
21 21 11 o 128.352 136.094 180.00 0.76682 0.09
27 15 7 o 175.232 185.801 0.00 0.76682 0.25
29 9 9 o 803.594 852.061 180.00 0.76682 0.58
26 18 2 o 979.917 1041.596 180.00 0.76644 1.42
22 22 6 o 5641.505 5996.598 0.00 0.76644 4.09
22 18 14 o 142.028 150.967 180.00 0.76644 0.21
30 10 2 o 9.056 9.626 0.00 0.76644 0.01
29 13 1 o 10.335 10.661 180.00 0.76378 0.01
19 19 17 o 231.359 238.650 0.00 0.76378 0.17
23 19 11 o 80.992 83.544 0.00 0.76378 0.12
31 7 1 o 28.521 29.419 0.00 0.76378 0.04
31 5 5 o 35.259 36.370 0.00 0.76378 0.03
25 19 5 o 899.078 927.411 180.00 0.76378 1.29
29 11 7 o 8.612 8.883 180.00 0.76378 0.01
24 20 6 o 730.234 759.295 180.00 0.76340 1.04
26 18 4 o 290.838 340.411 0.00 0.76190 0.41
30 10 4 o 673.294 788.052 0.00 0.76190 0.95
28 14 6 o 1.253 1.467 180.00 0.76190 0.00
26 14 12 o 37.283 43.638 0.00 0.76190 0.05
29 13 3 o 7.359 9.934 0.00 0.76077 0.01
31 7 3 o 10.217 13.793 180.00 0.76077 0.01
27 13 11 o 2.403 3.244 180.00 0.76077 0.00
25 15 13 o 67.671 91.357 0.00 0.76077 0.10
21 17 17 o 27.570 37.220 0.00 0.76077 0.02
27 17 1 o 186.337 251.561 0.00 0.76077 0.26
23 21 7 o 0.816 1.102 0.00 0.76077 0.00
32 0 0 o 42.183 68.754 0.00 0.75891 0.01
21 19 15 o 57.278 77.674 180.00 0.75780 0.08
27 17 3 o 8.607 11.673 180.00 0.75780 0.01
28 12 10 o 134.216 171.648 180.00 0.75744 0.19
24 16 14 o 22.006 28.143 0.00 0.75744 0.03
22 20 12 o 22.681 29.007 180.00 0.75744 0.03
30 8 8 o 103.743 132.677 0.00 0.75744 0.07
26 16 10 o 36.383 43.594 0.00 0.75597 0.05
32 2 2 o 188.400 225.742 0.00 0.75597 0.13
22 22 8 o 2.772 3.321 0.00 0.75597 0.00
29 13 5 o 0.000 0.000 180.00 0.75487 0.00
25 17 11 o 10.188 11.897 180.00 0.75487 0.01
31 7 5 o 106.531 124.397 180.00 0.75487 0.15
25 19 7 o 216.016 252.241 180.00 0.75487 0.29
27 15 9 o 23.328 27.240 180.00 0.75487 0.03
26 18 6 o 63.853 72.862 180.00 0.75451 0.09
30 10 6 o 269.458 307.475 180.00 0.75451 0.37
24 20 8 o 8.428 8.663 0.00 0.75305 0.01
28 16 0 o 5264.639 5410.909 0.00 0.75305 3.56
32 4 0 o 765.485 786.753 180.00 0.75305 0.52
31 9 1 o 17.284 17.297 180.00 0.75197 0.02
29 11 9 o 1.277 1.278 180.00 0.75197 0.00
23 17 15 o 20.386 20.402 180.00 0.75197 0.03
27 17 5 o 1800.572 1801.945 180.00 0.75197 2.42
28 14 8 o 71.547 71.298 0.00 0.75161 0.10
28 16 2 o 2.456 2.448 180.00 0.75161 0.00
32 4 2 o 16.987 16.927 180.00 0.75161 0.02
24 18 12 o 3.632 3.620 180.00 0.75161 0.00
30 12 2 o 3456.935 3422.440 0.00 0.75017 4.60
20 18 18 o 354.368 350.832 0.00 0.75017 0.24
23 21 9 o 103.863 104.158 0.00 0.74910 0.14
21 21 13 o 133.128 133.507 0.00 0.74910 0.09
31 9 3 o 152.799 153.233 0.00 0.74910 0.20
20 20 16 o 1448.834 1483.105 0.00 0.74733 0.95
28 16 4 o 1443.407 1477.551 180.00 0.74733 1.89
32 4 4 o 63.721 65.228 0.00 0.74733 0.04
29 13 7 o 49.406 50.654 0.00 0.74627 0.06
23 19 13 o 764.777 784.102 180.00 0.74627 1.00
23 23 1 o 226.017 231.728 0.00 0.74627 0.15
31 7 7 o 745.113 763.941 180.00 0.74627 0.49
30 12 4 o 286.828 295.315 0.00 0.74592 0.37
26 18 8 o 22.929 24.251 180.00 0.74451 0.03
24 22 2 o 165.809 175.371 0.00 0.74451 0.21
32 6 2 o 92.503 97.837 180.00 0.74451 0.12
30 10 8 o 18.977 20.072 0.00 0.74451 0.02
22 18 16 o 991.156 1048.312 180.00 0.74451 1.28
31 9 5 o 2072.926 2235.150 180.00 0.74346 2.66
25 21 1 o 33.204 35.802 180.00 0.74346 0.04
27 17 7 o 1588.265 1712.561 0.00 0.74346 2.04
27 13 13 o 901.019 971.532 180.00 0.74346 0.58
29 15 1 o 1.407 1.518 0.00 0.74346 0.00
25 19 9 o 44.153 47.608 0.00 0.74346 0.06
23 23 3 o 0.196 0.212 0.00 0.74346 0.00
26 14 14 o 103.320 112.382 180.00 0.74312 0.07
22 22 10 o 29.956 32.583 0.00 0.74312 0.02
28 12 12 o 47.970 52.665 180.00 0.74173 0.03
29 15 3 o 602.586 620.347 0.00 0.74069 0.76
27 15 11 o 94.817 97.612 0.00 0.74069 0.12
25 15 15 o 320.228 329.667 0.00 0.74069 0.20
25 21 3 o 52.945 54.506 180.00 0.74069 0.07
28 16 6 o 79.230 79.694 0.00 0.74035 0.10
24 20 10 o 5.215 5.246 180.00 0.74035 0.01
24 22 4 o 32.729 32.921 180.00 0.74035 0.04
26 16 12 o 45.544 45.810 0.00 0.74035 0.06
32 6 4 o 0.974 0.980 180.00 0.74035 0.00
28 14 10 o 1.049 1.030 0.00 0.73898 0.00
22 20 14 o 232.742 228.515 180.00 0.73898 0.29
26 20 2 o 7.956 7.811 0.00 0.73898 0.01
30 12 6 o 0.372 0.365 180.00 0.73898 0.00
23 23 5 o 61.025 61.685 0.00 0.73795 0.04
31 11 1 o 291.294 294.447 0.00 0.73795 0.36
25 17 13 o 657.319 664.432 0.00 0.73795 0.82
29 11 11 o 28.629 28.939 180.00 0.73795 0.02
19 19 19 o 0.391 0.395 180.00 0.73795 0.00
24 16 16 o 36.239 37.307 180.00 0.73625 0.02
32 8 0 o 66.005 67.951 180.00 0.73625 0.04
25 21 5 o 507.804 516.561 180.00 0.73524 0.62
27 19 1 o 48.865 49.708 0.00 0.73524 0.06
33 1 1 o 29.234 29.738 0.00 0.73524 0.02
31 9 7 o 375.196 381.667 0.00 0.73524 0.46
31 11 3 o 7893.271 8029.397 0.00 0.73524 9.70
29 13 9 o 10.505 10.686 180.00 0.73524 0.01
23 21 11 o 1490.533 1516.238 0.00 0.73524 1.83
29 15 5 o 36.792 37.426 180.00 0.73524 0.05
21 19 17 o 149.737 152.319 0.00 0.73524 0.18
26 20 4 o 216.103 219.453 180.00 0.73490 0.27
32 8 2 o 18.784 19.075 0.00 0.73490 0.02
32 6 6 o 3.300 3.304 0.00 0.73356 0.00
24 18 14 o 0.130 0.130 0.00 0.73356 0.00
24 22 6 o 834.582 835.495 180.00 0.73356 1.02
30 14 0 o 265.960 266.251 0.00 0.73356 0.16
27 19 3 o 329.537 325.385 0.00 0.73256 0.40
27 17 9 o 13.497 13.327 180.00 0.73256 0.02
33 3 1 o 17.272 17.054 0.00 0.73256 0.02
26 18 10 o 91.032 90.113 180.00 0.73223 0.11
30 14 2 o 137.952 136.560 180.00 0.73223 0.17
30 10 10 o 54.282 53.734 0.00 0.73223 0.03
32 8 4 o 185.403 188.800 180.00 0.73090 0.22
28 16 8 o 0.094 0.096 0.00 0.73090 0.00
25 19 11 o 3726.998 3799.674 180.00 0.72991 4.45
21 21 15 o 92.501 94.305 180.00 0.72991 0.06
23 23 7 o 1119.547 1141.377 180.00 0.72991 0.67
33 3 3 o 606.634 618.463 180.00 0.72991 0.36
23 17 17 o 2696.820 2749.408 180.00 0.72991 1.61
31 11 5 o 44.887 45.763 180.00 0.72991 0.05
30 12 8 o 349.575 355.395 180.00 0.72958 0.42
26 20 6 o 21.141 21.453 180.00 0.72827 0.03
22 22 12 o 9940.064 10086.792 0.00 0.72827 5.88
28 18 2 o 14.427 14.640 0.00 0.72827 0.02
30 14 4 o 361.084 366.414 0.00 0.72827 0.43
27 19 5 o 0.465 0.479 0.00 0.72729 0.00
33 5 1 o 489.986 503.955 0.00 0.72729 0.58
25 21 7 o 197.123 202.742 0.00 0.72729 0.23
29 15 7 o 0.132 0.136 0.00 0.72729 0.00
23 19 15 o 33.034 33.976 0.00 0.72729 0.04
24 20 12 o 632.689 650.644 180.00 0.72566 0.74
27 15 13 o 112.570 114.734 180.00 0.72469 0.13
31 9 9 o 11.633 11.857 180.00 0.72469 0.01
33 5 3 o 4.698 4.788 0.00 0.72469 0.01
32 8 6 o 18.021 18.397 180.00 0.72437 0.02
24 22 8 o 227.457 232.211 0.00 0.72437 0.26
20 20 18 o 4.482 4.575 180.00 0.72437 0.00
28 18 4 o 0.000 0.000 0.00 0.72437 0.00
28 14 12 o 219.847 224.442 180.00 0.72437 0.25
32 10 2 o 502.628 531.771 0.00 0.72308 0.58
26 16 14 o 118.540 125.413 0.00 0.72308 0.14
29 17 1 o 730.835 804.545 180.00 0.72212 0.84
29 13 11 o 51.112 56.267 0.00 0.72212 0.06
31 13 1 o 180.553 198.764 0.00 0.72212 0.21
31 11 7 o 6.541 7.201 0.00 0.72212 0.01
22 18 18 o 338.077 376.505 180.00 0.72180 0.19
30 14 6 o 889.829 990.974 0.00 0.72180 1.02
27 17 11 o 7.746 8.443 180.00 0.71958 0.01
31 13 3 o 327.778 357.273 180.00 0.71958 0.37
25 17 15 o 14.136 15.408 180.00 0.71958 0.02
29 17 3 o 47.740 52.036 0.00 0.71958 0.05
23 21 13 o 374.609 408.319 0.00 0.71958 0.42
33 5 5 o 750.558 818.097 180.00 0.71958 0.42
23 23 9 o 34.912 38.053 0.00 0.71958 0.02
27 19 7 o 977.302 1065.244 180.00 0.71958 1.10
33 7 1 o 77.312 84.269 180.00 0.71958 0.09
28 16 10 o 220.948 237.928 0.00 0.71927 0.25
26 20 8 o 0.544 0.585 180.00 0.71927 0.00
32 10 4 o 68.394 73.650 0.00 0.71927 0.08
22 20 16 o 4.719 5.082 0.00 0.71927 0.01
30 12 10 o 60.019 62.756 0.00 0.71801 0.07
28 18 6 o 2469.177 2581.793 0.00 0.71801 2.76
26 18 12 o 252.767 264.296 180.00 0.71801 0.28
33 7 3 o 200.101 206.565 0.00 0.71707 0.22
29 15 9 o 1.079 1.114 180.00 0.71707 0.00
25 21 9 o 147.360 152.121 180.00 0.71707 0.16
24 24 0 o 12.194 12.099 180.00 0.71551 0.00
32 8 8 o 339.643 337.001 180.00 0.71551 0.19
31 13 5 o 241.453 240.306 0.00 0.71458 0.26
25 19 13 o 37.974 37.794 180.00 0.71458 0.04
29 17 5 o 1538.944 1531.631 0.00 0.71458 1.69
25 23 1 o 102.811 102.323 0.00 0.71458 0.11
24 24 2 o 74.576 74.510 0.00 0.71427 0.04
24 18 16 o 122.507 122.398 0.00 0.71427 0.13
32 10 6 o 429.524 430.388 0.00 0.71304 0.47
24 22 10 o 264.889 265.422 0.00 0.71304 0.29
30 14 8 o 136.743 137.018 180.00 0.71304 0.15
26 22 0 o 52.205 52.310 180.00 0.71304 0.03
30 16 2 o 2539.230 2544.338 0.00 0.71304 2.76
34 2 0 o 3.024 3.030 0.00 0.71304 0.00
33 7 5 o 1181.133 1179.298 0.00 0.71212 1.28
25 23 3 o 7.729 7.717 180.00 0.71212 0.01
21 19 19 o 10.275 10.259 180.00 0.71212 0.01
31 11 9 o 244.534 244.154 180.00 0.71212 0.26
22 22 14 o 18.461 18.464 0.00 0.71181 0.01
34 2 2 o 15.471 15.473 180.00 0.71181 0.01
26 22 2 o 24.879 24.882 0.00 0.71181 0.03
32 12 0 o 1392.952 1431.427 180.00 0.71059 0.75
24 24 4 o 139.238 143.084 0.00 0.71059 0.07
27 21 1 o 108.155 114.257 180.00 0.70968 0.12
33 9 1 o 37.985 40.127 180.00 0.70968 0.04
21 21 17 o 366.316 386.981 180.00 0.70968 0.20
27 19 9 o 1988.783 2100.978 0.00 0.70968 2.12
32 12 2 o 55.607 59.184 0.00 0.70938 0.06
28 18 8 o 0.798 0.850 180.00 0.70938 0.00
24 20 14 o 121.887 129.727 0.00 0.70938 0.13
30 16 4 o 655.283 697.432 180.00 0.70938 0.70
26 22 4 o 0.135 0.145 180.00 0.70817 0.00
28 14 14 o 301.565 323.868 0.00 0.70817 0.16
34 4 2 o 67.911 72.934 180.00 0.70817 0.07
26 20 10 o 803.384 862.800 180.00 0.70817 0.85
25 23 5 o 0.216 0.231 0.00 0.70727 0.00
33 9 3 o 351.607 377.504 180.00 0.70727 0.37
27 21 3 o 9.544 10.247 180.00 0.70727 0.01
27 15 15 o 49.313 52.945 0.00 0.70727 0.03
23 19 17 o 33.496 35.963 0.00 0.70727 0.04
31 13 7 o 4.675 5.019 180.00 0.70727 0.00
29 13 13 o 2.413 2.591 0.00 0.70727 0.00
29 17 7 o 577.743 620.295 0.00 0.70727 0.61
23 23 11 o 4784.171 5136.539 0.00 0.70727 2.52
32 12 4 o 667.476 738.337 180.00 0.70578 0.70
28 20 0 o 5.195 5.746 0.00 0.70578 0.00
28 16 12 o 1.905 2.108 180.00 0.70578 0.00
33 7 7 o 0.370 0.422 180.00 0.70488 0.00
29 15 11 o 2.066 2.358 0.00 0.70488 0.00
27 17 13 o 9.723 11.097 0.00 0.70488 0.01
25 21 11 o 144.105 164.463 180.00 0.70488 0.15
31 15 1 o 5.966 6.809 180.00 0.70488 0.01
30 12 12 o 0.253 0.291 180.00 0.70459 0.00
24 24 6 o 2.644 3.041 180.00 0.70459 0.00
28 20 2 o 204.283 235.025 180.00 0.70459 0.21
34 4 4 o 74.371 85.563 180.00 0.70459 0.04
32 10 8 o 0.596 0.685 180.00 0.70459 0.00
26 16 16 o 65.435 75.282 180.00 0.70459 0.03
34 6 0 o 300.969 353.536 0.00 0.70340 0.15
30 16 6 o 14.555 17.097 0.00 0.70340 0.01
31 15 3 o 104.672 131.410 0.00 0.70252 0.11
23 21 15 o 230.818 289.775 0.00 0.70252 0.24
33 9 5 o 34.740 43.613 0.00 0.70252 0.04
27 21 5 o 0.148 0.186 0.00 0.70252 0.00
26 22 6 o 42.242 54.661 180.00 0.70223 0.04
26 18 14 o 253.519 328.051 180.00 0.70223 0.26
30 14 10 o 0.143 0.185 0.00 0.70223 0.00
34 6 2 o 12.703 16.437 180.00 0.70223 0.01
28 20 4 o 82.129 108.176 180.00 0.70105 0.08
20 20 20 o 60.359 79.502 0.00 0.70105 0.01
31 11 11 o 0.913 1.077 180.00 0.70018 0.00
25 17 17 o 1.418 1.673 0.00 0.70018 0.00
25 23 7 o 44.983 53.067 180.00 0.70018 0.05
29 19 1 o 44.920 52.993 180.00 0.70018 0.05
24 22 12 o 0.071 0.081 0.00 0.69989 0.00
32 12 6 o 61.131 69.426 180.00 0.69989 0.06
34 6 4 o 152.350 157.707 0.00 0.69873 0.15
22 20 18 o 5.352 5.540 0.00 0.69873 0.01
28 18 10 o 0.975 1.009 0.00 0.69873 0.00
25 19 15 o 3.889 3.974 180.00 0.69786 0.00
29 19 3 o 261.245 266.970 180.00 0.69786 0.26
29 17 9 o 61.125 62.464 0.00 0.69786 0.06
33 11 1 o 3235.618 3306.527 180.00 0.69786 3.23
27 19 11 o 582.152 594.910 180.00 0.69786 0.58
31 15 5 o 118.570 121.168 180.00 0.69786 0.12
31 13 9 o 215.954 220.687 0.00 0.69786 0.22
24 24 8 o 1300.381 1355.723 180.00 0.69643 0.64
33 9 7 o 100.218 104.792 180.00 0.69557 0.10
27 21 7 o 1.775 1.856 180.00 0.69557 0.00
33 11 3 o 62.743 65.606 180.00 0.69557 0.06
30 16 8 o 432.999 450.954 0.00 0.69528 0.43
28 20 6 o 5.013 5.221 180.00 0.69528 0.00
26 20 12 o 114.365 119.107 0.00 0.69528 0.11
26 22 8 o 1671.501 1685.886 180.00 0.69415 1.63
34 8 2 o 13.277 13.392 0.00 0.69415 0.01
30 18 0 o 645.470 651.024 180.00 0.69415 0.32
32 14 2 o 300.675 303.262 180.00 0.69415 0.29
22 22 16 o 293.614 296.140 0.00 0.69415 0.14
32 10 10 o 84.387 85.113 0.00 0.69415 0.04
24 18 18 o 241.886 243.967 180.00 0.69415 0.12
29 19 5 o 64.753 64.776 0.00 0.69330 0.06
23 23 13 o 231.858 231.941 180.00 0.69330 0.11
35 1 1 o 17.286 17.292 180.00 0.69330 0.01
30 18 2 o 0.229 0.229 180.00 0.69302 0.00
34 6 6 o 5155.737 5168.182 0.00 0.69302 2.50
32 12 8 o 109.730 109.551 180.00 0.69189 0.11
24 20 16 o 155.485 155.232 180.00 0.69189 0.15
35 3 1 o 56.892 55.513 180.00 0.69105 0.05
31 15 7 o 639.122 623.635 180.00 0.69105 0.61
25 23 9 o 2311.270 2255.267 180.00 0.69105 2.22
25 21 13 o 13.611 13.281 180.00 0.69105 0.01
29 15 13 o 150.745 147.092 0.00 0.69105 0.14
33 11 5 o 131.876 128.681 180.00 0.69105 0.13
34 8 4 o 252.801 245.249 180.00 0.69077 0.24
32 14 4 o 1.603 1.555 0.00 0.69077 0.00
28 16 14 o 100.724 97.715 0.00 0.69077 0.10
30 18 4 o 328.245 317.703 180.00 0.68965 0.31
30 14 12 o 14.917 14.438 180.00 0.68965 0.01
35 3 3 o 119.903 116.863 180.00 0.68882 0.06
27 17 15 o 83.273 81.161 0.00 0.68882 0.08
21 21 19 o 0.134 0.131 0.00 0.68882 0.00
28 20 8 o 12736.259 12681.667 0.00 0.68744 11.96
33 9 9 o 3616.492 3664.730 0.00 0.68662 1.69
29 19 7 o 864.974 876.511 0.00 0.68662 0.81
31 17 1 o 255.189 258.593 0.00 0.68662 0.24
31 13 11 o 150.991 153.005 180.00 0.68662 0.14
25 25 1 o 757.569 767.674 0.00 0.68662 0.35
27 21 9 o 519.973 526.908 0.00 0.68662 0.49
29 17 11 o 434.995 440.797 180.00 0.68662 0.41
23 19 19 o 491.294 497.847 0.00 0.68662 0.23
35 5 1 o 130.466 132.206 0.00 0.68662 0.12
28 18 12 o 185.766 189.000 180.00 0.68634 0.17
24 24 10 o 390.780 397.584 0.00 0.68634 0.18
34 8 6 o 56.617 57.216 180.00 0.68525 0.05
34 10 0 o 5674.837 5734.877 180.00 0.68525 2.63
26 24 2 o 1.428 1.444 0.00 0.68525 0.00
26 18 16 o 50.815 51.353 180.00 0.68525 0.05
24 22 14 o 299.448 302.617 0.00 0.68525 0.28
32 14 6 o 395.789 399.977 180.00 0.68525 0.37
30 16 10 o 34.639 35.005 180.00 0.68525 0.03
23 21 17 o 8.662 8.589 0.00 0.68443 0.01
31 17 3 o 5063.002 5020.124 180.00 0.68443 4.67
33 13 1 o 0.005 0.005 180.00 0.68443 0.00
27 19 13 o 459.967 456.072 180.00 0.68443 0.42
27 23 1 o 38.074 37.752 180.00 0.68443 0.04
25 25 3 o 0.705 0.699 180.00 0.68443 0.00
35 5 3 o 74.036 73.409 180.00 0.68443 0.07
33 11 7 o 163.560 162.175 180.00 0.68443 0.15
34 10 2 o 237.023 233.606 180.00 0.68416 0.22
26 22 10 o 184.440 181.781 180.00 0.68416 0.17
30 18 6 o 30.416 29.977 180.00 0.68416 0.03
27 23 3 o 25.988 24.474 180.00 0.68227 0.02
31 15 9 o 6.571 6.189 0.00 0.68227 0.01
33 13 3 o 3.147 2.964 0.00 0.68227 0.00
32 12 10 o 1.522 1.427 180.00 0.68200 0.00
26 24 4 o 6.508 6.104 180.00 0.68200 0.01
26 20 14 o 85.802 81.163 180.00 0.68092 0.08
28 22 2 o 1.161 1.098 0.00 0.68092 0.00
34 10 4 o 3.181 3.009 0.00 0.68092 0.00
25 19 17 o 3452.852 3353.187 180.00 0.68012 3.11
25 25 5 o 750.232 728.577 0.00 0.68012 0.34
35 5 5 o 814.968 791.445 0.00 0.68012 0.37
31 17 5 o 2.963 2.878 180.00 0.68012 0.00
25 23 11 o 56.223 54.600 0.00 0.68012 0.05
35 7 1 o 173.810 168.793 0.00 0.68012 0.16
32 16 0 o 0.598 0.597 180.00 0.67879 0.00
27 23 5 o 1211.295 1191.922 180.00 0.67800 1.08
33 13 5 o 398.162 391.794 180.00 0.67800 0.35
23 23 15 o 101.686 100.060 0.00 0.67800 0.05
35 7 3 o 289.042 284.419 180.00 0.67800 0.26
29 19 9 o 2074.808 2041.625 0.00 0.67800 1.84
29 21 1 o 12.326 12.128 180.00 0.67800 0.01
28 22 4 o 101.143 98.828 180.00 0.67774 0.09
34 8 8 o 563.587 550.689 0.00 0.67774 0.25
22 20 20 o 20.567 20.097 180.00 0.67774 0.01
28 20 10 o 40.948 40.011 180.00 0.67774 0.04
32 14 8 o 3.437 3.358 180.00 0.67774 0.00
32 16 2 o 74.225 72.526 180.00 0.67774 0.07
26 24 6 o 183.298 175.259 0.00 0.67668 0.16
30 18 8 o 91.548 87.533 0.00 0.67668 0.08
29 15 15 o 75.340 71.264 0.00 0.67590 0.03
25 21 15 o 596.725 564.442 0.00 0.67590 0.52
27 21 11 o 0.800 0.757 0.00 0.67590 0.00
33 11 9 o 19.603 18.542 180.00 0.67590 0.02
29 21 3 o 53.629 50.727 0.00 0.67590 0.05
34 10 6 o 98.580 92.990 180.00 0.67563 0.09
30 14 14 o 134.139 126.532 0.00 0.67563 0.06
22 22 18 o 19.207 18.118 0.00 0.67563 0.01
24 24 12 o 10.233 9.594 0.00 0.67459 0.00
28 16 16 o 4337.260 4066.233 0.00 0.67459 1.89
36 0 0 o 42.305 39.661 0.00 0.67459 0.00
32 16 4 o 156.152 146.394 180.00 0.67459 0.14
31 17 7 o 106.279 98.502 0.00 0.67381 0.09
25 25 7 o 119.893 111.119 0.00 0.67381 0.05
31 13 13 o 104.730 97.066 0.00 0.67381 0.05
35 7 5 o 5.352 4.960 0.00 0.67381 0.00
29 17 13 o 95.920 88.901 180.00 0.67381 0.08
24 20 18 o 84.623 77.831 180.00 0.67355 0.07
30 16 12 o 10.015 9.211 180.00 0.67355 0.01
34 12 2 o 188.190 166.463 0.00 0.67252 0.16
28 18 14 o 392.221 346.940 180.00 0.67252 0.34
28 22 6 o 1960.155 1733.859 180.00 0.67252 1.69
26 22 12 o 6.784 6.001 0.00 0.67252 0.01
36 2 2 o 136.255 120.525 180.00 0.67252 0.06
30 20 2 o 85.298 75.450 0.00 0.67252 0.07
27 17 17 o 2804.810 2446.850 0.00 0.67175 1.20
27 23 7 o 156.215 136.278 180.00 0.67175 0.13
33 13 7 o 46.295 40.386 180.00 0.67175 0.04
31 15 11 o 11.774 10.272 0.00 0.67175 0.01
35 9 1 o 315.442 275.184 0.00 0.67175 0.27
29 21 5 o 40.759 35.557 180.00 0.67175 0.03
36 4 0 o 2.581 2.302 180.00 0.67046 0.00
32 12 12 o 623.268 555.794 0.00 0.67046 0.26
33 15 1 o 33.612 30.616 0.00 0.66970 0.03
35 9 3 o 48.233 43.934 180.00 0.66970 0.04
27 19 15 o 96.044 87.483 180.00 0.66970 0.08
32 16 6 o 1.096 1.004 180.00 0.66944 0.00
36 4 2 o 42.416 38.869 0.00 0.66944 0.04
34 12 4 o 8.528 7.815 180.00 0.66944 0.01
26 24 8 o 19.009 17.420 180.00 0.66944 0.02
24 22 16 o 46.987 43.058 0.00 0.66944 0.04
30 20 4 o 2.469 2.262 180.00 0.66944 0.00
32 14 10 o 166.437 157.251 180.00 0.66843 0.14
34 10 8 o 842.811 796.291 0.00 0.66843 0.71
25 23 13 o 1268.935 1241.903 0.00 0.66767 1.06
29 19 11 o 121.466 118.879 0.00 0.66767 0.10
35 7 7 o 258.053 252.556 0.00 0.66767 0.11
31 19 1 o 291.256 285.053 0.00 0.66767 0.24
21 21 21 o 568.884 556.765 180.00 0.66767 0.08
33 15 3 o 631.921 618.460 0.00 0.66767 0.53
26 18 18 o 2.313 2.292 0.00 0.66742 0.00
30 18 10 o 0.516 0.512 0.00 0.66742 0.00
28 20 12 o 292.431 298.972 180.00 0.66641 0.24
36 4 4 o 456.868 467.087 180.00 0.66641 0.19
25 25 9 o 336.957 345.341 0.00 0.66566 0.14
31 17 9 o 240.391 246.372 180.00 0.66566 0.20
35 9 5 o 101.436 103.960 0.00 0.66566 0.08
29 21 7 o 35.124 35.998 180.00 0.66566 0.03
23 21 19 o 69.269 70.992 180.00 0.66566 0.06
33 11 11 o 41.296 42.324 180.00 0.66566 0.02
31 19 3 o 44.646 45.757 180.00 0.66566 0.04
28 22 8 o 4.936 5.051 0.00 0.66541 0.00
26 20 16 o 381.653 390.525 180.00 0.66541 0.31
34 12 6 o 416.521 424.995 180.00 0.66441 0.34
36 6 2 o 934.654 953.671 180.00 0.66441 0.77
30 20 6 o 198.884 202.931 180.00 0.66441 0.16
27 21 13 o 343.878 352.119 180.00 0.66367 0.28
33 13 9 o 25.615 26.229 0.00 0.66367 0.02
33 15 5 o 120.325 123.209 0.00 0.66367 0.10
27 23 9 o 9.119 9.337 0.00 0.66367 0.01
32 16 8 o 87.676 89.068 180.00 0.66243 0.07
35 11 1 o 1503.282 1509.256 0.00 0.66170 1.21
25 19 19 o 201.392 202.192 0.00 0.66170 0.08
23 23 17 o 0.405 0.407 180.00 0.66170 0.00
31 19 5 o 682.066 684.777 180.00 0.66170 0.55
24 24 14 o 257.110 257.712 0.00 0.66145 0.10
36 6 4 o 174.961 175.370 180.00 0.66145 0.14
32 18 2 o 95.708 96.453 180.00 0.66047 0.08
26 26 0 o 640.541 645.526 0.00 0.66047 0.13
26 24 10 o 15.627 15.749 0.00 0.66047 0.01
34 14 0 o 4.939 4.977 180.00 0.66047 0.00
30 16 14 o 89.223 89.918 180.00 0.66047 0.07
25 21 17 o 18.865 19.053 0.00 0.65974 0.02
29 17 15 o 269.671 272.356 0.00 0.65974 0.21
31 15 13 o 80.069 80.866 0.00 0.65974 0.06
35 9 7 o 136.916 138.279 0.00 0.65974 0.11
27 25 1 o 89.481 90.371 0.00 0.65974 0.07
35 11 3 o 183.838 185.668 180.00 0.65974 0.15
26 26 2 o 15.775 15.913 0.00 0.65950 0.01
34 14 2 o 1503.245 1516.365 0.00 0.65950 1.20
34 10 10 o 333.834 336.747 180.00 0.65950 0.13
26 22 14 o 1959.094 1976.192 0.00 0.65950 1.56
36 8 0 o 10238.927 10266.925 0.00 0.65853 4.05
28 24 0 o 116.226 116.544 180.00 0.65853 0.05
29 21 9 o 728.978 722.531 180.00 0.65780 0.57
27 25 3 o 3.458 3.427 180.00 0.65780 0.00
33 15 7 o 430.491 426.683 180.00 0.65780 0.34
28 18 16 o 276.531 271.882 0.00 0.65756 0.22
32 14 12 o 17.528 17.234 0.00 0.65756 0.01
36 8 2 o 6.074 5.972 180.00 0.65756 0.00
34 12 8 o 4.202 4.131 0.00 0.65756 0.00
30 20 8 o 67.372 66.240 180.00 0.65756 0.05
28 24 2 o 17.906 17.605 0.00 0.65756 0.01
32 18 4 o 23.666 23.268 180.00 0.65756 0.02
26 26 4 o 334.853 313.887 0.00 0.65660 0.13
28 22 10 o 176.091 165.065 180.00 0.65660 0.14
34 14 4 o 81.701 76.586 0.00 0.65660 0.06
30 18 12 o 212.813 199.488 0.00 0.65660 0.17
22 22 20 o 1.668 1.564 180.00 0.65660 0.00
36 6 6 o 71.264 66.802 0.00 0.65660 0.03
31 19 7 o 3.607 3.302 180.00 0.65588 0.00
35 11 5 o 183.164 167.681 180.00 0.65588 0.14
29 23 1 o 2.222 2.034 0.00 0.65588 0.00
25 25 11 o 2049.103 1875.891 180.00 0.65588 0.80
29 19 13 o 586.405 536.836 180.00 0.65588 0.46
31 17 11 o 0.047 0.043 0.00 0.65588 0.00
37 1 1 o 127.898 117.087 180.00 0.65588 0.05
36 8 4 o 20.971 19.039 0.00 0.65469 0.02
28 24 4 o 159.155 144.488 180.00 0.65469 0.12
24 20 20 o 776.614 705.045 180.00 0.65469 0.30
27 25 5 o 75.309 67.605 0.00 0.65397 0.06
33 13 11 o 581.755 522.240 0.00 0.65397 0.45
29 23 3 o 63.922 57.383 0.00 0.65397 0.05
37 3 1 o 0.008 0.007 180.00 0.65397 0.00
27 23 11 o 0.061 0.055 180.00 0.65397 0.00
25 23 15 o 156.444 140.439 0.00 0.65397 0.12
33 17 1 o 36.419 32.693 0.00 0.65397 0.03
27 19 17 o 196.580 176.469 0.00 0.65397 0.15
28 20 14 o 447.457 400.532 180.00 0.65374 0.34
32 16 10 o 109.023 97.590 0.00 0.65374 0.08
24 22 18 o 20.315 18.532 0.00 0.65279 0.02
30 22 0 o 127.935 116.706 0.00 0.65279 0.05
32 18 6 o 22.982 20.964 180.00 0.65279 0.02
33 17 3 o 14.085 13.551 180.00 0.65209 0.01
35 9 9 o 893.516 859.663 0.00 0.65209 0.34
37 3 3 o 15.740 15.144 180.00 0.65209 0.01
26 26 6 o 145.248 142.940 180.00 0.65185 0.06
34 14 6 o 30.901 30.410 180.00 0.65185 0.02
30 22 2 o 383.318 377.227 0.00 0.65185 0.29
29 23 5 o 3.803 4.181 180.00 0.65021 0.00
27 21 15 o 76.211 83.776 180.00 0.65021 0.06
33 15 9 o 426.401 468.729 180.00 0.65021 0.32
35 13 1 o 90.620 99.616 180.00 0.65021 0.07
35 11 7 o 62.193 68.367 180.00 0.65021 0.05
37 5 1 o 0.545 0.599 0.00 0.65021 0.00
28 24 6 o 107.562 118.382 0.00 0.64998 0.08
26 24 12 o 352.346 387.791 180.00 0.64998 0.26
36 8 6 o 1058.261 1164.718 0.00 0.64998 0.79
34 12 10 o 290.509 316.571 0.00 0.64905 0.22
26 20 18 o 690.510 752.457 0.00 0.64905 0.52
36 10 2 o 4.420 4.817 180.00 0.64905 0.00
30 22 4 o 478.194 521.094 0.00 0.64905 0.36
30 20 10 o 425.418 463.583 0.00 0.64905 0.32
31 21 1 o 249.615 270.836 0.00 0.64836 0.19
31 19 9 o 39.124 42.451 0.00 0.64836 0.03
37 5 3 o 925.747 1004.451 180.00 0.64836 0.69
27 25 7 o 309.968 336.320 180.00 0.64836 0.23
33 17 5 o 9.039 9.808 180.00 0.64836 0.01
29 21 11 o 2.479 2.690 180.00 0.64836 0.00
35 13 3 o 703.049 762.820 0.00 0.64836 0.52
24 24 16 o 231.695 243.340 0.00 0.64720 0.09
31 15 15 o 139.778 139.820 180.00 0.64652 0.05
31 21 3 o 244.719 244.793 0.00 0.64652 0.18
23 21 21 o 102.487 102.518 0.00 0.64652 0.04
30 16 16 o 12.382 12.173 0.00 0.64629 0.00
32 18 8 o 16.898 16.612 180.00 0.64629 0.01
28 22 12 o 99.499 97.814 180.00 0.64629 0.07
36 10 4 o 288.140 283.260 180.00 0.64629 0.21
34 16 2 o 35.254 32.884 180.00 0.64537 0.03
26 26 8 o 734.777 685.378 180.00 0.64537 0.27
34 14 8 o 994.668 927.797 180.00 0.64537 0.73
26 22 16 o 275.368 256.855 180.00 0.64537 0.20
32 14 14 o 153.158 142.862 0.00 0.64537 0.06
29 23 7 o 431.638 398.768 0.00 0.64469 0.31
23 23 19 o 47.018 43.437 180.00 0.64469 0.02
37 5 5 o 7.741 7.152 180.00 0.64469 0.00
35 13 5 o 317.065 292.920 180.00 0.64469 0.23
31 17 13 o 218.642 201.992 180.00 0.64469 0.16
37 7 1 o 251.320 232.181 0.00 0.64469 0.18
25 25 13 o 734.428 678.500 180.00 0.64469 0.27
29 17 17 o 404.309 373.520 180.00 0.64469 0.15
30 18 14 o 238.290 220.669 180.00 0.64446 0.17
30 22 6 o 29.008 26.863 180.00 0.64446 0.02
36 8 8 o 9.635 9.137 180.00 0.64356 0.00
32 20 0 o 147.131 139.534 0.00 0.64356 0.05
28 24 8 o 190.192 180.370 180.00 0.64356 0.14
32 16 12 o 57.959 54.966 180.00 0.64356 0.04
33 13 13 o 1597.578 1543.474 180.00 0.64288 0.57
33 17 7 o 76.415 73.827 180.00 0.64288 0.05
25 21 19 o 40.909 39.524 180.00 0.64288 0.03
37 7 3 o 73.277 70.795 0.00 0.64288 0.05
35 11 9 o 172.732 166.882 0.00 0.64288 0.12
27 23 13 o 85.687 82.785 0.00 0.64288 0.06
31 21 5 o 64.427 62.245 0.00 0.64288 0.05
29 19 15 o 15.504 14.979 0.00 0.64288 0.01
34 16 4 o 7.787 7.560 180.00 0.64266 0.01
32 20 2 o 18.536 17.994 180.00 0.64266 0.01
28 18 18 o 725.053 717.670 180.00 0.64176 0.26
36 10 6 o 80.202 79.385 180.00 0.64176 0.06
33 15 11 o 105.871 106.911 0.00 0.64109 0.08
27 25 9 o 298.785 301.719 180.00 0.64109 0.21
28 20 16 o 6.585 6.760 0.00 0.63997 0.00
32 20 4 o 213.085 218.777 180.00 0.63997 0.15
36 12 0 o 22.533 23.135 180.00 0.63997 0.01
31 19 11 o 1876.208 1942.010 0.00 0.63931 1.32
35 13 7 o 47.169 48.823 180.00 0.63931 0.03
37 7 5 o 146.938 152.091 0.00 0.63931 0.10
25 23 17 o 97.707 101.134 0.00 0.63931 0.07
34 12 12 o 460.391 479.172 0.00 0.63909 0.16
36 12 2 o 837.783 871.958 180.00 0.63909 0.59
30 20 12 o 52.081 54.206 0.00 0.63909 0.04
32 18 10 o 97.547 104.472 180.00 0.63820 0.07
26 24 14 o 70.798 75.824 180.00 0.63820 0.05
30 22 8 o 2180.017 2334.781 0.00 0.63820 1.52
34 16 6 o 285.602 305.878 180.00 0.63820 0.20
38 2 0 o 142.152 152.244 0.00 0.63820 0.05
29 23 9 o 7.917 8.542 0.00 0.63754 0.01
33 19 1 o 70.192 75.737 0.00 0.63754 0.05
31 21 7 o 330.883 357.022 0.00 0.63754 0.23
27 19 19 o 547.909 591.194 180.00 0.63754 0.19
37 9 1 o 1308.085 1411.422 180.00 0.63754 0.91
35 15 1 o 27.902 30.106 180.00 0.63754 0.02
29 21 13 o 39.735 42.874 180.00 0.63754 0.03
26 26 10 o 239.758 257.902 180.00 0.63732 0.08
34 14 10 o 109.485 117.770 180.00 0.63732 0.08
22 22 22 o 4389.324 4721.485 0.00 0.63732 0.51
38 2 2 o 122.474 131.742 0.00 0.63732 0.04
36 12 4 o 51.790 53.809 0.00 0.63645 0.04
27 21 17 o 26.564 26.954 0.00 0.63579 0.02
35 15 3 o 128.622 130.507 180.00 0.63579 0.09
33 17 9 o 2.883 2.925 180.00 0.63579 0.00
33 19 3 o 2612.372 2650.652 180.00 0.63579 1.80
37 9 3 o 0.232 0.235 180.00 0.63579 0.00
27 27 1 o 1068.608 1084.267 0.00 0.63579 0.37
24 22 20 o 397.466 401.913 180.00 0.63557 0.27
32 20 6 o 59.017 59.677 0.00 0.63557 0.04
36 10 8 o 420.986 425.696 0.00 0.63557 0.29
28 24 10 o 11.296 11.423 0.00 0.63557 0.01
28 26 2 o 38.907 39.571 180.00 0.63471 0.03
28 22 14 o 5.413 5.506 0.00 0.63471 0.00
38 4 2 o 58.077 59.068 0.00 0.63471 0.04
37 7 7 o 28.022 28.493 0.00 0.63406 0.01
35 11 11 o 266.971 271.456 0.00 0.63406 0.09
29 25 1 o 45.161 45.920 180.00 0.63406 0.03
27 27 3 o 265.364 269.822 180.00 0.63406 0.09
29 25 3 o 5.253 5.279 180.00 0.63233 0.00
35 15 5 o 17.632 17.720 180.00 0.63233 0.01
33 19 5 o 1.765 1.774 180.00 0.63233 0.00
25 25 15 o 259.882 261.172 0.00 0.63233 0.09
35 13 9 o 253.250 254.507 180.00 0.63233 0.17
37 9 5 o 168.206 169.041 0.00 0.63233 0.11
31 17 15 o 0.172 0.172 0.00 0.63233 0.00
27 25 11 o 24.542 24.664 180.00 0.63233 0.02
34 16 8 o 0.779 0.784 0.00 0.63212 0.00
32 16 14 o 0.499 0.502 0.00 0.63212 0.00
38 4 4 o 940.582 946.475 0.00 0.63212 0.32
28 26 4 o 37.811 38.048 180.00 0.63212 0.03
24 24 18 o 102.861 103.506 0.00 0.63212 0.03
26 20 20 o 11.840 11.914 0.00 0.63212 0.00
36 12 6 o 43.635 43.908 180.00 0.63212 0.03
34 18 0 o 140.080 140.647 0.00 0.63126 0.05
30 24 2 o 39.674 39.834 0.00 0.63126 0.03
38 6 0 o 3.536 3.550 180.00 0.63126 0.00
30 18 16 o 107.960 108.396 0.00 0.63126 0.07
31 21 9 o 323.313 324.580 0.00 0.63063 0.22
33 15 13 o 2083.448 2091.612 0.00 0.63063 1.39
27 23 15 o 269.675 270.732 180.00 0.63063 0.18
27 27 5 o 12.959 13.009 0.00 0.63063 0.00
34 18 2 o 138.427 139.144 180.00 0.63041 0.09
38 6 2 o 499.241 501.828 180.00 0.63041 0.33
30 22 10 o 137.372 138.083 180.00 0.63041 0.09
26 22 18 o 70.072 70.436 180.00 0.63041 0.05
32 20 8 o 0.277 0.279 180.00 0.62957 0.00
29 23 11 o 0.770 0.769 0.00 0.62893 0.00
31 19 13 o 32.856 32.782 180.00 0.62893 0.02
37 11 1 o 53.699 53.577 180.00 0.62893 0.04
29 19 17 o 0.898 0.896 0.00 0.62893 0.00
29 25 5 o 15.188 15.153 180.00 0.62893 0.01
31 23 1 o 85.521 85.327 0.00 0.62893 0.06
32 18 12 o 5.192 5.155 0.00 0.62872 0.00
30 24 4 o 415.256 412.344 0.00 0.62872 0.27
26 26 12 o 0.306 0.300 180.00 0.62788 0.00
38 6 4 o 296.853 291.266 180.00 0.62788 0.19
34 14 12 o 4.567 4.481 0.00 0.62788 0.00
36 14 2 o 283.900 278.557 0.00 0.62788 0.19
28 26 6 o 167.872 164.712 0.00 0.62788 0.11
34 18 4 o 217.340 213.250 180.00 0.62788 0.14
30 20 14 o 40.765 39.998 0.00 0.62788 0.03
36 10 10 o 227.025 222.752 180.00 0.62788 0.07
33 17 11 o 3586.212 3524.682 180.00 0.62725 2.33
37 11 3 o 503.196 494.563 180.00 0.62725 0.33
37 9 7 o 160.001 157.256 180.00 0.62725 0.10
23 23 21 o 22.120 21.740 0.00 0.62725 0.01
35 15 7 o 14.995 14.738 180.00 0.62725 0.01
33 19 7 o 28.359 27.872 180.00 0.62725 0.02
31 23 3 o 1070.314 1051.951 0.00 0.62725 0.70
28 24 12 o 0.235 0.231 180.00 0.62621 0.00
36 12 8 o 353.267 347.943 0.00 0.62621 0.23
25 21 21 o 27.999 27.102 180.00 0.62558 0.01
29 21 15 o 132.654 128.404 0.00 0.62558 0.09
27 27 7 o 573.791 555.405 0.00 0.62558 0.18
36 14 4 o 129.484 124.186 180.00 0.62538 0.08
28 20 18 o 4.685 4.494 180.00 0.62538 0.00
26 24 16 o 437.403 419.503 0.00 0.62538 0.28
32 22 2 o 1106.199 1023.329 0.00 0.62455 0.71
34 16 10 o 228.382 211.273 180.00 0.62455 0.15
38 8 2 o 738.614 683.280 0.00 0.62455 0.47
30 24 6 o 335.387 310.262 180.00 0.62455 0.21
35 13 11 o 16.751 15.433 0.00 0.62393 0.01
31 23 5 o 6.998 6.447 180.00 0.62393 0.00
37 11 5 o 276.450 254.701 0.00 0.62393 0.18
29 25 7 o 20.121 18.538 180.00 0.62393 0.01
25 23 19 o 926.941 854.014 180.00 0.62393 0.59
35 17 1 o 92.970 85.655 0.00 0.62393 0.06
38 6 6 o 100.053 92.598 180.00 0.62372 0.03
34 18 6 o 79.032 73.144 180.00 0.62372 0.05
35 17 3 o 416.986 398.529 0.00 0.62229 0.26
39 1 1 o 1982.717 1894.952 0.00 0.62229 0.63
27 25 13 o 2.322 2.219 180.00 0.62229 0.00
31 21 11 o 247.439 236.487 180.00 0.62229 0.16
28 26 8 o 309.871 295.421 0.00 0.62209 0.20
38 8 4 o 17.453 16.639 180.00 0.62209 0.01
32 20 10 o 10.056 9.587 180.00 0.62209 0.01
32 22 4 o 30.645 29.216 0.00 0.62209 0.02
28 22 16 o 21.162 20.175 0.00 0.62209 0.01
30 22 12 o 96.097 90.617 180.00 0.62127 0.06
36 14 6 o 261.735 246.808 0.00 0.62127 0.16
35 15 9 o 119.922 113.433 0.00 0.62066 0.07
39 3 1 o 98.507 93.177 0.00 0.62066 0.06
37 9 9 o 0.793 0.751 180.00 0.62066 0.00
33 19 9 o 1301.395 1230.977 180.00 0.62066 0.81
27 21 19 o 490.975 464.408 0.00 0.62066 0.31
33 21 1 o 549.135 519.421 0.00 0.62066 0.34
32 16 16 o 3.297 3.155 180.00 0.61965 0.00
33 21 3 o 27.139 26.072 0.00 0.61905 0.02
25 25 17 o 2291.236 2201.192 0.00 0.61905 0.71
33 15 15 o 717.385 689.193 0.00 0.61905 0.22
29 23 13 o 25.295 24.301 0.00 0.61905 0.02
37 11 7 o 273.532 262.782 0.00 0.61905 0.17
35 17 5 o 0.029 0.028 0.00 0.61905 0.00
37 13 1 o 213.413 205.026 0.00 0.61905 0.13
31 17 17 o 11.485 11.034 0.00 0.61905 0.00
31 23 7 o 293.068 281.551 0.00 0.61905 0.18
27 27 9 o 708.446 680.605 0.00 0.61905 0.22
39 3 3 o 2969.807 2853.095 0.00 0.61905 0.92
30 24 8 o 2.440 2.348 0.00 0.61885 0.00
36 12 10 o 206.281 198.489 180.00 0.61885 0.13
34 18 8 o 135.715 131.512 180.00 0.61804 0.08
24 22 22 o 24.498 23.739 180.00 0.61804 0.01
38 10 0 o 0.065 0.063 0.00 0.61804 0.00
32 22 6 o 55.262 53.551 180.00 0.61804 0.03
32 18 14 o 23.581 22.851 0.00 0.61804 0.01
38 8 6 o 17.118 16.588 180.00 0.61804 0.01
29 25 9 o 799.194 776.406 0.00 0.61744 0.49
31 19 15 o 257.840 250.489 0.00 0.61744 0.16
37 13 3 o 147.884 143.667 0.00 0.61744 0.09
33 17 13 o 1.146 1.114 180.00 0.61744 0.00
39 5 1 o 178.915 173.813 180.00 0.61744 0.11
27 23 17 o 6.306 6.126 0.00 0.61744 0.00
30 18 18 o 0.920 0.893 180.00 0.61724 0.00
38 10 2 o 46.244 44.896 180.00 0.61724 0.03
26 26 14 o 159.257 154.616 180.00 0.61724 0.05
34 14 14 o 11808.651 11464.479 0.00 0.61724 3.60
24 24 20 o 97.999 94.102 180.00 0.61645 0.03
36 16 0 o 48.296 46.376 180.00 0.61645 0.01
33 21 5 o 654.748 621.014 180.00 0.61585 0.40
39 5 3 o 0.185 0.175 0.00 0.61585 0.00
28 24 14 o 181.645 171.842 180.00 0.61566 0.11
36 14 8 o 14.533 13.749 0.00 0.61566 0.01
36 16 2 o 2005.499 1897.262 0.00 0.61566 1.21
30 20 16 o 36.076 34.129 180.00 0.61566 0.02
34 16 12 o 679.770 643.083 180.00 0.61566 0.41
26 22 20 o 78.210 74.321 180.00 0.61487 0.05
34 20 2 o 887.216 843.107 180.00 0.61487 0.53
28 26 10 o 64.567 61.357 0.00 0.61487 0.04
38 10 4 o 110.901 105.388 0.00 0.61487 0.07
37 13 5 o 3.839 3.703 0.00 0.61428 0.00
35 13 13 o 105.295 101.575 0.00 0.61428 0.03
35 17 7 o 0.244 0.236 180.00 0.61428 0.00
29 19 19 o 717.156 691.818 0.00 0.61428 0.21
36 16 4 o 291.026 287.201 0.00 0.61330 0.17
28 28 0 o 11244.631 11096.841 0.00 0.61330 1.67
32 20 12 o 1489.648 1470.069 180.00 0.61330 0.89
35 15 11 o 7.291 7.239 180.00 0.61271 0.00
31 23 9 o 1671.097 1659.213 180.00 0.61271 0.99
39 7 1 o 7.914 7.858 0.00 0.61271 0.00
33 19 11 o 6.379 6.334 180.00 0.61271 0.00
29 21 17 o 0.301 0.299 180.00 0.61271 0.00
39 5 5 o 6932.280 6882.984 180.00 0.61271 2.05
37 11 9 o 153.113 152.024 180.00 0.61271 0.09
31 21 13 o 248.412 246.646 180.00 0.61271 0.15
29 27 1 o 222.252 220.671 0.00 0.61271 0.13
32 22 8 o 66.127 65.690 180.00 0.61251 0.04
34 20 4 o 372.587 370.126 0.00 0.61251 0.22
38 8 8 o 13.007 12.922 0.00 0.61251 0.00
28 28 2 o 83.871 83.317 180.00 0.61251 0.02
30 26 0 o 1956.214 1930.676 180.00 0.61174 0.58
26 24 18 o 3.373 3.329 0.00 0.61174 0.00
30 24 10 o 168.027 165.833 0.00 0.61174 0.10
33 21 7 o 104.319 101.878 0.00 0.61116 0.06
29 27 3 o 7.882 7.698 0.00 0.61116 0.00
27 25 15 o 526.249 513.934 180.00 0.61116 0.31
39 7 3 o 280.824 274.253 0.00 0.61116 0.16
27 27 11 o 706.841 690.300 180.00 0.61116 0.21
30 26 2 o 99.159 96.518 180.00 0.61096 0.06
34 18 10 o 463.465 451.121 180.00 0.61096 0.27
30 22 14 o 1283.996 1249.798 0.00 0.61096 0.75
38 10 6 o 26.943 26.225 180.00 0.61096 0.02
28 28 4 o 394.883 381.469 0.00 0.61019 0.12
28 20 20 o 4810.125 4646.718 0.00 0.61019 1.40
36 12 12 o 60.631 58.571 180.00 0.61019 0.02
23 23 23 o 1588.450 1533.144 180.00 0.60961 0.15
35 19 1 o 71.342 68.858 0.00 0.60961 0.04
31 25 1 o 1258.888 1215.056 180.00 0.60961 0.73
29 25 11 o 22.415 21.634 0.00 0.60961 0.01
37 13 7 o 109.156 105.355 0.00 0.60961 0.06
36 16 6 o 16.567 15.989 0.00 0.60942 0.01
30 26 4 o 377.407 363.453 180.00 0.60865 0.22
28 22 18 o 120.886 116.417 0.00 0.60865 0.07
34 20 6 o 30.977 29.831 180.00 0.60865 0.02
38 12 2 o 10.772 10.373 0.00 0.60865 0.01
36 14 10 o 278.014 267.735 0.00 0.60865 0.16
25 23 21 o 232.421 223.012 0.00 0.60808 0.13
35 17 9 o 139.598 133.947 0.00 0.60808 0.08
39 7 5 o 196.244 188.299 0.00 0.60808 0.11
29 27 5 o 63.898 61.311 0.00 0.60808 0.04
37 15 1 o 178.733 171.497 0.00 0.60808 0.10
31 25 3 o 1.233 1.183 0.00 0.60808 0.00
29 23 15 o 52.865 50.725 0.00 0.60808 0.03
35 19 3 o 92.586 88.837 180.00 0.60808 0.05
40 0 0 o 4696.920 4511.946 0.00 0.60713 0.34
32 24 0 o 526.369 505.640 180.00 0.60713 0.15
39 9 1 o 262.945 255.256 0.00 0.60656 0.15
37 15 3 o 662.836 643.452 0.00 0.60656 0.38
33 17 15 o 12.661 12.291 0.00 0.60656 0.01
38 12 4 o 2.770 2.701 180.00 0.60637 0.00
28 28 6 o 46.552 45.400 180.00 0.60637 0.01
32 18 16 o 14.925 14.556 0.00 0.60637 0.01
28 26 12 o 1.373 1.339 0.00 0.60637 0.00
32 24 2 o 69.336 67.619 0.00 0.60637 0.04
26 26 16 o 1.476 1.470 180.00 0.60562 0.00
40 2 2 o 423.959 422.187 0.00 0.60562 0.12
32 22 10 o 145.420 144.812 0.00 0.60562 0.08
38 10 8 o 70.170 69.877 0.00 0.60562 0.04
34 16 14 o 77.456 77.133 180.00 0.60562 0.04
31 25 5 o 1083.834 1100.328 180.00 0.60505 0.61
35 19 5 o 21.687 22.017 180.00 0.60505 0.01
31 23 11 o 7.148 7.257 0.00 0.60505 0.00
33 21 9 o 0.000 0.000 0.00 0.60505 0.00
25 25 19 o 129.896 131.873 180.00 0.60505 0.04
39 9 3 o 2085.293 2117.028 180.00 0.60505 1.18
31 19 17 o 1620.717 1645.382 180.00 0.60505 0.91
37 11 11 o 16.734 16.989 0.00 0.60505 0.00
27 21 21 o 193.484 196.428 180.00 0.60505 0.05
30 26 6 o 2.877 2.941 0.00 0.60487 0.00
36 16 8 o 342.713 358.016 0.00 0.60412 0.19
28 24 16 o 328.938 343.625 180.00 0.60412 0.18
32 24 4 o 38.594 40.318 0.00 0.60412 0.02
40 4 0 o 5.568 5.817 180.00 0.60412 0.00
29 27 7 o 208.219 217.056 180.00 0.60356 0.12
35 15 13 o 0.137 0.142 0.00 0.60356 0.00
27 23 19 o 7.182 7.487 0.00 0.60356 0.00
37 15 5 o 175.382 182.825 0.00 0.60356 0.10
33 23 1 o 136.203 141.983 0.00 0.60356 0.08
33 19 13 o 1167.020 1216.546 180.00 0.60356 0.65
37 13 9 o 89.751 93.560 180.00 0.60356 0.05
39 7 7 o 18.499 19.284 0.00 0.60356 0.01
34 20 8 o 162.702 168.787 180.00 0.60337 0.09
32 20 14 o 294.684 305.707 180.00 0.60337 0.16
40 4 2 o 111.248 115.409 0.00 0.60337 0.06
30 24 12 o 302.986 314.319 180.00 0.60337 0.17
34 18 12 o 270.033 271.745 0.00 0.60263 0.15
38 12 6 o 712.181 716.695 180.00 0.60263 0.39
30 20 18 o 394.125 396.625 180.00 0.60263 0.22
36 18 2 o 11.393 11.465 180.00 0.60263 0.01
31 21 15 o 206.269 202.621 0.00 0.60207 0.11
39 9 5 o 1.551 1.524 0.00 0.60207 0.00
27 27 13 o 1.247 1.225 180.00 0.60207 0.00
33 23 3 o 22.658 22.257 0.00 0.60207 0.01
28 28 8 o 26.678 25.756 180.00 0.60115 0.01
40 4 4 o 278.427 268.810 180.00 0.60115 0.08
35 17 11 o 79.930 79.113 0.00 0.60060 0.04
29 25 13 o 139.361 137.938 180.00 0.60060 0.08
31 25 7 o 224.901 222.604 0.00 0.60060 0.12
35 19 7 o 1.249 1.236 180.00 0.60060 0.00
36 14 12 o 876.020 880.874 180.00 0.60041 0.48
24 24 22 o 46.072 46.327 0.00 0.60041 0.01
36 18 4 o 182.797 183.810 180.00 0.60041 0.10
32 24 6 o 2.921 2.937 0.00 0.60041 0.00
34 22 0 o 985.082 1072.972 0.00 0.59968 0.27
38 14 0 o 156.927 170.929 0.00 0.59968 0.04
40 6 2 o 102.322 111.451 0.00 0.59968 0.06
30 26 8 o 168.833 183.896 0.00 0.59968 0.09
30 22 16 o 170.037 185.208 0.00 0.59968 0.09
29 21 19 o 205.136 232.960 0.00 0.59913 0.11
27 25 17 o 184.863 209.937 180.00 0.59913 0.10
37 15 7 o 12.496 14.191 180.00 0.59913 0.01
33 23 5 o 329.067 373.701 0.00 0.59913 0.18
39 11 1 o 71.251 80.915 180.00 0.59913 0.04
26 22 22 o 40.286 45.999 180.00 0.59895 0.01
38 14 2 o 53.508 61.095 180.00 0.59895 0.03
34 22 2 o 56.080 64.032 180.00 0.59895 0.03
38 10 10 o 233.179 266.243 0.00 0.59895 0.06
39 11 3 o 50.817 54.655 0.00 0.59768 0.03
33 21 11 o 295.117 317.410 0.00 0.59768 0.16
39 9 7 o 431.366 463.952 0.00 0.59768 0.23
29 27 9 o 67.676 72.788 0.00 0.59768 0.04
32 22 12 o 95.113 100.786 180.00 0.59750 0.05
40 6 4 o 203.680 215.829 180.00 0.59750 0.11
36 16 10 o 278.395 295.001 0.00 0.59750 0.15
26 24 20 o 118.512 125.581 0.00 0.59750 0.06
38 12 8 o 171.496 181.726 180.00 0.59750 0.09
28 26 14 o 497.834 502.862 180.00 0.59678 0.27
34 22 4 o 63.977 64.623 180.00 0.59678 0.03
34 20 10 o 270.191 272.919 0.00 0.59678 0.14
36 18 6 o 192.013 193.952 180.00 0.59678 0.10
38 14 4 o 336.067 339.460 0.00 0.59678 0.18
37 17 1 o 76.751 76.502 0.00 0.59624 0.04
29 23 17 o 75.133 74.889 0.00 0.59624 0.04
37 13 11 o 114.873 114.500 180.00 0.59624 0.06
31 23 13 o 535.841 534.099 0.00 0.59624 0.28
40 8 0 o 290.480 289.674 180.00 0.59534 0.08
32 24 8 o 658.728 656.899 180.00 0.59534 0.35
37 17 3 o 858.773 856.286 180.00 0.59481 0.45
35 19 9 o 194.103 193.541 0.00 0.59481 0.10
33 17 17 o 3177.047 3167.845 0.00 0.59481 0.84
31 25 9 o 0.197 0.196 180.00 0.59481 0.00
35 21 1 o 0.584 0.582 180.00 0.59481 0.00
39 11 5 o 3016.162 3007.426 180.00 0.59481 1.59
33 23 7 o 405.248 404.074 0.00 0.59481 0.21
34 16 16 o 730.014 728.188 0.00 0.59463 0.19
28 22 20 o 52.924 52.792 180.00 0.59463 0.03
40 8 2 o 55.999 55.859 180.00 0.59463 0.03
28 28 10 o 8.542 8.520 0.00 0.59463 0.00
32 18 18 o 55.922 56.071 0.00 0.59392 0.01
30 24 14 o 58.036 58.191 0.00 0.59392 0.03
40 6 6 o 3480.582 3489.872 0.00 0.59392 0.91
31 19 19 o 66.564 66.094 180.00 0.59197 0.02
25 23 23 o 3.629 3.604 180.00 0.59197 0.00
35 17 13 o 369.938 367.325 0.00 0.59197 0.19
41 1 1 o 158.406 157.287 0.00 0.59197 0.04
39 9 9 o 814.834 809.078 0.00 0.59197 0.21
27 27 15 o 26.844 26.654 180.00 0.59197 0.01
37 17 5 o 3.267 3.244 0.00 0.59197 0.00
29 29 1 o 498.096 494.577 180.00 0.59197 0.13
37 15 9 o 24.438 24.582 0.00 0.59338 0.01
33 19 15 o 355.172 357.255 180.00 0.59338 0.19
35 15 15 o 249.520 250.983 180.00 0.59338 0.07
35 21 3 o 364.308 366.445 0.00 0.59338 0.19
36 18 8 o 1316.480 1305.068 0.00 0.59180 0.68
28 24 18 o 28.896 28.645 0.00 0.59180 0.01
30 26 10 o 5.407 5.439 0.00 0.59321 0.00
34 18 14 o 165.509 166.478 180.00 0.59321 0.09
26 26 18 o 1336.089 1343.908 180.00 0.59321 0.35
34 22 6 o 3718.746 3740.510 0.00 0.59321 1.94
38 14 6 o 0.218 0.219 180.00 0.59321 0.00
38 12 10 o 13.201 13.065 0.00 0.59109 0.01
30 28 2 o 68.415 67.708 0.00 0.59109 0.04
36 14 14 o 36.796 36.416 180.00 0.59109 0.01
32 20 16 o 887.941 887.580 180.00 0.59250 0.46
40 8 4 o 905.764 905.396 180.00 0.59250 0.47
35 21 5 o 41.912 41.609 180.00 0.59057 0.02
39 13 1 o 67.560 67.070 180.00 0.59057 0.03
39 11 7 o 424.366 421.291 180.00 0.59057 0.22
29 29 3 o 69.280 68.778 180.00 0.59057 0.02
41 3 1 o 20.491 20.343 0.00 0.59057 0.01
29 25 15 o 46.605 46.267 180.00 0.59057 0.02
31 21 17 o 64.838 64.368 180.00 0.59057 0.03
25 25 21 o 38.048 37.773 180.00 0.59057 0.01
29 27 11 o 1527.848 1516.778 0.00 0.59057 0.78
31 27 1 o 115.088 114.255 0.00 0.59057 0.06
36 16 12 o 39.880 40.265 180.00 0.58970 0.02
36 20 0 o 3078.828 3108.567 0.00 0.58970 0.78
31 27 3 o 97.633 100.605 0.00 0.58918 0.05
33 21 13 o 41.140 42.392 180.00 0.58918 0.02
33 23 9 o 68.703 70.795 0.00 0.58918 0.03
39 13 3 o 61.807 63.689 180.00 0.58918 0.03
41 3 3 o 79.407 81.824 0.00 0.58918 0.02
27 23 21 o 42.458 43.751 0.00 0.58918 0.02
30 20 20 o 18.439 19.154 180.00 0.58900 0.00
34 20 12 o 54.479 56.590 180.00 0.58900 0.03
30 28 4 o 173.140 179.848 180.00 0.58900 0.09
36 20 2 o 61.022 63.386 180.00 0.58900 0.03
40 8 6 o 0.205 0.213 0.00 0.58900 0.00
32 24 10 o 8.129 8.444 180.00 0.58900 0.00
32 26 2 o 38.298 40.963 0.00 0.58831 0.02
32 22 14 o 449.492 480.774 0.00 0.58831 0.23
34 22 8 o 49.481 52.924 180.00 0.58831 0.02
40 10 2 o 117.531 125.710 180.00 0.58831 0.06
38 14 8 o 394.458 421.910 180.00 0.58831 0.20
38 16 2 o 45.972 49.171 0.00 0.58831 0.02
29 29 5 o 732.855 790.688 180.00 0.58779 0.18
41 5 1 o 51.431 55.489 180.00 0.58779 0.03
37 17 7 o 524.208 565.576 0.00 0.58779 0.26
31 25 11 o 1313.422 1417.070 180.00 0.58779 0.66
35 19 11 o 148.822 160.566 180.00 0.58779 0.07
37 13 13 o 241.309 260.351 180.00 0.58779 0.06
30 22 18 o 13.783 14.865 180.00 0.58762 0.01
28 28 12 o 4385.897 4673.069 0.00 0.58694 1.09
36 20 4 o 246.787 262.945 180.00 0.58694 0.12
27 25 19 o 20.194 21.258 180.00 0.58642 0.01
37 15 11 o 394.285 415.069 180.00 0.58642 0.20
41 5 3 o 647.428 681.556 0.00 0.58642 0.32
31 27 5 o 88.440 93.102 0.00 0.58642 0.04
31 23 15 o 11.263 11.857 0.00 0.58642 0.01
33 25 1 o 68.734 72.357 0.00 0.58642 0.03
35 21 7 o 204.466 215.244 180.00 0.58642 0.10
39 13 5 o 25.518 26.863 0.00 0.58642 0.01
40 10 4 o 2.364 2.480 0.00 0.58625 0.00
28 26 16 o 2.726 2.860 180.00 0.58625 0.00
32 26 4 o 22.579 23.687 0.00 0.58625 0.01
38 16 4 o 9.536 10.005 0.00 0.58625 0.00
36 18 10 o 52.555 54.610 0.00 0.58557 0.03
30 28 6 o 292.254 303.681 180.00 0.58557 0.14
30 26 12 o 98.835 102.700 180.00 0.58557 0.05
29 21 21 o 4.373 4.516 0.00 0.58506 0.00
39 11 9 o 1.139 1.176 0.00 0.58506 0.00
33 25 3 o 14.015 14.474 0.00 0.58506 0.01
24 24 24 o 63.769 64.888 0.00 0.58421 0.01
40 8 8 o 1557.566 1584.904 0.00 0.58421 0.38
29 23 19 o 13.281 13.458 0.00 0.58371 0.01
41 5 5 o 105.161 106.563 180.00 0.58371 0.03
41 7 1 o 76.355 77.374 180.00 0.58371 0.04
37 19 1 o 262.248 265.745 0.00 0.58371 0.13
29 29 7 o 34.783 35.247 180.00 0.58371 0.01
38 12 12 o 57.867 58.655 0.00 0.58354 0.01
36 20 6 o 638.549 647.248 180.00 0.58354 0.31
30 24 16 o 639.811 648.527 0.00 0.58354 0.31
34 18 16 o 223.414 227.042 0.00 0.58286 0.11
26 24 22 o 300.744 305.628 180.00 0.58286 0.15
34 24 2 o 47.254 48.021 0.00 0.58286 0.02
32 26 6 o 228.868 232.585 0.00 0.58286 0.11
40 10 6 o 615.667 625.664 180.00 0.58286 0.30
38 16 6 o 307.112 312.099 0.00 0.58286 0.15
33 25 5 o 45.363 45.962 180.00 0.58236 0.02
35 17 15 o 53.335 54.039 0.00 0.58236 0.03
41 7 3 o 3.490 3.536 180.00 0.58236 0.00
37 19 3 o 40.556 41.092 180.00 0.58236 0.02
33 23 11 o 2836.078 2873.516 180.00 0.58236 1.37
31 27 7 o 0.012 0.012 180.00 0.58236 0.00
33 19 17 o 12.342 12.505 0.00 0.58236 0.01
29 27 13 o 12.223 12.385 180.00 0.58236 0.01
39 13 7 o 1.125 1.140 180.00 0.58236 0.00
37 17 9 o 718.458 727.942 0.00 0.58236 0.35
34 22 10 o 4.580 4.634 180.00 0.58219 0.00
38 14 10 o 564.158 570.756 180.00 0.58219 0.27
32 24 12 o 12.519 12.654 180.00 0.58153 0.01
40 12 0 o 149.884 151.498 180.00 0.58153 0.04
27 27 17 o 550.652 558.584 180.00 0.58103 0.13
35 21 9 o 0.148 0.150 0.00 0.58103 0.00
39 15 1 o 4.583 4.649 0.00 0.58103 0.00
34 24 4 o 9.641 9.782 0.00 0.58086 0.00
32 20 18 o 37.645 38.195 0.00 0.58086 0.02
40 12 2 o 25.374 25.746 180.00 0.58086 0.01
30 28 8 o 29.588 30.021 0.00 0.58086 0.01
36 16 14 o 470.503 477.385 0.00 0.58086 0.23
28 22 22 o 1378.522 1381.964 0.00 0.58020 0.33
34 20 14 o 73.941 74.126 0.00 0.58020 0.04
26 26 20 o 7.825 7.845 0.00 0.58020 0.00
33 21 15 o 22.515 22.080 0.00 0.57970 0.01
29 25 17 o 68.022 66.710 0.00 0.57970 0.03
31 25 13 o 256.091 251.151 0.00 0.57970 0.12
39 15 3 o 1052.694 1032.387 0.00 0.57970 0.50
35 19 13 o 11.509 11.287 0.00 0.57970 0.01
41 7 5 o 0.019 0.019 180.00 0.57970 0.00
35 23 1 o 0.155 0.152 0.00 0.57970 0.00
37 19 5 o 1271.220 1246.697 180.00 0.57970 0.60
40 12 4 o 160.496 150.906 180.00 0.57888 0.08
36 20 8 o 22.259 20.929 180.00 0.57888 0.01
28 24 20 o 51.178 48.120 0.00 0.57888 0.02
39 11 11 o 591.374 546.775 0.00 0.57838 0.14
31 21 19 o 0.000 0.000 180.00 0.57838 0.00
29 29 9 o 3.054 2.824 180.00 0.57838 0.00
41 9 1 o 537.944 497.374 0.00 0.57838 0.25
33 25 7 o 3.958 3.659 0.00 0.57838 0.00
35 23 3 o 144.356 133.469 0.00 0.57838 0.07
37 15 13 o 73.708 68.149 0.00 0.57838 0.03
32 22 16 o 2.351 2.168 0.00 0.57822 0.00
32 26 8 o 48.158 44.405 0.00 0.57822 0.02
28 28 14 o 4.164 3.839 180.00 0.57822 0.00
38 16 8 o 260.150 239.875 0.00 0.57822 0.12
36 18 12 o 1.895 1.747 180.00 0.57822 0.00
40 10 8 o 12.054 11.115 180.00 0.57822 0.01
42 2 0 o 534.889 497.642 0.00 0.57757 0.13
34 24 6 o 117.430 109.253 0.00 0.57757 0.05
38 18 0 o 153.703 143.000 180.00 0.57757 0.04
39 15 5 o 368.118 353.060 0.00 0.57708 0.17
39 13 9 o 615.203 590.037 180.00 0.57708 0.29
41 9 3 o 37.028 35.514 180.00 0.57708 0.02
31 27 9 o 1.877 1.800 0.00 0.57708 0.00
42 2 2 o 249.929 243.176 180.00 0.57691 0.06
38 18 2 o 42.747 41.592 180.00 0.57691 0.02
30 26 14 o 46.929 45.661 180.00 0.57691 0.02
31 23 17 o 29.886 32.633 0.00 0.57578 0.01
35 23 5 o 765.722 836.093 0.00 0.57578 0.35
37 17 11 o 4.418 4.823 180.00 0.57578 0.00
25 25 23 o 227.598 248.514 180.00 0.57578 0.05
37 19 7 o 164.892 180.045 0.00 0.57578 0.08
41 7 7 o 241.302 263.477 180.00 0.57578 0.06
40 12 6 o 93.588 103.265 0.00 0.57562 0.04
36 22 2 o 876.901 979.542 0.00 0.57497 0.40
42 4 2 o 76.530 85.488 0.00 0.57497 0.04
30 22 20 o 268.103 299.485 0.00 0.57497 0.12
38 18 4 o 52.193 58.302 0.00 0.57497 0.02
38 14 12 o 0.054 0.060 180.00 0.57497 0.00
30 28 10 o 118.047 131.865 0.00 0.57497 0.05
28 26 18 o 199.624 222.990 180.00 0.57497 0.09
34 22 12 o 2372.934 2650.684 180.00 0.57497 1.09
35 21 11 o 0.679 0.751 180.00 0.57449 0.00
41 9 5 o 190.533 210.571 0.00 0.57449 0.09
27 23 23 o 608.793 672.820 0.00 0.57449 0.14
33 23 13 o 4.417 4.882 0.00 0.57449 0.00
27 25 21 o 12.885 13.839 180.00 0.57321 0.01
29 27 15 o 1.761 1.892 180.00 0.57321 0.00
33 25 9 o 1169.156 1255.733 0.00 0.57321 0.53
39 15 7 o 5.306 5.699 180.00 0.57321 0.00
34 24 8 o 120.828 129.337 0.00 0.57305 0.05
42 4 4 o 5.496 5.883 0.00 0.57305 0.00
36 20 10 o 60.802 65.084 180.00 0.57305 0.03
32 24 14 o 9.390 10.051 180.00 0.57305 0.00
36 22 4 o 81.635 87.383 180.00 0.57305 0.04
38 16 10 o 176.504 185.828 0.00 0.57241 0.08
32 26 10 o 0.058 0.061 180.00 0.57241 0.00
30 30 0 o 1534.374 1615.429 0.00 0.57241 0.17
40 10 10 o 28.582 30.092 180.00 0.57241 0.01
42 6 0 o 25.735 27.094 180.00 0.57241 0.01
30 24 18 o 47.162 49.654 180.00 0.57241 0.02
40 14 2 o 414.963 436.884 0.00 0.57241 0.19
29 29 11 o 999.246 1040.919 0.00 0.57193 0.22
31 29 1 o 97.378 101.440 0.00 0.57193 0.04
35 17 17 o 43.585 45.403 180.00 0.57193 0.01
41 11 1 o 29.224 30.442 0.00 0.57193 0.01
35 23 7 o 83.282 86.755 180.00 0.57193 0.04
30 30 2 o 62.381 64.858 180.00 0.57177 0.01
38 18 6 o 144.464 150.202 180.00 0.57177 0.06
42 6 2 o 1520.417 1580.804 0.00 0.57177 0.68
34 18 18 o 484.720 503.972 180.00 0.57177 0.11
32 28 0 o 939.799 976.920 180.00 0.57114 0.21
40 12 8 o 3.191 3.317 180.00 0.57114 0.00
36 16 16 o 287.613 298.974 180.00 0.57114 0.06
29 23 21 o 46.747 48.612 0.00 0.57067 0.02
31 29 3 o 36.210 37.654 180.00 0.57067 0.02
41 11 3 o 115.221 119.817 180.00 0.57067 0.05
31 27 11 o 26.059 27.099 180.00 0.57067 0.01
39 17 1 o 91.116 94.750 180.00 0.57067 0.04
37 21 1 o 150.149 156.138 180.00 0.57067 0.07
31 25 15 o 144.939 150.720 0.00 0.57067 0.06
33 19 19 o 2264.267 2354.581 180.00 0.57067 0.50
39 13 11 o 4.046 4.207 0.00 0.57067 0.00
41 9 7 o 0.205 0.214 0.00 0.57067 0.00
35 19 15 o 35.304 36.712 180.00 0.57067 0.02
37 19 9 o 13.923 14.478 0.00 0.57067 0.01
32 28 2 o 0.138 0.143 0.00 0.57051 0.00
40 14 4 o 363.952 378.147 0.00 0.57051 0.16
34 20 16 o 18.861 19.597 0.00 0.57051 0.01
42 6 4 o 672.099 694.150 180.00 0.56988 0.30
30 30 4 o 983.091 1015.347 0.00 0.56988 0.22
36 18 14 o 199.651 206.202 180.00 0.56988 0.09
36 22 6 o 18.761 19.376 180.00 0.56988 0.01
37 15 15 o 126.409 130.207 180.00 0.56941 0.03
27 27 19 o 79.146 81.524 180.00 0.56941 0.02
39 17 3 o 3.139 3.233 0.00 0.56941 0.00
33 21 17 o 107.555 110.787 0.00 0.56941 0.05
37 21 3 o 13.479 13.884 0.00 0.56941 0.01
33 27 1 o 906.758 934.002 180.00 0.56941 0.40
28 28 16 o 46.489 47.529 180.00 0.56863 0.01
32 28 4 o 285.177 291.558 180.00 0.56863 0.13
32 20 20 o 744.361 761.018 180.00 0.56863 0.16
41 11 5 o 15.228 15.395 180.00 0.56816 0.01
29 25 19 o 80.061 80.940 180.00 0.56816 0.04
37 17 13 o 104.610 105.758 0.00 0.56816 0.05
39 15 9 o 0.162 0.164 180.00 0.56816 0.00
31 29 5 o 355.311 359.212 0.00 0.56816 0.16
33 27 3 o 9.957 10.066 0.00 0.56816 0.00
30 28 12 o 16.657 16.769 180.00 0.56801 0.01
26 24 24 o 167.609 168.739 0.00 0.56801 0.04
32 22 18 o 21.007 20.880 0.00 0.56739 0.01
34 26 0 o 133.643 132.836 180.00 0.56739 0.03
42 8 2 o 189.494 188.350 0.00 0.56739 0.08
30 26 16 o 58.757 58.402 180.00 0.56739 0.03
40 14 6 o 4.542 4.514 180.00 0.56739 0.00
38 18 8 o 48.337 48.045 0.00 0.56739 0.02
34 24 10 o 414.313 411.811 180.00 0.56739 0.18
37 21 5 o 35.591 35.309 180.00 0.56692 0.02
39 17 5 o 25.045 24.847 180.00 0.56692 0.01
35 21 13 o 5.617 5.572 180.00 0.56692 0.00
35 23 9 o 0.080 0.079 0.00 0.56692 0.00
33 25 11 o 12.320 12.222 180.00 0.56692 0.01
34 22 14 o 0.129 0.128 180.00 0.56677 0.00
42 6 6 o 10.401 10.326 180.00 0.56677 0.00
26 26 22 o 1.470 1.460 180.00 0.56677 0.00
38 14 14 o 207.727 206.220 180.00 0.56677 0.05
34 26 2 o 45.777 45.445 180.00 0.56677 0.02
30 30 6 o 362.721 360.088 0.00 0.56677 0.08
36 20 12 o 2278.938 2266.487 0.00 0.56615 0.98
41 9 9 o 68.054 66.968 180.00 0.56569 0.01
33 23 15 o 11.984 11.792 0.00 0.56569 0.01
33 27 5 o 1161.388 1142.858 180.00 0.56569 0.50
31 21 21 o 247.884 243.929 0.00 0.56569 0.05
28 24 22 o 19.932 19.472 0.00 0.56554 0.01
40 12 10 o 55.682 54.397 0.00 0.56554 0.02
38 16 12 o 146.813 143.426 180.00 0.56554 0.06
32 28 6 o 182.041 177.841 180.00 0.56554 0.08
32 26 12 o 75.207 73.472 0.00 0.56554 0.03
42 8 4 o 64.257 62.774 180.00 0.56554 0.03
36 22 8 o 507.215 495.512 0.00 0.56554 0.22
38 20 2 o 17.480 16.335 0.00 0.56493 0.01
34 26 4 o 166.366 155.467 180.00 0.56493 0.07
31 23 19 o 470.023 421.626 0.00 0.56447 0.20
31 29 7 o 4.414 3.959 180.00 0.56447 0.00
43 1 1 o 38.340 34.393 180.00 0.56447 0.01
35 25 1 o 53.658 48.133 0.00 0.56447 0.02
41 11 7 o 200.461 179.820 0.00 0.56447 0.09
37 19 11 o 574.435 515.287 0.00 0.56447 0.25
29 29 13 o 19.309 17.321 0.00 0.56447 0.00
41 13 1 o 136.499 122.444 0.00 0.56447 0.06
32 24 16 o 242.841 204.484 0.00 0.56371 0.10
40 16 0 o 336.773 283.580 180.00 0.56371 0.07
37 21 7 o 93.046 76.457 0.00 0.56325 0.04
41 13 3 o 884.215 726.567 0.00 0.56325 0.37
29 27 17 o 25.770 21.176 180.00 0.56325 0.01
43 3 1 o 130.756 107.443 180.00 0.56325 0.06
39 13 13 o 94.278 77.469 180.00 0.56325 0.02
35 25 3 o 91.614 75.280 180.00 0.56325 0.04
39 17 7 o 376.765 309.592 180.00 0.56325 0.16
31 27 13 o 7.954 6.536 0.00 0.56325 0.00
28 26 20 o 169.443 138.735 180.00 0.56310 0.07
40 14 8 o 242.364 198.440 180.00 0.56310 0.10
38 20 4 o 29.815 24.412 180.00 0.56310 0.01
40 16 2 o 1.629 1.334 180.00 0.56310 0.00
30 30 8 o 49.361 41.136 180.00 0.56250 0.01
42 8 6 o 1.886 1.572 0.00 0.56250 0.00
42 10 0 o 1050.822 875.720 0.00 0.56250 0.22
43 3 3 o 159.064 138.624 180.00 0.56204 0.03
33 27 7 o 28.110 24.498 180.00 0.56204 0.01
39 15 11 o 1.404 1.224 0.00 0.56204 0.00
42 10 2 o 0.697 0.618 180.00 0.56189 0.00
30 22 22 o 45.174 40.087 180.00 0.56189 0.01
34 26 6 o 28.406 25.207 180.00 0.56189 0.01
38 18 10 o 285.551 253.391 0.00 0.56189 0.12
36 24 0 o 264.706 251.211 0.00 0.56129 0.06
32 28 8 o 16.206 15.380 180.00 0.56129 0.01
40 16 4 o 58.542 55.557 0.00 0.56129 0.02
43 5 1 o 198.899 195.155 0.00 0.56084 0.08
35 25 5 o 38.233 37.513 0.00 0.56084 0.02
41 13 5 o 1109.351 1088.470 180.00 0.56084 0.46
35 19 17 o 150.095 147.269 0.00 0.56084 0.06
31 25 17 o 893.979 877.151 180.00 0.56084 0.37
25 25 25 o 49.700 48.765 0.00 0.56084 0.00
35 23 11 o 587.779 576.715 180.00 0.56084 0.24
36 18 16 o 2.689 2.658 0.00 0.56069 0.00
34 24 12 o 8.275 8.182 180.00 0.56069 0.00
30 24 20 o 45.833 45.316 180.00 0.56069 0.02
36 24 2 o 25.348 25.062 180.00 0.56069 0.01
38 20 6 o 80.177 80.747 0.00 0.56010 0.03
30 28 14 o 187.078 188.408 0.00 0.56010 0.08
36 22 10 o 51.664 52.032 0.00 0.56010 0.02
34 20 18 o 612.358 616.712 180.00 0.56010 0.25
42 10 4 o 26.631 26.820 0.00 0.56010 0.01
