#------------------------------------------------------------------------------
#$Date: 2019-11-07 21:37:24 +0200 (Thu, 07 Nov 2019) $
#$Revision: 223561 $
#$URL: file:///home/coder/svn-repositories/cod/cif/7/23/40/7234030.cif $
#------------------------------------------------------------------------------
#
# This file is available in the Crystallography Open Database (COD),
# http://www.crystallography.net/
#
# All data on this site have been placed in the public domain by the
# contributors.
#
data_7234030
loop_
_publ_author_name
'Morozov, Vladimir A.'
'Posokhova, Svetlana M.'
'Deyneko, Dina V.'
'Savina, Aleksandra A.'
'Morozov, Anatolii V.'
'Tyablikov, Oleg A.'
'Redkin, Boris S.'
'Spassky, Dmitry A.'
'Hadermann, Joke'
'Lazoryak, Bogdan I.'
_publ_section_title
;
 Influence of annealing conditions on the structure and luminescence
 properties of KGd1&#x2212;xEux(MoO4)2 (0 &#x2264; x &#x2264; 1)
;
_journal_issue                   42
_journal_name_full               CrystEngComm
_journal_page_first              6460
_journal_paper_doi               10.1039/C9CE01244C
_journal_volume                  21
_journal_year                    2019
_chemical_formula_analytical     'Gd1 K1 Mo2 O8'
_chemical_formula_iupac          'Gd1 K1 Mo2 O8'
_chemical_formula_moiety         '(K1+)1, (Gd3+)1, (MoO4 2-)2'
_chemical_formula_structural     'Gd1 K1 Mo2 O8'
_chemical_formula_sum            'Gd K Mo2 O8'
_chemical_formula_weight         516.2
_chemical_melting_point          1271
_chemical_name_common            'Gd1 K1 Mo2 O8'
_space_group_IT_number           60
_space_group_name_Hall           '-P 2n 2ab'
_space_group_name_H-M_alt        'P b c n'
_symmetry_cell_setting           orthorhombic
_symmetry_Int_Tables_number      60
_symmetry_space_group_name_Hall  '-P 2n 2ab'
_symmetry_space_group_name_H-M   'P b c n'
_cell_angle_alpha                90
_cell_angle_beta                 90
_cell_angle_gamma                90
_cell_formula_units_Z            4
_cell_length_a                   5.11465(4)
_cell_length_b                   18.0858(2)
_cell_length_c                   8.04600(5)
_cell_measurement_temperature    293
_cell_volume                     744.275(11)
_computing_cell_refinement       '(Jana2000; Petricek and Dusek, 2000)'
_computing_publication_material  '(Jana2000; Petricek and Dusek, 2000)'
_computing_structure_refinement  '(Jana2000; Petricek and Dusek, 2000)'
_diffrn_ambient_temperature      293
_diffrn_detector                 'linear position sensitive detector'
_diffrn_measurement_device       STADI-P
_diffrn_radiation_monochromator  'curved Ge monochromator'
_diffrn_radiation_probe          x-ray
_diffrn_radiation_type           'Co K\a'
_diffrn_radiation_wavelength     1.78892
_diffrn_source                   'Rietveld Refinement'
_diffrn_source_type              'X-ray tube'
_exptl_absorpt_coefficient_mu    74.039
_exptl_crystal_density_diffrn    4.6069
_exptl_crystal_F_000             462
_pd_char_colour                  white
_pd_instr_location               ' ?'
_pd_meas_2theta_range_inc        0.01
_pd_meas_2theta_range_max        100.090
_pd_meas_2theta_range_min        4.900
_pd_meas_number_of_points        9520
_pd_meas_scan_method             step
_pd_proc_2theta_range_inc        0.01
_pd_proc_2theta_range_max        100.09
_pd_proc_2theta_range_min        4.9
_pd_proc_ls_background_function  '18 Legendre polynoms'
_pd_proc_ls_pref_orient_corr     'March & Dollase'
_pd_proc_ls_profile_function     Pseudo-Voigt
_pd_proc_ls_prof_R_factor        0.0572
_pd_proc_ls_prof_wR_expected     0.0423
_pd_proc_ls_prof_wR_factor       0.0836
_pd_proc_wavelength              1.78892
_refine_diff_density_max         1.21
_refine_diff_density_min         -0.75
_refine_ls_goodness_of_fit_all   1.98
_refine_ls_number_constraints    6
_refine_ls_number_parameters     45
_refine_ls_number_restraints     0
_refine_ls_R_factor_all          0.0349
_refine_ls_R_factor_gt           0.0349
_refine_ls_shift/su_max          0.0402
_refine_ls_shift/su_mean         0.0080
_refine_ls_weighting_scheme      sigma
_refine_ls_wR_factor_all         0.0491
_refine_ls_wR_factor_gt          0.0491
_cod_data_source_file            c9ce01244c6.cif
_cod_data_source_block           I
_cod_depositor_comments
;
The following automatic conversions were performed:

'_diffrn_radiation_probe' value 'X-ray' changed to 'x-ray' according
to
/home/data/users/saulius/crontab/automatic-downloads/rss-feeds/RSC/lib/dictionaries/cif_core.dic
dictionary named 'cif_core.dic' version 2.4.2 from 2011-04-26.

Automatic conversion script
Id: cif_fix_values 4973 2017-02-22 13:04:09Z antanas 

 Adding full bibliography for 7234030.cif.
;
_cod_original_cell_volume        744.276(12)
_cod_original_sg_symbol_Hall     '-P -2xab;-2yc;-2zabc'
_cod_original_formula_sum        'Gd1 K1 Mo2 O8'
_cod_database_code               7234030
loop_
_space_group_symop_id
_space_group_symop_operation_xyz
1 x,y,z
2 -x+1/2,-y+1/2,z+1/2
3 -x,y,-z+1/2
4 x+1/2,-y+1/2,-z
5 -x,-y,-z
6 x+1/2,y+1/2,-z+1/2
7 x,-y,z+1/2
8 -x+1/2,y+1/2,z
loop_
_atom_site_label
_atom_site_type_symbol
_atom_site_fract_x
_atom_site_fract_y
_atom_site_fract_z
_atom_site_adp_type
_atom_site_U_iso_or_equiv
_atom_site_site_symmetry_multiplicity
_atom_site_occupancy
_atom_site_calc_flag
Gd Gd 0 0.00731(13) 0.25 Uiso 0.0245(6) 4 1 d
K K 0.5 0.2702(3) 0.25 Uiso 0.0265(17) 4 1 d
Mo Mo 0.5184(3) 0.10260(8) -0.01608(15) Uiso 0.0249(6) 8 1 d
O1 O 0.7205(13) 0.0959(8) 0.1516(9) Uiso 0.0067(13) 8 1 d
O2 O 0.7405(12) 0.0968(7) 0.7963(10) Uiso 0.0067(13) 8 1 d
O3 O 0.2459(12) 0.0359(5) -0.0164(14) Uiso 0.0067(13) 8 1 d
O4 O 0.3898(13) 0.1962(6) -0.0331(9) Uiso 0.0067(13) 8 1 d
loop_
_atom_type_symbol
_atom_type_scat_dispersion_real
_atom_type_scat_dispersion_imag
_atom_type_scat_source
Gd -9.4155 4.0094 'International Tables Vol C tables 4.2.6.8 and 6.1.1.1'
K 0.3523 1.3919 'International Tables Vol C tables 4.2.6.8 and 6.1.1.1'
Mo 0.1033 3.5787 'International Tables Vol C tables 4.2.6.8 and 6.1.1.1'
O 0.0662 0.0458 'International Tables Vol C tables 4.2.6.8 and 6.1.1.1'
loop_
_geom_angle_atom_site_label_1
_geom_angle_atom_site_label_2
_geom_angle_atom_site_label_3
_geom_angle_site_symmetry_1
_geom_angle_site_symmetry_3
_geom_angle
O1 Gd O1 1_455 3_655 91.2(4)
O1 Gd O2 1_455 5_656 149.9(3)
O1 Gd O2 1_455 7_454 105.3(3)
O1 Gd O3 1_455 . 82.8(3)
O1 Gd O3 1_455 3_555 80.8(3)
O1 Gd O3 1_455 5_555 68.2(3)
O1 Gd O3 1_455 7_555 146.0(3)
O1 Gd O2 3_655 5_656 105.3(3)
O1 Gd O2 3_655 7_454 149.9(3)
O1 Gd O3 3_655 . 80.8(3)
O1 Gd O3 3_655 3_555 82.8(3)
O1 Gd O3 3_655 5_555 146.0(3)
O1 Gd O3 3_655 7_555 68.2(3)
O2 Gd O2 5_656 7_454 72.4(3)
O2 Gd O3 5_656 . 75.4(3)
O2 Gd O3 5_656 3_555 125.5(3)
O2 Gd O3 5_656 5_555 84.8(3)
O2 Gd O3 5_656 7_555 64.1(3)
O2 Gd O3 7_454 . 125.5(3)
O2 Gd O3 7_454 3_555 75.4(3)
O2 Gd O3 7_454 5_555 64.1(3)
O2 Gd O3 7_454 7_555 84.8(3)
O3 Gd O3 . 3_555 156.5(3)
O3 Gd O3 . 5_555 70.4(3)
O3 Gd O3 . 7_555 118.0(3)
O3 Gd O3 3_555 5_555 118.0(3)
O3 Gd O3 3_555 7_555 70.4(3)
O3 Gd O3 5_555 7_555 141.8(3)
O2 K O2 2_654 4_456 59.6(3)
O2 K O4 2_654 . 130.0(3)
O2 K O4 2_654 2_555 94.1(3)
O2 K O4 2_654 3_655 102.5(3)
O2 K O4 2_654 4_555 62.7(3)
O2 K O4 4_456 . 102.5(3)
O2 K O4 4_456 2_555 62.7(3)
O2 K O4 4_456 3_655 130.0(3)
O2 K O4 4_456 4_555 94.1(3)
O4 K O4 . 2_555 119.9(2)
O4 K O4 . 3_655 120.6(4)
O4 K O4 . 4_555 73.9(2)
O4 K O4 2_555 3_655 73.9(2)
O4 K O4 2_555 4_555 154.2(4)
O4 K O4 3_655 4_555 119.9(2)
O1 Mo O2 . 1_554 105.3(3)
O1 Mo O3 . . 114.4(5)
O1 Mo O4 . . 110.2(5)
O2 Mo O3 1_554 . 114.6(5)
O2 Mo O4 1_554 . 102.0(4)
O2 Mo O3 3_655 5_655 105.2(3)
O3 Mo O4 . . 109.5(4)
loop_
_geom_bond_atom_site_label_1
_geom_bond_atom_site_label_2
_geom_bond_site_symmetry_2
_geom_bond_distance
Gd O1 1_455 2.288(11)
Gd O1 3_655 2.288(11)
Gd O2 5_656 2.333(11)
Gd O2 7_454 2.333(11)
Gd O3 . 2.539(10)
Gd O3 3_555 2.539(10)
Gd O3 5_555 2.393(10)
Gd O3 7_555 2.393(10)
K O1 . 3.442(15)
K O1 3_655 3.442(15)
K O2 2_654 2.772(13)
K O2 4_456 2.772(13)
K O4 . 2.701(9)
K O4 2_555 2.718(7)
K O4 3_655 2.701(9)
K O4 4_555 2.718(7)
Mo O1 . 1.704(7)
Mo O2 1_554 1.892(7)
Mo O3 . 1.843(8)
Mo O4 . 1.822(11)
loop_
_pd_proc_point_id
_pd_proc_2theta_corrected
_pd_proc_intensity_net
_pd_calc_intensity_net
_pd_proc_ls_weight
1 4.8800 1077.00 1118.32 32.82
2 4.8900 1038.00 1116.49 32.22
3 4.9000 1033.00 1114.68 32.14
4 4.9100 1028.00 1112.89 32.06
5 4.9200 1019.00 1111.12 31.92
6 4.9300 1066.00 1109.37 32.65
7 4.9400 1101.00 1107.65 33.18
8 4.9500 1067.00 1105.95 32.67
9 4.9600 1078.00 1104.28 32.83
10 4.9700 1052.00 1102.62 32.43
11 4.9800 1074.00 1100.99 32.77
12 4.9900 1019.00 1099.38 31.92
13 5.0000 1086.00 1097.78 32.95
14 5.0100 1082.00 1096.21 32.89
15 5.0200 1107.00 1094.67 33.27
16 5.0300 1111.00 1093.14 33.33
17 5.0400 1133.00 1091.63 33.66
18 5.0500 1034.00 1090.14 32.16
19 5.0600 1036.00 1088.67 32.19
20 5.0700 1092.00 1087.23 33.05
21 5.0800 1039.00 1085.80 32.23
22 5.0900 1054.00 1084.39 32.47
23 5.1000 1075.00 1083.00 32.79
24 5.1100 1047.00 1081.63 32.36
25 5.1200 1031.00 1080.28 32.11
26 5.1300 1074.00 1078.94 32.77
27 5.1400 1130.00 1077.63 33.62
28 5.1500 1122.00 1076.33 33.50
29 5.1600 1098.00 1075.05 33.14
30 5.1700 1054.00 1073.79 32.47
31 5.1800 1045.00 1072.55 32.33
32 5.1900 1010.00 1071.32 31.78
33 5.2000 1072.00 1070.12 32.74
34 5.2100 1025.00 1068.93 32.02
35 5.2200 1005.00 1067.75 31.70
36 5.2300 1069.00 1066.59 32.70
37 5.2400 1031.00 1065.45 32.11
38 5.2500 1057.00 1064.33 32.51
39 5.2600 1071.00 1063.22 32.73
40 5.2700 1050.00 1062.13 32.40
41 5.2800 1048.00 1061.05 32.37
42 5.2900 1028.00 1059.99 32.06
43 5.3000 1090.00 1058.95 33.02
44 5.3100 1076.00 1057.92 32.80
45 5.3200 1054.00 1056.91 32.47
46 5.3300 1107.00 1055.91 33.27
47 5.3400 1066.00 1054.92 32.65
48 5.3500 1054.00 1053.95 32.47
49 5.3600 1052.00 1053.00 32.43
50 5.3700 1067.00 1052.06 32.67
51 5.3800 989.00 1051.13 31.45
52 5.3900 1030.00 1050.22 32.09
53 5.4000 1022.00 1049.32 31.97
54 5.4100 1023.00 1048.44 31.98
55 5.4200 1042.00 1047.57 32.28
56 5.4300 1030.00 1046.71 32.09
57 5.4400 1074.00 1045.87 32.77
58 5.4500 1073.00 1045.04 32.76
59 5.4600 1028.00 1044.22 32.06
60 5.4700 1041.00 1043.41 32.26
61 5.4800 1083.00 1042.62 32.91
62 5.4900 1090.00 1041.84 33.02
63 5.5000 1059.00 1041.07 32.54
64 5.5100 1087.00 1040.32 32.97
65 5.5200 1042.00 1039.58 32.28
66 5.5300 1064.00 1038.84 32.62
67 5.5400 1023.00 1038.13 31.98
68 5.5500 1085.00 1037.42 32.94
69 5.5600 1068.00 1036.72 32.68
70 5.5700 1000.00 1036.04 31.62
71 5.5800 1027.00 1035.37 32.05
72 5.5900 1062.00 1034.70 32.59
73 5.6000 999.00 1034.05 31.61
74 5.6100 996.00 1033.41 31.56
75 5.6200 1025.00 1032.78 32.02
76 5.6300 1097.00 1032.16 33.12
77 5.6400 1060.00 1031.56 32.56
78 5.6500 1049.00 1030.96 32.39
79 5.6600 1088.00 1030.37 32.98
80 5.6700 1061.00 1029.79 32.57
81 5.6800 1036.00 1029.22 32.19
82 5.6900 1036.00 1028.67 32.19
83 5.7000 1006.00 1028.12 31.72
84 5.7100 1052.00 1027.58 32.43
85 5.7200 1073.00 1027.05 32.76
86 5.7300 1063.00 1026.53 32.60
87 5.7400 1029.00 1026.02 32.08
88 5.7500 1081.00 1025.52 32.88
89 5.7600 1026.00 1025.03 32.03
90 5.7700 1081.00 1024.54 32.88
91 5.7800 1104.00 1024.07 33.23
92 5.7900 1105.00 1023.60 33.24
93 5.8000 1046.00 1023.14 32.34
94 5.8100 1049.00 1022.70 32.39
95 5.8200 1106.00 1022.25 33.26
96 5.8300 1019.00 1021.82 31.92
97 5.8400 1042.00 1021.40 32.28
98 5.8500 1030.00 1020.98 32.09
99 5.8600 1056.00 1020.57 32.50
100 5.8700 1010.00 1020.17 31.78
101 5.8800 1058.00 1019.78 32.53
102 5.8900 1022.00 1019.39 31.97
103 5.9000 1021.00 1019.01 31.95
104 5.9100 1059.00 1018.64 32.54
105 5.9200 1063.00 1018.27 32.60
106 5.9300 1056.00 1017.92 32.50
107 5.9400 1010.00 1017.57 31.78
108 5.9500 1069.00 1017.22 32.70
109 5.9600 1033.00 1016.89 32.14
110 5.9700 1040.00 1016.56 32.25
111 5.9800 1034.00 1016.23 32.16
112 5.9900 1011.00 1015.92 31.80
113 6.0000 1011.00 1015.61 31.80
114 6.0100 996.00 1015.30 31.56
115 6.0200 977.00 1015.00 31.26
116 6.0300 1036.00 1014.71 32.19
117 6.0400 1034.00 1014.43 32.16
118 6.0500 1043.00 1014.15 32.30
119 6.0600 993.00 1013.87 31.51
120 6.0700 1035.00 1013.60 32.17
121 6.0800 1026.00 1013.34 32.03
122 6.0900 997.00 1013.08 31.58
123 6.1000 1026.00 1012.83 32.03
124 6.1100 1036.00 1012.59 32.19
125 6.1200 1054.00 1012.34 32.47
126 6.1300 980.00 1012.11 31.31
127 6.1400 1037.00 1011.88 32.20
128 6.1500 1059.00 1011.65 32.54
129 6.1600 1048.00 1011.43 32.37
130 6.1700 1053.00 1011.21 32.45
131 6.1800 1074.00 1011.00 32.77
132 6.1900 1008.00 1010.80 31.75
133 6.2000 997.00 1010.59 31.58
134 6.2100 1048.00 1010.40 32.37
135 6.2200 1042.00 1010.20 32.28
136 6.2300 1070.00 1010.01 32.71
137 6.2400 1000.00 1009.83 31.62
138 6.2500 1063.00 1009.65 32.60
139 6.2600 1045.00 1009.47 32.33
140 6.2700 1038.00 1009.30 32.22
141 6.2800 1045.00 1009.13 32.33
142 6.2900 996.00 1008.97 31.56
143 6.3000 1019.00 1008.81 31.92
144 6.3100 1041.00 1008.65 32.26
145 6.3200 1034.00 1008.50 32.16
146 6.3300 1061.00 1008.35 32.57
147 6.3400 1022.00 1008.20 31.97
148 6.3500 1028.00 1008.06 32.06
149 6.3600 1042.00 1007.92 32.28
150 6.3700 1045.00 1007.78 32.33
151 6.3800 1009.00 1007.65 31.76
152 6.3900 1002.00 1007.52 31.65
153 6.4000 1062.00 1007.39 32.59
154 6.4100 1042.00 1007.27 32.28
155 6.4200 1052.00 1007.15 32.43
156 6.4300 1051.00 1007.03 32.42
157 6.4400 1045.00 1006.92 32.33
158 6.4500 979.00 1006.81 31.29
159 6.4600 1059.00 1006.70 32.54
160 6.4700 1026.00 1006.59 32.03
161 6.4800 1036.00 1006.49 32.19
162 6.4900 1043.00 1006.39 32.30
163 6.5000 1022.00 1006.29 31.97
164 6.5100 1030.00 1006.19 32.09
165 6.5200 1011.00 1006.09 31.80
166 6.5300 1027.00 1006.00 32.05
167 6.5400 1000.00 1005.91 31.62
168 6.5500 1001.00 1005.83 31.64
169 6.5600 1020.00 1005.74 31.94
170 6.5700 965.00 1005.66 31.06
171 6.5800 1070.00 1005.57 32.71
172 6.5900 1031.00 1005.49 32.11
173 6.6000 1016.00 1005.42 31.87
174 6.6100 997.00 1005.34 31.58
175 6.6200 1042.00 1005.27 32.28
176 6.6300 1015.00 1005.19 31.86
177 6.6400 1004.00 1005.12 31.69
178 6.6500 1032.00 1005.05 32.12
179 6.6600 1063.00 1004.98 32.60
180 6.6700 1011.00 1004.92 31.80
181 6.6800 1010.00 1004.85 31.78
182 6.6900 1055.00 1004.79 32.48
183 6.7000 1072.00 1004.73 32.74
184 6.7100 1027.00 1004.67 32.05
185 6.7200 1008.00 1004.61 31.75
186 6.7300 1019.00 1004.55 31.92
187 6.7400 1018.00 1004.49 31.91
188 6.7500 1022.00 1004.43 31.97
189 6.7600 1046.00 1004.38 32.34
190 6.7700 959.00 1004.32 30.97
191 6.7800 1032.00 1004.27 32.12
192 6.7900 1035.00 1004.22 32.17
193 6.8000 999.00 1004.17 31.61
194 6.8100 1027.00 1004.12 32.05
195 6.8200 1013.00 1004.07 31.83
196 6.8300 1057.00 1004.02 32.51
197 6.8400 1030.00 1003.97 32.09
198 6.8500 1049.00 1003.92 32.39
199 6.8600 1029.00 1003.87 32.08
200 6.8700 1008.00 1003.83 31.75
201 6.8800 950.00 1003.78 30.82
202 6.8900 991.00 1003.73 31.48
203 6.9000 1069.00 1003.69 32.70
204 6.9100 994.00 1003.64 31.53
205 6.9200 983.00 1003.60 31.35
206 6.9300 1006.00 1003.55 31.72
207 6.9400 1077.00 1003.51 32.82
208 6.9500 996.00 1003.47 31.56
209 6.9600 1036.00 1003.42 32.19
210 6.9700 1033.00 1003.38 32.14
211 6.9800 1025.00 1003.33 32.02
212 6.9900 1038.00 1003.29 32.22
213 7.0000 1005.00 1003.25 31.70
214 7.0100 1030.00 1003.20 32.09
215 7.0200 1051.00 1003.16 32.42
216 7.0300 1045.00 1003.12 32.33
217 7.0400 1072.00 1003.07 32.74
218 7.0500 1007.00 1003.03 31.73
219 7.0600 1084.00 1002.99 32.92
220 7.0700 1016.00 1002.94 31.87
221 7.0800 994.00 1002.90 31.53
222 7.0900 984.00 1002.85 31.37
223 7.1000 942.00 1002.81 30.69
224 7.1100 997.00 1002.76 31.58
225 7.1200 978.00 1002.72 31.27
226 7.1300 963.00 1002.67 31.03
227 7.1400 1015.00 1002.63 31.86
228 7.1500 974.00 1002.58 31.21
229 7.1600 1012.00 1002.53 31.81
230 7.1700 1003.00 1002.48 31.67
231 7.1800 1017.00 1002.44 31.89
232 7.1900 1092.00 1002.39 33.05
233 7.2000 1028.00 1002.34 32.06
234 7.2100 1058.00 1002.29 32.53
235 7.2200 999.00 1002.24 31.61
236 7.2300 944.00 1002.18 30.72
237 7.2400 987.00 1002.13 31.42
238 7.2500 970.00 1002.08 31.14
239 7.2600 967.00 1002.03 31.10
240 7.2700 961.00 1001.97 31.00
241 7.2800 942.00 1001.92 30.69
242 7.2900 978.00 1001.86 31.27
243 7.3000 1049.00 1001.80 32.39
244 7.3100 980.00 1001.75 31.31
245 7.3200 1019.00 1001.69 31.92
246 7.3300 1030.00 1001.63 32.09
247 7.3400 1021.00 1001.57 31.95
248 7.3500 989.00 1001.51 31.45
249 7.3600 1006.00 1001.44 31.72
250 7.3700 994.00 1001.38 31.53
251 7.3800 1025.00 1001.32 32.02
252 7.3900 937.00 1001.25 30.61
253 7.4000 997.00 1001.18 31.58
254 7.4100 1000.00 1001.12 31.62
255 7.4200 1017.00 1001.05 31.89
256 7.4300 988.00 1000.98 31.43
257 7.4400 1010.00 1000.91 31.78
258 7.4500 1016.00 1000.83 31.87
259 7.4600 1018.00 1000.76 31.91
260 7.4700 964.00 1000.68 31.05
261 7.4800 1045.00 1000.61 32.33
262 7.4900 1000.00 1000.53 31.62
263 7.5000 1027.00 1000.45 32.05
264 7.5100 946.00 1000.37 30.76
265 7.5200 970.00 1000.29 31.14
266 7.5300 1044.00 1000.21 32.31
267 7.5400 973.00 1000.13 31.19
268 7.5500 973.00 1000.04 31.19
269 7.5600 971.00 999.95 31.16
270 7.5700 1042.00 999.87 32.28
271 7.5800 1040.00 999.78 32.25
272 7.5900 1024.00 999.69 32.00
273 7.6000 990.00 999.59 31.46
274 7.6100 1022.00 999.50 31.97
275 7.6200 1047.00 999.41 32.36
276 7.6300 965.00 999.31 31.06
277 7.6400 996.00 999.21 31.56
278 7.6500 978.00 999.11 31.27
279 7.6600 1023.00 999.01 31.98
280 7.6700 982.00 998.91 31.34
281 7.6800 969.00 998.80 31.13
282 7.6900 928.00 998.70 30.46
283 7.7000 919.00 998.59 30.32
284 7.7100 1018.00 998.48 31.91
285 7.7200 1014.00 998.37 31.84
286 7.7300 976.00 998.26 31.24
287 7.7400 961.00 998.14 31.00
288 7.7500 941.00 998.03 30.68
289 7.7600 1018.00 997.91 31.91
290 7.7700 986.00 997.79 31.40
291 7.7800 993.00 997.67 31.51
292 7.7900 922.00 997.55 30.36
293 7.8000 972.00 997.43 31.18
294 7.8100 950.00 997.30 30.82
295 7.8200 973.00 997.17 31.19
296 7.8300 961.00 997.05 31.00
297 7.8400 1018.00 996.91 31.91
298 7.8500 973.00 996.78 31.19
299 7.8600 960.00 996.65 30.98
300 7.8700 969.00 996.51 31.13
301 7.8800 987.00 996.38 31.42
302 7.8900 982.00 996.24 31.34
303 7.9000 1011.00 996.09 31.80
304 7.9100 973.00 995.95 31.19
305 7.9200 1010.00 995.81 31.78
306 7.9300 1013.00 995.66 31.83
307 7.9400 1018.00 995.51 31.91
308 7.9500 994.00 995.36 31.53
309 7.9600 958.00 995.21 30.95
310 7.9700 983.00 995.06 31.35
311 7.9800 998.00 994.90 31.59
312 7.9900 996.00 994.74 31.56
313 8.0000 1040.00 994.59 32.25
314 8.0100 958.00 994.42 30.95
315 8.0200 929.00 994.26 30.48
316 8.0300 934.00 994.10 30.56
317 8.0400 1010.00 993.93 31.78
318 8.0500 1010.00 993.76 31.78
319 8.0600 971.00 993.59 31.16
320 8.0700 999.00 993.42 31.61
321 8.0800 1025.00 993.24 32.02
322 8.0900 984.00 993.07 31.37
323 8.1000 976.00 992.89 31.24
324 8.1100 963.00 992.71 31.03
325 8.1200 965.00 992.53 31.06
326 8.1300 962.00 992.34 31.02
327 8.1400 939.00 992.16 30.64
328 8.1500 993.00 991.97 31.51
329 8.1600 952.00 991.78 30.85
330 8.1700 990.00 991.59 31.46
331 8.1800 1033.00 991.40 32.14
332 8.1900 999.00 991.20 31.61
333 8.2000 1002.00 991.01 31.65
334 8.2100 968.00 990.81 31.11
335 8.2200 975.00 990.61 31.23
336 8.2300 975.00 990.40 31.23
337 8.2400 971.00 990.20 31.16
338 8.2500 1011.00 989.99 31.80
339 8.2600 1004.00 989.78 31.69
340 8.2700 989.00 989.57 31.45
341 8.2800 969.00 989.36 31.13
342 8.2900 980.00 989.15 31.31
343 8.3000 930.00 988.93 30.50
344 8.3100 953.00 988.71 30.87
345 8.3200 970.00 988.49 31.14
346 8.3300 954.00 988.27 30.89
347 8.3400 947.00 988.04 30.77
348 8.3500 978.00 987.82 31.27
349 8.3600 971.00 987.59 31.16
350 8.3700 1000.00 987.36 31.62
351 8.3800 978.00 987.13 31.27
352 8.3900 903.00 986.90 30.05
353 8.4000 924.00 986.66 30.40
354 8.4100 982.00 986.42 31.34
355 8.4200 1003.00 986.18 31.67
356 8.4300 967.00 985.94 31.10
357 8.4400 922.00 985.70 30.36
358 8.4500 1001.00 985.75 31.64
359 8.4600 988.00 985.51 31.43
360 8.4700 954.00 985.26 30.89
361 8.4800 982.00 985.02 31.34
362 8.4900 988.00 984.77 31.43
363 8.5000 964.00 984.52 31.05
364 8.5100 928.00 984.27 30.46
365 8.5200 953.00 984.01 30.87
366 8.5300 986.00 983.75 31.40
367 8.5400 1014.00 983.50 31.84
368 8.5500 994.00 983.24 31.53
369 8.5600 972.00 982.97 31.18
370 8.5700 960.00 982.71 30.98
371 8.5800 967.00 982.45 31.10
372 8.5900 976.00 982.18 31.24
373 8.6000 981.00 981.91 31.32
374 8.6100 980.00 981.64 31.31
375 8.6200 948.00 981.37 30.79
376 8.6300 948.00 981.09 30.79
377 8.6400 939.00 980.82 30.64
378 8.6500 957.00 980.54 30.94
379 8.6600 911.00 980.26 30.18
380 8.6700 954.00 979.98 30.89
381 8.6800 997.00 979.70 31.58
382 8.6900 983.00 979.41 31.35
383 8.7000 934.00 979.12 30.56
384 8.7100 950.00 978.84 30.82
385 8.7200 955.00 978.55 30.90
386 8.7300 985.00 978.26 31.38
387 8.7400 931.00 977.96 30.51
388 8.7500 990.00 977.67 31.46
389 8.7600 969.00 977.37 31.13
390 8.7700 979.00 977.07 31.29
391 8.7800 951.00 976.77 30.84
392 8.7900 940.00 976.47 30.66
393 8.8000 977.00 976.17 31.26
394 8.8100 927.00 975.86 30.45
395 8.8200 972.00 975.56 31.18
396 8.8300 1005.00 975.25 31.70
397 8.8400 965.00 974.94 31.06
398 8.8500 889.00 974.63 29.82
399 8.8600 959.00 974.32 30.97
400 8.8700 962.00 974.01 31.02
401 8.8800 933.00 973.69 30.55
402 8.8900 905.00 973.37 30.08
403 8.9000 904.00 973.05 30.07
404 8.9100 939.00 972.73 30.64
405 8.9200 908.00 972.41 30.13
406 8.9300 991.00 972.09 31.48
407 8.9400 918.00 971.77 30.30
408 8.9500 956.00 971.44 30.92
409 8.9600 947.00 971.11 30.77
410 8.9700 990.00 970.79 31.46
411 8.9800 932.00 970.46 30.53
412 8.9900 984.00 970.13 31.37
413 9.0000 965.00 969.79 31.06
414 9.0100 909.00 969.46 30.15
415 9.0200 962.00 969.13 31.02
416 9.0300 923.00 968.79 30.38
417 9.0400 956.00 968.46 30.92
418 9.0500 898.00 968.12 29.97
419 9.0600 1003.00 967.78 31.67
420 9.0700 968.00 967.44 31.11
421 9.0800 900.00 967.10 30.00
422 9.0900 955.00 966.76 30.90
423 9.1000 952.00 966.41 30.85
424 9.1100 939.00 966.07 30.64
425 9.1200 962.00 965.72 31.02
426 9.1300 984.00 965.38 31.37
427 9.1400 947.00 965.03 30.77
428 9.1500 974.00 964.68 31.21
429 9.1600 899.00 964.33 29.98
430 9.1700 919.00 963.98 30.32
431 9.1800 954.00 963.64 30.89
432 9.1900 931.00 963.29 30.51
433 9.2000 963.00 962.94 31.03
434 9.2100 966.00 962.59 31.08
435 9.2200 984.00 962.23 31.37
436 9.2300 962.00 961.88 31.02
437 9.2400 922.00 961.53 30.36
438 9.2500 959.00 961.18 30.97
439 9.2600 918.00 960.83 30.30
440 9.2700 935.00 960.47 30.58
441 9.2800 974.00 960.12 31.21
442 9.2900 926.00 959.77 30.43
443 9.3000 978.00 959.42 31.27
444 9.3100 926.00 959.07 30.43
445 9.3200 940.00 958.72 30.66
446 9.3300 903.00 958.37 30.05
447 9.3400 907.00 958.02 30.12
448 9.3500 922.00 957.68 30.36
449 9.3600 881.00 957.33 29.68
450 9.3700 914.00 956.99 30.23
451 9.3800 963.00 956.64 31.03
452 9.3900 919.00 956.30 30.32
453 9.4000 930.00 955.97 30.50
454 9.4100 949.00 955.63 30.81
455 9.4200 887.00 955.30 29.78
456 9.4300 913.00 954.97 30.22
457 9.4400 916.00 954.64 30.27
458 9.4500 955.00 954.32 30.90
459 9.4600 873.00 954.00 29.55
460 9.4700 931.00 953.69 30.51
461 9.4800 961.00 953.38 31.00
462 9.4900 947.00 953.08 30.77
463 9.5000 918.00 952.78 30.30
464 9.5100 870.00 952.49 29.50
465 9.5200 888.00 952.22 29.80
466 9.5300 987.00 951.95 31.42
467 9.5400 892.00 951.69 29.87
468 9.5500 991.00 951.44 31.48
469 9.5600 947.00 951.21 30.77
470 9.5700 968.00 950.99 31.11
471 9.5800 927.00 954.64 30.45
472 9.5900 951.00 954.51 30.84
473 9.6000 945.00 954.40 30.74
474 9.6100 927.00 954.33 30.45
475 9.6200 965.00 954.31 31.06
476 9.6300 954.00 954.35 30.89
477 9.6400 960.00 954.50 30.98
478 9.6500 940.00 954.78 30.66
479 9.6600 984.00 955.28 31.37
480 9.6700 938.00 956.08 30.63
481 9.6800 985.00 957.30 31.38
482 9.6900 902.00 959.07 30.03
483 9.7000 932.00 961.55 30.53
484 9.7100 994.00 964.90 31.53
485 9.7200 956.00 969.28 30.92
486 9.7300 972.00 974.80 31.18
487 9.7400 982.00 981.57 31.34
488 9.7500 990.00 989.61 31.46
489 9.7600 1028.00 998.95 32.06
490 9.7700 931.00 1009.55 30.51
491 9.7800 1007.00 1021.39 31.73
492 9.7900 982.00 1034.44 31.34
493 9.8000 994.00 1048.68 31.53
494 9.8100 1019.00 1064.15 31.92
495 9.8200 990.00 1080.88 31.46
496 9.8300 1000.00 1098.99 31.62
497 9.8400 1006.00 1118.59 31.72
498 9.8500 999.00 1139.89 31.61
499 9.8600 1048.00 1163.12 32.37
500 9.8700 1003.00 1188.59 31.67
501 9.8800 1047.00 1216.74 32.36
502 9.8900 1113.00 1248.11 33.36
503 9.9000 1087.00 1283.45 32.97
504 9.9100 1147.00 1323.71 33.87
505 9.9200 1186.00 1370.12 34.44
506 9.9300 1219.00 1424.16 34.91
507 9.9400 1210.00 1487.42 34.79
508 9.9500 1301.00 1561.33 36.07
509 9.9600 1400.00 1646.65 37.42
510 9.9700 1388.00 1742.86 37.26
511 9.9800 1533.00 1847.31 39.15
512 9.9900 1611.00 1954.66 40.14
513 10.0000 1722.00 2056.66 41.50
514 10.0100 1771.00 2142.56 42.08
515 10.0200 1834.00 2200.40 42.83
516 10.0300 1847.00 2218.89 42.98
517 10.0400 1864.00 2190.04 43.17
518 10.0500 1900.00 2112.13 43.59
519 10.0600 1745.00 1991.56 41.77
520 10.0700 1615.00 1841.94 40.19
521 10.0800 1536.00 1680.01 39.19
522 10.0900 1494.00 1521.39 38.65
523 10.1000 1373.00 1377.93 37.05
524 10.1100 1260.00 1256.84 35.50
525 10.1200 1232.00 1160.83 35.10
526 10.1300 1160.00 1088.98 34.06
527 10.1400 1055.00 1037.97 32.48
528 10.1500 1034.00 1003.42 32.16
529 10.1600 1030.00 980.88 32.09
530 10.1700 1032.00 966.53 32.12
531 10.1800 1007.00 957.44 31.73
532 10.1900 970.00 951.55 31.14
533 10.2000 972.00 947.55 31.18
534 10.2100 977.00 944.64 31.26
535 10.2200 882.00 942.38 29.70
536 10.2300 933.00 940.50 30.55
537 10.2400 947.00 938.89 30.77
538 10.2500 1005.00 937.46 31.70
539 10.2600 939.00 936.18 30.64
540 10.2700 968.00 935.02 31.11
541 10.2800 952.00 933.97 30.85
542 10.2900 982.00 933.00 31.34
543 10.3000 962.00 932.11 31.02
544 10.3100 951.00 931.29 30.84
545 10.3200 939.00 930.53 30.64
546 10.3300 921.00 929.82 30.35
547 10.3400 998.00 929.16 31.59
548 10.3500 980.00 928.54 31.31
549 10.3600 934.00 927.96 30.56
550 10.3700 970.00 927.42 31.14
551 10.3800 960.00 926.91 30.98
552 10.3900 898.00 926.44 29.97
553 10.4000 921.00 926.00 30.35
554 10.4100 952.00 925.58 30.85
555 10.4200 983.00 925.19 31.35
556 10.4300 961.00 924.83 31.00
557 10.4400 958.00 924.49 30.95
558 10.4500 963.00 924.18 31.03
559 10.4600 968.00 923.89 31.11
560 10.4700 908.00 923.63 30.13
561 10.4800 915.00 923.39 30.25
562 10.4900 940.00 923.17 30.66
563 10.5000 933.00 922.98 30.55
564 10.5100 954.00 922.81 30.89
565 10.5200 948.00 922.67 30.79
566 10.5300 950.00 922.55 30.82
567 10.5400 952.00 922.45 30.85
568 10.5500 988.00 922.39 31.43
569 10.5600 972.00 922.34 31.18
570 10.5700 965.00 922.33 31.06
571 10.5800 978.00 922.35 31.27
572 10.5900 938.00 922.40 30.63
573 10.6000 946.00 922.47 30.76
574 10.6100 1012.00 922.58 31.81
575 10.6200 1026.00 922.73 32.03
576 10.6300 1001.00 922.91 31.64
577 10.6400 1082.00 923.13 32.89
578 10.6500 1058.00 923.39 32.53
579 10.6600 1070.00 923.69 32.71
580 10.6700 1100.00 924.04 33.17
581 10.6800 1017.00 924.43 31.89
582 10.6900 1046.00 924.88 32.34
583 10.7000 1092.00 925.38 33.05
584 10.7100 1103.00 925.94 33.21
585 10.7200 1062.00 926.56 32.59
586 10.7300 1034.00 927.25 32.16
587 10.7400 996.00 928.01 31.56
588 10.7500 1037.00 928.85 32.20
589 10.7600 1055.00 929.77 32.48
590 10.7700 1049.00 930.78 32.39
591 10.7800 1099.00 931.88 33.15
592 10.7900 1024.00 933.09 32.00
593 10.8000 1024.00 934.42 32.00
594 10.8100 1003.00 935.87 31.67
595 10.8200 1073.00 937.45 32.76
596 10.8300 1057.00 939.19 32.51
597 10.8400 1032.00 941.08 32.12
598 10.8500 1051.00 943.16 32.42
599 10.8600 1108.00 945.43 33.29
600 10.8700 1031.00 947.92 32.11
601 10.8800 1074.00 950.65 32.77
602 10.8900 1053.00 953.65 32.45
603 10.9000 1064.00 956.96 32.62
604 10.9100 1089.00 960.63 33.00
605 10.9200 1137.00 964.70 33.72
606 10.9300 1095.00 969.26 33.09
607 10.9400 1159.00 974.43 34.04
608 10.9500 1162.00 980.36 34.09
609 10.9600 1215.00 987.30 34.86
610 10.9700 1204.00 995.59 34.70
611 10.9800 1210.00 1005.70 34.79
612 10.9900 1200.00 1018.29 34.64
613 11.0000 1231.00 1034.21 35.09
614 11.0100 1267.00 1054.54 35.59
615 11.0200 1337.00 1080.57 36.56
616 11.0300 1402.00 1113.78 37.44
617 11.0400 1400.00 1155.79 37.42
618 11.0500 1467.00 1208.23 38.30
619 11.0600 1488.00 1272.66 38.57
620 11.0700 1546.00 1350.42 39.32
621 11.0800 1559.00 1442.55 39.48
622 11.0900 1651.00 1549.73 40.63
623 11.1000 1751.00 1672.42 41.85
624 11.1100 1858.00 1810.95 43.10
625 11.1200 2013.00 1965.66 44.87
626 11.1300 2095.00 2137.07 45.77
627 11.1400 2216.00 2326.12 47.07
628 11.1500 2380.00 2534.17 48.79
629 11.1600 2651.00 2763.29 51.49
630 11.1700 2771.00 3016.42 52.64
631 11.1800 3075.00 3297.63 55.45
632 11.1900 3436.00 3612.25 58.62
633 11.2000 3772.00 3967.17 61.42
634 11.2100 4192.00 4370.75 64.75
635 11.2200 4595.00 4832.63 67.79
636 11.2300 5202.00 5362.67 72.12
637 11.2400 5918.00 5969.29 76.93
638 11.2500 6471.00 6656.74 80.44
639 11.2600 7359.00 7421.76 85.78
640 11.2700 8162.00 8249.70 90.34
641 11.2800 9234.00 9110.94 96.09
642 11.2900 10175.00 9959.24 100.87
643 11.3000 11313.00 10732.20 106.36
644 11.3100 11832.00 11355.40 108.78
645 11.3200 12296.00 11748.80 110.89
646 11.3300 12312.00 11839.10 110.96
647 11.3400 12095.00 11576.20 109.98
648 11.3500 11134.00 10953.70 105.52
649 11.3600 10143.00 10021.40 100.71
650 11.3700 8896.00 8876.67 94.32
651 11.3800 7513.00 7635.48 86.68
652 11.3900 6268.00 6403.83 79.17
653 11.4000 5138.00 5262.90 71.68
654 11.4100 4191.00 4264.86 64.74
655 11.4200 3328.00 3434.98 57.69
656 11.4300 2778.00 2775.74 52.71
657 11.4400 2233.00 2273.69 47.25
658 11.4500 1930.00 1905.38 43.93
659 11.4600 1765.00 1643.54 42.01
660 11.4700 1638.00 1461.59 40.47
661 11.4800 1443.00 1336.63 37.99
662 11.4900 1293.00 1250.53 35.96
663 11.5000 1229.00 1190.03 35.06
664 11.5100 1195.00 1146.03 34.57
665 11.5200 1159.00 1112.56 34.04
666 11.5300 1159.00 1085.94 34.04
667 11.5400 1075.00 1063.91 32.79
668 11.5500 1079.00 1045.14 32.85
669 11.5600 1047.00 1028.80 32.36
670 11.5700 1066.00 1014.39 32.65
671 11.5800 1012.00 1001.54 31.81
672 11.5900 992.00 990.01 31.50
673 11.6000 995.00 979.62 31.54
674 11.6100 1012.00 970.20 31.81
675 11.6200 1016.00 961.64 31.87
676 11.6300 946.00 953.82 30.76
677 11.6400 935.00 946.66 30.58
678 11.6500 890.00 940.08 29.83
679 11.6600 942.00 933.75 30.69
680 11.6700 898.00 928.15 29.97
681 11.6800 948.00 922.95 30.79
682 11.6900 881.00 918.12 29.68
683 11.7000 906.00 913.62 30.10
684 11.7100 880.00 909.42 29.66
685 11.7200 868.00 905.48 29.46
686 11.7300 934.00 901.79 30.56
687 11.7400 865.00 898.32 29.41
688 11.7500 906.00 895.04 30.10
689 11.7600 890.00 891.96 29.83
690 11.7700 892.00 889.03 29.87
691 11.7800 891.00 886.26 29.85
692 11.7900 922.00 883.63 30.36
693 11.8000 857.00 881.13 29.27
694 11.8100 865.00 878.75 29.41
695 11.8200 877.00 876.48 29.61
696 11.8300 876.00 874.31 29.60
697 11.8400 916.00 872.23 30.27
698 11.8500 884.00 870.24 29.73
699 11.8600 878.00 868.33 29.63
700 11.8700 869.00 866.49 29.48
701 11.8800 883.00 864.72 29.72
702 11.8900 846.00 863.02 29.09
703 11.9000 875.00 861.38 29.58
704 11.9100 841.00 859.79 29.00
705 11.9200 881.00 858.26 29.68
706 11.9300 870.00 856.78 29.50
707 11.9400 894.00 855.34 29.90
708 11.9500 892.00 853.95 29.87
709 11.9600 869.00 852.60 29.48
710 11.9700 858.00 851.28 29.29
711 11.9800 829.00 850.01 28.79
712 11.9900 828.00 848.76 28.77
713 12.0000 832.00 847.55 28.84
714 12.0100 794.00 846.37 28.18
715 12.0200 837.00 845.22 28.93
716 12.0300 827.00 844.09 28.76
717 12.0400 820.00 842.99 28.64
718 12.0500 827.00 841.92 28.76
719 12.0600 876.00 840.87 29.60
720 12.0700 833.00 839.84 28.86
721 12.0800 866.00 838.83 29.43
722 12.0900 794.00 837.84 28.18
723 12.1000 803.00 836.87 28.34
724 12.1100 864.00 835.91 29.39
725 12.1200 841.00 834.98 29.00
726 12.1300 898.00 834.06 29.97
727 12.1400 890.00 833.15 29.83
728 12.1500 827.00 832.26 28.76
729 12.1600 886.00 831.39 29.77
730 12.1700 906.00 830.53 30.10
731 12.1800 864.00 829.68 29.39
732 12.1900 882.00 828.84 29.70
733 12.2000 888.00 828.01 29.80
734 12.2100 873.00 827.20 29.55
735 12.2200 844.00 826.40 29.05
736 12.2300 853.00 825.60 29.21
737 12.2400 882.00 824.82 29.70
738 12.2500 845.00 824.05 29.07
739 12.2600 861.00 823.28 29.34
740 12.2700 850.00 822.53 29.15
741 12.2800 808.00 821.78 28.43
742 12.2900 876.00 821.04 29.60
743 12.3000 851.00 820.31 29.17
744 12.3100 842.00 819.59 29.02
745 12.3200 837.00 818.87 28.93
746 12.3300 862.00 818.16 29.36
747 12.3400 825.00 817.46 28.72
748 12.3500 825.00 816.77 28.72
749 12.3600 862.00 816.08 29.36
750 12.3700 796.00 815.39 28.21
751 12.3800 787.00 814.72 28.05
752 12.3900 749.00 814.04 27.37
753 12.4000 820.00 813.38 28.64
754 12.4100 785.00 812.72 28.02
755 12.4200 796.00 812.06 28.21
756 12.4300 796.00 811.41 28.21
757 12.4400 837.00 810.77 28.93
758 12.4500 853.00 810.12 29.21
759 12.4600 835.00 809.49 28.90
760 12.4700 798.00 808.86 28.25
761 12.4800 822.00 808.23 28.67
762 12.4900 831.00 807.60 28.83
763 12.5000 767.00 806.98 27.69
764 12.5100 802.00 806.37 28.32
765 12.5200 812.00 805.76 28.50
766 12.5300 791.00 805.15 28.12
767 12.5400 802.00 804.55 28.32
768 12.5500 825.00 803.95 28.72
769 12.5600 862.00 803.35 29.36
770 12.5700 815.00 802.75 28.55
771 12.5800 784.00 802.16 28.00
772 12.5900 837.00 801.58 28.93
773 12.6000 860.00 800.99 29.33
774 12.6100 783.00 800.41 27.98
775 12.6200 751.00 799.83 27.40
776 12.6300 822.00 799.26 28.67
777 12.6400 794.00 798.68 28.18
778 12.6500 788.00 798.11 28.07
779 12.6600 790.00 797.54 28.11
780 12.6700 788.00 796.98 28.07
781 12.6800 802.00 796.42 28.32
782 12.6900 784.00 795.86 28.00
783 12.7000 793.00 795.30 28.16
784 12.7100 745.00 794.75 27.29
785 12.7200 823.00 794.20 28.69
786 12.7300 781.00 793.65 27.95
787 12.7400 781.00 793.10 27.95
788 12.7500 791.00 792.55 28.12
789 12.7600 810.00 792.01 28.46
790 12.7700 820.00 791.47 28.64
791 12.7800 805.00 790.93 28.37
792 12.7900 786.00 790.39 28.04
793 12.8000 793.00 789.86 28.16
794 12.8100 790.00 789.32 28.11
795 12.8200 823.00 788.79 28.69
796 12.8300 812.00 788.26 28.50
797 12.8400 754.00 787.74 27.46
798 12.8500 800.00 787.21 28.28
799 12.8600 803.00 786.69 28.34
800 12.8700 783.00 786.17 27.98
801 12.8800 770.00 785.65 27.75
802 12.8900 818.00 785.13 28.60
803 12.9000 802.00 784.61 28.32
804 12.9100 815.00 784.10 28.55
805 12.9200 794.00 783.58 28.18
806 12.9300 793.00 783.07 28.16
807 12.9400 787.00 782.56 28.05
808 12.9500 808.00 782.05 28.43
809 12.9600 810.00 781.55 28.46
810 12.9700 829.00 781.04 28.79
811 12.9800 814.00 780.54 28.53
812 12.9900 780.00 780.04 27.93
813 13.0000 755.00 779.54 27.48
814 13.0100 769.00 779.04 27.73
815 13.0200 795.00 778.54 28.20
816 13.0300 778.00 778.04 27.89
817 13.0400 792.00 777.55 28.14
818 13.0500 775.00 777.06 27.84
819 13.0600 797.00 776.56 28.23
820 13.0700 729.00 776.07 27.00
821 13.0800 810.00 775.58 28.46
822 13.0900 747.00 775.10 27.33
823 13.1000 742.00 774.61 27.24
824 13.1100 776.00 774.12 27.86
825 13.1200 785.00 773.64 28.02
826 13.1300 797.00 769.73 28.23
827 13.1400 790.00 769.29 28.11
828 13.1500 747.00 768.85 27.33
829 13.1600 732.00 768.40 27.06
830 13.1700 765.00 767.96 27.66
831 13.1800 756.00 767.52 27.50
832 13.1900 765.00 767.08 27.66
833 13.2000 741.00 766.64 27.22
834 13.2100 754.00 766.20 27.46
835 13.2200 797.00 765.76 28.23
836 13.2300 749.00 765.32 27.37
837 13.2400 748.00 764.88 27.35
838 13.2500 769.00 764.45 27.73
839 13.2600 787.00 764.01 28.05
840 13.2700 755.00 763.58 27.48
841 13.2800 803.00 763.14 28.34
842 13.2900 753.00 762.71 27.44
843 13.3000 740.00 762.27 27.20
844 13.3100 785.00 761.84 28.02
845 13.3200 795.00 761.41 28.20
846 13.3300 782.00 760.97 27.96
847 13.3400 810.00 760.54 28.46
848 13.3500 789.00 760.11 28.09
849 13.3600 782.00 759.68 27.96
850 13.3700 738.00 759.25 27.17
851 13.3800 779.00 758.83 27.91
852 13.3900 783.00 758.40 27.98
853 13.4000 759.00 757.97 27.55
854 13.4100 734.00 757.54 27.09
855 13.4200 763.00 757.12 27.62
856 13.4300 748.00 756.69 27.35
857 13.4400 779.00 756.27 27.91
858 13.4500 733.00 755.84 27.07
859 13.4600 771.00 755.42 27.77
860 13.4700 792.00 755.00 28.14
861 13.4800 775.00 754.58 27.84
862 13.4900 766.00 754.16 27.68
863 13.5000 744.00 753.73 27.28
864 13.5100 746.00 753.32 27.31
865 13.5200 747.00 752.90 27.33
866 13.5300 764.00 752.48 27.64
867 13.5400 746.00 752.06 27.31
868 13.5500 795.00 751.64 28.20
869 13.5600 755.00 751.22 27.48
870 13.5700 832.00 750.81 28.84
871 13.5800 722.00 750.39 26.87
872 13.5900 738.00 749.98 27.17
873 13.6000 728.00 749.57 26.98
874 13.6100 756.00 749.15 27.50
875 13.6200 775.00 748.74 27.84
876 13.6300 758.00 748.33 27.53
877 13.6400 717.00 747.91 26.78
878 13.6500 765.00 747.50 27.66
879 13.6600 774.00 747.09 27.82
880 13.6700 734.00 746.68 27.09
881 13.6800 733.00 746.28 27.07
882 13.6900 793.00 745.87 28.16
883 13.7000 744.00 745.46 27.28
884 13.7100 761.00 745.05 27.59
885 13.7200 698.00 744.65 26.42
886 13.7300 759.00 744.24 27.55
887 13.7400 735.00 743.84 27.11
888 13.7500 749.00 743.43 27.37
889 13.7600 747.00 743.03 27.33
890 13.7700 744.00 742.62 27.28
891 13.7800 753.00 742.22 27.44
892 13.7900 801.00 741.82 28.30
893 13.8000 774.00 741.42 27.82
894 13.8100 762.00 741.02 27.60
895 13.8200 759.00 740.62 27.55
896 13.8300 793.00 740.22 28.16
897 13.8400 759.00 739.82 27.55
898 13.8500 726.00 739.42 26.94
899 13.8600 711.00 739.03 26.66
900 13.8700 681.00 738.63 26.10
901 13.8800 715.00 738.23 26.74
902 13.8900 766.00 737.84 27.68
903 13.9000 764.00 737.44 27.64
904 13.9100 685.00 737.05 26.17
905 13.9200 775.00 736.65 27.84
906 13.9300 735.00 736.26 27.11
907 13.9400 751.00 735.87 27.40
908 13.9500 772.00 735.48 27.78
909 13.9600 773.00 735.09 27.80
910 13.9700 770.00 734.70 27.75
911 13.9800 734.00 734.30 27.09
912 13.9900 723.00 733.92 26.89
913 14.0000 768.00 733.53 27.71
914 14.0100 752.00 733.14 27.42
915 14.0200 741.00 732.75 27.22
916 14.0300 732.00 732.36 27.06
917 14.0400 717.00 731.98 26.78
918 14.0500 768.00 731.59 27.71
919 14.0600 742.00 731.21 27.24
920 14.0700 734.00 730.82 27.09
921 14.0800 762.00 730.44 27.60
922 14.0900 786.00 730.06 28.04
923 14.1000 747.00 729.67 27.33
924 14.1100 730.00 729.29 27.02
925 14.1200 710.00 728.91 26.65
926 14.1300 780.00 728.53 27.93
927 14.1400 776.00 728.15 27.86
928 14.1500 738.00 727.77 27.17
929 14.1600 728.00 727.39 26.98
930 14.1700 745.00 727.01 27.29
931 14.1800 726.00 726.64 26.94
932 14.1900 702.00 726.26 26.50
933 14.2000 753.00 725.88 27.44
934 14.2100 754.00 725.51 27.46
935 14.2200 712.00 725.13 26.68
936 14.2300 741.00 724.76 27.22
937 14.2400 754.00 724.38 27.46
938 14.2500 728.00 724.01 26.98
939 14.2600 779.00 723.64 27.91
940 14.2700 734.00 723.26 27.09
941 14.2800 725.00 722.89 26.93
942 14.2900 719.00 722.52 26.81
943 14.3000 742.00 722.15 27.24
944 14.3100 801.00 721.78 28.30
945 14.3200 770.00 721.41 27.75
946 14.3300 697.00 721.04 26.40
947 14.3400 684.00 720.67 26.15
948 14.3500 717.00 720.31 26.78
949 14.3600 692.00 719.94 26.31
950 14.3700 793.00 719.57 28.16
951 14.3800 778.00 719.21 27.89
952 14.3900 741.00 718.84 27.22
953 14.4000 684.00 718.47 26.15
954 14.4100 713.00 718.11 26.70
955 14.4200 679.00 717.75 26.06
956 14.4300 734.00 717.38 27.09
957 14.4400 784.00 717.02 28.00
958 14.4500 722.00 716.66 26.87
959 14.4600 722.00 716.30 26.87
960 14.4700 717.00 715.94 26.78
961 14.4800 711.00 715.58 26.66
962 14.4900 707.00 715.22 26.59
963 14.5000 679.00 714.86 26.06
964 14.5100 625.00 714.50 25.00
965 14.5200 669.00 714.14 25.86
966 14.5300 720.00 713.78 26.83
967 14.5400 758.00 713.42 27.53
968 14.5500 737.00 713.07 27.15
969 14.5600 656.00 712.71 25.61
970 14.5700 710.00 712.36 26.65
971 14.5800 762.00 712.00 27.60
972 14.5900 670.00 711.65 25.88
973 14.6000 709.00 711.29 26.63
974 14.6100 674.00 710.94 25.96
975 14.6200 697.00 710.59 26.40
976 14.6300 657.00 710.23 25.63
977 14.6400 682.00 709.88 26.12
978 14.6500 702.00 709.53 26.50
979 14.6600 731.00 709.18 27.04
980 14.6700 676.00 708.85 26.00
981 14.6800 703.00 708.50 26.51
982 14.6900 704.00 708.15 26.53
983 14.7000 701.00 707.80 26.48
984 14.7100 699.00 707.45 26.44
985 14.7200 711.00 707.10 26.66
986 14.7300 711.00 706.76 26.66
987 14.7400 716.00 706.41 26.76
988 14.7500 692.00 706.07 26.31
989 14.7600 723.00 705.72 26.89
990 14.7700 695.00 705.38 26.36
991 14.7800 701.00 705.03 26.48
992 14.7900 720.00 704.69 26.83
993 14.8000 700.00 704.34 26.46
994 14.8100 703.00 704.00 26.51
995 14.8200 705.00 703.66 26.55
996 14.8300 729.00 703.32 27.00
997 14.8400 751.00 702.97 27.40
998 14.8500 705.00 702.63 26.55
999 14.8600 748.00 702.29 27.35
1000 14.8700 680.00 701.95 26.08
1001 14.8800 696.00 701.61 26.38
1002 14.8900 694.00 701.28 26.34
1003 14.9000 707.00 700.94 26.59
1004 14.9100 722.00 700.60 26.87
1005 14.9200 740.00 700.26 27.20
1006 14.9300 710.00 699.92 26.65
1007 14.9400 706.00 699.59 26.57
1008 14.9500 707.00 699.25 26.59
1009 14.9600 733.00 698.91 27.07
1010 14.9700 697.00 698.58 26.40
1011 14.9800 660.00 698.24 25.69
1012 14.9900 691.00 697.91 26.29
1013 15.0000 745.00 697.58 27.29
1014 15.0100 715.00 697.24 26.74
1015 15.0200 722.00 696.91 26.87
1016 15.0300 669.00 696.58 25.86
1017 15.0400 717.00 696.25 26.78
1018 15.0500 717.00 695.91 26.78
1019 15.0600 671.00 695.58 25.90
1020 15.0700 693.00 695.25 26.32
1021 15.0800 654.00 694.92 25.57
1022 15.0900 667.00 694.59 25.83
1023 15.1000 714.00 694.26 26.72
1024 15.1100 680.00 693.93 26.08
1025 15.1200 698.00 693.61 26.42
1026 15.1300 688.00 693.28 26.23
1027 15.1400 678.00 692.95 26.04
1028 15.1500 691.00 692.62 26.29
1029 15.1600 690.00 692.30 26.27
1030 15.1700 673.00 691.97 25.94
1031 15.1800 713.00 691.64 26.70
1032 15.1900 758.00 691.32 27.53
1033 15.2000 715.00 690.99 26.74
1034 15.2100 671.00 690.67 25.90
1035 15.2200 668.00 690.34 25.85
1036 15.2300 650.00 690.02 25.50
1037 15.2400 717.00 689.70 26.78
1038 15.2500 709.00 689.38 26.63
1039 15.2600 721.00 689.05 26.85
1040 15.2700 678.00 688.73 26.04
1041 15.2800 687.00 688.41 26.21
1042 15.2900 677.00 688.09 26.02
1043 15.3000 712.00 687.77 26.68
1044 15.3100 661.00 687.45 25.71
1045 15.3200 622.00 687.13 24.94
1046 15.3300 670.00 686.81 25.88
1047 15.3400 694.00 686.49 26.34
1048 15.3500 677.00 686.17 26.02
1049 15.3600 649.00 685.85 25.48
1050 15.3700 730.00 685.53 27.02
1051 15.3800 687.00 685.41 26.21
1052 15.3900 667.00 685.10 25.83
1053 15.4000 662.00 684.78 25.73
1054 15.4100 648.00 684.47 25.46
1055 15.4200 615.00 684.16 24.80
1056 15.4300 644.00 683.84 25.38
1057 15.4400 653.00 683.53 25.55
1058 15.4500 691.00 683.22 26.29
1059 15.4600 684.00 682.91 26.15
1060 15.4700 678.00 682.60 26.04
1061 15.4800 698.00 682.29 26.42
1062 15.4900 688.00 681.98 26.23
1063 15.5000 656.00 681.67 25.61
1064 15.5100 683.00 681.36 26.13
1065 15.5200 711.00 681.05 26.66
1066 15.5300 684.00 680.74 26.15
1067 15.5400 692.00 680.43 26.31
1068 15.5500 675.00 680.13 25.98
1069 15.5600 639.00 679.82 25.28
1070 15.5700 625.00 679.51 25.00
1071 15.5800 657.00 679.21 25.63
1072 15.5900 718.00 678.90 26.80
1073 15.6000 682.00 678.59 26.12
1074 15.6100 667.00 678.29 25.83
1075 15.6200 727.00 677.99 26.96
1076 15.6300 653.00 677.68 25.55
1077 15.6400 710.00 677.38 26.65
1078 15.6500 684.00 677.08 26.15
1079 15.6600 696.00 676.78 26.38
1080 15.6700 673.00 676.47 25.94
1081 15.6800 669.00 676.17 25.86
1082 15.6900 640.00 675.87 25.30
1083 15.7000 684.00 675.57 26.15
1084 15.7100 675.00 675.27 25.98
1085 15.7200 662.00 674.97 25.73
1086 15.7300 688.00 674.68 26.23
1087 15.7400 655.00 674.38 25.59
1088 15.7500 662.00 674.08 25.73
1089 15.7600 678.00 673.79 26.04
1090 15.7700 658.00 673.49 25.65
1091 15.7800 650.00 673.20 25.50
1092 15.7900 688.00 672.90 26.23
1093 15.8000 628.00 672.61 25.06
1094 15.8100 655.00 672.32 25.59
1095 15.8200 702.00 672.02 26.50
1096 15.8300 677.00 671.73 26.02
1097 15.8400 647.00 671.44 25.44
1098 15.8500 687.00 671.15 26.21
1099 15.8600 669.00 670.86 25.86
1100 15.8700 621.00 670.58 24.92
1101 15.8800 686.00 670.29 26.19
1102 15.8900 657.00 670.01 25.63
1103 15.9000 674.00 669.73 25.96
1104 15.9100 705.00 669.44 26.55
1105 15.9200 649.00 669.16 25.48
1106 15.9300 670.00 668.88 25.88
1107 15.9400 659.00 668.60 25.67
1108 15.9500 642.00 668.33 25.34
1109 15.9600 632.00 668.05 25.14
1110 15.9700 657.00 667.78 25.63
1111 15.9800 646.00 667.50 25.42
1112 15.9900 622.00 667.23 24.94
1113 16.0000 672.00 666.97 25.92
1114 16.0100 669.00 666.70 25.86
1115 16.0200 661.00 666.44 25.71
1116 16.0300 668.00 666.18 25.85
1117 16.0400 699.00 665.93 26.44
1118 16.0500 648.00 665.68 25.46
1119 16.0600 632.00 665.44 25.14
1120 16.0700 644.00 665.20 25.38
1121 16.0800 687.00 664.97 26.21
1122 16.0900 663.00 664.76 25.75
1123 16.1000 669.00 664.56 25.86
1124 16.1100 659.00 664.39 25.67
1125 16.1200 650.00 664.24 25.50
1126 16.1300 666.00 664.14 25.81
1127 16.1400 660.00 664.10 25.69
1128 16.1500 669.00 664.13 25.86
1129 16.1600 655.00 664.26 25.59
1130 16.1700 676.00 664.50 26.00
1131 16.1800 639.00 664.88 25.28
1132 16.1900 652.00 665.42 25.53
1133 16.2000 680.00 666.15 26.08
1134 16.2100 650.00 667.09 25.50
1135 16.2200 661.00 668.26 25.71
1136 16.2300 640.00 669.71 25.30
1137 16.2400 655.00 671.46 25.59
1138 16.2500 697.00 673.56 26.40
1139 16.2600 655.00 676.08 25.59
1140 16.2700 636.00 679.05 25.22
1141 16.2800 694.00 682.53 26.34
1142 16.2900 721.00 686.51 26.85
1143 16.3000 679.00 690.94 26.06
1144 16.3100 710.00 695.66 26.65
1145 16.3200 711.00 700.45 26.66
1146 16.3300 707.00 704.95 26.59
1147 16.3400 691.00 708.72 26.29
1148 16.3500 676.00 711.29 26.00
1149 16.3600 665.00 712.20 25.79
1150 16.3700 704.00 711.10 26.53
1151 16.3800 694.00 707.92 26.34
1152 16.3900 652.00 702.92 25.53
1153 16.4000 670.00 696.67 25.88
1154 16.4100 660.00 689.84 25.69
1155 16.4200 716.00 683.06 26.76
1156 16.4300 679.00 676.79 26.06
1157 16.4400 708.00 671.33 26.61
1158 16.4500 665.00 666.80 25.79
1159 16.4600 662.00 663.22 25.73
1160 16.4700 652.00 660.48 25.53
1161 16.4800 599.00 658.44 24.47
1162 16.4900 673.00 656.96 25.94
1163 16.5000 663.00 655.88 25.75
1164 16.5100 635.00 655.07 25.20
1165 16.5200 632.00 654.46 25.14
1166 16.5300 623.00 653.96 24.96
1167 16.5400 629.00 653.54 25.08
1168 16.5500 663.00 653.18 25.75
1169 16.5600 677.00 652.84 26.02
1170 16.5700 690.00 652.54 26.27
1171 16.5800 656.00 652.25 25.61
1172 16.5900 606.00 651.98 24.62
1173 16.6000 631.00 651.72 25.12
1174 16.6100 618.00 651.48 24.86
1175 16.6200 623.00 651.26 24.96
1176 16.6300 657.00 651.04 25.63
1177 16.6400 641.00 650.84 25.32
1178 16.6500 657.00 650.66 25.63
1179 16.6600 625.00 650.49 25.00
1180 16.6700 619.00 650.33 24.88
1181 16.6800 638.00 650.19 25.26
1182 16.6900 638.00 650.06 25.26
1183 16.7000 631.00 649.95 25.12
1184 16.7100 627.00 649.86 25.04
1185 16.7200 629.00 649.79 25.08
1186 16.7300 605.00 649.75 24.60
1187 16.7400 666.00 649.73 25.81
1188 16.7500 645.00 649.74 25.40
1189 16.7600 638.00 649.78 25.26
1190 16.7700 614.00 649.86 24.78
1191 16.7800 635.00 649.98 25.20
1192 16.7900 673.00 650.15 25.94
1193 16.8000 630.00 650.39 25.10
1194 16.8100 625.00 650.70 25.00
1195 16.8200 612.00 651.12 24.74
1196 16.8300 629.00 651.69 25.08
1197 16.8400 639.00 652.45 25.28
1198 16.8500 622.00 653.48 24.94
1199 16.8600 622.00 654.88 24.94
1200 16.8700 641.00 656.78 25.32
1201 16.8800 667.00 659.35 25.83
1202 16.8900 658.00 662.78 25.65
1203 16.9000 638.00 667.31 25.26
1204 16.9100 661.00 673.19 25.71
1205 16.9200 668.00 680.70 25.85
1206 16.9300 654.00 690.14 25.57
1207 16.9400 699.00 701.79 26.44
1208 16.9500 701.00 715.99 26.48
1209 16.9600 684.00 733.09 26.15
1210 16.9700 723.00 753.52 26.89
1211 16.9800 688.00 777.75 26.23
1212 16.9900 736.00 806.33 27.13
1213 17.0000 735.00 839.75 27.11
1214 17.0100 783.00 878.40 27.98
1215 17.0200 856.00 922.27 29.26
1216 17.0300 810.00 970.81 28.46
1217 17.0400 895.00 1022.63 29.92
1218 17.0500 877.00 1075.39 29.61
1219 17.0600 934.00 1125.66 30.56
1220 17.0700 973.00 1169.16 31.19
1221 17.0800 1081.00 1201.01 32.88
1222 17.0900 1019.00 1216.42 31.92
1223 17.1000 1054.00 1211.61 32.47
1224 17.1100 1016.00 1185.20 31.87
1225 17.1200 1005.00 1139.25 31.70
1226 17.1300 940.00 1079.12 30.66
1227 17.1400 880.00 1011.70 29.66
1228 17.1500 873.00 943.55 29.55
1229 17.1600 808.00 879.72 28.43
1230 17.1700 789.00 823.52 28.09
1231 17.1800 708.00 776.59 26.61
1232 17.1900 682.00 739.25 26.12
1233 17.2000 677.00 710.77 26.02
1234 17.2100 684.00 689.85 26.15
1235 17.2200 644.00 674.95 25.38
1236 17.2300 654.00 664.55 25.57
1237 17.2400 645.00 657.34 25.40
1238 17.2500 623.00 652.29 24.96
1239 17.2600 643.00 648.66 25.36
1240 17.2700 629.00 645.95 25.08
1241 17.2800 632.00 643.82 25.14
1242 17.2900 665.00 642.06 25.79
1243 17.3000 643.00 640.57 25.36
1244 17.3100 631.00 639.26 25.12
1245 17.3200 613.00 638.09 24.76
1246 17.3300 632.00 637.03 25.14
1247 17.3400 642.00 636.06 25.34
1248 17.3500 623.00 635.17 24.96
1249 17.3600 611.00 634.36 24.72
1250 17.3700 616.00 633.60 24.82
1251 17.3800 604.00 632.90 24.58
1252 17.3900 600.00 632.26 24.49
1253 17.4000 629.00 631.66 25.08
1254 17.4100 623.00 631.12 24.96
1255 17.4200 623.00 630.63 24.96
1256 17.4300 635.00 630.19 25.20
1257 17.4400 661.00 629.82 25.71
1258 17.4500 631.00 629.51 25.12
1259 17.4600 611.00 629.28 24.72
1260 17.4700 653.00 629.12 25.55
1261 17.4800 618.00 629.04 24.86
1262 17.4900 620.00 629.07 24.90
1263 17.5000 615.00 629.19 24.80
1264 17.5100 605.00 629.44 24.60
1265 17.5200 641.00 629.81 25.32
1266 17.5300 651.00 630.32 25.51
1267 17.5400 629.00 630.96 25.08
1268 17.5500 610.00 631.73 24.70
1269 17.5600 607.00 632.59 24.64
1270 17.5700 628.00 633.48 25.06
1271 17.5800 638.00 634.34 25.26
1272 17.5900 580.00 635.03 24.08
1273 17.6000 635.00 635.47 25.20
1274 17.6100 637.00 635.52 25.24
1275 17.6200 605.00 635.09 24.60
1276 17.6300 599.00 634.15 24.47
1277 17.6400 563.00 632.73 23.73
1278 17.6500 577.00 630.97 24.02
1279 17.6600 580.00 629.02 24.08
1280 17.6700 587.00 627.05 24.23
1281 17.6800 600.00 625.18 24.49
1282 17.6900 604.00 623.50 24.58
1283 17.7000 612.00 622.03 24.74
1284 17.7100 617.00 620.80 24.84
1285 17.7200 586.00 619.79 24.21
1286 17.7300 588.00 618.96 24.25
1287 17.7400 603.00 618.28 24.56
1288 17.7500 617.00 617.71 24.84
1289 17.7600 593.00 617.22 24.35
1290 17.7700 609.00 616.78 24.68
1291 17.7800 610.00 616.38 24.70
1292 17.7900 597.00 616.00 24.43
1293 17.8000 591.00 615.64 24.31
1294 17.8100 620.00 615.29 24.90
1295 17.8200 590.00 614.94 24.29
1296 17.8300 585.00 614.60 24.19
1297 17.8400 642.00 614.27 25.34
1298 17.8500 593.00 613.94 24.35
1299 17.8600 601.00 613.61 24.52
1300 17.8700 628.00 613.28 25.06
1301 17.8800 640.00 612.96 25.30
1302 17.8900 613.00 612.64 24.76
1303 17.9000 617.00 612.32 24.84
1304 17.9100 606.00 612.00 24.62
1305 17.9200 605.00 611.69 24.60
1306 17.9300 613.00 611.37 24.76
1307 17.9400 601.00 611.06 24.52
1308 17.9500 635.00 610.75 25.20
1309 17.9600 590.00 610.44 24.29
1310 17.9700 604.00 610.13 24.58
1311 17.9800 625.00 609.82 25.00
1312 17.9900 614.00 609.51 24.78
1313 18.0000 567.00 609.20 23.81
1314 18.0100 606.00 608.90 24.62
1315 18.0200 636.00 608.59 25.22
1316 18.0300 593.00 608.29 24.35
1317 18.0400 608.00 607.98 24.66
1318 18.0500 614.00 607.68 24.78
1319 18.0600 598.00 607.37 24.45
1320 18.0700 618.00 607.07 24.86
1321 18.0800 589.00 606.77 24.27
1322 18.0900 607.00 606.47 24.64
1323 18.1000 573.00 606.15 23.94
1324 18.1100 602.00 605.85 24.54
1325 18.1200 591.00 605.54 24.31
1326 18.1300 613.00 605.24 24.76
1327 18.1400 573.00 604.94 23.94
1328 18.1500 601.00 604.64 24.52
1329 18.1600 619.00 604.34 24.88
1330 18.1700 578.00 604.04 24.04
1331 18.1800 584.00 603.75 24.17
1332 18.1900 586.00 603.45 24.21
1333 18.2000 599.00 603.15 24.47
1334 18.2100 596.00 602.85 24.41
1335 18.2200 585.00 602.55 24.19
1336 18.2300 614.00 602.25 24.78
1337 18.2400 579.00 601.95 24.06
1338 18.2500 584.00 601.66 24.17
1339 18.2600 604.00 601.36 24.58
1340 18.2700 594.00 601.06 24.37
1341 18.2800 653.00 600.76 25.55
1342 18.2900 605.00 600.46 24.60
1343 18.3000 572.00 600.17 23.92
1344 18.3100 561.00 599.87 23.69
1345 18.3200 616.00 599.57 24.82
1346 18.3300 578.00 599.27 24.04
1347 18.3400 580.00 598.98 24.08
1348 18.3500 573.00 598.68 23.94
1349 18.3600 583.00 598.38 24.15
1350 18.3700 578.00 598.09 24.04
1351 18.3800 563.00 597.79 23.73
1352 18.3900 593.00 597.49 24.35
1353 18.4000 590.00 597.19 24.29
1354 18.4100 594.00 596.91 24.37
1355 18.4200 579.00 596.61 24.06
1356 18.4300 570.00 596.31 23.87
1357 18.4400 535.00 596.01 23.13
1358 18.4500 585.00 595.72 24.19
1359 18.4600 599.00 595.42 24.47
1360 18.4700 597.00 595.12 24.43
1361 18.4800 590.00 594.83 24.29
1362 18.4900 556.00 594.53 23.58
1363 18.5000 557.00 594.23 23.60
1364 18.5100 596.00 593.94 24.41
1365 18.5200 590.00 593.64 24.29
1366 18.5300 627.00 593.34 25.04
1367 18.5400 545.00 593.04 23.35
1368 18.5500 594.00 592.75 24.37
1369 18.5600 585.00 592.45 24.19
1370 18.5700 606.00 592.15 24.62
1371 18.5800 565.00 591.86 23.77
1372 18.5900 598.00 591.56 24.45
1373 18.6000 603.00 591.26 24.56
1374 18.6100 592.00 590.97 24.33
1375 18.6200 593.00 590.67 24.35
1376 18.6300 586.00 590.37 24.21
1377 18.6400 563.00 590.07 23.73
1378 18.6500 575.00 589.78 23.98
1379 18.6600 585.00 589.48 24.19
1380 18.6700 610.00 589.18 24.70
1381 18.6800 649.00 588.88 25.48
1382 18.6900 619.00 588.59 24.88
1383 18.7000 591.00 588.29 24.31
1384 18.7100 547.00 587.99 23.39
1385 18.7200 584.00 587.69 24.17
1386 18.7300 581.00 587.40 24.10
1387 18.7400 631.00 587.10 25.12
1388 18.7500 583.00 586.80 24.15
1389 18.7600 606.00 586.50 24.62
1390 18.7700 564.00 586.20 23.75
1391 18.7800 563.00 585.90 23.73
1392 18.7900 586.00 585.61 24.21
1393 18.8000 578.00 585.31 24.04
1394 18.8100 593.00 585.01 24.35
1395 18.8200 597.00 584.71 24.43
1396 18.8300 565.00 584.41 23.77
1397 18.8400 588.00 584.11 24.25
1398 18.8500 562.00 583.81 23.71
1399 18.8600 557.00 583.34 23.60
1400 18.8700 577.00 583.04 24.02
1401 18.8800 569.00 582.74 23.85
1402 18.8900 554.00 582.44 23.54
1403 18.9000 561.00 582.15 23.69
1404 18.9100 612.00 581.85 24.74
1405 18.9200 572.00 581.55 23.92
1406 18.9300 575.00 581.25 23.98
1407 18.9400 559.00 580.96 23.64
1408 18.9500 590.00 580.66 24.29
1409 18.9600 570.00 580.36 23.87
1410 18.9700 601.00 580.07 24.52
1411 18.9800 598.00 579.77 24.45
1412 18.9900 568.00 579.47 23.83
1413 19.0000 583.00 579.17 24.15
1414 19.0100 583.00 578.87 24.15
1415 19.0200 602.00 578.58 24.54
1416 19.0300 592.00 578.28 24.33
1417 19.0400 631.00 577.98 25.12
1418 19.0500 594.00 577.68 24.37
1419 19.0600 552.00 577.38 23.49
1420 19.0700 558.00 577.08 23.62
1421 19.0800 543.00 576.78 23.30
1422 19.0900 555.00 576.48 23.56
1423 19.1000 579.00 576.18 24.06
1424 19.1100 542.00 575.88 23.28
1425 19.1200 544.00 575.58 23.32
1426 19.1300 582.00 575.28 24.12
1427 19.1400 558.00 574.98 23.62
1428 19.1500 556.00 575.12 23.58
1429 19.1600 537.00 574.83 23.17
1430 19.1700 548.00 574.53 23.41
1431 19.1800 575.00 574.23 23.98
1432 19.1900 580.00 573.94 24.08
1433 19.2000 594.00 573.64 24.37
1434 19.2100 583.00 573.35 24.15
1435 19.2200 607.00 573.05 24.64
1436 19.2300 558.00 572.76 23.62
1437 19.2400 554.00 572.46 23.54
1438 19.2500 585.00 572.17 24.19
1439 19.2600 574.00 571.87 23.96
1440 19.2700 549.00 571.58 23.43
1441 19.2800 562.00 571.28 23.71
1442 19.2900 602.00 570.98 24.54
1443 19.3000 636.00 570.69 25.22
1444 19.3100 558.00 570.39 23.62
1445 19.3200 616.00 570.10 24.82
1446 19.3300 587.00 569.80 24.23
1447 19.3400 589.00 569.51 24.27
1448 19.3500 583.00 569.21 24.15
1449 19.3600 562.00 568.92 23.71
1450 19.3700 552.00 568.62 23.49
1451 19.3800 596.00 568.32 24.41
1452 19.3900 521.00 568.03 22.83
1453 19.4000 533.00 567.73 23.09
1454 19.4100 569.00 567.44 23.85
1455 19.4200 565.00 567.14 23.77
1456 19.4300 555.00 566.85 23.56
1457 19.4400 575.00 566.55 23.98
1458 19.4500 559.00 566.26 23.64
1459 19.4600 590.00 565.97 24.29
1460 19.4700 545.00 565.67 23.35
1461 19.4800 533.00 565.38 23.09
1462 19.4900 593.00 565.08 24.35
1463 19.5000 574.00 564.79 23.96
1464 19.5100 549.00 564.49 23.43
1465 19.5200 590.00 564.20 24.29
1466 19.5300 584.00 563.91 24.17
1467 19.5400 560.00 563.61 23.66
1468 19.5500 563.00 563.32 23.73
1469 19.5600 539.00 563.03 23.22
1470 19.5700 588.00 562.74 24.25
1471 19.5800 578.00 562.45 24.04
1472 19.5900 602.00 562.16 24.54
1473 19.6000 542.00 561.86 23.28
1474 19.6100 580.00 561.57 24.08
1475 19.6200 517.00 561.28 22.74
1476 19.6300 508.00 560.99 22.54
1477 19.6400 541.00 560.70 23.26
1478 19.6500 557.00 560.41 23.60
1479 19.6600 571.00 560.12 23.90
1480 19.6700 565.00 559.83 23.77
1481 19.6800 543.00 559.54 23.30
1482 19.6900 542.00 559.26 23.28
1483 19.7000 568.00 558.97 23.83
1484 19.7100 546.00 558.68 23.37
1485 19.7200 559.00 558.40 23.64
1486 19.7300 559.00 558.11 23.64
1487 19.7400 557.00 557.83 23.60
1488 19.7500 568.00 557.54 23.83
1489 19.7600 567.00 557.26 23.81
1490 19.7700 565.00 556.98 23.77
1491 19.7800 565.00 556.70 23.77
1492 19.7900 572.00 556.42 23.92
1493 19.8000 542.00 556.14 23.28
1494 19.8100 574.00 555.86 23.96
1495 19.8200 524.00 555.58 22.89
1496 19.8300 590.00 555.31 24.29
1497 19.8400 557.00 555.04 23.60
1498 19.8500 574.00 554.77 23.96
1499 19.8600 565.00 554.50 23.77
1500 19.8700 532.00 554.23 23.07
1501 19.8800 570.00 553.97 23.87
1502 19.8900 580.00 553.71 24.08
1503 19.9000 553.00 553.45 23.52
1504 19.9100 533.00 553.20 23.09
1505 19.9200 567.00 552.96 23.81
1506 19.9300 563.00 552.72 23.73
1507 19.9400 563.00 552.49 23.73
1508 19.9500 534.00 552.28 23.11
1509 19.9600 534.00 552.09 23.11
1510 19.9700 593.00 551.93 24.35
1511 19.9800 496.00 551.80 22.27
1512 19.9900 561.00 551.72 23.69
1513 20.0000 548.00 551.71 23.41
1514 20.0100 565.00 551.77 23.77
1515 20.0200 536.00 551.92 23.15
1516 20.0300 534.00 552.19 23.11
1517 20.0400 500.00 552.60 22.36
1518 20.0500 542.00 553.16 23.28
1519 20.0600 556.00 553.91 23.58
1520 20.0700 566.00 554.86 23.79
1521 20.0800 584.00 556.02 24.17
1522 20.0900 533.00 557.39 23.09
1523 20.1000 565.00 558.96 23.77
1524 20.1100 568.00 560.66 23.83
1525 20.1200 578.00 562.43 24.04
1526 20.1300 567.00 564.15 23.81
1527 20.1400 568.00 565.65 23.83
1528 20.1500 586.00 566.78 24.21
1529 20.1600 591.00 567.34 24.31
1530 20.1700 561.00 567.18 23.69
1531 20.1800 537.00 566.24 23.17
1532 20.1900 596.00 564.55 24.41
1533 20.2000 583.00 562.28 24.15
1534 20.2100 613.00 559.68 24.76
1535 20.2200 617.00 557.00 24.84
1536 20.2300 596.00 554.42 24.41
1537 20.2400 589.00 552.08 24.27
1538 20.2500 542.00 550.06 23.28
1539 20.2600 538.00 548.38 23.19
1540 20.2700 553.00 547.03 23.52
1541 20.2800 560.00 545.96 23.66
1542 20.2900 583.00 545.14 24.15
1543 20.3000 562.00 544.50 23.71
1544 20.3100 544.00 544.00 23.32
1545 20.3200 541.00 543.60 23.26
1546 20.3300 590.00 543.27 24.29
1547 20.3400 556.00 542.99 23.58
1548 20.3500 554.00 542.75 23.54
1549 20.3600 580.00 542.53 24.08
1550 20.3700 587.00 542.33 24.23
1551 20.3800 541.00 542.16 23.26
1552 20.3900 590.00 541.99 24.29
1553 20.4000 560.00 541.85 23.66
1554 20.4100 557.00 541.72 23.60
1555 20.4200 559.00 541.61 23.64
1556 20.4300 549.00 541.52 23.43
1557 20.4400 603.00 541.45 24.56
1558 20.4500 580.00 541.40 24.08
1559 20.4600 549.00 541.36 23.43
1560 20.4700 582.00 541.35 24.12
1561 20.4800 531.00 541.37 23.04
1562 20.4900 566.00 541.41 23.79
1563 20.5000 571.00 541.49 23.90
1564 20.5100 579.00 541.60 24.06
1565 20.5200 547.00 541.75 23.39
1566 20.5300 539.00 541.95 23.22
1567 20.5400 568.00 542.21 23.83
1568 20.5500 558.00 542.53 23.62
1569 20.5600 569.00 542.94 23.85
1570 20.5700 593.00 543.46 24.35
1571 20.5800 579.00 544.07 24.06
1572 20.5900 581.00 544.82 24.10
1573 20.6000 551.00 545.73 23.47
1574 20.6100 530.00 546.82 23.02
1575 20.6200 556.00 548.14 23.58
1576 20.6300 549.00 549.70 23.43
1577 20.6400 564.00 551.56 23.75
1578 20.6500 583.00 553.75 24.15
1579 20.6600 592.00 556.31 24.33
1580 20.6700 606.00 559.28 24.62
1581 20.6800 574.00 562.71 23.96
1582 20.6900 601.00 566.66 24.52
1583 20.7000 592.00 571.21 24.33
1584 20.7100 614.00 576.46 24.78
1585 20.7200 600.00 582.60 24.49
1586 20.7300 652.00 589.91 25.53
1587 20.7400 630.00 598.78 25.10
1588 20.7500 646.00 609.81 25.42
1589 20.7600 605.00 623.82 24.60
1590 20.7700 698.00 641.90 26.42
1591 20.7800 664.00 665.34 25.77
1592 20.7900 672.00 695.59 25.92
1593 20.8000 716.00 734.13 26.76
1594 20.8100 770.00 782.43 27.75
1595 20.8200 797.00 841.76 28.23
1596 20.8300 885.00 913.09 29.75
1597 20.8400 938.00 996.80 30.63
1598 20.8500 1001.00 1092.28 31.64
1599 20.8600 1117.00 1197.64 33.42
1600 20.8700 1252.00 1309.22 35.38
1601 20.8800 1336.00 1421.48 36.55
1602 20.8900 1470.00 1526.92 38.34
1603 20.9000 1546.00 1616.46 39.32
1604 20.9100 1557.00 1680.10 39.46
1605 20.9200 1634.00 1708.32 40.42
1606 20.9300 1659.00 1694.18 40.73
1607 20.9400 1591.00 1636.27 39.89
1608 20.9500 1477.00 1540.38 38.43
1609 20.9600 1382.00 1418.22 37.18
1610 20.9700 1215.00 1283.70 34.86
1611 20.9800 1118.00 1149.17 33.44
1612 20.9900 984.00 1023.91 31.37
1613 21.0000 972.00 913.70 31.18
1614 21.0100 844.00 821.39 29.05
1615 21.0200 759.00 747.35 27.55
1616 21.0300 677.00 690.27 26.02
1617 21.0400 682.00 647.71 26.12
1618 21.0500 633.00 616.84 25.16
1619 21.0600 594.00 594.86 24.37
1620 21.0700 602.00 579.32 24.54
1621 21.0800 580.00 568.26 24.08
1622 21.0900 599.00 560.22 24.47
1623 21.1000 570.00 554.18 23.87
1624 21.1100 572.00 549.45 23.92
1625 21.1200 573.00 545.60 23.94
1626 21.1300 542.00 542.36 23.28
1627 21.1400 557.00 539.57 23.60
1628 21.1500 538.00 537.11 23.19
1629 21.1600 520.00 534.94 22.80
1630 21.1700 505.00 533.00 22.47
1631 21.1800 510.00 531.26 22.58
1632 21.1900 520.00 529.70 22.80
1633 21.2000 544.00 528.31 23.32
1634 21.2100 537.00 527.08 23.17
1635 21.2200 557.00 526.00 23.60
1636 21.2300 553.00 525.07 23.52
1637 21.2400 539.00 524.29 23.22
1638 21.2500 564.00 523.67 23.75
1639 21.2600 608.00 523.20 24.66
1640 21.2700 531.00 522.89 23.04
1641 21.2800 534.00 522.73 23.11
1642 21.2900 544.00 522.72 23.32
1643 21.3000 564.00 522.82 23.75
1644 21.3100 544.00 523.01 23.32
1645 21.3200 568.00 523.23 23.83
1646 21.3300 566.00 523.43 23.79
1647 21.3400 555.00 523.55 23.56
1648 21.3500 590.00 523.49 24.29
1649 21.3600 566.00 523.21 23.79
1650 21.3700 565.00 522.68 23.77
1651 21.3800 605.00 521.91 24.60
1652 21.3900 604.00 520.96 24.58
1653 21.4000 596.00 519.95 24.41
1654 21.4100 608.00 518.96 24.66
1655 21.4200 586.00 518.05 24.21
1656 21.4300 574.00 517.25 23.96
1657 21.4400 613.00 516.54 24.76
1658 21.4500 609.00 515.90 24.68
1659 21.4600 636.00 515.26 25.22
1660 21.4700 611.00 514.55 24.72
1661 21.4800 593.00 513.71 24.35
1662 21.4900 582.00 512.72 24.12
1663 21.5000 584.00 511.58 24.17
1664 21.5100 569.00 510.35 23.85
1665 21.5200 587.00 509.09 24.23
1666 21.5300 599.00 507.86 24.47
1667 21.5400 580.00 506.69 24.08
1668 21.5500 557.00 505.63 23.60
1669 21.5600 565.00 504.67 23.77
1670 21.5700 531.00 503.82 23.04
1671 21.5800 523.00 503.08 22.87
1672 21.5900 570.00 502.42 23.87
1673 21.6000 578.00 501.83 24.04
1674 21.6100 563.00 501.30 23.73
1675 21.6200 565.00 500.81 23.77
1676 21.6300 528.00 500.36 22.98
1677 21.6400 503.00 499.92 22.43
1678 21.6500 542.00 499.49 23.28
1679 21.6600 515.00 499.08 22.69
1680 21.6700 479.00 498.68 21.89
1681 21.6800 518.00 498.29 22.76
1682 21.6900 497.00 497.90 22.29
1683 21.7000 545.00 497.52 23.35
1684 21.7100 510.00 497.14 22.58
1685 21.7200 500.00 496.77 22.36
1686 21.7300 504.00 496.40 22.45
1687 21.7400 480.00 496.04 21.91
1688 21.7500 564.00 495.69 23.75
1689 21.7600 489.00 495.34 22.11
1690 21.7700 497.00 495.00 22.29
1691 21.7800 518.00 494.67 22.76
1692 21.7900 537.00 494.36 23.17
1693 21.8000 513.00 494.06 22.65
1694 21.8100 517.00 493.78 22.74
1695 21.8200 503.00 493.55 22.43
1696 21.8300 467.00 493.33 21.61
1697 21.8400 482.00 493.14 21.95
1698 21.8500 515.00 493.00 22.69
1699 21.8600 487.00 492.91 22.07
1700 21.8700 508.00 492.87 22.54
1701 21.8800 490.00 492.88 22.14
1702 21.8900 476.00 492.95 21.82
1703 21.9000 501.00 493.07 22.38
1704 21.9100 478.00 493.21 21.86
1705 21.9200 521.00 493.37 22.83
1706 21.9300 509.00 493.50 22.56
1707 21.9400 487.00 493.57 22.07
1708 21.9500 515.00 493.54 22.69
1709 21.9600 523.00 493.37 22.87
1710 21.9700 487.00 493.02 22.07
1711 21.9800 507.00 492.49 22.52
1712 21.9900 492.00 491.81 22.18
1713 22.0000 504.00 491.00 22.45
1714 22.0100 494.00 490.14 22.23
1715 22.0200 508.00 489.28 22.54
1716 22.0300 486.00 488.46 22.05
1717 22.0400 467.00 487.72 21.61
1718 22.0500 518.00 487.06 22.76
1719 22.0600 494.00 486.51 22.23
1720 22.0700 462.00 486.06 21.49
1721 22.0800 485.00 485.71 22.02
1722 22.0900 533.00 485.48 23.09
1723 22.1000 483.00 485.35 21.98
1724 22.1100 480.00 485.34 21.91
1725 22.1200 478.00 485.46 21.86
1726 22.1300 514.00 485.73 22.67
1727 22.1400 504.00 486.16 22.45
1728 22.1500 537.00 486.77 23.17
1729 22.1600 534.00 487.57 23.11
1730 22.1700 489.00 488.56 22.11
1731 22.1800 531.00 489.72 23.04
1732 22.1900 519.00 491.02 22.78
1733 22.2000 495.00 492.38 22.25
1734 22.2100 531.00 493.73 23.04
1735 22.2200 517.00 494.94 22.74
1736 22.2300 521.00 495.87 22.83
1737 22.2400 559.00 496.38 23.64
1738 22.2500 533.00 496.33 23.09
1739 22.2600 509.00 495.64 22.56
1740 22.2700 470.00 494.31 21.68
1741 22.2800 517.00 492.48 22.74
1742 22.2900 505.00 490.32 22.47
1743 22.3000 510.00 488.03 22.58
1744 22.3100 474.00 485.79 21.77
1745 22.3200 497.00 483.71 22.29
1746 22.3300 487.00 481.86 22.07
1747 22.3400 490.00 480.28 22.14
1748 22.3500 456.00 478.95 21.35
1749 22.3600 502.00 477.87 22.41
1750 22.3700 465.00 477.00 21.56
1751 22.3800 505.00 476.28 22.47
1752 22.3900 518.00 475.69 22.76
1753 22.4000 462.00 475.20 21.49
1754 22.4100 522.00 474.77 22.85
1755 22.4200 467.00 474.38 21.61
1756 22.4300 519.00 474.02 22.78
1757 22.4400 461.00 473.69 21.47
1758 22.4500 491.00 473.38 22.16
1759 22.4600 450.00 473.08 21.21
1760 22.4700 469.00 472.80 21.66
1761 22.4800 467.00 472.52 21.61
1762 22.4900 482.00 472.26 21.95
1763 22.5000 453.00 472.02 21.28
1764 22.5100 499.00 471.78 22.34
1765 22.5200 494.00 471.56 22.23
1766 22.5300 460.00 471.36 21.45
1767 22.5400 441.00 471.19 21.00
1768 22.5500 479.00 471.04 21.89
1769 22.5600 478.00 470.92 21.86
1770 22.5700 490.00 470.85 22.14
1771 22.5800 449.00 470.83 21.19
1772 22.5900 486.00 470.89 22.05
1773 22.6000 460.00 471.05 21.45
1774 22.6100 488.00 471.32 22.09
1775 22.6200 490.00 471.74 22.14
1776 22.6300 483.00 472.36 21.98
1777 22.6400 474.00 473.21 21.77
1778 22.6500 485.00 474.34 22.02
1779 22.6600 466.00 475.81 21.59
1780 22.6700 510.00 477.67 22.58
1781 22.6800 480.00 479.95 21.91
1782 22.6900 539.00 482.69 23.22
1783 22.7000 519.00 485.90 22.78
1784 22.7100 536.00 489.55 23.15
1785 22.7200 563.00 493.60 23.73
1786 22.7300 519.00 497.94 22.78
1787 22.7400 522.00 502.21 22.85
1788 22.7500 540.00 506.68 23.24
1789 22.7600 568.00 510.88 23.83
1790 22.7700 563.00 514.54 23.73
1791 22.7800 610.00 517.36 24.70
1792 22.7900 575.00 519.05 23.98
1793 22.8000 574.00 519.35 23.96
1794 22.8100 548.00 518.12 23.41
1795 22.8200 578.00 515.38 24.04
1796 22.8300 569.00 511.36 23.85
1797 22.8400 556.00 506.39 23.58
1798 22.8500 535.00 500.89 23.13
1799 22.8600 551.00 495.23 23.47
1800 22.8700 502.00 489.69 22.41
1801 22.8800 488.00 484.50 22.09
1802 22.8900 432.00 479.79 20.78
1803 22.9000 471.00 475.63 21.70
1804 22.9100 485.00 472.05 22.02
1805 22.9200 482.00 469.01 21.95
1806 22.9300 517.00 466.49 22.74
1807 22.9400 513.00 464.42 22.65
1808 22.9500 449.00 462.72 21.19
1809 22.9600 444.00 461.34 21.07
1810 22.9700 478.00 460.20 21.86
1811 22.9800 468.00 459.25 21.63
1812 22.9900 482.00 458.45 21.95
1813 23.0000 455.00 457.75 21.33
1814 23.0100 470.00 457.14 21.68
1815 23.0200 470.00 456.58 21.68
1816 23.0300 445.00 456.06 21.09
1817 23.0400 449.00 455.58 21.19
1818 23.0500 459.00 455.12 21.42
1819 23.0600 446.00 454.69 21.12
1820 23.0700 470.00 454.27 21.68
1821 23.0800 455.00 453.86 21.33
1822 23.0900 458.00 453.47 21.40
1823 23.1000 445.00 453.08 21.09
1824 23.1100 440.00 452.71 20.98
1825 23.1200 448.00 452.34 21.17
1826 23.1300 458.00 451.99 21.40
1827 23.1400 429.00 451.64 20.71
1828 23.1500 457.00 451.29 21.38
1829 23.1600 461.00 450.95 21.47
1830 23.1700 458.00 450.61 21.40
1831 23.1800 473.00 450.28 21.75
1832 23.1900 460.00 449.95 21.45
1833 23.2000 501.00 449.63 22.38
1834 23.2100 447.00 449.31 21.14
1835 23.2200 457.00 448.99 21.38
1836 23.2300 458.00 448.68 21.40
1837 23.2400 448.00 448.37 21.17
1838 23.2500 426.00 448.07 20.64
1839 23.2600 459.00 447.77 21.42
1840 23.2700 465.00 447.47 21.56
1841 23.2800 440.00 447.18 20.98
1842 23.2900 450.00 446.89 21.21
1843 23.3000 455.00 446.60 21.33
1844 23.3100 467.00 446.32 21.61
1845 23.3200 482.00 446.04 21.95
1846 23.3300 452.00 445.76 21.26
1847 23.3400 438.00 445.49 20.93
1848 23.3500 456.00 445.23 21.35
1849 23.3600 425.00 444.97 20.62
1850 23.3700 472.00 444.71 21.73
1851 23.3800 471.00 444.47 21.70
1852 23.3900 448.00 444.23 21.17
1853 23.4000 444.00 444.01 21.07
1854 23.4100 472.00 443.79 21.73
1855 23.4200 466.00 443.59 21.59
1856 23.4300 437.00 443.42 20.90
1857 23.4400 448.00 443.27 21.17
1858 23.4500 453.00 443.16 21.28
1859 23.4600 465.00 443.10 21.56
1860 23.4700 467.00 443.11 21.61
1861 23.4800 453.00 443.23 21.28
1862 23.4900 442.00 443.46 21.02
1863 23.5000 449.00 443.87 21.19
1864 23.5100 417.00 444.49 20.42
1865 23.5200 464.00 445.37 21.54
1866 23.5300 446.00 446.58 21.12
1867 23.5400 469.00 448.16 21.66
1868 23.5500 401.00 450.16 20.02
1869 23.5600 450.00 452.60 21.21
1870 23.5700 446.00 455.50 21.12
1871 23.5800 451.00 458.78 21.24
1872 23.5900 413.00 462.35 20.32
1873 23.6000 474.00 466.05 21.77
1874 23.6100 475.00 469.64 21.79
1875 23.6200 446.00 472.86 21.12
1876 23.6300 494.00 475.36 22.23
1877 23.6400 484.00 476.81 22.00
1878 23.6500 480.00 476.91 21.91
1879 23.6600 504.00 475.51 22.45
1880 23.6700 459.00 472.68 21.42
1881 23.6800 448.00 468.73 21.17
1882 23.6900 440.00 464.12 20.98
1883 23.7000 434.00 459.28 20.83
1884 23.7100 447.00 454.60 21.14
1885 23.7200 440.00 450.30 20.98
1886 23.7300 438.00 446.55 20.93
1887 23.7400 470.00 443.39 21.68
1888 23.7500 440.00 440.82 20.98
1889 23.7600 433.00 438.77 20.81
1890 23.7700 451.00 437.18 21.24
1891 23.7800 417.00 436.22 20.42
1892 23.7900 442.00 435.26 21.02
1893 23.8000 468.00 434.50 21.63
1894 23.8100 460.00 433.88 21.45
1895 23.8200 436.00 433.36 20.88
1896 23.8300 426.00 432.90 20.64
1897 23.8400 435.00 432.49 20.86
1898 23.8500 428.00 432.11 20.69
1899 23.8600 435.00 431.75 20.86
1900 23.8700 454.00 431.42 21.31
1901 23.8800 433.00 431.09 20.81
1902 23.8900 408.00 430.77 20.20
1903 23.9000 433.00 430.47 20.81
1904 23.9100 404.00 430.18 20.10
1905 23.9200 413.00 429.89 20.32
1906 23.9300 435.00 429.61 20.86
1907 23.9400 448.00 429.34 21.17
1908 23.9500 422.00 429.07 20.54
1909 23.9600 437.00 428.82 20.90
1910 23.9700 452.00 428.56 21.26
1911 23.9800 451.00 428.32 21.24
1912 23.9900 465.00 428.07 21.56
1913 24.0000 450.00 427.84 21.21
1914 24.0100 457.00 427.61 21.38
1915 24.0200 443.00 427.38 21.05
1916 24.0300 435.00 427.16 20.86
1917 24.0400 453.00 426.95 21.28
1918 24.0500 445.00 426.82 21.09
1919 24.0600 455.00 426.62 21.33
1920 24.0700 422.00 426.43 20.54
1921 24.0800 452.00 426.25 21.26
1922 24.0900 445.00 426.06 21.09
1923 24.1000 405.00 425.89 20.12
1924 24.1100 450.00 425.73 21.21
1925 24.1200 416.00 425.58 20.40
1926 24.1300 424.00 425.43 20.59
1927 24.1400 387.00 425.30 19.67
1928 24.1500 392.00 425.18 19.80
1929 24.1600 406.00 425.07 20.15
1930 24.1700 435.00 424.97 20.86
1931 24.1800 435.00 424.89 20.86
1932 24.1900 451.00 424.83 21.24
1933 24.2000 443.00 424.78 21.05
1934 24.2100 433.00 424.75 20.81
1935 24.2200 416.00 424.74 20.40
1936 24.2300 429.00 424.75 20.71
1937 24.2400 461.00 424.79 21.47
1938 24.2500 441.00 424.86 21.00
1939 24.2600 428.00 424.96 20.69
1940 24.2700 424.00 425.10 20.59
1941 24.2800 428.00 425.28 20.69
1942 24.2900 398.00 425.51 19.95
1943 24.3000 464.00 425.79 21.54
1944 24.3100 417.00 426.14 20.42
1945 24.3200 426.00 426.56 20.64
1946 24.3300 447.00 427.08 21.14
1947 24.3400 439.00 427.71 20.95
1948 24.3500 435.00 428.48 20.86
1949 24.3600 455.00 429.45 21.33
1950 24.3700 476.00 430.67 21.82
1951 24.3800 440.00 436.25 20.98
1952 24.3900 437.00 438.33 20.90
1953 24.4000 434.00 441.07 20.83
1954 24.4100 417.00 444.70 20.42
1955 24.4200 412.00 449.54 20.30
1956 24.4300 431.00 455.98 20.76
1957 24.4400 527.00 464.51 22.96
1958 24.4500 474.00 475.70 21.77
1959 24.4600 474.00 490.18 21.77
1960 24.4700 520.00 508.60 22.80
1961 24.4800 525.00 531.55 22.91
1962 24.4900 517.00 559.47 22.74
1963 24.5000 576.00 592.48 24.00
1964 24.5100 612.00 630.30 24.74
1965 24.5200 653.00 672.09 25.55
1966 24.5300 650.00 716.34 25.50
1967 24.5400 698.00 760.87 26.42
1968 24.5500 761.00 802.75 27.59
1969 24.5600 769.00 838.51 27.73
1970 24.5700 768.00 864.29 27.71
1971 24.5800 773.00 876.45 27.80
1972 24.5900 747.00 872.49 27.33
1973 24.6000 747.00 851.67 27.33
1974 24.6100 797.00 816.36 28.23
1975 24.6200 756.00 770.96 27.50
1976 24.6300 658.00 720.64 25.65
1977 24.6400 625.00 669.97 25.00
1978 24.6500 559.00 622.36 23.64
1979 24.6600 551.00 579.98 23.47
1980 24.6700 530.00 543.93 23.02
1981 24.6800 491.00 514.47 22.16
1982 24.6900 521.00 491.25 22.83
1983 24.7000 493.00 473.50 22.20
1984 24.7100 458.00 460.27 21.40
1985 24.7200 412.00 450.58 20.30
1986 24.7300 448.00 443.55 21.17
1987 24.7400 446.00 438.44 21.12
1988 24.7500 444.00 434.67 21.07
1989 24.7600 438.00 431.82 20.93
1990 24.7700 443.00 429.61 21.05
1991 24.7800 425.00 427.83 20.62
1992 24.7900 391.00 426.37 19.77
1993 24.8000 428.00 425.15 20.69
1994 24.8100 416.00 424.13 20.40
1995 24.8200 442.00 423.30 21.02
1996 24.8300 439.00 422.63 20.95
1997 24.8400 404.00 422.14 20.10
1998 24.8500 425.00 421.84 20.62
1999 24.8600 415.00 421.74 20.37
2000 24.8700 393.00 421.86 19.82
2001 24.8800 411.00 422.24 20.27
2002 24.8900 420.00 422.88 20.49
2003 24.9000 412.00 423.79 20.30
2004 24.9100 467.00 424.97 21.61
2005 24.9200 439.00 426.38 20.95
2006 24.9300 462.00 427.96 21.49
2007 24.9400 452.00 429.62 21.26
2008 24.9500 418.00 431.25 20.44
2009 24.9600 415.00 432.68 20.37
2010 24.9700 408.00 433.76 20.20
2011 24.9800 411.00 434.30 20.27
2012 24.9900 446.00 434.17 21.12
2013 25.0000 433.00 433.29 20.81
2014 25.0100 454.00 431.73 21.31
2015 25.0200 442.00 429.64 21.02
2016 25.0300 433.00 427.27 20.81
2017 25.0400 412.00 424.81 20.30
2018 25.0500 400.00 422.46 20.00
2019 25.0600 398.00 420.32 19.95
2020 25.0700 433.00 418.45 20.81
2021 25.0800 433.00 416.90 20.81
2022 25.0900 444.00 415.67 21.07
2023 25.1000 399.00 414.70 19.98
2024 25.1100 410.00 413.98 20.25
2025 25.1200 414.00 413.45 20.35
2026 25.1300 422.00 413.07 20.54
2027 25.1400 426.00 412.80 20.64
2028 25.1500 398.00 412.62 19.95
2029 25.1600 409.00 412.51 20.22
2030 25.1700 423.00 412.46 20.57
2031 25.1800 412.00 412.45 20.30
2032 25.1900 394.00 412.48 19.85
2033 25.2000 408.00 412.54 20.20
2034 25.2100 437.00 412.65 20.90
2035 25.2200 433.00 412.80 20.81
2036 25.2300 408.00 412.99 20.20
2037 25.2400 408.00 413.24 20.20
2038 25.2500 417.00 413.56 20.42
2039 25.2600 405.00 413.96 20.12
2040 25.2700 394.00 414.46 19.85
2041 25.2800 401.00 415.10 20.02
2042 25.2900 400.00 415.90 20.00
2043 25.3000 408.00 416.91 20.20
2044 25.3100 410.00 418.17 20.25
2045 25.3200 420.00 419.73 20.49
2046 25.3300 450.00 421.64 21.21
2047 25.3400 428.00 423.94 20.69
2048 25.3500 457.00 426.64 21.38
2049 25.3600 433.00 429.74 20.81
2050 25.3700 392.00 433.19 19.80
2051 25.3800 398.00 436.92 19.95
2052 25.3900 436.00 440.78 20.88
2053 25.4000 410.00 444.61 20.25
2054 25.4100 420.00 448.19 20.49
2055 25.4200 430.00 451.28 20.74
2056 25.4300 425.00 453.66 20.62
2057 25.4400 475.00 455.17 21.79
2058 25.4500 481.00 455.81 21.93
2059 25.4600 466.00 455.77 21.59
2060 25.4700 443.00 455.45 21.05
2061 25.4800 477.00 455.36 21.84
2062 25.4900 466.00 456.04 21.59
2063 25.5000 452.00 458.04 21.26
2064 25.5100 475.00 461.94 21.79
2065 25.5200 437.00 468.32 20.90
2066 25.5300 481.00 477.88 21.93
2067 25.5400 492.00 491.35 22.18
2068 25.5500 490.00 509.54 22.14
2069 25.5600 553.00 533.26 23.52
2070 25.5700 560.00 563.25 23.66
2071 25.5800 595.00 600.06 24.39
2072 25.5900 621.00 643.85 24.92
2073 25.6000 670.00 694.22 25.88
2074 25.6100 754.00 750.09 27.46
2075 25.6200 773.00 809.53 27.80
2076 25.6300 812.00 869.69 28.50
2077 25.6400 893.00 926.83 29.88
2078 25.6500 967.00 976.44 31.10
2079 25.6600 1025.00 1013.49 32.02
2080 25.6700 995.00 1033.11 31.54
2081 25.6800 1034.00 1031.62 32.16
2082 25.6900 1020.00 1008.00 31.94
2083 25.7000 965.00 964.72 31.06
2084 25.7100 884.00 907.30 29.73
2085 25.7200 844.00 842.40 29.05
2086 25.7300 774.00 776.15 27.82
2087 25.7400 711.00 713.15 26.66
2088 25.7500 671.00 656.47 25.90
2089 25.7600 614.00 607.73 24.78
2090 25.7700 557.00 567.49 23.60
2091 25.7800 554.00 535.46 23.54
2092 25.7900 541.00 510.82 23.26
2093 25.8000 514.00 492.42 22.67
2094 25.8100 518.00 479.05 22.76
2095 25.8200 489.00 469.56 22.11
2096 25.8300 465.00 462.94 21.56
2097 25.8400 467.00 458.40 21.61
2098 25.8500 478.00 455.34 21.86
2099 25.8600 455.00 453.33 21.33
2100 25.8700 424.00 452.07 20.59
2101 25.8800 439.00 451.37 20.95
2102 25.8900 475.00 451.10 21.79
2103 25.9000 465.00 451.19 21.56
2104 25.9100 438.00 451.60 20.93
2105 25.9200 459.00 452.27 21.42
2106 25.9300 464.00 453.22 21.54
2107 25.9400 443.00 454.42 21.05
2108 25.9500 491.00 455.87 22.16
2109 25.9600 472.00 457.58 21.73
2110 25.9700 451.00 459.56 21.24
2111 25.9800 419.00 461.82 20.47
2112 25.9900 456.00 464.40 21.35
2113 26.0000 463.00 467.33 21.52
2114 26.0100 483.00 470.67 21.98
2115 26.0200 445.00 474.47 21.09
2116 26.0300 498.00 478.83 22.32
2117 26.0400 497.00 483.86 22.29
2118 26.0500 557.00 489.67 23.60
2119 26.0600 492.00 496.45 22.18
2120 26.0700 536.00 504.34 23.15
2121 26.0800 507.00 513.56 22.52
2122 26.0900 514.00 524.28 22.67
2123 26.1000 536.00 536.70 23.15
2124 26.1100 518.00 550.95 22.76
2125 26.1200 545.00 567.10 23.35
2126 26.1300 597.00 585.14 24.43
2127 26.1400 543.00 604.94 23.30
2128 26.1500 591.00 626.22 24.31
2129 26.1600 644.00 648.56 25.38
2130 26.1700 655.00 671.41 25.59
2131 26.1800 681.00 694.09 26.10
2132 26.1900 679.00 715.80 26.06
2133 26.2000 740.00 735.72 27.20
2134 26.2100 706.00 753.18 26.57
2135 26.2200 747.00 767.77 27.33
2136 26.2300 785.00 779.91 28.02
2137 26.2400 816.00 790.08 28.57
2138 26.2500 820.00 800.01 28.64
2139 26.2600 855.00 811.64 29.24
2140 26.2700 835.00 827.10 28.90
2141 26.2800 845.00 848.68 29.07
2142 26.2900 943.00 878.89 30.71
2143 26.3000 1022.00 920.61 31.97
2144 26.3100 1092.00 977.37 33.05
2145 26.3200 1094.00 1053.51 33.08
2146 26.3300 1277.00 1154.40 35.74
2147 26.3400 1351.00 1286.52 36.76
2148 26.3500 1511.00 1457.60 38.87
2149 26.3600 1632.00 1676.20 40.40
2150 26.3700 1938.00 1951.72 44.02
2151 26.3800 2207.00 2293.07 46.98
2152 26.3900 2528.00 2708.11 50.28
2153 26.4000 3011.00 3201.64 54.87
2154 26.4100 3405.00 3774.21 58.35
2155 26.4200 3884.00 4420.31 62.32
2156 26.4300 4497.00 5126.60 67.06
2157 26.4400 5273.00 5871.59 72.62
2158 26.4500 5890.00 6624.73 76.75
2159 26.4600 6775.00 7346.63 82.31
2160 26.4700 7475.00 7989.32 86.46
2161 26.4800 8058.00 8500.09 89.77
2162 26.4900 8430.00 8824.93 91.82
2163 26.5000 8497.00 8919.37 92.18
2164 26.5100 8271.00 8760.80 90.94
2165 26.5200 8036.00 8359.23 89.64
2166 26.5300 7619.00 7757.83 87.29
2167 26.5400 7045.00 7019.98 83.93
2168 26.5500 6132.00 6213.63 78.31
2169 26.5600 5418.00 5397.44 73.61
2170 26.5700 4681.00 4616.53 68.42
2171 26.5800 3888.00 3901.10 62.35
2172 26.5900 3285.00 3269.19 57.31
2173 26.6000 2735.00 2728.10 52.30
2174 26.6100 2369.00 2277.70 48.67
2175 26.6200 2027.00 1911.74 45.02
2176 26.6300 1790.00 1620.67 42.31
2177 26.6400 1505.00 1393.21 38.79
2178 26.6500 1353.00 1217.61 36.78
2179 26.6600 1238.00 1082.96 35.19
2180 26.6700 1185.00 979.65 34.42
2181 26.6800 985.00 899.82 31.38
2182 26.6900 942.00 837.24 30.69
2183 26.7000 863.00 787.21 29.38
2184 26.7100 793.00 746.32 28.16
2185 26.7200 794.00 712.15 28.18
2186 26.7300 741.00 683.02 27.22
2187 26.7400 732.00 657.76 27.06
2188 26.7500 670.00 635.56 25.88
2189 26.7600 645.00 615.85 25.40
2190 26.7700 599.00 598.21 24.47
2191 26.7800 558.00 582.34 23.62
2192 26.7900 567.00 567.98 23.81
2193 26.8000 563.00 554.95 23.73
2194 26.8100 547.00 543.07 23.39
2195 26.8200 553.00 532.22 23.52
2196 26.8300 537.00 522.28 23.17
2197 26.8400 469.00 513.14 21.66
2198 26.8500 482.00 504.73 21.95
2199 26.8600 485.00 496.97 22.02
2200 26.8700 489.00 489.79 22.11
2201 26.8800 462.00 483.12 21.49
2202 26.8900 467.00 476.94 21.61
2203 26.9000 465.00 471.18 21.56
2204 26.9100 472.00 465.82 21.73
2205 26.9200 463.00 460.81 21.52
2206 26.9300 454.00 456.12 21.31
2207 26.9400 485.00 451.74 22.02
2208 26.9500 425.00 447.62 20.62
2209 26.9600 425.00 443.75 20.62
2210 26.9700 432.00 440.11 20.78
2211 26.9800 422.00 436.68 20.54
2212 26.9900 433.00 433.45 20.81
2213 27.0000 392.00 430.39 19.80
2214 27.0100 398.00 427.51 19.95
2215 27.0200 381.00 424.78 19.52
2216 27.0300 401.00 422.20 20.02
2217 27.0400 422.00 419.75 20.54
2218 27.0500 445.00 417.44 21.09
2219 27.0600 378.00 415.25 19.44
2220 27.0700 384.00 413.18 19.60
2221 27.0800 361.00 411.23 19.00
2222 27.0900 413.00 409.40 20.32
2223 27.1000 414.00 407.69 20.35
2224 27.1100 381.00 406.11 19.52
2225 27.1200 422.00 404.65 20.54
2226 27.1300 414.00 403.34 20.35
2227 27.1400 417.00 402.18 20.42
2228 27.1500 381.00 401.17 19.52
2229 27.1600 413.00 400.32 20.32
2230 27.1700 403.00 399.61 20.07
2231 27.1800 435.00 399.03 20.86
2232 27.1900 390.00 398.55 19.75
2233 27.2000 391.00 398.14 19.77
2234 27.2100 368.00 397.74 19.18
2235 27.2200 394.00 397.28 19.85
2236 27.2300 407.00 396.70 20.17
2237 27.2400 372.00 395.92 19.29
2238 27.2500 396.00 394.90 19.90
2239 27.2600 391.00 393.61 19.77
2240 27.2700 370.00 392.10 19.24
2241 27.2800 383.00 390.42 19.57
2242 27.2900 367.00 388.66 19.16
2243 27.3000 361.00 386.92 19.00
2244 27.3100 381.00 385.24 19.52
2245 27.3200 367.00 383.66 19.16
2246 27.3300 377.00 382.22 19.42
2247 27.3400 386.00 380.90 19.65
2248 27.3500 404.00 379.72 20.10
2249 27.3600 382.00 378.67 19.54
2250 27.3700 371.00 378.50 19.26
2251 27.3800 373.00 377.64 19.31
2252 27.3900 396.00 376.85 19.90
2253 27.4000 395.00 376.12 19.87
2254 27.4100 366.00 375.44 19.13
2255 27.4200 365.00 374.80 19.10
2256 27.4300 342.00 374.18 18.49
2257 27.4400 390.00 373.59 19.75
2258 27.4500 395.00 373.02 19.87
2259 27.4600 395.00 372.48 19.87
2260 27.4700 344.00 371.95 18.55
2261 27.4800 345.00 371.44 18.57
2262 27.4900 373.00 370.94 19.31
2263 27.5000 403.00 370.46 20.07
2264 27.5100 385.00 370.00 19.62
2265 27.5200 405.00 369.55 20.12
2266 27.5300 390.00 369.12 19.75
2267 27.5400 387.00 368.70 19.67
2268 27.5500 383.00 368.30 19.57
2269 27.5600 345.00 367.91 18.57
2270 27.5700 374.00 367.53 19.34
2271 27.5800 342.00 367.17 18.49
2272 27.5900 333.00 366.82 18.25
2273 27.6000 351.00 366.48 18.74
2274 27.6100 377.00 365.90 19.42
2275 27.6200 369.00 365.60 19.21
2276 27.6300 376.00 365.30 19.39
2277 27.6400 393.00 365.02 19.82
2278 27.6500 367.00 364.75 19.16
2279 27.6600 399.00 364.50 19.98
2280 27.6700 357.00 364.26 18.89
2281 27.6800 360.00 364.04 18.97
2282 27.6900 367.00 363.83 19.16
2283 27.7000 353.00 363.64 18.79
2284 27.7100 387.00 363.47 19.67
2285 27.7200 351.00 363.31 18.74
2286 27.7300 367.00 363.17 19.16
2287 27.7400 338.00 363.05 18.38
2288 27.7500 350.00 362.95 18.71
2289 27.7600 368.00 362.88 19.18
2290 27.7700 384.00 362.83 19.60
2291 27.7800 383.00 362.80 19.57
2292 27.7900 329.00 362.80 18.14
2293 27.8000 341.00 362.84 18.47
2294 27.8100 338.00 362.90 18.38
2295 27.8200 347.00 363.01 18.63
2296 27.8300 376.00 363.15 19.39
2297 27.8400 371.00 363.34 19.26
2298 27.8500 360.00 363.58 18.97
2299 27.8600 371.00 363.88 19.26
2300 27.8700 361.00 364.25 19.00
2301 27.8800 351.00 364.68 18.74
2302 27.8900 390.00 365.21 19.75
2303 27.9000 364.00 365.84 19.08
2304 27.9100 375.00 366.59 19.36
2305 27.9200 352.00 367.49 18.76
2306 27.9300 350.00 368.60 18.71
2307 27.9400 385.00 369.96 19.62
2308 27.9500 386.00 371.66 19.65
2309 27.9600 359.00 373.84 18.95
2310 27.9700 385.00 376.65 19.62
2311 27.9800 371.00 380.35 19.26
2312 27.9900 387.00 385.24 19.67
2313 28.0000 422.00 391.74 20.54
2314 28.0100 422.00 400.35 20.54
2315 28.0200 394.00 411.67 19.85
2316 28.0300 428.00 426.37 20.69
2317 28.0400 422.00 445.14 20.54
2318 28.0500 451.00 468.59 21.24
2319 28.0600 486.00 497.15 22.05
2320 28.0700 520.00 530.89 22.80
2321 28.0800 551.00 569.43 23.47
2322 28.0900 554.00 611.78 23.54
2323 28.1000 622.00 656.26 24.94
2324 28.1100 634.00 700.49 25.18
2325 28.1200 682.00 741.45 26.12
2326 28.1300 689.00 775.54 26.25
2327 28.1400 673.00 798.95 25.94
2328 28.1500 713.00 808.23 26.70
2329 28.1600 742.00 801.28 27.24
2330 28.1700 723.00 778.32 26.89
2331 28.1800 663.00 742.21 25.75
2332 28.1900 632.00 697.52 25.14
2333 28.2000 610.00 649.10 24.70
2334 28.2100 527.00 601.06 22.96
2335 28.2200 535.00 556.34 23.13
2336 28.2300 491.00 516.75 22.16
2337 28.2400 483.00 483.21 21.98
2338 28.2500 466.00 455.88 21.59
2339 28.2600 420.00 434.43 20.49
2340 28.2700 428.00 418.15 20.69
2341 28.2800 393.00 406.19 19.82
2342 28.2900 392.00 397.61 19.80
2343 28.3000 383.00 391.53 19.57
2344 28.3100 394.00 387.18 19.85
2345 28.3200 378.00 383.91 19.44
2346 28.3300 379.00 381.20 19.47
2347 28.3400 372.00 378.67 19.29
2348 28.3500 359.00 376.12 18.95
2349 28.3600 375.00 373.44 19.36
2350 28.3700 352.00 370.69 18.76
2351 28.3800 370.00 367.93 19.24
2352 28.3900 366.00 365.29 19.13
2353 28.4000 363.00 362.83 19.05
2354 28.4100 342.00 360.60 18.49
2355 28.4200 355.00 358.55 18.84
2356 28.4300 328.00 356.84 18.11
2357 28.4400 319.00 355.37 17.86
2358 28.4500 351.00 354.12 18.74
2359 28.4600 345.00 353.07 18.57
2360 28.4700 346.00 352.18 18.60
2361 28.4800 329.00 351.41 18.14
2362 28.4900 328.00 350.75 18.11
2363 28.5000 352.00 350.17 18.76
2364 28.5100 339.00 349.66 18.41
2365 28.5200 319.00 349.08 17.86
2366 28.5300 332.00 348.66 18.22
2367 28.5400 366.00 348.27 19.13
2368 28.5500 335.00 347.92 18.30
2369 28.5600 338.00 347.59 18.38
2370 28.5700 352.00 347.28 18.76
2371 28.5800 321.00 346.99 17.92
2372 28.5900 337.00 346.73 18.36
2373 28.6000 322.00 346.48 17.94
2374 28.6100 322.00 346.25 17.94
2375 28.6200 304.00 346.03 17.44
2376 28.6300 342.00 345.83 18.49
2377 28.6400 337.00 345.64 18.36
2378 28.6500 371.00 345.47 19.26
2379 28.6600 339.00 341.47 18.41
2380 28.6700 295.00 341.36 17.18
2381 28.6800 342.00 341.26 18.49
2382 28.6900 348.00 341.16 18.65
2383 28.7000 325.00 341.08 18.03
2384 28.7100 339.00 341.01 18.41
2385 28.7200 350.00 340.95 18.71
2386 28.7300 343.00 340.90 18.52
2387 28.7400 344.00 340.86 18.55
2388 28.7500 326.00 340.83 18.06
2389 28.7600 351.00 340.81 18.74
2390 28.7700 323.00 340.80 17.97
2391 28.7800 340.00 340.80 18.44
2392 28.7900 317.00 340.82 17.80
2393 28.8000 362.00 340.84 19.03
2394 28.8100 336.00 340.87 18.33
2395 28.8200 341.00 340.92 18.47
2396 28.8300 329.00 340.98 18.14
2397 28.8400 345.00 341.05 18.57
2398 28.8500 313.00 341.13 17.69
2399 28.8600 322.00 341.23 17.94
2400 28.8700 326.00 341.34 18.06
2401 28.8800 360.00 341.46 18.97
2402 28.8900 332.00 341.60 18.22
2403 28.9000 316.00 341.76 17.78
2404 28.9100 293.00 341.93 17.12
2405 28.9200 340.00 342.12 18.44
2406 28.9300 334.00 342.33 18.28
2407 28.9400 337.00 342.56 18.36
2408 28.9500 325.00 342.81 18.03
2409 28.9600 324.00 343.08 18.00
2410 28.9700 329.00 343.38 18.14
2411 28.9800 332.00 343.70 18.22
2412 28.9900 319.00 344.05 17.86
2413 29.0000 331.00 344.42 18.19
2414 29.0100 311.00 344.83 17.64
2415 29.0200 300.00 345.28 17.32
2416 29.0300 325.00 345.76 18.03
2417 29.0400 341.00 346.28 18.47
2418 29.0500 330.00 346.84 18.17
2419 29.0600 340.00 347.45 18.44
2420 29.0700 331.00 348.10 18.19
2421 29.0800 323.00 348.82 17.97
2422 29.0900 328.00 349.59 18.11
2423 29.1000 340.00 350.42 18.44
2424 29.1100 339.00 351.33 18.41
2425 29.1200 335.00 352.32 18.30
2426 29.1300 330.00 353.39 18.17
2427 29.1400 344.00 354.56 18.55
2428 29.1500 342.00 355.84 18.49
2429 29.1600 356.00 357.23 18.87
2430 29.1700 377.00 358.75 19.42
2431 29.1800 334.00 360.42 18.28
2432 29.1900 357.00 362.24 18.89
2433 29.2000 362.00 364.26 19.03
2434 29.2100 360.00 366.48 18.97
2435 29.2200 401.00 368.94 20.02
2436 29.2300 348.00 371.67 18.65
2437 29.2400 358.00 374.72 18.92
2438 29.2500 369.00 378.14 19.21
2439 29.2600 365.00 382.01 19.10
2440 29.2700 375.00 386.42 19.36
2441 29.2800 370.00 391.53 19.24
2442 29.2900 380.00 397.51 19.49
2443 29.3000 410.00 404.62 20.25
2444 29.3100 423.00 413.24 20.57
2445 29.3200 460.00 423.83 21.45
2446 29.3300 436.00 437.05 20.88
2447 29.3400 476.00 453.73 21.82
2448 29.3500 477.00 474.95 21.84
2449 29.3600 501.00 502.02 22.38
2450 29.3700 553.00 536.46 23.52
2451 29.3800 576.00 579.96 24.00
2452 29.3900 577.00 634.33 24.02
2453 29.4000 666.00 701.25 25.81
2454 29.4100 717.00 782.16 26.78
2455 29.4200 842.00 877.76 29.02
2456 29.4300 883.00 987.90 29.72
2457 29.4400 1085.00 1111.13 32.94
2458 29.4500 1176.00 1244.45 34.29
2459 29.4600 1335.00 1383.12 36.54
2460 29.4700 1439.00 1520.67 37.93
2461 29.4800 1570.00 1648.75 39.62
2462 29.4900 1711.00 1757.74 41.36
2463 29.5000 1808.00 1837.22 42.52
2464 29.5100 1760.00 1877.55 41.95
2465 29.5200 1803.00 1872.04 42.46
2466 29.5300 1783.00 1819.60 42.23
2467 29.5400 1689.00 1725.69 41.10
2468 29.5500 1545.00 1601.10 39.31
2469 29.5600 1485.00 1458.71 38.54
2470 29.5700 1307.00 1310.44 36.15
2471 29.5800 1196.00 1165.63 34.58
2472 29.5900 995.00 1030.86 31.54
2473 29.6000 928.00 910.04 30.46
2474 29.6100 785.00 805.09 28.02
2475 29.6200 694.00 716.44 26.34
2476 29.6300 639.00 643.36 25.28
2477 29.6400 578.00 584.39 24.04
2478 29.6500 558.00 537.68 23.62
2479 29.6600 538.00 501.16 23.19
2480 29.6700 463.00 472.84 21.52
2481 29.6800 448.00 450.93 21.17
2482 29.6900 459.00 433.92 21.42
2483 29.7000 373.00 420.54 19.31
2484 29.7100 394.00 410.23 19.85
2485 29.7200 431.00 401.54 20.76
2486 29.7300 386.00 394.32 19.65
2487 29.7400 357.00 388.20 18.89
2488 29.7500 372.00 382.91 19.29
2489 29.7600 354.00 378.29 18.81
2490 29.7700 365.00 374.19 19.10
2491 29.7800 351.00 370.53 18.74
2492 29.7900 375.00 367.24 19.36
2493 29.8000 340.00 364.26 18.44
2494 29.8100 302.00 361.56 17.38
2495 29.8200 324.00 359.09 18.00
2496 29.8300 367.00 356.84 19.16
2497 29.8400 331.00 354.77 18.19
2498 29.8500 329.00 352.87 18.14
2499 29.8600 340.00 351.12 18.44
2500 29.8700 349.00 349.50 18.68
2501 29.8800 331.00 348.00 18.19
2502 29.8900 336.00 346.61 18.33
2503 29.9000 328.00 345.31 18.11
2504 29.9100 343.00 344.10 18.52
2505 29.9200 328.00 342.98 18.11
2506 29.9300 346.00 341.92 18.60
2507 29.9400 326.00 340.93 18.06
2508 29.9500 321.00 340.00 17.92
2509 29.9600 334.00 339.13 18.28
2510 29.9700 327.00 338.30 18.08
2511 29.9800 309.00 337.53 17.58
2512 29.9900 353.00 336.79 18.79
2513 30.0000 319.00 336.10 17.86
2514 30.0100 312.00 335.44 17.66
2515 30.0200 315.00 334.82 17.75
2516 30.0300 319.00 334.22 17.86
2517 30.0400 341.00 333.66 18.47
2518 30.0500 308.00 333.12 17.55
2519 30.0600 304.00 332.61 17.44
2520 30.0700 308.00 332.12 17.55
2521 30.0800 318.00 331.65 17.83
2522 30.0900 342.00 331.20 18.49
2523 30.1000 290.00 330.78 17.03
2524 30.1100 312.00 330.17 17.66
2525 30.1200 326.00 329.78 18.06
2526 30.1300 319.00 329.40 17.86
2527 30.1400 330.00 329.04 18.17
2528 30.1500 312.00 328.70 17.66
2529 30.1600 308.00 328.36 17.55
2530 30.1700 315.00 328.04 17.75
2531 30.1800 321.00 327.73 17.92
2532 30.1900 345.00 327.43 18.57
2533 30.2000 311.00 327.15 17.64
2534 30.2100 312.00 326.87 17.66
2535 30.2200 313.00 326.60 17.69
2536 30.2300 354.00 326.34 18.81
2537 30.2400 331.00 326.09 18.19
2538 30.2500 318.00 325.85 17.83
2539 30.2600 314.00 325.62 17.72
2540 30.2700 287.00 325.40 16.94
2541 30.2800 312.00 325.19 17.66
2542 30.2900 316.00 324.98 17.78
2543 30.3000 328.00 324.78 18.11
2544 30.3100 333.00 324.60 18.25
2545 30.3200 302.00 324.44 17.38
2546 30.3300 298.00 324.29 17.26
2547 30.3400 285.00 324.48 16.88
2548 30.3500 326.00 324.37 18.06
2549 30.3600 353.00 324.29 18.79
2550 30.3700 268.00 324.24 16.37
2551 30.3800 307.00 324.21 17.52
2552 30.3900 306.00 324.21 17.49
2553 30.4000 299.00 324.24 17.29
2554 30.4100 343.00 324.28 18.52
2555 30.4200 300.00 324.33 17.32
2556 30.4300 316.00 324.38 17.78
2557 30.4400 280.00 324.41 16.73
2558 30.4500 287.00 324.40 16.94
2559 30.4600 297.00 324.34 17.23
2560 30.4700 288.00 324.21 16.97
2561 30.4800 317.00 324.01 17.80
2562 30.4900 295.00 323.75 17.18
2563 30.5000 295.00 323.44 17.18
2564 30.5100 297.00 323.10 17.23
2565 30.5200 308.00 322.77 17.55
2566 30.5300 309.00 322.44 17.58
2567 30.5400 294.00 322.13 17.15
2568 30.5500 322.00 321.85 17.94
2569 30.5600 292.00 321.60 17.09
2570 30.5700 307.00 321.38 17.52
2571 30.5800 303.00 321.19 17.41
2572 30.5900 306.00 321.02 17.49
2573 30.6000 315.00 321.23 17.75
2574 30.6100 296.00 321.10 17.20
2575 30.6200 321.00 320.98 17.92
2576 30.6300 314.00 320.87 17.72
2577 30.6400 311.00 320.77 17.64
2578 30.6500 322.00 320.68 17.94
2579 30.6600 319.00 320.59 17.86
2580 30.6700 299.00 320.51 17.29
2581 30.6800 315.00 320.43 17.75
2582 30.6900 339.00 320.35 18.41
2583 30.7000 302.00 320.28 17.38
2584 30.7100 332.00 320.21 18.22
2585 30.7200 310.00 320.14 17.61
2586 30.7300 294.00 320.08 17.15
2587 30.7400 300.00 320.02 17.32
2588 30.7500 289.00 320.05 17.00
2589 30.7600 322.00 320.00 17.94
2590 30.7700 308.00 319.95 17.55
2591 30.7800 312.00 319.91 17.66
2592 30.7900 311.00 319.87 17.64
2593 30.8000 301.00 319.83 17.35
2594 30.8100 315.00 319.81 17.75
2595 30.8200 326.00 319.78 18.06
2596 30.8300 320.00 319.76 17.89
2597 30.8400 360.00 319.74 18.97
2598 30.8500 317.00 319.72 17.80
2599 30.8600 334.00 319.71 18.28
2600 30.8700 308.00 319.70 17.55
2601 30.8800 344.00 319.70 18.55
2602 30.8900 319.00 319.70 17.86
2603 30.9000 301.00 319.78 17.35
2604 30.9100 315.00 320.13 17.75
2605 30.9200 301.00 320.16 17.35
2606 30.9300 309.00 320.19 17.58
2607 30.9400 343.00 320.23 18.52
2608 30.9500 294.00 320.27 17.15
2609 30.9600 323.00 320.33 17.97
2610 30.9700 318.00 320.39 17.83
2611 30.9800 335.00 320.46 18.30
2612 30.9900 326.00 320.55 18.06
2613 31.0000 320.00 320.64 17.89
2614 31.0100 322.00 320.75 17.94
2615 31.0200 298.00 320.87 17.26
2616 31.0300 307.00 321.00 17.52
2617 31.0400 347.00 321.17 18.63
2618 31.0500 322.00 321.34 17.94
2619 31.0600 317.00 321.54 17.80
2620 31.0700 324.00 321.76 18.00
2621 31.0800 338.00 322.02 18.38
2622 31.0900 329.00 322.31 18.14
2623 31.1000 302.00 322.64 17.38
2624 31.1100 338.00 323.04 18.38
2625 31.1200 304.00 323.52 17.44
2626 31.1300 313.00 324.10 17.69
2627 31.1400 334.00 324.82 18.28
2628 31.1500 327.00 325.71 18.08
2629 31.1600 335.00 326.85 18.30
2630 31.1700 345.00 328.29 18.57
2631 31.1800 343.00 330.11 18.52
2632 31.1900 319.00 332.41 17.86
2633 31.2000 356.00 335.27 18.87
2634 31.2100 343.00 338.78 18.52
2635 31.2200 353.00 343.00 18.79
2636 31.2300 353.00 347.98 18.79
2637 31.2400 378.00 353.67 19.44
2638 31.2500 366.00 378.07 19.13
2639 31.2600 367.00 385.05 19.16
2640 31.2700 401.00 392.24 20.02
2641 31.2800 417.00 399.28 20.42
2642 31.2900 440.00 405.76 20.98
2643 31.3000 406.00 411.21 20.15
2644 31.3100 383.00 415.26 19.57
2645 31.3200 420.00 417.62 20.49
2646 31.3300 425.00 418.21 20.62
2647 31.3400 425.00 417.01 20.62
2648 31.3500 394.00 414.12 19.85
2649 31.3600 402.00 409.76 20.05
2650 31.3700 374.00 404.32 19.34
2651 31.3800 358.00 398.30 18.92
2652 31.3900 338.00 392.23 18.38
2653 31.4000 374.00 386.55 19.34
2654 31.4100 363.00 381.55 19.05
2655 31.4200 347.00 377.43 18.63
2656 31.4300 382.00 374.25 19.54
2657 31.4400 346.00 372.03 18.60
2658 31.4500 337.00 370.72 18.36
2659 31.4600 355.00 370.27 18.84
2660 31.4700 366.00 370.62 19.13
2661 31.4800 352.00 371.73 18.76
2662 31.4900 334.00 373.57 18.28
2663 31.5000 373.00 376.20 19.31
2664 31.5100 332.00 379.73 18.22
2665 31.5200 340.00 384.35 18.44
2666 31.5300 398.00 390.36 19.95
2667 31.5400 364.00 398.21 19.08
2668 31.5500 395.00 408.48 19.87
2669 31.5600 365.00 421.94 19.10
2670 31.5700 412.00 439.47 20.30
2671 31.5800 400.00 462.13 20.00
2672 31.5900 450.00 491.00 21.21
2673 31.6000 450.00 527.14 21.21
2674 31.6100 511.00 571.31 22.61
2675 31.6200 525.00 623.91 22.91
2676 31.6300 618.00 684.62 24.86
2677 31.6400 645.00 752.17 25.40
2678 31.6500 704.00 824.28 26.53
2679 31.6600 752.00 897.46 27.42
2680 31.6700 795.00 967.21 28.20
2681 31.6800 853.00 1027.68 29.21
2682 31.6900 987.00 1072.80 31.42
2683 31.7000 971.00 1095.90 31.16
2684 31.7100 958.00 1094.33 30.95
2685 31.7200 979.00 1066.59 31.29
2686 31.7300 976.00 1016.09 31.24
2687 31.7400 959.00 949.47 30.97
2688 31.7500 847.00 874.37 29.10
2689 31.7600 767.00 797.59 27.69
2690 31.7700 672.00 724.18 25.92
2691 31.7800 623.00 657.52 24.96
2692 31.7900 583.00 599.36 24.15
2693 31.8000 560.00 550.41 23.66
2694 31.8100 545.00 510.52 23.35
2695 31.8200 430.00 478.93 20.74
2696 31.8300 459.00 454.52 21.42
2697 31.8400 491.00 436.08 22.16
2698 31.8500 455.00 422.38 21.33
2699 31.8600 414.00 412.33 20.35
2700 31.8700 432.00 405.03 20.78
2701 31.8800 396.00 399.74 19.90
2702 31.8900 391.00 395.94 19.77
2703 31.9000 401.00 393.23 20.02
2704 31.9100 400.00 391.33 20.00
2705 31.9200 415.00 390.04 20.37
2706 31.9300 370.00 389.21 19.24
2707 31.9400 363.00 388.73 19.05
2708 31.9500 388.00 388.50 19.70
2709 31.9600 387.00 388.42 19.67
2710 31.9700 390.00 388.44 19.75
2711 31.9800 378.00 388.46 19.44
2712 31.9900 361.00 388.45 19.00
2713 32.0000 399.00 388.40 19.98
2714 32.0100 391.00 388.35 19.77
2715 32.0200 365.00 388.34 19.10
2716 32.0300 395.00 388.45 19.87
2717 32.0400 410.00 388.72 20.25
2718 32.0500 419.00 389.20 20.47
2719 32.0600 408.00 389.91 20.20
2720 32.0700 383.00 390.88 19.57
2721 32.0800 398.00 392.12 19.95
2722 32.0900 424.00 393.66 20.59
2723 32.1000 415.00 395.49 20.37
2724 32.1100 376.00 397.67 19.39
2725 32.1200 391.00 400.21 19.77
2726 32.1300 428.00 403.19 20.69
2727 32.1400 448.00 406.70 21.17
2728 32.1500 419.00 410.88 20.47
2729 32.1600 443.00 415.94 21.05
2730 32.1700 453.00 422.15 21.28
2731 32.1800 450.00 429.90 21.21
2732 32.1900 466.00 439.70 21.59
2733 32.2000 499.00 452.20 22.34
2734 32.2100 526.00 468.18 22.93
2735 32.2200 508.00 488.53 22.54
2736 32.2300 589.00 514.19 24.27
2737 32.2400 595.00 546.09 24.39
2738 32.2500 639.00 584.98 25.28
2739 32.2600 723.00 631.23 26.89
2740 32.2700 788.00 684.68 28.07
2741 32.2800 852.00 744.40 29.19
2742 32.2900 901.00 808.57 30.02
2743 32.3000 978.00 874.28 31.27
2744 32.3100 1062.00 937.71 32.59
2745 32.3200 1106.00 994.08 33.26
2746 32.3300 1137.00 1038.04 33.72
2747 32.3400 1194.00 1064.37 34.55
2748 32.3500 1181.00 1069.13 34.37
2749 32.3600 1153.00 1051.25 33.96
2750 32.3700 1117.00 1013.24 33.42
2751 32.3800 1059.00 960.57 32.54
2752 32.3900 1054.00 899.98 32.47
2753 32.4000 923.00 837.53 30.38
2754 32.4100 893.00 777.98 29.88
2755 32.4200 831.00 724.65 28.83
2756 32.4300 799.00 679.47 28.27
2757 32.4400 758.00 643.58 27.53
2758 32.4500 696.00 617.39 26.38
2759 32.4600 655.00 600.97 25.59
2760 32.4700 672.00 594.17 25.92
2761 32.4800 647.00 596.88 25.44
2762 32.4900 673.00 609.07 25.94
2763 32.5000 653.00 630.85 25.55
2764 32.5100 657.00 662.43 25.63
2765 32.5200 707.00 707.33 26.59
2766 32.5300 773.00 758.58 27.80
2767 32.5400 790.00 818.91 28.11
2768 32.5500 807.00 886.73 28.41
2769 32.5600 886.00 959.59 29.77
2770 32.5700 899.00 1033.78 29.98
2771 32.5800 1037.00 1104.67 32.20
2772 32.5900 1080.00 1166.58 32.86
2773 32.6000 1061.00 1213.26 32.57
2774 32.6100 1195.00 1238.92 34.57
2775 32.6200 1180.00 1239.64 34.35
2776 32.6300 1128.00 1214.99 33.59
2777 32.6400 1127.00 1168.69 33.57
2778 32.6500 1113.00 1107.47 33.36
2779 32.6600 1116.00 1038.88 33.41
2780 32.6700 1035.00 972.98 32.17
2781 32.6800 1007.00 908.16 31.73
2782 32.6900 970.00 851.12 31.14
2783 32.7000 861.00 803.74 29.34
2784 32.7100 825.00 767.01 28.72
2785 32.7200 796.00 741.05 28.21
2786 32.7300 805.00 725.51 28.37
2787 32.7400 773.00 719.71 27.80
2788 32.7500 804.00 722.85 28.35
2789 32.7600 861.00 734.14 29.34
2790 32.7700 854.00 752.86 29.22
2791 32.7800 878.00 778.36 29.63
2792 32.7900 951.00 810.11 30.84
2793 32.8000 1009.00 847.59 31.76
2794 32.8100 1140.00 890.36 33.76
2795 32.8200 1232.00 937.83 35.10
2796 32.8300 1294.00 989.41 35.97
2797 32.8400 1409.00 1044.44 37.54
2798 32.8500 1509.00 1102.31 38.85
2799 32.8600 1625.00 1162.55 40.31
2800 32.8700 1700.00 1224.67 41.23
2801 32.8800 1806.00 1287.93 42.50
2802 32.8900 1875.00 1350.85 43.30
2803 32.9000 1870.00 1410.76 43.24
2804 32.9100 1848.00 1463.75 42.99
2805 32.9200 1838.00 1504.97 42.87
2806 32.9300 1896.00 1529.70 43.54
2807 32.9400 1791.00 1534.57 42.32
2808 32.9500 1825.00 1519.33 42.72
2809 32.9600 1871.00 1487.38 43.26
2810 32.9700 1835.00 1444.84 42.84
2811 32.9800 1812.00 1398.62 42.57
2812 32.9900 1958.00 1354.79 44.25
2813 33.0000 1938.00 1317.77 44.02
2814 33.0100 2056.00 1290.53 45.34
2815 33.0200 2013.00 1274.71 44.87
2816 33.0300 2113.00 1270.97 45.97
2817 33.0400 2121.00 1279.28 46.05
2818 33.0500 2261.00 1299.14 47.55
2819 33.0600 2214.00 1329.89 47.05
2820 33.0700 2277.00 1370.84 47.72
2821 33.0800 2401.00 1421.63 49.00
2822 33.0900 2374.00 1482.29 48.72
2823 33.1000 2478.00 1553.26 49.78
2824 33.1100 2503.00 1635.77 50.03
2825 33.1200 2543.00 1731.56 50.43
2826 33.1300 2690.00 1843.43 51.87
2827 33.1400 2736.00 1975.16 52.31
2828 33.1500 2946.00 2132.32 54.28
2829 33.1600 3139.00 2322.54 56.03
2830 33.1700 3256.00 2556.12 57.06
2831 33.1800 3571.00 2847.25 59.76
2832 33.1900 4057.00 3214.66 63.69
2833 33.2000 4413.00 3682.71 66.43
2834 33.2100 5062.00 4281.19 71.15
2835 33.2200 5655.00 5046.25 75.20
2836 33.2300 6527.00 6018.77 80.79
2837 33.2400 7602.00 7242.33 87.19
2838 33.2500 9186.00 8759.88 95.84
2839 33.2600 10574.00 10605.40 102.83
2840 33.2700 12596.00 12803.30 112.23
2841 33.2800 14860.00 15350.60 121.90
2842 33.2900 17612.00 18216.60 132.71
2843 33.3000 20299.00 21326.10 142.48
2844 33.3100 23415.00 24564.80 153.02
2845 33.3200 26655.00 27762.10 163.26
2846 33.3300 29673.00 30703.50 172.26
2847 33.3400 31905.00 33139.30 178.62
2848 33.3500 33793.00 34801.40 183.83
2849 33.3600 34264.00 35460.00 185.10
2850 33.3700 33805.00 34986.70 183.86
2851 33.3800 32749.00 33412.40 180.97
2852 33.3900 30513.00 30934.60 174.68
2853 33.4000 27857.00 27852.40 166.90
2854 33.4100 24586.00 24480.20 156.80
2855 33.4200 21177.00 21082.80 145.52
2856 33.4300 18077.00 17851.30 134.45
2857 33.4400 14921.00 14911.00 122.15
2858 33.4500 12471.00 12327.70 111.67
2859 33.4600 10435.00 10125.50 102.15
2860 33.4700 8548.00 8296.88 92.46
2861 33.4800 7112.00 6814.69 84.33
2862 33.4900 5982.00 5635.40 77.34
2863 33.5000 5137.00 4711.48 71.67
2864 33.5100 4231.00 3995.45 65.05
2865 33.5200 3753.00 3442.60 61.26
2866 33.5300 3294.00 3014.66 57.39
2867 33.5400 2796.00 2680.22 52.88
2868 33.5500 2485.00 2415.07 49.85
2869 33.5600 2266.00 2200.72 47.60
2870 33.5700 2010.00 2023.82 44.83
2871 33.5800 1796.00 1874.85 42.38
2872 33.5900 1712.00 1747.09 41.38
2873 33.6000 1535.00 1636.02 39.18
2874 33.6100 1372.00 1538.37 37.04
2875 33.6200 1325.00 1451.51 36.40
2876 33.6300 1190.00 1373.81 34.50
2877 33.6400 1159.00 1304.00 34.04
2878 33.6500 1032.00 1240.95 32.12
2879 33.6600 1058.00 1183.80 32.53
2880 33.6700 964.00 1131.90 31.05
2881 33.6800 915.00 1084.55 30.25
2882 33.6900 882.00 1041.31 29.70
2883 33.7000 859.00 1001.70 29.31
2884 33.7100 841.00 965.36 29.00
2885 33.7200 768.00 931.91 27.71
2886 33.7300 781.00 901.11 27.95
2887 33.7400 776.00 872.32 27.86
2888 33.7500 654.00 846.03 25.57
2889 33.7600 707.00 821.68 26.59
2890 33.7700 645.00 799.09 25.40
2891 33.7800 697.00 778.13 26.40
2892 33.7900 681.00 758.64 26.10
2893 33.8000 640.00 740.50 25.30
2894 33.8100 645.00 723.60 25.40
2895 33.8200 609.00 707.86 24.68
2896 33.8300 588.00 693.19 24.25
2897 33.8400 628.00 679.51 25.06
2898 33.8500 561.00 666.77 23.69
2899 33.8600 578.00 654.91 24.04
2900 33.8700 570.00 643.91 23.87
2901 33.8800 599.00 633.71 24.47
2902 33.8900 580.00 624.31 24.08
2903 33.9000 549.00 615.68 23.43
2904 33.9100 539.00 607.80 23.22
2905 33.9200 515.00 600.65 22.69
2906 33.9300 557.00 594.19 23.60
2907 33.9400 531.00 588.40 23.04
2908 33.9500 511.00 583.20 22.61
2909 33.9600 541.00 578.51 23.26
2910 33.9700 509.00 574.22 22.56
2911 33.9800 522.00 570.21 22.85
2912 33.9900 485.00 566.33 22.02
2913 34.0000 488.00 562.41 22.09
2914 34.0100 517.00 558.34 22.74
2915 34.0200 523.00 554.02 22.87
2916 34.0300 530.00 549.49 23.02
2917 34.0400 486.00 544.85 22.05
2918 34.0500 533.00 540.24 23.09
2919 34.0600 467.00 535.81 21.61
2920 34.0700 522.00 531.70 22.85
2921 34.0800 476.00 528.00 21.82
2922 34.0900 475.00 524.75 21.79
2923 34.1000 517.00 522.00 22.74
2924 34.1100 470.00 519.74 21.68
2925 34.1200 551.00 517.98 23.47
2926 34.1300 510.00 516.71 22.58
2927 34.1400 500.00 515.90 22.36
2928 34.1500 492.00 515.54 22.18
2929 34.1600 510.00 515.61 22.58
2930 34.1700 483.00 516.11 21.98
2931 34.1800 492.00 517.04 22.18
2932 34.1900 556.00 518.40 23.58
2933 34.2000 494.00 520.21 22.23
2934 34.2100 574.00 522.48 23.96
2935 34.2200 559.00 525.25 23.64
2936 34.2300 536.00 528.54 23.15
2937 34.2400 548.00 532.42 23.41
2938 34.2500 500.00 536.93 22.36
2939 34.2600 583.00 542.15 24.15
2940 34.2700 524.00 548.15 22.89
2941 34.2800 538.00 555.03 23.19
2942 34.2900 541.00 562.92 23.26
2943 34.3000 595.00 571.94 24.39
2944 34.3100 632.00 582.28 25.14
2945 34.3200 567.00 594.09 23.81
2946 34.3300 640.00 607.62 25.30
2947 34.3400 665.00 623.13 25.79
2948 34.3500 638.00 640.89 25.26
2949 34.3600 677.00 661.28 26.02
2950 34.3700 795.00 684.71 28.20
2951 34.3800 768.00 711.72 27.71
2952 34.3900 805.00 742.67 28.37
2953 34.4000 829.00 779.05 28.79
2954 34.4100 887.00 821.81 29.78
2955 34.4200 976.00 872.54 31.24
2956 34.4300 986.00 933.49 31.40
2957 34.4400 1124.00 1007.64 33.53
2958 34.4500 1278.00 1098.95 35.75
2959 34.4600 1238.00 1212.33 35.19
2960 34.4700 1430.00 1353.90 37.82
2961 34.4800 1634.00 1530.76 40.42
2962 34.4900 1869.00 1750.73 43.23
2963 34.5000 2114.00 2021.89 45.98
2964 34.5100 2405.00 2351.17 49.04
2965 34.5200 2748.00 2744.25 52.42
2966 34.5300 3202.00 3202.46 56.59
2967 34.5400 3712.00 3722.32 60.93
2968 34.5500 4217.00 4292.20 64.94
2969 34.5600 4651.00 4892.88 68.20
2970 34.5700 5207.00 5493.98 72.16
2971 34.5800 5763.00 6055.93 75.91
2972 34.5900 6359.00 6531.48 79.74
2973 34.6000 6663.00 6868.38 81.63
2974 34.6100 6912.00 7020.04 83.14
2975 34.6200 6684.00 6957.65 81.76
2976 34.6300 6404.00 6682.61 80.03
2977 34.6400 6147.00 6229.46 78.40
2978 34.6500 5645.00 5654.51 75.13
2979 34.6600 5125.00 5018.43 71.59
2980 34.6700 4450.00 4374.19 66.71
2981 34.6800 3848.00 3759.47 62.03
2982 34.6900 3289.00 3199.29 57.35
2983 34.7000 2795.00 2706.95 52.87
2984 34.7100 2468.00 2287.48 49.68
2985 34.7200 2035.00 1939.60 45.11
2986 34.7300 1733.00 1658.10 41.63
2987 34.7400 1518.00 1434.91 38.96
2988 34.7500 1434.00 1260.64 37.87
2989 34.7600 1274.00 1126.32 35.69
2990 34.7700 1124.00 1023.37 33.53
2991 34.7800 1004.00 944.61 31.69
2992 34.7900 993.00 883.98 31.51
2993 34.8000 949.00 836.94 30.81
2994 34.8100 899.00 799.98 29.98
2995 34.8200 841.00 770.58 29.00
2996 34.8300 838.00 746.91 28.95
2997 34.8400 840.00 727.73 28.98
2998 34.8500 784.00 712.17 28.00
2999 34.8600 786.00 699.60 28.04
3000 34.8700 762.00 689.60 27.60
3001 34.8800 765.00 681.88 27.66
3002 34.8900 738.00 676.28 27.17
3003 34.9000 751.00 672.67 27.40
3004 34.9100 713.00 671.00 26.70
3005 34.9200 773.00 671.25 27.80
3006 34.9300 749.00 673.44 27.37
3007 34.9400 760.00 677.65 27.57
3008 34.9500 737.00 683.98 27.15
3009 34.9600 776.00 692.60 27.86
3010 34.9700 791.00 703.79 28.12
3011 34.9800 787.00 717.81 28.05
3012 34.9900 865.00 735.06 29.41
3013 35.0000 833.00 756.66 28.86
3014 35.0100 863.00 783.23 29.38
3015 35.0200 893.00 815.92 29.88
3016 35.0300 957.00 856.18 30.94
3017 35.0400 1020.00 905.83 31.94
3018 35.0500 1063.00 967.09 32.60
3019 35.0600 1126.00 1042.62 33.56
3020 35.0700 1270.00 1135.37 35.64
3021 35.0800 1353.00 1248.67 36.78
3022 35.0900 1466.00 1386.23 38.29
3023 35.1000 1684.00 1551.52 41.04
3024 35.1100 1854.00 1748.08 43.06
3025 35.1200 1940.00 1978.61 44.05
3026 35.1300 2212.00 2245.50 47.03
3027 35.1400 2534.00 2549.25 50.34
3028 35.1500 2874.00 2888.80 53.61
3029 35.1600 3198.00 3261.15 56.55
3030 35.1700 3680.00 3659.72 60.66
3031 35.1800 4145.00 4075.11 64.38
3032 35.1900 4454.00 4493.40 66.74
3033 35.2000 4954.00 4897.61 70.38
3034 35.2100 5370.00 5266.04 73.28
3035 35.2200 5730.00 5575.05 75.70
3036 35.2300 6162.00 5800.11 78.50
3037 35.2400 6142.00 5920.41 78.37
3038 35.2500 6103.00 5922.34 78.12
3039 35.2600 6058.00 5803.68 77.83
3040 35.2700 5860.00 5574.74 76.55
3041 35.2800 5286.00 5256.38 72.70
3042 35.2900 4990.00 4874.46 70.64
3043 35.3000 4476.00 4456.20 66.90
3044 35.3100 3950.00 4025.09 62.85
3045 35.3200 3471.00 3599.87 58.92
3046 35.3300 3145.00 3194.26 56.08
3047 35.3400 2671.00 2817.34 51.68
3048 35.3500 2349.00 2475.16 48.47
3049 35.3600 1999.00 2170.02 44.71
3050 35.3700 1833.00 1902.86 42.81
3051 35.3800 1568.00 1672.42 39.60
3052 35.3900 1450.00 1476.40 38.08
3053 35.4000 1265.00 1311.64 35.57
3054 35.4100 1164.00 1174.51 34.12
3055 35.4200 1099.00 1061.38 33.15
3056 35.4300 997.00 968.42 31.58
3057 35.4400 881.00 892.31 29.68
3058 35.4500 867.00 829.94 29.44
3059 35.4600 768.00 778.74 27.71
3060 35.4700 775.00 736.43 27.84
3061 35.4800 688.00 701.29 26.23
3062 35.4900 671.00 671.93 25.90
3063 35.5000 679.00 629.73 26.06
3064 35.5100 640.00 609.20 25.30
3065 35.5200 632.00 592.13 25.14
3066 35.5300 631.00 578.28 25.12
3067 35.5400 606.00 567.52 24.62
3068 35.5500 599.00 559.96 24.47
3069 35.5600 639.00 555.79 25.28
3070 35.5700 641.00 555.34 25.32
3071 35.5800 649.00 558.94 25.48
3072 35.5900 653.00 566.93 25.55
3073 35.6000 680.00 579.54 26.08
3074 35.6100 707.00 596.80 26.59
3075 35.6200 744.00 618.42 27.28
3076 35.6300 747.00 643.71 27.33
3077 35.6400 814.00 671.43 28.53
3078 35.6500 876.00 699.79 29.60
3079 35.6600 854.00 726.47 29.22
3080 35.6700 877.00 748.60 29.61
3081 35.6800 917.00 763.12 30.28
3082 35.6900 852.00 767.26 29.19
3083 35.7000 904.00 759.26 30.07
3084 35.7100 818.00 739.35 28.60
3085 35.7200 819.00 709.45 28.62
3086 35.7300 745.00 672.85 27.29
3087 35.7400 745.00 632.99 27.29
3088 35.7500 667.00 592.87 25.83
3089 35.7600 642.00 554.66 25.34
3090 35.7700 603.00 519.71 24.56
3091 35.7800 537.00 488.80 23.17
3092 35.7900 542.00 462.18 23.28
3093 35.8000 520.00 439.78 22.80
3094 35.8100 474.00 421.25 21.77
3095 35.8200 462.00 406.15 21.49
3096 35.8300 459.00 393.92 21.42
3097 35.8400 424.00 384.03 20.59
3098 35.8500 412.00 375.99 20.30
3099 35.8600 389.00 369.38 19.72
3100 35.8700 408.00 363.84 20.20
3101 35.8800 436.00 359.12 20.88
3102 35.8900 403.00 355.02 20.07
3103 35.9000 370.00 351.38 19.24
3104 35.9100 388.00 348.10 19.70
3105 35.9200 376.00 345.11 19.39
3106 35.9300 363.00 342.35 19.05
3107 35.9400 384.00 339.80 19.60
3108 35.9500 384.00 337.42 19.60
3109 35.9600 365.00 335.18 19.10
3110 35.9700 389.00 333.08 19.72
3111 35.9800 351.00 331.10 18.74
3112 35.9900 392.00 329.23 19.80
3113 36.0000 353.00 327.46 18.79
3114 36.0100 342.00 325.77 18.49
3115 36.0200 336.00 324.17 18.33
3116 36.0300 336.00 322.64 18.33
3117 36.0400 313.00 321.18 17.69
3118 36.0500 345.00 319.79 18.57
3119 36.0600 358.00 318.45 18.92
3120 36.0700 321.00 317.18 17.92
3121 36.0800 339.00 315.95 18.41
3122 36.0900 317.00 314.77 17.80
3123 36.1000 349.00 313.63 18.68
3124 36.1100 370.00 312.54 19.24
3125 36.1200 366.00 311.49 19.13
3126 36.1300 327.00 310.48 18.08
3127 36.1400 340.00 309.50 18.44
3128 36.1500 344.00 308.56 18.55
3129 36.1600 348.00 307.65 18.65
3130 36.1700 352.00 306.77 18.76
3131 36.1800 365.00 305.91 19.10
3132 36.1900 312.00 305.09 17.66
3133 36.2000 357.00 304.29 18.89
3134 36.2100 336.00 303.51 18.33
3135 36.2200 302.00 302.76 17.38
3136 36.2300 340.00 302.03 18.44
3137 36.2400 325.00 301.32 18.03
3138 36.2500 359.00 300.63 18.95
3139 36.2600 302.00 299.96 17.38
3140 36.2700 325.00 299.31 18.03
3141 36.2800 332.00 298.67 18.22
3142 36.2900 351.00 298.06 18.74
3143 36.3000 346.00 297.46 18.60
3144 36.3100 301.00 296.88 17.35
3145 36.3200 291.00 296.31 17.06
3146 36.3300 308.00 295.76 17.55
3147 36.3400 311.00 295.22 17.64
3148 36.3500 307.00 294.69 17.52
3149 36.3600 273.00 294.18 16.52
3150 36.3700 296.00 293.69 17.20
3151 36.3800 283.00 293.20 16.82
3152 36.3900 289.00 292.73 17.00
3153 36.4000 297.00 292.27 17.23
3154 36.4100 260.00 291.83 16.12
3155 36.4200 277.00 291.39 16.64
3156 36.4300 307.00 290.97 17.52
3157 36.4400 296.00 290.55 17.20
3158 36.4500 292.00 290.15 17.09
3159 36.4600 279.00 289.75 16.70
3160 36.4700 259.00 289.36 16.09
3161 36.4800 290.00 288.99 17.03
3162 36.4900 267.00 288.62 16.34
3163 36.5000 289.00 288.27 17.00
3164 36.5100 262.00 287.92 16.19
3165 36.5200 278.00 287.59 16.67
3166 36.5300 242.00 287.27 15.56
3167 36.5400 262.00 286.96 16.19
3168 36.5500 272.00 286.66 16.49
3169 36.5600 286.00 286.37 16.91
3170 36.5700 273.00 286.10 16.52
3171 36.5800 258.00 285.83 16.06
3172 36.5900 263.00 285.58 16.22
3173 36.6000 282.00 285.35 16.79
3174 36.6100 276.00 285.12 16.61
3175 36.6200 301.00 284.92 17.35
3176 36.6300 256.00 284.72 16.00
3177 36.6400 275.00 284.55 16.58
3178 36.6500 286.00 284.39 16.91
3179 36.6600 263.00 284.26 16.22
3180 36.6700 238.00 284.15 15.43
3181 36.6800 257.00 284.07 16.03
3182 36.6900 271.00 284.02 16.46
3183 36.7000 241.00 284.00 15.52
3184 36.7100 286.00 284.04 16.91
3185 36.7200 271.00 284.13 16.46
3186 36.7300 241.00 284.29 15.52
3187 36.7400 294.00 281.30 17.15
3188 36.7500 255.00 281.72 15.97
3189 36.7600 253.00 282.30 15.91
3190 36.7700 267.00 283.10 16.34
3191 36.7800 253.00 284.15 15.91
3192 36.7900 289.00 285.55 17.00
3193 36.8000 277.00 287.33 16.64
3194 36.8100 248.00 289.59 15.75
3195 36.8200 280.00 292.37 16.73
3196 36.8300 284.00 295.73 16.85
3197 36.8400 276.00 299.65 16.61
3198 36.8500 297.00 304.10 17.23
3199 36.8600 302.00 308.98 17.38
3200 36.8700 313.00 314.11 17.69
3201 36.8800 266.00 319.22 16.31
3202 36.8900 308.00 323.96 17.55
3203 36.9000 310.00 327.93 17.61
3204 36.9100 310.00 330.69 17.61
3205 36.9200 303.00 331.87 17.41
3206 36.9300 310.00 331.28 17.61
3207 36.9400 312.00 328.97 17.66
3208 36.9500 303.00 325.26 17.41
3209 36.9600 335.00 320.64 18.30
3210 36.9700 301.00 315.58 17.35
3211 36.9800 284.00 310.51 16.85
3212 36.9900 268.00 305.72 16.37
3213 37.0000 312.00 301.40 17.66
3214 37.0100 262.00 297.69 16.19
3215 37.0200 297.00 294.62 17.23
3216 37.0300 273.00 292.21 16.52
3217 37.0400 281.00 290.45 16.76
3218 37.0500 301.00 289.30 17.35
3219 37.0600 285.00 288.74 16.88
3220 37.0700 292.00 288.75 17.09
3221 37.0800 266.00 289.33 16.31
3222 37.0900 306.00 290.50 17.49
3223 37.1000 269.00 292.31 16.40
3224 37.1100 286.00 294.81 16.91
3225 37.1200 273.00 298.09 16.52
3226 37.1300 297.00 302.21 17.23
3227 37.1400 283.00 307.25 16.82
3228 37.1500 330.00 313.24 18.17
3229 37.1600 307.00 320.20 17.52
3230 37.1700 324.00 328.04 18.00
3231 37.1800 296.00 336.65 17.20
3232 37.1900 343.00 345.77 18.52
3233 37.2000 362.00 355.07 19.03
3234 37.2100 382.00 364.13 19.54
3235 37.2200 363.00 372.45 19.05
3236 37.2300 314.00 379.56 17.72
3237 37.2400 363.00 385.10 19.05
3238 37.2500 363.00 389.05 19.05
3239 37.2600 392.00 391.76 19.80
3240 37.2700 384.00 394.04 19.60
3241 37.2800 432.00 396.91 20.78
3242 37.2900 359.00 401.48 18.95
3243 37.3000 341.00 408.66 18.47
3244 37.3100 384.00 419.14 19.60
3245 37.3200 371.00 433.23 19.26
3246 37.3300 381.00 450.89 19.52
3247 37.3400 407.00 471.62 20.17
3248 37.3500 438.00 494.44 20.93
3249 37.3600 444.00 517.88 21.07
3250 37.3700 456.00 540.02 21.35
3251 37.3800 436.00 558.57 20.88
3252 37.3900 473.00 571.12 21.75
3253 37.4000 433.00 575.98 20.81
3254 37.4100 451.00 572.19 21.24
3255 37.4200 435.00 560.24 20.86
3256 37.4300 413.00 541.84 20.32
3257 37.4400 416.00 518.78 20.40
3258 37.4500 427.00 493.14 20.66
3259 37.4600 376.00 466.51 19.39
3260 37.4700 367.00 440.10 19.16
3261 37.4800 385.00 414.86 19.62
3262 37.4900 363.00 391.58 19.05
3263 37.5000 345.00 370.77 18.57
3264 37.5100 370.00 352.70 19.24
3265 37.5200 346.00 337.39 18.60
3266 37.5300 316.00 324.71 17.78
3267 37.5400 306.00 314.37 17.49
3268 37.5500 287.00 306.08 16.94
3269 37.5600 277.00 299.48 16.64
3270 37.5700 253.00 294.28 15.91
3271 37.5800 290.00 290.17 17.03
3272 37.5900 237.00 286.91 15.39
3273 37.6000 261.00 284.27 16.16
3274 37.6100 275.00 282.09 16.58
3275 37.6200 260.00 280.20 16.12
3276 37.6300 263.00 278.51 16.22
3277 37.6400 253.00 276.92 15.91
3278 37.6500 278.00 275.41 16.67
3279 37.6600 284.00 273.95 16.85
3280 37.6700 239.00 272.52 15.46
3281 37.6800 273.00 271.15 16.52
3282 37.6900 250.00 269.85 15.81
3283 37.7000 272.00 268.61 16.49
3284 37.7100 247.00 267.45 15.72
3285 37.7200 233.00 266.36 15.26
3286 37.7300 256.00 265.36 16.00
3287 37.7400 265.00 264.43 16.28
3288 37.7500 233.00 263.58 15.26
3289 37.7600 250.00 262.80 15.81
3290 37.7700 231.00 262.08 15.20
3291 37.7800 276.00 261.42 16.61
3292 37.7900 241.00 260.81 15.52
3293 37.8000 226.00 260.25 15.03
3294 37.8100 236.00 259.55 15.36
3295 37.8200 251.00 259.06 15.84
3296 37.8300 249.00 258.61 15.78
3297 37.8400 253.00 258.18 15.91
3298 37.8500 262.00 257.78 16.19
3299 37.8600 253.00 257.40 15.91
3300 37.8700 272.00 257.03 16.49
3301 37.8800 263.00 256.68 16.22
3302 37.8900 278.00 256.35 16.67
3303 37.9000 273.00 256.03 16.52
3304 37.9100 239.00 255.72 15.46
3305 37.9200 251.00 255.42 15.84
3306 37.9300 280.00 255.13 16.73
3307 37.9400 274.00 254.85 16.55
3308 37.9500 270.00 254.58 16.43
3309 37.9600 267.00 251.39 16.34
3310 37.9700 272.00 251.17 16.49
3311 37.9800 249.00 250.96 15.78
3312 37.9900 249.00 250.76 15.78
3313 38.0000 243.00 250.58 15.59
3314 38.0100 256.00 250.41 16.00
3315 38.0200 245.00 250.27 15.65
3316 38.0300 273.00 250.14 16.52
3317 38.0400 264.00 250.04 16.25
3318 38.0500 265.00 249.96 16.28
3319 38.0600 234.00 249.89 15.30
3320 38.0700 244.00 249.85 15.62
3321 38.0800 256.00 249.81 16.00
3322 38.0900 258.00 249.78 16.06
3323 38.1000 239.00 249.73 15.46
3324 38.1100 231.00 249.66 15.20
3325 38.1200 252.00 249.55 15.87
3326 38.1300 224.00 249.39 14.97
3327 38.1400 240.00 249.17 15.49
3328 38.1500 240.00 248.90 15.49
3329 38.1600 220.00 248.59 14.83
3330 38.1700 236.00 248.26 15.36
3331 38.1800 242.00 247.91 15.56
3332 38.1900 239.00 247.56 15.46
3333 38.2000 213.00 247.23 14.59
3334 38.2100 247.00 246.91 15.72
3335 38.2200 224.00 246.61 14.97
3336 38.2300 228.00 246.33 15.10
3337 38.2400 210.00 246.07 14.49
3338 38.2500 221.00 245.82 14.87
3339 38.2600 249.00 245.60 15.78
3340 38.2700 248.00 245.39 15.75
3341 38.2800 254.00 245.18 15.94
3342 38.2900 238.00 244.99 15.43
3343 38.3000 222.00 244.81 14.90
3344 38.3100 219.00 244.63 14.80
3345 38.3200 205.00 244.45 14.32
3346 38.3300 224.00 244.28 14.97
3347 38.3400 234.00 244.11 15.30
3348 38.3500 247.00 243.94 15.72
3349 38.3600 226.00 243.78 15.03
3350 38.3700 208.00 243.62 14.42
3351 38.3800 240.00 243.45 15.49
3352 38.3900 229.00 243.29 15.13
3353 38.4000 231.00 243.13 15.20
3354 38.4100 234.00 242.98 15.30
3355 38.4200 227.00 242.82 15.07
3356 38.4300 231.00 242.66 15.20
3357 38.4400 253.00 242.51 15.91
3358 38.4500 260.00 242.35 16.12
3359 38.4600 243.00 242.20 15.59
3360 38.4700 229.00 242.05 15.13
3361 38.4800 221.00 241.90 14.87
3362 38.4900 226.00 241.74 15.03
3363 38.5000 216.00 241.71 14.70
3364 38.5100 239.00 241.56 15.46
3365 38.5200 235.00 241.41 15.33
3366 38.5300 243.00 241.26 15.59
3367 38.5400 235.00 241.14 15.33
3368 38.5500 234.00 240.99 15.30
3369 38.5600 215.00 240.85 14.66
3370 38.5700 259.00 240.70 16.09
3371 38.5800 247.00 240.56 15.72
3372 38.5900 241.00 240.42 15.52
3373 38.6000 234.00 240.28 15.30
3374 38.6100 225.00 240.14 15.00
3375 38.6200 218.00 239.99 14.76
3376 38.6300 208.00 239.86 14.42
3377 38.6400 242.00 239.72 15.56
3378 38.6500 250.00 239.58 15.81
3379 38.6600 224.00 239.44 14.97
3380 38.6700 235.00 239.30 15.33
3381 38.6800 238.00 239.17 15.43
3382 38.6900 200.00 239.09 14.14
3383 38.7000 220.00 238.96 14.83
3384 38.7100 257.00 238.82 16.03
3385 38.7200 216.00 238.69 14.70
3386 38.7300 243.00 240.84 15.59
3387 38.7400 246.00 240.73 15.68
3388 38.7500 242.00 240.62 15.56
3389 38.7600 227.00 240.51 15.07
3390 38.7700 231.00 240.41 15.20
3391 38.7800 249.00 240.30 15.78
3392 38.7900 235.00 240.20 15.33
3393 38.8000 241.00 240.10 15.52
3394 38.8100 218.00 240.00 14.76
3395 38.8200 211.00 239.90 14.53
3396 38.8300 231.00 239.80 15.20
3397 38.8400 241.00 239.71 15.52
3398 38.8500 241.00 239.61 15.52
3399 38.8600 243.00 239.52 15.59
3400 38.8700 243.00 239.43 15.59
3401 38.8800 231.00 239.34 15.20
3402 38.8900 260.00 239.26 16.12
3403 38.9000 236.00 239.17 15.36
3404 38.9100 212.00 239.12 14.56
3405 38.9200 232.00 239.04 15.23
3406 38.9300 231.00 238.96 15.20
3407 38.9400 238.00 238.89 15.43
3408 38.9500 229.00 238.81 15.13
3409 38.9600 238.00 238.74 15.43
3410 38.9700 239.00 238.68 15.46
3411 38.9800 223.00 238.63 14.93
3412 38.9900 218.00 238.57 14.76
3413 39.0000 201.00 238.51 14.18
3414 39.0100 230.00 238.46 15.17
3415 39.0200 235.00 238.41 15.33
3416 39.0300 221.00 238.36 14.87
3417 39.0400 217.00 238.32 14.73
3418 39.0500 221.00 238.28 14.87
3419 39.0600 218.00 238.23 14.76
3420 39.0700 241.00 238.20 15.52
3421 39.0800 258.00 238.18 16.06
3422 39.0900 232.00 238.16 15.23
3423 39.1000 238.00 238.16 15.43
3424 39.1100 231.00 238.15 15.20
3425 39.1200 203.00 238.16 14.25
3426 39.1300 252.00 238.17 15.87
3427 39.1400 233.00 238.19 15.26
3428 39.1500 246.00 238.23 15.68
3429 39.1600 238.00 238.26 15.43
3430 39.1700 268.00 238.32 16.37
3431 39.1800 244.00 238.38 15.62
3432 39.1900 268.00 238.46 16.37
3433 39.2000 229.00 238.54 15.13
3434 39.2100 222.00 238.65 14.90
3435 39.2200 227.00 238.77 15.07
3436 39.2300 214.00 238.91 14.63
3437 39.2400 206.00 239.07 14.35
3438 39.2500 247.00 239.25 15.72
3439 39.2600 236.00 239.46 15.36
3440 39.2700 237.00 239.69 15.39
3441 39.2800 237.00 239.96 15.39
3442 39.2900 235.00 240.26 15.33
3443 39.3000 243.00 240.59 15.59
3444 39.3100 224.00 240.97 14.97
3445 39.3200 227.00 241.40 15.07
3446 39.3300 245.00 241.89 15.65
3447 39.3400 240.00 242.44 15.49
3448 39.3500 258.00 243.06 16.06
3449 39.3600 259.00 243.78 16.09
3450 39.3700 242.00 244.61 15.56
3451 39.3800 271.00 245.58 16.46
3452 39.3900 268.00 246.72 16.37
3453 39.4000 275.00 248.08 16.58
3454 39.4100 297.00 249.75 17.23
3455 39.4200 298.00 251.80 17.26
3456 39.4300 297.00 254.38 17.23
3457 39.4400 294.00 257.64 17.15
3458 39.4500 347.00 262.02 18.63
3459 39.4600 328.00 267.32 18.11
3460 39.4700 352.00 274.05 18.76
3461 39.4800 351.00 282.51 18.74
3462 39.4900 401.00 293.01 20.02
3463 39.5000 434.00 305.83 20.83
3464 39.5100 452.00 321.15 21.26
3465 39.5200 490.00 339.02 22.14
3466 39.5300 540.00 359.26 23.24
3467 39.5400 537.00 381.55 23.17
3468 39.5500 625.00 404.95 25.00
3469 39.5600 657.00 428.59 25.63
3470 39.5700 663.00 450.78 25.75
3471 39.5800 640.00 469.63 25.30
3472 39.5900 692.00 483.08 26.31
3473 39.6000 639.00 489.31 25.28
3474 39.6100 636.00 487.24 25.22
3475 39.6200 611.00 477.05 24.72
3476 39.6300 570.00 460.09 23.87
3477 39.6400 526.00 438.51 22.93
3478 39.6500 542.00 414.57 23.28
3479 39.6600 509.00 390.21 22.56
3480 39.6700 488.00 366.86 22.09
3481 39.6800 508.00 345.40 22.54
3482 39.6900 453.00 326.36 21.28
3483 39.7000 456.00 309.94 21.35
3484 39.7100 463.00 296.15 21.52
3485 39.7200 464.00 284.80 21.54
3486 39.7300 479.00 275.65 21.89
3487 39.7400 456.00 268.38 21.35
3488 39.7500 454.00 262.67 21.31
3489 39.7600 476.00 258.22 21.82
3490 39.7700 417.00 254.75 20.42
3491 39.7800 441.00 252.04 21.00
3492 39.7900 465.00 249.89 21.56
3493 39.8000 412.00 248.18 20.30
3494 39.8100 395.00 246.80 19.87
3495 39.8200 418.00 245.66 20.44
3496 39.8300 408.00 244.73 20.20
3497 39.8400 399.00 243.94 19.98
3498 39.8500 390.00 243.29 19.75
3499 39.8600 377.00 242.75 19.42
3500 39.8700 337.00 242.31 18.36
3501 39.8800 359.00 241.95 18.95
3502 39.8900 325.00 241.68 18.03
3503 39.9000 310.00 241.48 17.61
3504 39.9100 307.00 241.37 17.52
3505 39.9200 306.00 241.33 17.49
3506 39.9300 303.00 241.38 17.41
3507 39.9400 295.00 241.52 17.18
3508 39.9500 268.00 241.76 16.37
3509 39.9600 258.00 242.14 16.06
3510 39.9700 250.00 242.67 15.81
3511 39.9800 250.00 243.40 15.81
3512 39.9900 258.00 244.38 16.06
3513 40.0000 239.00 245.66 15.46
3514 40.0100 240.00 247.32 15.49
3515 40.0200 233.00 249.43 15.26
3516 40.0300 219.00 252.06 14.80
3517 40.0400 247.00 255.30 15.72
3518 40.0500 253.00 259.19 15.91
3519 40.0600 240.00 263.76 15.49
3520 40.0700 213.00 268.98 14.59
3521 40.0800 235.00 274.77 15.33
3522 40.0900 249.00 280.95 15.78
3523 40.1000 242.00 287.26 15.56
3524 40.1100 256.00 293.32 16.00
3525 40.1200 242.00 298.67 15.56
3526 40.1300 267.00 302.77 16.34
3527 40.1400 272.00 305.14 16.49
3528 40.1500 260.00 305.44 16.12
3529 40.1600 259.00 303.64 16.09
3530 40.1700 247.00 300.02 15.72
3531 40.1800 236.00 295.10 15.36
3532 40.1900 255.00 289.47 15.97
3533 40.2000 248.00 283.65 15.75
3534 40.2100 268.00 278.04 16.37
3535 40.2200 238.00 272.90 15.43
3536 40.2300 255.00 268.38 15.97
3537 40.2400 243.00 264.57 15.59
3538 40.2500 239.00 261.46 15.46
3539 40.2600 236.00 259.03 15.36
3540 40.2700 249.00 257.23 15.78
3541 40.2800 248.00 255.98 15.75
3542 40.2900 211.00 255.20 14.53
3543 40.3000 225.00 254.81 15.00
3544 40.3100 253.00 254.75 15.91
3545 40.3200 229.00 254.95 15.13
3546 40.3300 237.00 255.38 15.39
3547 40.3400 223.00 256.00 14.93
3548 40.3500 224.00 256.78 14.97
3549 40.3600 256.00 257.70 16.00
3550 40.3700 226.00 259.08 15.03
3551 40.3800 253.00 260.28 15.91
3552 40.3900 253.00 261.61 15.91
3553 40.4000 251.00 263.08 15.84
3554 40.4100 247.00 264.69 15.72
3555 40.4200 245.00 266.45 15.65
3556 40.4300 246.00 268.37 15.68
3557 40.4400 251.00 270.47 15.84
3558 40.4500 245.00 272.76 15.65
3559 40.4600 260.00 275.26 16.12
3560 40.4700 252.00 278.01 15.87
3561 40.4800 236.00 281.04 15.36
3562 40.4900 252.00 284.38 15.87
3563 40.5000 228.00 288.11 15.10
3564 40.5100 270.00 292.30 16.43
3565 40.5200 269.00 297.05 16.40
3566 40.5300 283.00 302.49 16.82
3567 40.5400 273.00 308.80 16.52
3568 40.5500 320.00 316.16 17.89
3569 40.5600 273.00 324.83 16.52
3570 40.5700 288.00 335.08 16.97
3571 40.5800 307.00 347.19 17.52
3572 40.5900 327.00 361.48 18.08
3573 40.6000 347.00 378.20 18.63
3574 40.6100 388.00 397.58 19.70
3575 40.6200 400.00 419.72 20.00
3576 40.6300 420.00 444.58 20.49
3577 40.6400 451.00 471.90 21.24
3578 40.6500 476.00 501.15 21.82
3579 40.6600 476.00 531.51 21.82
3580 40.6700 565.00 561.81 23.77
3581 40.6800 579.00 590.67 24.06
3582 40.6900 666.00 616.62 25.81
3583 40.7000 659.00 638.52 25.67
3584 40.7100 644.00 655.98 25.38
3585 40.7200 644.00 669.72 25.38
3586 40.7300 628.00 681.59 25.06
3587 40.7400 706.00 694.35 26.57
3588 40.7500 715.00 711.28 26.74
3589 40.7600 733.00 736.05 27.07
3590 40.7700 835.00 772.62 28.90
3591 40.7800 786.00 825.26 28.04
3592 40.7900 893.00 898.57 29.88
3593 40.8000 901.00 997.28 30.02
3594 40.8100 1099.00 1126.25 33.15
3595 40.8200 1264.00 1290.03 35.55
3596 40.8300 1402.00 1492.42 37.44
3597 40.8400 1715.00 1735.88 41.41
3598 40.8500 2014.00 2020.32 44.88
3599 40.8600 2304.00 2343.12 48.00
3600 40.8700 2700.00 2696.78 51.96
3601 40.8800 3082.00 3069.05 55.52
3602 40.8900 3510.00 3441.02 59.25
3603 40.9000 3785.00 3788.26 61.52
3604 40.9100 4173.00 4080.79 64.60
3605 40.9200 4322.00 4286.46 65.74
3606 40.9300 4478.00 4377.78 66.92
3607 40.9400 4359.00 4338.95 66.02
3608 40.9500 4250.00 4172.89 65.19
3609 40.9600 3897.00 3901.59 62.43
3610 40.9700 3633.00 3558.23 60.27
3611 40.9800 3219.00 3178.60 56.74
3612 40.9900 2834.00 2792.70 53.24
3613 41.0000 2403.00 2422.52 49.02
3614 41.0100 2000.00 2082.35 44.72
3615 41.0200 1719.00 1780.13 41.46
3616 41.0300 1439.00 1519.47 37.93
3617 41.0400 1208.00 1300.22 34.76
3618 41.0500 1039.00 1119.98 32.23
3619 41.0600 879.00 974.73 29.65
3620 41.0700 869.00 859.74 29.48
3621 41.0800 764.00 769.84 27.64
3622 41.0900 686.00 699.92 26.19
3623 41.1000 603.00 645.47 24.56
3624 41.1100 532.00 602.43 23.07
3625 41.1200 514.00 567.53 22.67
3626 41.1300 461.00 538.19 21.47
3627 41.1400 466.00 512.66 21.59
3628 41.1500 433.00 489.80 20.81
3629 41.1600 422.00 468.95 20.54
3630 41.1700 381.00 449.73 19.52
3631 41.1800 369.00 431.84 19.21
3632 41.1900 366.00 415.82 19.13
3633 41.2000 318.00 400.02 17.83
3634 41.2100 309.00 385.12 17.58
3635 41.2200 318.00 371.15 17.83
3636 41.2300 285.00 358.17 16.88
3637 41.2400 257.00 346.24 16.03
3638 41.2500 293.00 335.38 17.12
3639 41.2600 302.00 325.58 17.38
3640 41.2700 287.00 316.77 16.94
3641 41.2800 293.00 308.91 17.12
3642 41.2900 260.00 301.88 16.12
3643 41.3000 261.00 295.63 16.16
3644 41.3100 223.00 290.05 14.93
3645 41.3200 223.00 285.07 14.93
3646 41.3300 251.00 280.62 15.84
3647 41.3400 242.00 276.63 15.56
3648 41.3500 246.00 273.05 15.68
3649 41.3600 230.00 269.82 15.17
3650 41.3700 241.00 266.89 15.52
3651 41.3800 239.00 264.22 15.46
3652 41.3900 193.00 261.78 13.89
3653 41.4000 238.00 259.51 15.43
3654 41.4100 239.00 257.38 15.46
3655 41.4200 244.00 255.35 15.62
3656 41.4300 238.00 253.36 15.43
3657 41.4400 233.00 251.40 15.26
3658 41.4500 202.00 249.45 14.21
3659 41.4600 226.00 247.50 15.03
3660 41.4700 209.00 245.59 14.46
3661 41.4800 230.00 243.72 15.17
3662 41.4900 213.00 241.92 14.59
3663 41.5000 230.00 240.20 15.17
3664 41.5100 208.00 238.58 14.42
3665 41.5200 239.00 237.04 15.46
3666 41.5300 206.00 235.61 14.35
3667 41.5400 243.00 234.27 15.59
3668 41.5500 210.00 233.01 14.49
3669 41.5600 229.00 231.84 15.13
3670 41.5700 209.00 230.74 14.46
3671 41.5800 228.00 229.72 15.10
3672 41.5900 222.00 228.75 14.90
3673 41.6000 192.00 227.84 13.86
3674 41.6100 203.00 226.99 14.25
3675 41.6200 186.00 226.18 13.64
3676 41.6300 187.00 225.41 13.67
3677 41.6400 204.00 224.68 14.28
3678 41.6500 200.00 223.99 14.14
3679 41.6600 222.00 223.33 14.90
3680 41.6700 193.00 222.71 13.89
3681 41.6800 221.00 222.12 14.87
3682 41.6900 197.00 221.55 14.04
3683 41.7000 199.00 221.02 14.11
3684 41.7100 208.00 220.51 14.42
3685 41.7200 220.00 220.03 14.83
3686 41.7300 189.00 219.58 13.75
3687 41.7400 210.00 219.15 14.49
3688 41.7500 197.00 218.75 14.04
3689 41.7600 201.00 218.37 14.18
3690 41.7700 192.00 218.01 13.86
3691 41.7800 196.00 217.68 14.00
3692 41.7900 208.00 217.37 14.42
3693 41.8000 200.00 217.08 14.14
3694 41.8100 212.00 216.68 14.56
3695 41.8200 231.00 216.44 15.20
3696 41.8300 207.00 216.22 14.39
3697 41.8400 209.00 216.03 14.46
3698 41.8500 179.00 215.86 13.38
3699 41.8600 213.00 215.72 14.59
3700 41.8700 216.00 215.60 14.70
3701 41.8800 195.00 215.50 13.96
3702 41.8900 224.00 215.43 14.97
3703 41.9000 195.00 215.38 13.96
3704 41.9100 199.00 215.37 14.11
3705 41.9200 200.00 215.38 14.14
3706 41.9300 220.00 215.42 14.83
3707 41.9400 239.00 215.49 15.46
3708 41.9500 207.00 215.59 14.39
3709 41.9600 210.00 215.73 14.49
3710 41.9700 218.00 215.91 14.76
3711 41.9800 220.00 216.12 14.83
3712 41.9900 240.00 216.38 15.49
3713 42.0000 205.00 216.68 14.32
3714 42.0100 238.00 217.02 15.43
3715 42.0200 233.00 217.43 15.26
3716 42.0300 215.00 217.88 14.66
3717 42.0400 183.00 218.41 13.53
3718 42.0500 197.00 219.01 14.04
3719 42.0600 201.00 219.69 14.18
3720 42.0700 225.00 220.46 15.00
3721 42.0800 216.00 221.34 14.70
3722 42.0900 230.00 222.35 15.17
3723 42.1000 232.00 223.50 15.23
3724 42.1100 207.00 224.81 14.39
3725 42.1200 214.00 226.32 14.63
3726 42.1300 250.00 228.04 15.81
3727 42.1400 232.00 230.01 15.23
3728 42.1500 221.00 232.26 14.87
3729 42.1600 233.00 234.82 15.26
3730 42.1700 228.00 237.73 15.10
3731 42.1800 234.00 241.02 15.30
3732 42.1900 236.00 245.39 15.36
3733 42.2000 219.00 249.58 14.80
3734 42.2100 244.00 254.28 15.62
3735 42.2200 245.00 259.57 15.65
3736 42.2300 279.00 265.53 16.70
3737 42.2400 267.00 272.31 16.34
3738 42.2500 287.00 280.10 16.94
3739 42.2600 291.00 289.12 17.06
3740 42.2700 302.00 299.64 17.38
3741 42.2800 286.00 311.87 16.91
3742 42.2900 298.00 326.05 17.26
3743 42.3000 319.00 342.30 17.86
3744 42.3100 353.00 360.74 18.79
3745 42.3200 352.00 381.35 18.76
3746 42.3300 358.00 404.03 18.92
3747 42.3400 406.00 428.57 20.15
3748 42.3500 446.00 454.58 21.12
3749 42.3600 467.00 481.48 21.61
3750 42.3700 497.00 508.54 22.29
3751 42.3800 575.00 534.75 23.98
3752 42.3900 592.00 558.91 24.33
3753 42.4000 573.00 579.72 23.94
3754 42.4100 650.00 595.95 25.50
3755 42.4200 662.00 606.60 25.73
3756 42.4300 658.00 611.19 25.65
3757 42.4400 684.00 609.92 26.15
3758 42.4500 634.00 603.69 25.18
3759 42.4600 663.00 594.02 25.75
3760 42.4700 618.00 582.79 24.86
3761 42.4800 625.00 572.00 25.00
3762 42.4900 612.00 563.52 24.74
3763 42.5000 614.00 559.02 24.78
3764 42.5100 591.00 559.85 24.31
3765 42.5200 633.00 566.99 25.16
3766 42.5300 609.00 580.99 24.68
3767 42.5400 642.00 601.92 25.34
3768 42.5500 620.00 629.21 24.90
3769 42.5600 708.00 661.59 26.61
3770 42.5700 752.00 696.96 27.42
3771 42.5800 800.00 732.26 28.28
3772 42.5900 781.00 763.62 27.95
3773 42.6000 736.00 786.60 27.13
3774 42.6100 804.00 797.01 28.35
3775 42.6200 778.00 791.93 27.89
3776 42.6300 820.00 770.69 28.64
3777 42.6400 766.00 735.26 27.68
3778 42.6500 690.00 689.52 26.27
3779 42.6600 632.00 637.97 25.14
3780 42.6700 636.00 584.78 25.22
3781 42.6800 547.00 532.99 23.39
3782 42.6900 474.00 484.77 21.77
3783 42.7000 465.00 441.33 21.56
3784 42.7100 415.00 403.31 20.37
3785 42.7200 364.00 370.77 19.08
3786 42.7300 338.00 343.55 18.38
3787 42.7400 347.00 321.21 18.63
3788 42.7500 294.00 303.11 17.15
3789 42.7600 253.00 288.64 15.91
3790 42.7700 267.00 277.13 16.34
3791 42.7800 284.00 267.98 16.85
3792 42.7900 260.00 260.62 16.12
3793 42.8000 259.00 254.60 16.09
3794 42.8100 221.00 249.52 14.87
3795 42.8200 246.00 245.12 15.68
3796 42.8300 236.00 241.19 15.36
3797 42.8400 246.00 237.65 15.68
3798 42.8500 235.00 234.43 15.33
3799 42.8600 224.00 231.51 14.97
3800 42.8700 238.00 228.87 15.43
3801 42.8800 222.00 226.50 14.90
3802 42.8900 213.00 224.40 14.59
3803 42.9000 221.00 222.54 14.87
3804 42.9100 223.00 220.91 14.93
3805 42.9200 226.00 219.51 15.03
3806 42.9300 229.00 218.19 15.13
3807 42.9400 230.00 217.18 15.17
3808 42.9500 216.00 216.33 14.70
3809 42.9600 190.00 215.64 13.78
3810 42.9700 202.00 215.06 14.21
3811 42.9800 212.00 214.63 14.56
3812 42.9900 200.00 214.29 14.14
3813 43.0000 200.00 214.04 14.14
3814 43.0100 207.00 213.87 14.39
3815 43.0200 204.00 213.74 14.28
3816 43.0300 212.00 213.66 14.56
3817 43.0400 212.00 213.61 14.56
3818 43.0500 208.00 213.61 14.42
3819 43.0600 198.00 213.67 14.07
3820 43.0700 213.00 213.80 14.59
3821 43.0800 189.00 214.02 13.75
3822 43.0900 212.00 214.34 14.56
3823 43.1000 198.00 214.78 14.07
3824 43.1100 210.00 215.75 14.49
3825 43.1200 220.00 216.46 14.83
3826 43.1300 235.00 217.26 15.33
3827 43.1400 220.00 218.26 14.83
3828 43.1500 229.00 219.42 15.13
3829 43.1600 228.00 220.74 15.10
3830 43.1700 223.00 220.02 14.93
3831 43.1800 262.00 221.69 16.19
3832 43.1900 248.00 223.52 15.75
3833 43.2000 222.00 225.53 14.90
3834 43.2100 213.00 227.71 14.59
3835 43.2200 217.00 230.07 14.73
3836 43.2300 256.00 232.65 16.00
3837 43.2400 207.00 235.51 14.39
3838 43.2500 243.00 238.71 15.59
3839 43.2600 241.00 242.37 15.52
3840 43.2700 267.00 246.60 16.34
3841 43.2800 276.00 251.55 16.61
3842 43.2900 269.00 257.42 16.40
3843 43.3000 278.00 264.48 16.67
3844 43.3100 308.00 272.92 17.55
3845 43.3200 302.00 283.12 17.38
3846 43.3300 312.00 295.50 17.66
3847 43.3400 327.00 310.53 18.08
3848 43.3500 327.00 328.73 18.08
3849 43.3600 379.00 350.66 19.47
3850 43.3700 394.00 376.97 19.85
3851 43.3800 394.00 408.68 19.85
3852 43.3900 463.00 445.39 21.52
3853 43.4000 493.00 487.99 22.20
3854 43.4100 520.00 536.75 22.80
3855 43.4200 602.00 591.62 24.54
3856 43.4300 636.00 652.24 25.22
3857 43.4400 749.00 717.84 27.37
3858 43.4500 732.00 787.07 27.06
3859 43.4600 847.00 857.82 29.10
3860 43.4700 950.00 927.29 30.82
3861 43.4800 955.00 991.87 30.90
3862 43.4900 1058.00 1047.25 32.53
3863 43.5000 1101.00 1088.88 33.18
3864 43.5100 1198.00 1112.63 34.61
3865 43.5200 1129.00 1115.80 33.60
3866 43.5300 1088.00 1097.80 32.98
3867 43.5400 1140.00 1060.48 33.76
3868 43.5500 1058.00 1007.69 32.53
3869 43.5600 936.00 944.19 30.59
3870 43.5700 890.00 874.83 29.83
3871 43.5800 776.00 803.72 27.86
3872 43.5900 728.00 733.92 26.98
3873 43.6000 605.00 667.67 24.60
3874 43.6100 575.00 606.29 23.98
3875 43.6200 545.00 550.60 23.35
3876 43.6300 466.00 500.86 21.59
3877 43.6400 415.00 457.15 20.37
3878 43.6500 381.00 419.26 19.52
3879 43.6600 385.00 386.87 19.62
3880 43.6700 355.00 359.52 18.84
3881 43.6800 331.00 336.69 18.19
3882 43.6900 315.00 317.85 17.75
3883 43.7000 301.00 302.39 17.35
3884 43.7100 269.00 289.81 16.40
3885 43.7200 270.00 279.59 16.43
3886 43.7300 271.00 271.28 16.46
3887 43.7400 266.00 264.45 16.31
3888 43.7500 258.00 258.72 16.06
3889 43.7600 265.00 253.77 16.28
3890 43.7700 268.00 249.31 16.37
3891 43.7800 251.00 245.12 15.84
3892 43.7900 244.00 241.05 15.62
3893 43.8000 217.00 237.05 14.73
3894 43.8100 224.00 233.15 14.97
3895 43.8200 222.00 229.39 14.90
3896 43.8300 204.00 225.82 14.28
3897 43.8400 227.00 222.49 15.07
3898 43.8500 220.00 219.44 14.83
3899 43.8600 186.00 216.67 13.64
3900 43.8700 185.00 214.18 13.60
3901 43.8800 230.00 211.96 15.17
3902 43.8900 190.00 210.01 13.78
3903 43.9000 193.00 208.31 13.89
3904 43.9100 203.00 206.83 14.25
3905 43.9200 195.00 205.56 13.96
3906 43.9300 213.00 204.49 14.59
3907 43.9400 183.00 203.61 13.53
3908 43.9500 214.00 202.90 14.63
3909 43.9600 207.00 202.37 14.39
3910 43.9700 206.00 202.02 14.35
3911 43.9800 213.00 201.85 14.59
3912 43.9900 180.00 201.87 13.42
3913 44.0000 197.00 202.09 14.04
3914 44.0100 180.00 202.52 13.42
3915 44.0200 189.00 203.15 13.75
3916 44.0300 212.00 204.01 14.56
3917 44.0400 181.00 205.07 13.45
3918 44.0500 193.00 206.35 13.89
3919 44.0600 183.00 207.79 13.53
3920 44.0700 207.00 209.37 14.39
3921 44.0800 198.00 211.01 14.07
3922 44.0900 205.00 212.63 14.32
3923 44.1000 208.00 214.12 14.42
3924 44.1100 216.00 215.35 14.70
3925 44.1200 196.00 216.21 14.00
3926 44.1300 208.00 216.60 14.42
3927 44.1400 210.00 216.48 14.49
3928 44.1500 195.00 215.90 13.96
3929 44.1600 177.00 214.93 13.30
3930 44.1700 191.00 213.71 13.82
3931 44.1800 203.00 212.38 14.25
3932 44.1900 208.00 211.06 14.42
3933 44.2000 193.00 209.86 13.89
3934 44.2100 209.00 208.83 14.46
3935 44.2200 208.00 208.03 14.42
3936 44.2300 209.00 207.48 14.46
3937 44.2400 196.00 207.21 14.00
3938 44.2500 207.00 207.21 14.39
3939 44.2600 199.00 207.51 14.11
3940 44.2700 198.00 208.09 14.07
3941 44.2800 201.00 209.28 14.18
3942 44.2900 183.00 210.45 13.53
3943 44.3000 215.00 211.92 14.66
3944 44.3100 221.00 213.71 14.87
3945 44.3200 188.00 215.81 13.71
3946 44.3300 209.00 218.25 14.46
3947 44.3400 202.00 221.05 14.21
3948 44.3500 224.00 224.22 14.97
3949 44.3600 246.00 227.81 15.68
3950 44.3700 253.00 231.82 15.91
3951 44.3800 219.00 236.31 14.80
3952 44.3900 251.00 241.31 15.84
3953 44.4000 259.00 246.89 16.09
3954 44.4100 254.00 253.17 15.94
3955 44.4200 262.00 260.30 16.19
3956 44.4300 257.00 268.55 16.03
3957 44.4400 279.00 278.28 16.70
3958 44.4500 288.00 289.98 16.97
3959 44.4600 332.00 304.26 18.22
3960 44.4700 319.00 321.85 17.86
3961 44.4800 389.00 343.58 19.72
3962 44.4900 382.00 370.34 19.54
3963 44.5000 430.00 403.07 20.74
3964 44.5100 477.00 442.66 21.84
3965 44.5200 497.00 489.91 22.29
3966 44.5300 552.00 545.38 23.49
3967 44.5400 651.00 609.42 25.51
3968 44.5500 725.00 681.78 26.93
3969 44.5600 805.00 761.65 28.37
3970 44.5700 913.00 847.23 30.22
3971 44.5800 991.00 935.77 31.48
3972 44.5900 1020.00 1023.09 31.94
3973 44.6000 1114.00 1103.59 33.38
3974 44.6100 1195.00 1170.64 34.57
3975 44.6200 1210.00 1217.37 34.79
3976 44.6300 1201.00 1238.04 34.66
3977 44.6400 1207.00 1229.69 34.74
3978 44.6500 1215.00 1193.20 34.86
3979 44.6600 1174.00 1133.08 34.26
3980 44.6700 1120.00 1056.16 33.47
3981 44.6800 1029.00 969.69 32.08
3982 44.6900 909.00 880.04 30.15
3983 44.7000 795.00 792.03 28.20
3984 44.7100 683.00 709.11 26.13
3985 44.7200 661.00 633.32 25.71
3986 44.7300 584.00 565.76 24.17
3987 44.7400 539.00 506.81 23.22
3988 44.7500 454.00 456.31 21.31
3989 44.7600 410.00 413.78 20.25
3990 44.7700 393.00 378.41 19.82
3991 44.7800 361.00 349.35 19.00
3992 44.7900 319.00 325.64 17.86
3993 44.8000 305.00 306.38 17.46
3994 44.8100 307.00 290.69 17.52
3995 44.8200 275.00 277.85 16.58
3996 44.8300 313.00 267.23 17.69
3997 44.8400 241.00 258.34 15.52
3998 44.8500 278.00 250.82 16.67
3999 44.8600 270.00 244.43 16.43
4000 44.8700 248.00 238.98 15.75
4001 44.8800 263.00 234.33 16.22
4002 44.8900 267.00 230.12 16.34
4003 44.9000 230.00 226.89 15.17
4004 44.9100 225.00 224.30 15.00
4005 44.9200 197.00 222.45 14.04
4006 44.9300 204.00 221.09 14.28
4007 44.9400 221.00 220.34 14.87
4008 44.9500 216.00 220.19 14.70
4009 44.9600 222.00 220.57 14.90
4010 44.9700 234.00 221.44 15.30
4011 44.9800 243.00 222.72 15.59
4012 44.9900 208.00 224.29 14.42
4013 45.0000 182.00 225.98 13.49
4014 45.0100 221.00 227.57 14.87
4015 45.0200 187.00 228.78 13.67
4016 45.0300 232.00 229.35 15.23
4017 45.0400 232.00 229.06 15.23
4018 45.0500 226.00 227.82 15.03
4019 45.0600 220.00 225.67 14.83
4020 45.0700 212.00 222.82 14.56
4021 45.0800 214.00 219.54 14.63
4022 45.0900 205.00 216.10 14.32
4023 45.1000 193.00 212.75 13.89
4024 45.1100 199.00 209.63 14.11
4025 45.1200 201.00 206.87 14.18
4026 45.1300 184.00 204.52 13.56
4027 45.1400 206.00 202.62 14.35
4028 45.1500 197.00 201.18 14.04
4029 45.1600 195.00 200.19 13.96
4030 45.1700 209.00 199.64 14.46
4031 45.1800 198.00 199.48 14.07
4032 45.1900 198.00 199.68 14.07
4033 45.2000 231.00 200.20 15.20
4034 45.2100 198.00 200.98 14.07
4035 45.2200 187.00 201.95 13.67
4036 45.2300 205.00 203.05 14.32
4037 45.2400 196.00 204.18 14.00
4038 45.2500 210.00 205.27 14.49
4039 45.2600 214.00 206.25 14.63
4040 45.2700 203.00 207.07 14.25
4041 45.2800 241.00 207.78 15.52
4042 45.2900 228.00 208.40 15.10
4043 45.3000 221.00 209.06 14.87
4044 45.3100 223.00 209.86 14.93
4045 45.3200 231.00 210.91 15.20
4046 45.3300 260.00 212.31 16.12
4047 45.3400 246.00 214.12 15.68
4048 45.3500 257.00 216.41 16.03
4049 45.3600 225.00 219.24 15.00
4050 45.3700 253.00 222.64 15.91
4051 45.3800 266.00 226.65 16.31
4052 45.3900 245.00 231.31 15.65
4053 45.4000 250.00 236.64 15.81
4054 45.4100 279.00 242.67 16.70
4055 45.4200 272.00 249.44 16.49
4056 45.4300 258.00 256.83 16.06
4057 45.4400 279.00 265.38 16.70
4058 45.4500 283.00 275.11 16.82
4059 45.4600 290.00 286.34 17.03
4060 45.4700 303.00 299.16 17.41
4061 45.4800 317.00 313.90 17.80
4062 45.4900 325.00 330.82 18.03
4063 45.5000 344.00 350.08 18.55
4064 45.5100 418.00 371.77 20.44
4065 45.5200 438.00 395.93 20.93
4066 45.5300 423.00 422.48 20.57
4067 45.5400 475.00 451.21 21.79
4068 45.5500 480.00 481.71 21.91
4069 45.5600 500.00 513.40 22.36
4070 45.5700 594.00 545.44 24.37
4071 45.5800 627.00 576.71 25.04
4072 45.5900 669.00 605.85 25.86
4073 45.6000 702.00 631.31 26.50
4074 45.6100 711.00 651.58 26.66
4075 45.6200 694.00 665.38 26.34
4076 45.6300 695.00 672.09 26.36
4077 45.6400 700.00 671.85 26.46
4078 45.6500 692.00 665.61 26.31
4079 45.6600 701.00 654.93 26.48
4080 45.6700 687.00 641.70 26.21
4081 45.6800 642.00 627.84 25.34
4082 45.6900 670.00 615.17 25.88
4083 45.7000 667.00 605.25 25.83
4084 45.7100 638.00 599.33 25.26
4085 45.7200 650.00 598.28 25.50
4086 45.7300 641.00 602.61 25.32
4087 45.7400 648.00 612.40 25.46
4088 45.7500 692.00 627.26 26.31
4089 45.7600 739.00 646.23 27.18
4090 45.7700 753.00 667.73 27.44
4091 45.7800 759.00 689.44 27.55
4092 45.7900 814.00 708.47 28.53
4093 45.8000 850.00 721.52 29.15
4094 45.8100 809.00 725.53 28.44
4095 45.8200 811.00 718.38 28.48
4096 45.8300 745.00 699.55 27.29
4097 45.8400 767.00 670.34 27.69
4098 45.8500 692.00 633.40 26.31
4099 45.8600 664.00 591.92 25.77
4100 45.8700 622.00 548.87 24.94
4101 45.8800 560.00 506.56 23.66
4102 45.8900 518.00 466.60 22.76
4103 45.9000 461.00 429.90 21.47
4104 45.9100 444.00 396.87 21.07
4105 45.9200 397.00 367.59 19.92
4106 45.9300 370.00 341.90 19.24
4107 45.9400 357.00 319.54 18.89
4108 45.9500 344.00 300.18 18.55
4109 45.9600 333.00 283.54 18.25
4110 45.9700 317.00 269.32 17.80
4111 45.9800 277.00 257.24 16.64
4112 45.9900 248.00 247.02 15.75
4113 46.0000 242.00 238.39 15.56
4114 46.0100 247.00 231.10 15.72
4115 46.0200 239.00 224.93 15.46
4116 46.0300 227.00 219.70 15.07
4117 46.0400 228.00 215.25 15.10
4118 46.0500 222.00 211.45 14.90
4119 46.0600 221.00 208.20 14.87
4120 46.0700 233.00 205.41 15.26
4121 46.0800 236.00 203.00 15.36
4122 46.0900 196.00 200.94 14.00
4123 46.1000 196.00 199.17 14.00
4124 46.1100 218.00 197.66 14.76
4125 46.1200 204.00 196.37 14.28
4126 46.1300 211.00 195.29 14.53
4127 46.1400 207.00 194.41 14.39
4128 46.1500 196.00 193.70 14.00
4129 46.1600 214.00 193.18 14.63
4130 46.1700 188.00 192.83 13.71
4131 46.1800 198.00 192.66 14.07
4132 46.1900 217.00 192.68 14.73
4133 46.2000 173.00 192.89 13.15
4134 46.2100 215.00 193.32 14.66
4135 46.2200 205.00 193.43 14.32
4136 46.2300 217.00 194.32 14.73
4137 46.2400 209.00 195.48 14.46
4138 46.2500 209.00 196.89 14.46
4139 46.2600 217.00 198.57 14.73
4140 46.2700 237.00 200.52 15.39
4141 46.2800 226.00 202.71 15.03
4142 46.2900 233.00 205.13 15.26
4143 46.3000 231.00 207.72 15.20
4144 46.3100 226.00 210.43 15.03
4145 46.3200 233.00 213.18 15.26
4146 46.3300 246.00 215.92 15.68
4147 46.3400 233.00 218.65 15.26
4148 46.3500 247.00 221.42 15.72
4149 46.3600 256.00 224.35 16.00
4150 46.3700 246.00 227.62 15.68
4151 46.3800 245.00 231.43 15.65
4152 46.3900 253.00 235.97 15.91
4153 46.4000 245.00 241.45 15.65
4154 46.4100 273.00 248.06 16.52
4155 46.4200 274.00 255.99 16.55
4156 46.4300 265.00 265.45 16.28
4157 46.4400 318.00 276.68 17.83
4158 46.4500 337.00 289.93 18.36
4159 46.4600 346.00 305.51 18.60
4160 46.4700 341.00 323.73 18.47
4161 46.4800 366.00 344.96 19.13
4162 46.4900 419.00 369.60 20.47
4163 46.5000 439.00 398.02 20.95
4164 46.5100 431.00 430.53 20.76
4165 46.5200 504.00 467.39 22.45
4166 46.5300 533.00 508.64 23.09
4167 46.5400 559.00 554.07 23.64
4168 46.5500 634.00 603.17 25.18
4169 46.5600 669.00 654.91 25.86
4170 46.5700 740.00 707.76 27.20
4171 46.5800 804.00 759.58 28.35
4172 46.5900 814.00 807.57 28.53
4173 46.6000 916.00 848.20 30.27
4174 46.6100 907.00 877.67 30.12
4175 46.6200 877.00 892.35 29.61
4176 46.6300 859.00 889.83 29.31
4177 46.6400 825.00 869.66 28.72
4178 46.6500 844.00 833.76 29.05
4179 46.6600 759.00 785.84 27.55
4180 46.6700 680.00 730.44 26.08
4181 46.6800 598.00 671.75 24.45
4182 46.6900 568.00 613.20 23.83
4183 46.7000 542.00 557.12 23.28
4184 46.7100 456.00 505.10 21.35
4185 46.7200 442.00 457.97 21.02
4186 46.7300 406.00 416.16 20.15
4187 46.7400 400.00 379.70 20.00
4188 46.7500 345.00 348.23 18.57
4189 46.7600 307.00 321.45 17.52
4190 46.7700 298.00 298.85 17.26
4191 46.7800 284.00 279.89 16.85
4192 46.7900 265.00 264.04 16.28
4193 46.8000 262.00 250.80 16.19
4194 46.8100 252.00 239.72 15.87
4195 46.8200 237.00 230.42 15.39
4196 46.8300 221.00 222.56 14.87
4197 46.8400 234.00 215.88 15.30
4198 46.8500 252.00 210.16 15.87
4199 46.8600 198.00 205.22 14.07
4200 46.8700 208.00 200.94 14.42
4201 46.8800 214.00 197.19 14.63
4202 46.8900 190.00 193.89 13.78
4203 46.9000 232.00 190.98 15.23
4204 46.9100 194.00 188.38 13.93
4205 46.9200 193.00 186.07 13.89
4206 46.9300 191.00 183.99 13.82
4207 46.9400 165.00 182.12 12.85
4208 46.9500 207.00 180.43 14.39
4209 46.9600 179.00 178.90 13.38
4210 46.9700 183.00 177.50 13.53
4211 46.9800 192.00 176.24 13.86
4212 46.9900 186.00 175.07 13.64
4213 47.0000 165.00 174.02 12.85
4214 47.0100 176.00 173.07 13.27
4215 47.0200 186.00 172.21 13.64
4216 47.0300 199.00 171.43 14.11
4217 47.0400 159.00 170.74 12.61
4218 47.0500 181.00 170.12 13.45
4219 47.0600 159.00 169.59 12.61
4220 47.0700 185.00 169.13 13.60
4221 47.0800 162.00 168.75 12.73
4222 47.0900 156.00 168.46 12.49
4223 47.1000 160.00 167.63 12.65
4224 47.1100 177.00 167.52 13.30
4225 47.1200 173.00 167.53 13.15
4226 47.1300 158.00 167.67 12.57
4227 47.1400 167.00 167.96 12.92
4228 47.1500 162.00 168.42 12.73
4229 47.1600 167.00 169.10 12.92
4230 47.1700 171.00 170.03 13.08
4231 47.1800 172.00 171.27 13.11
4232 47.1900 187.00 172.87 13.67
4233 47.2000 164.00 174.88 12.81
4234 47.2100 177.00 177.35 13.30
4235 47.2200 155.00 180.34 12.45
4236 47.2300 175.00 183.88 13.23
4237 47.2400 166.00 187.97 12.88
4238 47.2500 182.00 192.61 13.49
4239 47.2600 197.00 197.72 14.04
4240 47.2700 194.00 203.18 13.93
4241 47.2800 199.00 208.79 14.11
4242 47.2900 187.00 214.29 13.67
4243 47.3000 206.00 219.36 14.35
4244 47.3100 203.00 223.70 14.25
4245 47.3200 186.00 227.06 13.64
4246 47.3300 199.00 229.34 14.11
4247 47.3400 184.00 230.56 13.56
4248 47.3500 184.00 230.82 13.56
4249 47.3600 199.00 230.23 14.11
4250 47.3700 210.00 228.88 14.49
4251 47.3800 206.00 226.93 14.35
4252 47.3900 206.00 224.53 14.35
4253 47.4000 193.00 221.92 13.89
4254 47.4100 189.00 219.39 13.75
4255 47.4200 194.00 217.21 13.93
4256 47.4300 215.00 215.58 14.66
4257 47.4400 205.00 214.66 14.32
4258 47.4500 184.00 214.48 13.56
4259 47.4600 221.00 215.06 14.87
4260 47.4700 222.00 216.35 14.90
4261 47.4800 211.00 218.30 14.53
4262 47.4900 205.00 220.82 14.32
4263 47.5000 214.00 223.83 14.63
4264 47.5100 212.00 227.22 14.56
4265 47.5200 224.00 230.83 14.97
4266 47.5300 205.00 234.48 14.32
4267 47.5400 236.00 237.92 15.36
4268 47.5500 237.00 240.89 15.39
4269 47.5600 231.00 243.14 15.20
4270 47.5700 246.00 244.43 15.68
4271 47.5800 241.00 244.59 15.52
4272 47.5900 252.00 243.56 15.87
4273 47.6000 236.00 241.38 15.36
4274 47.6100 235.00 238.21 15.33
4275 47.6200 248.00 234.27 15.75
4276 47.6300 235.00 229.80 15.33
4277 47.6400 217.00 225.07 14.73
4278 47.6500 194.00 220.29 13.93
4279 47.6600 213.00 215.65 14.59
4280 47.6700 196.00 211.29 14.00
4281 47.6800 180.00 207.28 13.42
4282 47.6900 199.00 203.66 14.11
4283 47.7000 187.00 200.42 13.67
4284 47.7100 201.00 197.51 14.18
4285 47.7200 182.00 194.85 13.49
4286 47.7300 189.00 192.33 13.75
4287 47.7400 177.00 189.85 13.30
4288 47.7500 152.00 187.34 12.33
4289 47.7600 166.00 184.76 12.88
4290 47.7700 160.00 182.13 12.65
4291 47.7800 157.00 179.47 12.53
4292 47.7900 158.00 176.86 12.57
4293 47.8000 174.00 174.23 13.19
4294 47.8100 160.00 171.66 12.65
4295 47.8200 170.00 169.20 13.04
4296 47.8300 167.00 166.89 12.92
4297 47.8400 157.00 164.76 12.53
4298 47.8500 163.00 162.84 12.77
4299 47.8600 170.00 161.12 13.04
4300 47.8700 186.00 159.60 13.64
4301 47.8800 174.00 158.28 13.19
4302 47.8900 163.00 157.14 12.77
4303 47.9000 163.00 156.16 12.77
4304 47.9100 155.00 155.32 12.45
4305 47.9200 149.00 154.61 12.21
4306 47.9300 189.00 154.00 13.75
4307 47.9400 162.00 153.48 12.73
4308 47.9500 133.00 153.04 11.53
4309 47.9600 155.00 152.66 12.45
4310 47.9700 140.00 152.28 11.83
4311 47.9800 161.00 152.20 12.69
4312 47.9900 165.00 151.96 12.85
4313 48.0000 171.00 151.76 13.08
4314 48.0100 158.00 151.59 12.57
4315 48.0200 143.00 151.45 11.96
4316 48.0300 174.00 151.33 13.19
4317 48.0400 160.00 151.24 12.65
4318 48.0500 160.00 151.18 12.65
4319 48.0600 159.00 151.13 12.61
4320 48.0700 169.00 151.11 13.00
4321 48.0800 150.00 151.11 12.25
4322 48.0900 139.00 151.14 11.79
4323 48.1000 169.00 151.18 13.00
4324 48.1100 155.00 151.25 12.45
4325 48.1200 151.00 151.35 12.29
4326 48.1300 176.00 151.47 13.27
4327 48.1400 145.00 151.62 12.04
4328 48.1500 152.00 151.80 12.33
4329 48.1600 166.00 152.01 12.88
4330 48.1700 151.00 152.25 12.29
4331 48.1800 138.00 152.54 11.75
4332 48.1900 163.00 152.88 12.77
4333 48.2000 175.00 153.26 13.23
4334 48.2100 162.00 153.71 12.73
4335 48.2200 166.00 154.24 12.88
4336 48.2300 174.00 154.84 13.19
4337 48.2400 153.00 155.55 12.37
4338 48.2500 168.00 156.37 12.96
4339 48.2600 163.00 157.34 12.77
4340 48.2700 179.00 158.46 13.38
4341 48.2800 166.00 159.78 12.88
4342 48.2900 151.00 161.01 12.29
4343 48.3000 169.00 162.80 13.00
4344 48.3100 163.00 164.87 12.77
4345 48.3200 169.00 167.26 13.00
4346 48.3300 171.00 170.00 13.08
4347 48.3400 202.00 173.13 14.21
4348 48.3500 169.00 176.67 13.00
4349 48.3600 189.00 180.65 13.75
4350 48.3700 205.00 185.07 14.32
4351 48.3800 194.00 189.94 13.93
4352 48.3900 200.00 195.25 14.14
4353 48.4000 181.00 200.97 13.45
4354 48.4100 225.00 207.06 15.00
4355 48.4200 227.00 213.47 15.07
4356 48.4300 237.00 220.12 15.39
4357 48.4400 235.00 226.92 15.33
4358 48.4500 266.00 233.75 16.31
4359 48.4600 264.00 240.44 16.25
4360 48.4700 282.00 246.80 16.79
4361 48.4800 303.00 252.56 17.41
4362 48.4900 285.00 257.46 16.88
4363 48.5000 276.00 261.22 16.61
4364 48.5100 283.00 263.60 16.82
4365 48.5200 269.00 264.42 16.40
4366 48.5300 320.00 263.62 17.89
4367 48.5400 296.00 261.24 17.20
4368 48.5500 295.00 257.43 17.18
4369 48.5600 265.00 252.44 16.28
4370 48.5700 246.00 246.54 15.68
4371 48.5800 294.00 240.02 17.15
4372 48.5900 246.00 233.15 15.68
4373 48.6000 241.00 226.16 15.52
4374 48.6100 266.00 219.23 16.31
4375 48.6200 227.00 212.51 15.07
4376 48.6300 245.00 206.11 15.65
4377 48.6400 227.00 200.10 15.07
4378 48.6500 207.00 194.53 14.39
4379 48.6600 192.00 189.43 13.86
4380 48.6700 190.00 184.82 13.78
4381 48.6800 167.00 180.68 12.92
4382 48.6900 163.00 177.02 12.77
4383 48.7000 190.00 173.81 13.78
4384 48.7100 180.00 171.03 13.42
4385 48.7200 173.00 168.66 13.15
4386 48.7300 177.00 166.66 13.30
4387 48.7400 166.00 165.02 12.88
4388 48.7500 155.00 163.71 12.45
4389 48.7600 175.00 162.72 13.23
4390 48.7700 171.00 162.03 13.08
4391 48.7800 161.00 161.65 12.69
4392 48.7900 176.00 161.59 13.27
4393 48.8000 165.00 161.85 12.85
4394 48.8100 183.00 162.47 13.53
4395 48.8200 160.00 163.49 12.65
4396 48.8300 161.00 164.93 12.69
4397 48.8400 163.00 166.84 12.77
4398 48.8500 192.00 169.26 13.86
4399 48.8600 177.00 172.20 13.30
4400 48.8700 185.00 175.68 13.60
4401 48.8800 167.00 179.67 12.92
4402 48.8900 191.00 184.11 13.82
4403 48.9000 173.00 188.89 13.15
4404 48.9100 175.00 193.82 13.23
4405 48.9200 178.00 198.62 13.34
4406 48.9300 200.00 202.93 14.14
4407 48.9400 201.00 206.35 14.18
4408 48.9500 209.00 208.48 14.46
4409 48.9600 212.00 209.02 14.56
4410 48.9700 205.00 207.91 14.32
4411 48.9800 205.00 205.30 14.32
4412 48.9900 213.00 201.54 14.59
4413 49.0000 199.00 196.77 14.11
4414 49.0100 199.00 192.03 14.11
4415 49.0200 180.00 187.13 13.42
4416 49.0300 186.00 182.75 13.64
4417 49.0400 187.00 178.83 13.67
4418 49.0500 193.00 175.48 13.89
4419 49.0600 171.00 172.76 13.08
4420 49.0700 185.00 170.69 13.60
4421 49.0800 163.00 169.30 12.77
4422 49.0900 182.00 168.59 13.49
4423 49.1000 188.00 168.58 13.71
4424 49.1100 177.00 169.28 13.30
4425 49.1200 171.00 170.73 13.08
4426 49.1300 168.00 172.97 12.96
4427 49.1400 180.00 176.03 13.42
4428 49.1500 203.00 179.97 14.25
4429 49.1600 191.00 184.84 13.82
4430 49.1700 175.00 190.66 13.23
4431 49.1800 181.00 197.53 13.45
4432 49.1900 182.00 205.22 13.49
4433 49.2000 192.00 213.72 13.86
4434 49.2100 225.00 222.83 15.00
4435 49.2200 216.00 232.24 14.70
4436 49.2300 207.00 241.48 14.39
4437 49.2400 220.00 249.92 14.83
4438 49.2500 222.00 256.87 14.90
4439 49.2600 222.00 261.56 14.90
4440 49.2700 225.00 263.43 15.00
4441 49.2800 211.00 262.20 14.53
4442 49.2900 233.00 258.02 15.26
4443 49.3000 213.00 251.43 14.59
4444 49.3100 224.00 243.12 14.97
4445 49.3200 201.00 233.87 14.18
4446 49.3300 215.00 224.29 14.66
4447 49.3400 196.00 214.87 14.00
4448 49.3500 228.00 205.93 15.10
4449 49.3600 188.00 197.70 13.71
4450 49.3700 187.00 190.27 13.67
4451 49.3800 189.00 183.70 13.75
4452 49.3900 179.00 177.97 13.38
4453 49.4000 177.00 173.05 13.30
4454 49.4100 149.00 168.85 12.21
4455 49.4200 140.00 165.32 11.83
4456 49.4300 152.00 162.35 12.33
4457 49.4400 162.00 159.88 12.73
4458 49.4500 134.00 157.84 11.58
4459 49.4600 141.00 156.14 11.87
4460 49.4700 152.00 154.74 12.33
4461 49.4800 157.00 153.59 12.53
4462 49.4900 148.00 152.64 12.17
4463 49.5000 164.00 151.86 12.81
4464 49.5100 153.00 151.22 12.37
4465 49.5200 158.00 150.72 12.57
4466 49.5300 161.00 150.33 12.69
4467 49.5400 166.00 150.05 12.88
4468 49.5500 146.00 149.88 12.08
4469 49.5600 155.00 149.80 12.45
4470 49.5700 158.00 149.81 12.57
4471 49.5800 152.00 149.92 12.33
4472 49.5900 174.00 150.10 13.19
4473 49.6000 141.00 150.35 11.87
4474 49.6100 150.00 150.66 12.25
4475 49.6200 144.00 151.00 12.00
4476 49.6300 151.00 151.34 12.29
4477 49.6400 139.00 151.64 11.79
4478 49.6500 155.00 151.86 12.45
4479 49.6600 146.00 151.98 12.08
4480 49.6700 154.00 151.97 12.41
4481 49.6800 145.00 151.84 12.04
4482 49.6900 151.00 151.63 12.29
4483 49.7000 144.00 151.33 12.00
4484 49.7100 168.00 151.04 12.96
4485 49.7200 158.00 150.76 12.57
4486 49.7300 162.00 150.52 12.73
4487 49.7400 127.00 150.31 11.27
4488 49.7500 160.00 150.13 12.65
4489 49.7600 151.00 149.96 12.29
4490 49.7700 138.00 149.79 11.75
4491 49.7800 156.00 149.59 12.49
4492 49.7900 165.00 149.36 12.85
4493 49.8000 141.00 149.10 11.87
4494 49.8100 149.00 148.83 12.21
4495 49.8200 146.00 148.55 12.08
4496 49.8300 148.00 148.29 12.17
4497 49.8400 168.00 148.07 12.96
4498 49.8500 130.00 147.88 11.40
4499 49.8600 150.00 147.71 12.25
4500 49.8700 162.00 147.60 12.73
4501 49.8800 160.00 147.54 12.65
4502 49.8900 134.00 147.51 11.58
4503 49.9000 155.00 147.52 12.45
4504 49.9100 143.00 147.56 11.96
4505 49.9200 149.00 147.63 12.21
4506 49.9300 155.00 147.73 12.45
4507 49.9400 130.00 147.86 11.40
4508 49.9500 131.00 148.02 11.45
4509 49.9600 141.00 148.22 11.87
4510 49.9700 168.00 148.45 12.96
4511 49.9800 143.00 148.72 11.96
4512 49.9900 155.00 149.02 12.45
4513 50.0000 146.00 149.37 12.08
4514 50.0100 149.00 149.75 12.21
4515 50.0200 146.00 150.18 12.08
4516 50.0300 162.00 150.66 12.73
4517 50.0400 151.00 151.18 12.29
4518 50.0500 140.00 151.77 11.83
4519 50.0600 165.00 152.41 12.85
4520 50.0700 149.00 153.12 12.21
4521 50.0800 152.00 153.91 12.33
4522 50.0900 160.00 154.79 12.65
4523 50.1000 165.00 155.77 12.85
4524 50.1100 148.00 156.87 12.17
4525 50.1200 163.00 158.12 12.77
4526 50.1300 174.00 159.53 13.19
4527 50.1400 166.00 161.14 12.88
4528 50.1500 176.00 162.99 13.27
4529 50.1600 160.00 165.14 12.65
4530 50.1700 171.00 167.64 13.08
4531 50.1800 161.00 170.57 12.69
4532 50.1900 175.00 174.00 13.23
4533 50.2000 181.00 178.06 13.45
4534 50.2100 187.00 182.95 13.67
4535 50.2200 194.00 190.58 13.93
4536 50.2300 184.00 197.15 13.56
4537 50.2400 201.00 204.85 14.18
4538 50.2500 240.00 213.80 15.49
4539 50.2600 239.00 224.14 15.46
4540 50.2700 224.00 235.99 14.97
4541 50.2800 252.00 249.41 15.87
4542 50.2900 268.00 264.42 16.37
4543 50.3000 299.00 280.89 17.29
4544 50.3100 298.00 298.65 17.26
4545 50.3200 321.00 317.37 17.92
4546 50.3300 310.00 336.72 17.61
4547 50.3400 369.00 356.39 19.21
4548 50.3500 382.00 376.22 19.54
4549 50.3600 437.00 396.13 20.90
4550 50.3700 450.00 415.97 21.21
4551 50.3800 445.00 435.42 21.09
4552 50.3900 508.00 453.66 22.54
4553 50.4000 526.00 469.36 22.93
4554 50.4100 506.00 480.78 22.49
4555 50.4200 542.00 486.05 23.28
4556 50.4300 524.00 483.76 22.89
4557 50.4400 529.00 473.45 23.00
4558 50.4500 505.00 455.85 22.47
4559 50.4600 488.00 432.65 22.09
4560 50.4700 470.00 405.99 21.68
4561 50.4800 449.00 377.94 21.19
4562 50.4900 410.00 350.15 20.25
4563 50.5000 372.00 323.77 19.29
4564 50.5100 315.00 299.52 17.75
4565 50.5200 284.00 277.80 16.85
4566 50.5300 305.00 258.75 17.46
4567 50.5400 308.00 242.32 17.55
4568 50.5500 256.00 228.38 16.00
4569 50.5600 258.00 216.70 16.06
4570 50.5700 204.00 207.02 14.28
4571 50.5800 237.00 199.02 15.39
4572 50.5900 204.00 192.41 14.28
4573 50.6000 200.00 186.94 14.14
4574 50.6100 191.00 182.36 13.82
4575 50.6200 199.00 178.48 14.11
4576 50.6300 180.00 175.16 13.42
4577 50.6400 169.00 172.28 13.00
4578 50.6500 167.00 169.77 12.92
4579 50.6600 199.00 167.57 14.11
4580 50.6700 167.00 165.62 12.92
4581 50.6800 152.00 163.89 12.33
4582 50.6900 162.00 162.36 12.73
4583 50.7000 180.00 160.99 13.42
4584 50.7100 160.00 159.77 12.65
4585 50.7200 137.00 158.67 11.70
4586 50.7300 156.00 157.69 12.49
4587 50.7400 142.00 156.81 11.92
4588 50.7500 140.00 156.02 11.83
4589 50.7600 158.00 155.31 12.57
4590 50.7700 158.00 154.67 12.57
4591 50.7800 158.00 154.09 12.57
4592 50.7900 150.00 153.56 12.25
4593 50.8000 161.00 153.08 12.69
4594 50.8100 171.00 152.64 13.08
4595 50.8200 161.00 152.25 12.69
4596 50.8300 157.00 151.96 12.53
4597 50.8400 145.00 151.63 12.04
4598 50.8500 151.00 151.33 12.29
4599 50.8600 164.00 151.05 12.81
4600 50.8700 160.00 150.80 12.65
4601 50.8800 157.00 150.58 12.53
4602 50.8900 159.00 150.37 12.61
4603 50.9000 142.00 150.18 11.92
4604 50.9100 147.00 150.02 12.12
4605 50.9200 158.00 149.87 12.57
4606 50.9300 142.00 149.73 11.92
4607 50.9400 146.00 149.57 12.08
4608 50.9500 165.00 149.46 12.85
4609 50.9600 172.00 149.38 13.11
4610 50.9700 168.00 149.31 12.96
4611 50.9800 147.00 149.26 12.12
4612 50.9900 159.00 149.22 12.61
4613 51.0000 137.00 149.20 11.70
4614 51.0100 153.00 149.20 12.37
4615 51.0200 157.00 149.22 12.53
4616 51.0300 149.00 149.26 12.21
4617 51.0400 147.00 149.33 12.12
4618 51.0500 138.00 149.42 11.75
4619 51.0600 153.00 149.53 12.37
4620 51.0700 150.00 149.68 12.25
4621 51.0800 157.00 149.85 12.53
4622 51.0900 148.00 150.05 12.17
4623 51.1000 160.00 150.27 12.65
4624 51.1100 144.00 150.52 12.00
4625 51.1200 150.00 150.77 12.25
4626 51.1300 164.00 151.03 12.81
4627 51.1400 150.00 151.38 12.25
4628 51.1500 159.00 151.60 12.61
4629 51.1600 162.00 151.77 12.73
4630 51.1700 166.00 151.89 12.88
4631 51.1800 160.00 151.96 12.65
4632 51.1900 155.00 151.98 12.45
4633 51.2000 167.00 151.97 12.92
4634 51.2100 157.00 151.95 12.53
4635 51.2200 148.00 151.94 12.17
4636 51.2300 137.00 151.96 11.70
4637 51.2400 149.00 152.00 12.21
4638 51.2500 146.00 152.09 12.08
4639 51.2600 139.00 152.23 11.79
4640 51.2700 151.00 152.41 12.29
4641 51.2800 147.00 152.65 12.12
4642 51.2900 142.00 152.94 11.92
4643 51.3000 131.00 153.28 11.45
4644 51.3100 150.00 153.67 12.25
4645 51.3200 152.00 154.10 12.33
4646 51.3300 147.00 154.56 12.12
4647 51.3400 156.00 155.04 12.49
4648 51.3500 147.00 155.54 12.12
4649 51.3600 136.00 156.03 11.66
4650 51.3700 156.00 156.50 12.49
4651 51.3800 168.00 156.97 12.96
4652 51.3900 128.00 157.40 11.31
4653 51.4000 154.00 157.88 12.41
4654 51.4100 164.00 158.39 12.81
4655 51.4200 156.00 158.97 12.49
4656 51.4300 155.00 159.65 12.45
4657 51.4400 181.00 160.47 13.45
4658 51.4500 164.00 161.47 12.81
4659 51.4600 169.00 162.69 13.00
4660 51.4700 137.00 164.18 11.70
4661 51.4800 175.00 166.02 13.23
4662 51.4900 151.00 168.27 12.29
4663 51.5000 153.00 171.03 12.37
4664 51.5100 170.00 174.38 13.04
4665 51.5200 148.00 178.43 12.17
4666 51.5300 185.00 183.27 13.60
4667 51.5400 171.00 189.00 13.08
4668 51.5500 195.00 195.67 13.96
4669 51.5600 193.00 203.33 13.89
4670 51.5700 193.00 211.96 13.89
4671 51.5800 221.00 221.49 14.87
4672 51.5900 207.00 231.74 14.39
4673 51.6000 193.00 242.41 13.89
4674 51.6100 212.00 253.02 14.56
4675 51.6200 209.00 263.01 14.46
4676 51.6300 214.00 271.38 14.63
4677 51.6400 222.00 277.85 14.90
4678 51.6500 233.00 280.71 15.26
4679 51.6600 243.00 280.05 15.59
4680 51.6700 210.00 275.98 14.49
4681 51.6800 236.00 269.07 15.36
4682 51.6900 226.00 260.15 15.03
4683 51.7000 204.00 250.12 14.28
4684 51.7100 219.00 239.75 14.80
4685 51.7200 209.00 229.62 14.46
4686 51.7300 192.00 220.12 13.86
4687 51.7400 215.00 211.49 14.66
4688 51.7500 198.00 203.83 14.07
4689 51.7600 185.00 197.21 13.60
4690 51.7700 206.00 191.58 14.35
4691 51.7800 179.00 186.90 13.38
4692 51.7900 174.00 183.09 13.19
4693 51.8000 160.00 180.05 12.65
4694 51.8100 192.00 177.67 13.86
4695 51.8200 205.00 175.79 14.32
4696 51.8300 157.00 174.47 12.53
4697 51.8400 169.00 173.53 13.00
4698 51.8500 162.00 172.92 12.73
4699 51.8600 175.00 172.56 13.23
4700 51.8700 167.00 172.40 12.92
4701 51.8800 169.00 172.40 13.00
4702 51.8900 159.00 172.53 12.61
4703 51.9000 150.00 172.76 12.25
4704 51.9100 172.00 173.07 13.11
4705 51.9200 170.00 173.43 13.04
4706 51.9300 178.00 173.82 13.34
4707 51.9400 146.00 178.72 12.08
4708 51.9500 154.00 179.06 12.41
4709 51.9600 178.00 179.31 13.34
4710 51.9700 184.00 179.46 13.56
4711 51.9800 164.00 179.52 12.81
4712 51.9900 160.00 179.51 12.65
4713 52.0000 156.00 179.49 12.49
4714 52.0100 157.00 179.48 12.53
4715 52.0200 145.00 179.61 12.04
4716 52.0300 147.00 179.74 12.12
4717 52.0400 177.00 179.96 13.30
4718 52.0500 167.00 180.29 12.92
4719 52.0600 181.00 180.75 13.45
4720 52.0700 165.00 181.33 12.85
4721 52.0800 165.00 182.05 12.85
4722 52.0900 176.00 182.84 13.27
4723 52.1000 157.00 183.85 12.53
4724 52.1100 176.00 185.01 13.27
4725 52.1200 186.00 186.33 13.64
4726 52.1300 164.00 187.81 12.81
4727 52.1400 189.00 189.46 13.75
4728 52.1500 186.00 191.28 13.64
4729 52.1600 194.00 193.26 13.93
4730 52.1700 190.00 195.39 13.78
4731 52.1800 171.00 197.65 13.08
4732 52.1900 203.00 200.01 14.25
4733 52.2000 178.00 202.41 13.34
4734 52.2100 178.00 204.82 13.34
4735 52.2200 192.00 207.19 13.86
4736 52.2300 192.00 209.48 13.86
4737 52.2400 193.00 211.70 13.89
4738 52.2500 190.00 213.87 13.78
4739 52.2600 199.00 216.01 14.11
4740 52.2700 214.00 218.19 14.63
4741 52.2800 225.00 220.44 15.00
4742 52.2900 223.00 222.80 14.93
4743 52.3000 200.00 225.31 14.14
4744 52.3100 211.00 227.99 14.53
4745 52.3200 217.00 230.84 14.73
4746 52.3300 221.00 233.86 14.87
4747 52.3400 200.00 237.02 14.14
4748 52.3500 212.00 240.26 14.56
4749 52.3600 229.00 243.57 15.13
4750 52.3700 227.00 246.89 15.07
4751 52.3800 233.00 250.22 15.26
4752 52.3900 251.00 253.56 15.84
4753 52.4000 242.00 256.94 15.56
4754 52.4100 213.00 260.44 14.59
4755 52.4200 255.00 264.24 15.97
4756 52.4300 254.00 268.30 15.94
4757 52.4400 253.00 272.80 15.91
4758 52.4500 264.00 277.86 16.25
4759 52.4600 255.00 283.54 15.97
4760 52.4700 272.00 289.94 16.49
4761 52.4800 285.00 297.14 16.88
4762 52.4900 274.00 305.21 16.55
4763 52.5000 317.00 314.26 17.80
4764 52.5100 351.00 324.39 18.74
4765 52.5200 329.00 335.76 18.14
4766 52.5300 351.00 348.54 18.74
4767 52.5400 359.00 362.95 18.95
4768 52.5500 358.00 379.30 18.92
4769 52.5600 393.00 397.98 19.82
4770 52.5700 395.00 419.48 19.87
4771 52.5800 441.00 444.47 21.00
4772 52.5900 485.00 473.79 22.02
4773 52.6000 507.00 508.49 22.52
4774 52.6100 563.00 549.87 23.73
4775 52.6200 633.00 599.46 25.16
4776 52.6300 692.00 659.13 26.31
4777 52.6400 750.00 730.87 27.39
4778 52.6500 874.00 816.87 29.56
4779 52.6600 974.00 919.52 31.21
4780 52.6700 1067.00 1040.94 32.67
4781 52.6800 1239.00 1183.20 35.20
4782 52.6900 1353.00 1347.67 36.78
4783 52.7000 1494.00 1535.40 38.65
4784 52.7100 1727.00 1745.97 41.56
4785 52.7200 2038.00 1977.78 45.14
4786 52.7300 2247.00 2226.68 47.40
4787 52.7400 2577.00 2486.11 50.76
4788 52.7500 2786.00 2745.49 52.78
4789 52.7600 2949.00 2989.75 54.30
4790 52.7700 3199.00 3200.26 56.56
4791 52.7800 3297.00 3356.51 57.42
4792 52.7900 3414.00 3440.23 58.43
4793 52.8000 3525.00 3440.23 59.37
4794 52.8100 3281.00 3356.24 57.28
4795 52.8200 3135.00 3199.11 55.99
4796 52.8300 2988.00 2987.39 54.66
4797 52.8400 2751.00 2742.26 52.45
4798 52.8500 2424.00 2483.02 49.23
4799 52.8600 2201.00 2224.82 46.91
4800 52.8700 1974.00 1978.50 44.43
4801 52.8800 1730.00 1750.73 41.59
4802 52.8900 1524.00 1545.28 39.04
4803 52.9000 1341.00 1363.55 36.62
4804 52.9100 1192.00 1205.90 34.53
4805 52.9200 1090.00 1071.40 33.02
4806 52.9300 949.00 958.13 30.81
4807 52.9400 941.00 864.10 30.68
4808 52.9500 881.00 786.89 29.68
4809 52.9600 801.00 724.17 28.30
4810 52.9700 723.00 673.54 26.89
4811 52.9800 710.00 632.86 26.65
4812 52.9900 688.00 600.16 26.23
4813 53.0000 661.00 573.66 25.71
4814 53.0100 674.00 551.89 25.96
4815 53.0200 624.00 533.53 24.98
4816 53.0300 592.00 517.56 24.33
4817 53.0400 619.00 503.09 24.88
4818 53.0500 577.00 489.49 24.02
4819 53.0600 594.00 476.30 24.37
4820 53.0700 541.00 463.20 23.26
4821 53.0800 516.00 449.99 22.72
4822 53.0900 561.00 436.60 23.69
4823 53.1000 510.00 423.03 22.58
4824 53.1100 516.00 409.32 22.72
4825 53.1200 496.00 395.60 22.27
4826 53.1300 468.00 381.98 21.63
4827 53.1400 407.00 368.65 20.17
4828 53.1500 398.00 355.73 19.95
4829 53.1600 383.00 343.35 19.57
4830 53.1700 345.00 331.62 18.57
4831 53.1800 364.00 320.59 19.08
4832 53.1900 356.00 310.32 18.87
4833 53.2000 286.00 300.82 16.91
4834 53.2100 304.00 292.09 17.44
4835 53.2200 298.00 284.12 17.26
4836 53.2300 274.00 276.87 16.55
4837 53.2400 305.00 270.32 17.46
4838 53.2500 246.00 264.41 15.68
4839 53.2600 265.00 259.11 16.28
4840 53.2700 299.00 254.38 17.29
4841 53.2800 256.00 250.16 16.00
4842 53.2900 238.00 246.42 15.43
4843 53.3000 226.00 243.10 15.03
4844 53.3100 238.00 240.18 15.43
4845 53.3200 258.00 237.61 16.06
4846 53.3300 243.00 235.37 15.59
4847 53.3400 237.00 233.41 15.39
4848 53.3500 247.00 231.73 15.72
4849 53.3600 199.00 230.29 14.11
4850 53.3700 225.00 229.09 15.00
4851 53.3800 237.00 228.10 15.39
4852 53.3900 225.00 227.33 15.00
4853 53.4000 222.00 226.75 14.90
4854 53.4100 237.00 226.37 15.39
4855 53.4200 227.00 226.19 15.07
4856 53.4300 208.00 226.21 14.42
4857 53.4400 207.00 226.45 14.39
4858 53.4500 228.00 226.92 15.10
4859 53.4600 231.00 227.65 15.20
4860 53.4700 243.00 228.68 15.59
4861 53.4800 236.00 230.08 15.36
4862 53.4900 242.00 231.90 15.56
4863 53.5000 239.00 234.23 15.46
4864 53.5100 250.00 237.18 15.81
4865 53.5200 246.00 240.85 15.68
4866 53.5300 250.00 245.35 15.81
4867 53.5400 284.00 250.83 16.85
4868 53.5500 276.00 257.37 16.61
4869 53.5600 286.00 265.10 16.91
4870 53.5700 261.00 274.06 16.16
4871 53.5800 315.00 284.31 17.75
4872 53.5900 304.00 295.79 17.44
4873 53.6000 307.00 308.36 17.52
4874 53.6100 333.00 321.75 18.25
4875 53.6200 312.00 335.51 17.66
4876 53.6300 315.00 349.04 17.75
4877 53.6400 355.00 361.28 18.84
4878 53.6500 318.00 371.27 17.83
4879 53.6600 345.00 378.00 18.57
4880 53.6700 352.00 380.70 18.76
4881 53.6800 306.00 379.15 17.49
4882 53.6900 297.00 373.71 17.23
4883 53.7000 282.00 365.26 16.79
4884 53.7100 290.00 354.88 17.03
4885 53.7200 305.00 343.66 17.46
4886 53.7300 285.00 332.46 16.88
4887 53.7400 266.00 321.94 16.31
4888 53.7500 264.00 312.52 16.25
4889 53.7600 269.00 304.48 16.40
4890 53.7700 264.00 297.94 16.25
4891 53.7800 246.00 292.97 15.68
4892 53.7900 261.00 289.56 16.16
4893 53.8000 250.00 287.66 15.81
4894 53.8100 269.00 287.20 16.40
4895 53.8200 241.00 288.10 15.52
4896 53.8300 269.00 290.27 16.40
4897 53.8400 269.00 293.61 16.40
4898 53.8500 290.00 298.03 17.03
4899 53.8600 265.00 303.44 16.28
4900 53.8700 298.00 309.76 17.26
4901 53.8800 303.00 316.90 17.41
4902 53.8900 309.00 324.75 17.58
4903 53.9000 339.00 333.20 18.41
4904 53.9100 348.00 342.14 18.65
4905 53.9200 344.00 351.38 18.55
4906 53.9300 377.00 360.78 19.42
4907 53.9400 375.00 370.13 19.36
4908 53.9500 387.00 379.29 19.67
4909 53.9600 395.00 388.15 19.87
4910 53.9700 443.00 396.72 21.05
4911 53.9800 463.00 405.13 21.52
4912 53.9900 461.00 413.70 21.47
4913 54.0000 458.00 422.92 21.40
4914 54.0100 480.00 433.40 21.91
4915 54.0200 523.00 445.89 22.87
4916 54.0300 562.00 461.18 23.71
4917 54.0400 513.00 480.12 22.65
4918 54.0500 578.00 503.54 24.04
4919 54.0600 597.00 532.23 24.43
4920 54.0700 629.00 566.88 25.08
4921 54.0800 703.00 608.07 26.51
4922 54.0900 768.00 656.16 27.71
4923 54.1000 737.00 711.13 27.15
4924 54.1100 791.00 772.67 28.12
4925 54.1200 873.00 839.72 29.55
4926 54.1300 976.00 910.56 31.24
4927 54.1400 1005.00 982.33 31.70
4928 54.1500 979.00 1051.12 31.29
4929 54.1600 1045.00 1112.21 32.33
4930 54.1700 1122.00 1160.05 33.50
4931 54.1800 1134.00 1189.73 33.67
4932 54.1900 1096.00 1197.87 33.11
4933 54.2000 1092.00 1183.79 33.05
4934 54.2100 1146.00 1149.80 33.85
4935 54.2200 1075.00 1100.42 32.79
4936 54.2300 1057.00 1041.33 32.51
4937 54.2400 990.00 977.94 31.46
4938 54.2500 951.00 914.64 30.84
4939 54.2600 858.00 854.67 29.29
4940 54.2700 869.00 800.12 29.48
4941 54.2800 811.00 752.25 28.48
4942 54.2900 829.00 711.63 28.79
4943 54.3000 821.00 678.42 28.65
4944 54.3100 758.00 652.46 27.53
4945 54.3200 730.00 633.45 27.02
4946 54.3300 761.00 620.93 27.59
4947 54.3400 800.00 614.39 28.28
4948 54.3500 816.00 613.38 28.57
4949 54.3600 808.00 617.49 28.43
4950 54.3700 809.00 626.41 28.44
4951 54.3800 884.00 639.97 29.73
4952 54.3900 867.00 658.11 29.44
4953 54.4000 914.00 680.99 30.23
4954 54.4100 885.00 708.96 29.75
4955 54.4200 943.00 742.56 30.71
4956 54.4300 1019.00 782.64 31.92
4957 54.4400 1030.00 830.24 32.09
4958 54.4500 1147.00 886.85 33.87
4959 54.4600 1149.00 954.19 33.90
4960 54.4700 1279.00 1034.47 35.76
4961 54.4800 1387.00 1130.15 37.24
4962 54.4900 1457.00 1244.28 38.17
4963 54.5000 1597.00 1380.16 39.96
4964 54.5100 1671.00 1541.19 40.88
4965 54.5200 1918.00 1731.25 43.79
4966 54.5300 2152.00 1953.70 46.39
4967 54.5400 2328.00 2211.90 48.25
4968 54.5500 2684.00 2508.09 51.81
4969 54.5600 2822.00 2844.25 53.12
4970 54.5700 3271.00 3220.28 57.19
4971 54.5800 3647.00 3634.81 60.39
4972 54.5900 4053.00 4084.00 63.66
4973 54.6000 4380.00 4560.68 66.18
4974 54.6100 5002.00 5053.05 70.72
4975 54.6200 5492.00 5542.50 74.11
4976 54.6300 5866.00 6003.50 76.59
4977 54.6400 6248.00 6403.59 79.04
4978 54.6500 6581.00 6706.83 81.12
4979 54.6600 6752.00 6880.26 82.17
4980 54.6700 6614.00 6901.81 81.33
4981 54.6800 6730.00 6767.21 82.04
4982 54.6900 6383.00 6491.53 79.89
4983 54.7000 6015.00 6104.47 77.56
4984 54.7100 5648.00 5643.19 75.15
4985 54.7200 5069.00 5142.79 71.20
4986 54.7300 4507.00 4633.54 67.13
4987 54.7400 3898.00 4137.51 62.43
4988 54.7500 3592.00 3669.06 59.93
4989 54.7600 3171.00 3237.73 56.31
4990 54.7700 2857.00 2847.91 53.45
4991 54.7800 2519.00 2501.56 50.19
4992 54.7900 2200.00 2197.64 46.90
4993 54.8000 1982.00 1934.40 44.52
4994 54.8100 1840.00 1708.64 42.90
4995 54.8200 1531.00 1516.93 39.13
4996 54.8300 1471.00 1355.19 38.35
4997 54.8400 1291.00 1219.55 35.93
4998 54.8500 1223.00 1106.41 34.97
4999 54.8600 1110.00 1012.18 33.32
5000 54.8700 1001.00 933.93 31.64
5001 54.8800 965.00 868.93 31.06
5002 54.8900 921.00 815.01 30.35
5003 54.9000 839.00 770.21 28.97
5004 54.9100 780.00 732.96 27.93
5005 54.9200 763.00 701.96 27.62
5006 54.9300 758.00 676.04 27.53
5007 54.9400 750.00 654.12 27.39
5008 54.9500 690.00 635.15 26.27
5009 54.9600 679.00 618.07 26.06
5010 54.9700 604.00 601.81 24.58
5011 54.9800 690.00 585.36 26.27
5012 54.9900 626.00 567.96 25.02
5013 55.0000 590.00 549.20 24.29
5014 55.0100 550.00 529.11 23.45
5015 55.0200 536.00 508.07 23.15
5016 55.0300 506.00 486.66 22.49
5017 55.0400 504.00 465.48 22.45
5018 55.0500 501.00 445.02 22.38
5019 55.0600 449.00 425.61 21.19
5020 55.0700 410.00 407.47 20.25
5021 55.0800 409.00 390.72 20.22
5022 55.0900 404.00 375.35 20.10
5023 55.1000 403.00 361.34 20.07
5024 55.1100 353.00 348.64 18.79
5025 55.1200 311.00 337.15 17.64
5026 55.1300 338.00 326.76 18.38
5027 55.1400 310.00 317.36 17.61
5028 55.1500 286.00 308.86 16.91
5029 55.1600 294.00 301.14 17.15
5030 55.1700 277.00 294.10 16.64
5031 55.1800 231.00 287.66 15.20
5032 55.1900 259.00 281.74 16.09
5033 55.2000 249.00 276.28 15.78
5034 55.2100 253.00 271.20 15.91
5035 55.2200 250.00 266.47 15.81
5036 55.2300 239.00 262.03 15.46
5037 55.2400 241.00 257.85 15.52
5038 55.2500 249.00 253.90 15.78
5039 55.2600 232.00 250.15 15.23
5040 55.2700 223.00 246.58 14.93
5041 55.2800 241.00 243.17 15.52
5042 55.2900 222.00 239.92 14.90
5043 55.3000 221.00 236.82 14.87
5044 55.3100 241.00 233.85 15.52
5045 55.3200 221.00 231.03 14.87
5046 55.3300 210.00 228.33 14.49
5047 55.3400 237.00 225.76 15.39
5048 55.3500 236.00 223.32 15.36
5049 55.3600 210.00 220.98 14.49
5050 55.3700 228.00 218.75 15.10
5051 55.3800 207.00 216.62 14.39
5052 55.3900 198.00 212.46 14.07
5053 55.4000 208.00 210.55 14.42
5054 55.4100 213.00 208.71 14.59
5055 55.4200 221.00 206.95 14.87
5056 55.4300 220.00 205.26 14.83
5057 55.4400 198.00 203.63 14.07
5058 55.4500 228.00 202.08 15.10
5059 55.4600 217.00 200.59 14.73
5060 55.4700 215.00 199.16 14.66
5061 55.4800 212.00 197.78 14.56
5062 55.4900 197.00 196.46 14.04
5063 55.5000 194.00 195.18 13.93
5064 55.5100 187.00 193.95 13.67
5065 55.5200 173.00 192.77 13.15
5066 55.5300 198.00 191.63 14.07
5067 55.5400 202.00 190.54 14.21
5068 55.5500 184.00 189.48 13.56
5069 55.5600 193.00 188.46 13.89
5070 55.5700 187.00 187.48 13.67
5071 55.5800 208.00 186.56 14.42
5072 55.5900 182.00 185.65 13.49
5073 55.6000 188.00 184.77 13.71
5074 55.6100 168.00 183.92 12.96
5075 55.6200 161.00 183.10 12.69
5076 55.6300 188.00 182.31 13.71
5077 55.6400 178.00 181.55 13.34
5078 55.6500 200.00 180.81 14.14
5079 55.6600 189.00 180.10 13.75
5080 55.6700 171.00 179.42 13.08
5081 55.6800 169.00 178.76 13.00
5082 55.6900 176.00 178.13 13.27
5083 55.7000 177.00 177.52 13.30
5084 55.7100 173.00 176.93 13.15
5085 55.7200 187.00 176.37 13.67
5086 55.7300 169.00 175.82 13.00
5087 55.7400 158.00 175.30 12.57
5088 55.7500 171.00 174.80 13.08
5089 55.7600 183.00 174.33 13.53
5090 55.7700 187.00 173.87 13.67
5091 55.7800 150.00 173.44 12.25
5092 55.7900 166.00 173.02 12.88
5093 55.8000 160.00 172.63 12.65
5094 55.8100 155.00 172.26 12.45
5095 55.8200 174.00 171.91 13.19
5096 55.8300 187.00 171.59 13.67
5097 55.8400 174.00 171.29 13.19
5098 55.8500 171.00 171.01 13.08
5099 55.8600 168.00 170.75 12.96
5100 55.8700 148.00 170.52 12.17
5101 55.8800 165.00 170.32 12.85
5102 55.8900 173.00 170.15 13.15
5103 55.9000 160.00 170.00 12.65
5104 55.9100 154.00 169.89 12.41
5105 55.9200 151.00 169.81 12.29
5106 55.9300 168.00 169.77 12.96
5107 55.9400 154.00 169.77 12.41
5108 55.9500 156.00 169.81 12.49
5109 55.9600 160.00 169.90 12.65
5110 55.9700 161.00 170.05 12.69
5111 55.9800 157.00 170.27 12.53
5112 55.9900 172.00 170.56 13.11
5113 56.0000 174.00 170.95 13.19
5114 56.0100 155.00 171.44 12.45
5115 56.0200 136.00 172.07 11.66
5116 56.0300 179.00 172.88 13.38
5117 56.0400 190.00 173.88 13.78
5118 56.0500 164.00 175.12 12.81
5119 56.0600 161.00 176.66 12.69
5120 56.0700 198.00 178.57 14.07
5121 56.0800 201.00 180.92 14.18
5122 56.0900 203.00 183.78 14.25
5123 56.1000 203.00 187.23 14.25
5124 56.1100 210.00 191.36 14.49
5125 56.1200 226.00 196.24 15.03
5126 56.1300 239.00 201.90 15.46
5127 56.1400 227.00 208.40 15.07
5128 56.1500 228.00 215.71 15.10
5129 56.1600 259.00 223.80 16.09
5130 56.1700 256.00 232.51 16.00
5131 56.1800 239.00 241.62 15.46
5132 56.1900 250.00 250.74 15.81
5133 56.2000 267.00 259.37 16.34
5134 56.2100 255.00 266.83 15.97
5135 56.2200 239.00 272.31 15.46
5136 56.2300 240.00 275.39 15.49
5137 56.2400 225.00 275.58 15.00
5138 56.2500 209.00 272.89 14.46
5139 56.2600 205.00 267.71 14.32
5140 56.2700 191.00 260.64 13.82
5141 56.2800 242.00 252.39 15.56
5142 56.2900 222.00 243.59 14.90
5143 56.3000 214.00 234.72 14.63
5144 56.3100 200.00 226.12 14.14
5145 56.3200 184.00 218.00 13.56
5146 56.3300 197.00 210.49 14.04
5147 56.3400 185.00 203.64 13.60
5148 56.3500 177.00 197.48 13.30
5149 56.3600 196.00 192.44 14.00
5150 56.3700 181.00 187.64 13.45
5151 56.3800 187.00 183.44 13.67
5152 56.3900 172.00 179.80 13.11
5153 56.4000 155.00 176.64 12.45
5154 56.4100 173.00 173.94 13.15
5155 56.4200 158.00 171.85 12.57
5156 56.4300 162.00 169.84 12.73
5157 56.4400 181.00 168.10 13.45
5158 56.4500 166.00 166.59 12.88
5159 56.4600 141.00 165.27 11.87
5160 56.4700 160.00 164.10 12.65
5161 56.4800 154.00 163.07 12.41
5162 56.4900 162.00 162.16 12.73
5163 56.5000 142.00 161.34 11.92
5164 56.5100 133.00 160.61 11.53
5165 56.5200 161.00 159.96 12.69
5166 56.5300 148.00 159.36 12.17
5167 56.5400 139.00 158.82 11.79
5168 56.5500 144.00 158.34 12.00
5169 56.5600 147.00 157.89 12.12
5170 56.5700 142.00 157.48 11.92
5171 56.5800 145.00 157.11 12.04
5172 56.5900 146.00 156.77 12.08
5173 56.6000 156.00 156.45 12.49
5174 56.6100 142.00 156.16 11.92
5175 56.6200 156.00 155.90 12.49
5176 56.6300 164.00 155.65 12.81
5177 56.6400 160.00 155.43 12.65
5178 56.6500 137.00 155.22 11.70
5179 56.6600 132.00 155.03 11.49
5180 56.6700 149.00 154.85 12.21
5181 56.6800 157.00 154.70 12.53
5182 56.6900 151.00 154.55 12.29
5183 56.7000 159.00 154.43 12.61
5184 56.7100 156.00 154.31 12.49
5185 56.7200 161.00 154.21 12.69
5186 56.7300 149.00 154.13 12.21
5187 56.7400 149.00 153.97 12.21
5188 56.7500 147.00 153.91 12.12
5189 56.7600 161.00 153.40 12.69
5190 56.7700 182.00 153.38 13.49
5191 56.7800 160.00 153.38 12.65
5192 56.7900 154.00 153.41 12.41
5193 56.8000 155.00 153.39 12.45
5194 56.8100 165.00 153.46 12.85
5195 56.8200 161.00 153.56 12.69
5196 56.8300 180.00 153.68 13.42
5197 56.8400 144.00 153.85 12.00
5198 56.8500 131.00 154.05 11.45
5199 56.8600 145.00 154.30 12.04
5200 56.8700 158.00 154.61 12.57
5201 56.8800 165.00 154.99 12.85
5202 56.8900 154.00 155.44 12.41
5203 56.9000 175.00 155.99 13.23
5204 56.9100 164.00 156.64 12.81
5205 56.9200 166.00 157.42 12.88
5206 56.9300 180.00 158.33 13.42
5207 56.9400 162.00 159.40 12.73
5208 56.9500 160.00 160.64 12.65
5209 56.9600 150.00 162.06 12.25
5210 56.9700 172.00 163.68 13.11
5211 56.9800 168.00 165.49 12.96
5212 56.9900 174.00 167.50 13.19
5213 57.0000 170.00 169.69 13.04
5214 57.0100 149.00 172.04 12.21
5215 57.0200 171.00 174.48 13.08
5216 57.0300 189.00 176.95 13.75
5217 57.0400 197.00 179.35 14.04
5218 57.0500 194.00 181.53 13.93
5219 57.0600 180.00 183.37 13.42
5220 57.0700 191.00 184.73 13.82
5221 57.0800 168.00 185.51 12.96
5222 57.0900 170.00 185.70 13.04
5223 57.1000 187.00 185.34 13.67
5224 57.1100 170.00 184.55 13.04
5225 57.1200 180.00 183.49 13.42
5226 57.1300 209.00 182.30 14.46
5227 57.1400 194.00 181.13 13.93
5228 57.1500 197.00 180.10 14.04
5229 57.1600 201.00 179.20 14.18
5230 57.1700 187.00 178.66 13.67
5231 57.1800 184.00 178.44 13.56
5232 57.1900 208.00 178.56 14.42
5233 57.2000 207.00 179.02 14.39
5234 57.2100 211.00 179.81 14.53
5235 57.2200 200.00 180.89 14.14
5236 57.2300 223.00 182.19 14.93
5237 57.2400 222.00 183.64 14.90
5238 57.2500 187.00 185.10 13.67
5239 57.2600 212.00 187.59 14.56
5240 57.2700 236.00 188.68 15.36
5241 57.2800 231.00 189.34 15.20
5242 57.2900 208.00 189.48 14.42
5243 57.3000 252.00 189.08 15.87
5244 57.3100 228.00 188.15 15.10
5245 57.3200 205.00 186.82 14.32
5246 57.3300 223.00 185.19 14.93
5247 57.3400 257.00 183.41 16.03
5248 57.3500 240.00 181.60 15.49
5249 57.3600 213.00 179.82 14.59
5250 57.3700 233.00 178.11 15.26
5251 57.3800 236.00 176.49 15.36
5252 57.3900 231.00 174.93 15.20
5253 57.4000 236.00 173.38 15.36
5254 57.4100 212.00 171.82 14.56
5255 57.4200 213.00 165.78 14.59
5256 57.4300 217.00 164.12 14.73
5257 57.4400 210.00 162.51 14.49
5258 57.4500 219.00 160.92 14.80
5259 57.4600 227.00 159.39 15.07
5260 57.4700 233.00 157.95 15.26
5261 57.4800 207.00 156.63 14.39
5262 57.4900 206.00 155.45 14.35
5263 57.5000 222.00 154.40 14.90
5264 57.5100 206.00 153.49 14.35
5265 57.5200 175.00 152.73 13.23
5266 57.5300 225.00 152.09 15.00
5267 57.5400 199.00 151.58 14.11
5268 57.5500 193.00 151.18 13.89
5269 57.5600 215.00 150.90 14.66
5270 57.5700 217.00 150.73 14.73
5271 57.5800 221.00 150.57 14.87
5272 57.5900 204.00 150.58 14.28
5273 57.6000 210.00 150.66 14.49
5274 57.6100 208.00 150.81 14.42
5275 57.6200 226.00 151.01 15.03
5276 57.6300 214.00 151.25 14.63
5277 57.6400 202.00 151.51 14.21
5278 57.6500 182.00 151.77 13.49
5279 57.6600 190.00 152.02 13.78
5280 57.6700 204.00 152.23 14.28
5281 57.6800 194.00 152.40 13.93
5282 57.6900 173.00 152.50 13.15
5283 57.7000 192.00 152.52 13.86
5284 57.7100 172.00 152.46 13.11
5285 57.7200 148.00 152.33 12.17
5286 57.7300 171.00 152.12 13.08
5287 57.7400 159.00 151.87 12.61
5288 57.7500 157.00 151.60 12.53
5289 57.7600 130.00 151.33 11.40
5290 57.7700 147.00 151.08 12.12
5291 57.7800 146.00 150.86 12.08
5292 57.7900 132.00 150.68 11.49
5293 57.8000 140.00 150.56 11.83
5294 57.8100 131.00 150.48 11.45
5295 57.8200 140.00 150.46 11.83
5296 57.8300 159.00 150.50 12.61
5297 57.8400 175.00 150.59 13.23
5298 57.8500 140.00 150.74 11.83
5299 57.8600 150.00 150.96 12.25
5300 57.8700 142.00 151.25 11.92
5301 57.8800 159.00 151.63 12.61
5302 57.8900 149.00 152.16 12.21
5303 57.9000 139.00 153.84 11.79
5304 57.9100 135.00 154.58 11.62
5305 57.9200 145.00 155.45 12.04
5306 57.9300 145.00 156.48 12.04
5307 57.9400 164.00 157.68 12.81
5308 57.9500 132.00 159.04 11.49
5309 57.9600 146.00 160.58 12.08
5310 57.9700 172.00 162.31 13.11
5311 57.9800 173.00 164.21 13.15
5312 57.9900 141.00 166.27 11.87
5313 58.0000 152.00 168.44 12.33
5314 58.0100 137.00 170.65 11.70
5315 58.0200 163.00 172.80 12.77
5316 58.0300 165.00 174.76 12.85
5317 58.0400 154.00 176.40 12.41
5318 58.0500 163.00 177.60 12.77
5319 58.0600 166.00 178.32 12.88
5320 58.0700 148.00 178.58 12.17
5321 58.0800 145.00 178.47 12.04
5322 58.0900 149.00 178.13 12.21
5323 58.1000 136.00 177.70 11.66
5324 58.1100 156.00 177.32 12.49
5325 58.1200 185.00 177.08 13.60
5326 58.1300 167.00 177.05 12.92
5327 58.1400 169.00 177.29 13.00
5328 58.1500 168.00 177.83 12.96
5329 58.1600 157.00 178.69 12.53
5330 58.1700 169.00 179.85 13.00
5331 58.1800 163.00 181.27 12.77
5332 58.1900 163.00 182.84 12.77
5333 58.2000 172.00 184.44 13.11
5334 58.2100 189.00 185.88 13.75
5335 58.2200 189.00 186.95 13.75
5336 58.2300 207.00 187.46 14.39
5337 58.2400 192.00 187.27 13.86
5338 58.2500 187.00 186.48 13.67
5339 58.2600 163.00 184.86 12.77
5340 58.2700 191.00 182.70 13.82
5341 58.2800 179.00 180.19 13.38
5342 58.2900 163.00 177.54 12.77
5343 58.3000 171.00 174.88 13.08
5344 58.3100 158.00 172.34 12.57
5345 58.3200 167.00 169.98 12.92
5346 58.3300 163.00 167.85 12.77
5347 58.3400 120.00 165.97 10.95
5348 58.3500 170.00 164.34 13.04
5349 58.3600 161.00 163.01 12.69
5350 58.3700 147.00 161.87 12.12
5351 58.3800 151.00 160.94 12.29
5352 58.3900 152.00 160.21 12.33
5353 58.4000 118.00 159.66 10.86
5354 58.4100 136.00 159.26 11.66
5355 58.4200 147.00 159.00 12.12
5356 58.4300 136.00 158.86 11.66
5357 58.4400 145.00 158.82 12.04
5358 58.4500 152.00 158.89 12.33
5359 58.4600 136.00 159.04 11.66
5360 58.4700 162.00 159.27 12.73
5361 58.4800 159.00 159.58 12.61
5362 58.4900 131.00 159.97 11.45
5363 58.5000 138.00 160.45 11.75
5364 58.5100 147.00 161.03 12.12
5365 58.5200 155.00 161.70 12.45
5366 58.5300 150.00 162.49 12.25
5367 58.5400 133.00 163.40 11.53
5368 58.5500 147.00 164.47 12.12
5369 58.5600 149.00 165.69 12.21
5370 58.5700 157.00 167.10 12.53
5371 58.5800 153.00 168.70 12.37
5372 58.5900 181.00 170.54 13.45
5373 58.6000 147.00 172.60 12.12
5374 58.6100 145.00 174.92 12.04
5375 58.6200 196.00 177.50 14.00
5376 58.6300 171.00 180.33 13.08
5377 58.6400 160.00 183.40 12.65
5378 58.6500 180.00 186.66 13.42
5379 58.6600 159.00 190.05 12.61
5380 58.6700 157.00 193.46 12.53
5381 58.6800 157.00 196.78 12.53
5382 58.6900 178.00 199.88 13.34
5383 58.7000 176.00 202.65 13.27
5384 58.7100 174.00 205.01 13.19
5385 58.7200 173.00 207.00 13.15
5386 58.7300 208.00 208.66 14.42
5387 58.7400 212.00 210.09 14.56
5388 58.7500 199.00 211.37 14.11
5389 58.7600 206.00 212.53 14.35
5390 58.7700 188.00 213.54 13.71
5391 58.7800 195.00 214.34 13.96
5392 58.7900 203.00 214.88 14.25
5393 58.8000 185.00 215.10 13.60
5394 58.8100 189.00 215.02 13.75
5395 58.8200 199.00 214.75 14.11
5396 58.8300 212.00 214.40 14.56
5397 58.8400 220.00 214.13 14.83
5398 58.8500 216.00 214.09 14.70
5399 58.8600 209.00 214.35 14.46
5400 58.8700 239.00 215.17 15.46
5401 58.8800 215.00 216.57 14.66
5402 58.8900 193.00 218.67 13.89
5403 58.9000 223.00 221.57 14.93
5404 58.9100 244.00 225.43 15.62
5405 58.9200 219.00 230.31 14.80
5406 58.9300 231.00 236.41 15.20
5407 58.9400 257.00 243.90 16.03
5408 58.9500 239.00 253.01 15.46
5409 58.9600 249.00 263.93 15.78
5410 58.9700 299.00 276.89 17.29
5411 58.9800 293.00 292.13 17.12
5412 58.9900 320.00 309.83 17.89
5413 59.0000 352.00 330.17 18.76
5414 59.0100 374.00 353.24 19.34
5415 59.0200 400.00 379.04 20.00
5416 59.0300 414.00 407.44 20.35
5417 59.0400 435.00 438.12 20.86
5418 59.0500 445.00 470.39 21.09
5419 59.0600 500.00 503.39 22.36
5420 59.0700 522.00 535.66 22.85
5421 59.0800 553.00 565.46 23.52
5422 59.0900 596.00 590.79 24.41
5423 59.1000 595.00 609.83 24.39
5424 59.1100 643.00 621.35 25.36
5425 59.1200 648.00 625.11 25.46
5426 59.1300 605.00 621.97 24.60
5427 59.1400 632.00 613.56 25.14
5428 59.1500 596.00 601.87 24.41
5429 59.1600 561.00 588.74 23.69
5430 59.1700 576.00 575.65 24.00
5431 59.1800 567.00 563.56 23.81
5432 59.1900 571.00 553.05 23.90
5433 59.2000 512.00 544.29 22.63
5434 59.2100 552.00 537.22 23.49
5435 59.2200 572.00 531.54 23.92
5436 59.2300 587.00 526.86 24.23
5437 59.2400 571.00 522.68 23.90
5438 59.2500 578.00 518.47 24.04
5439 59.2600 613.00 513.74 24.76
5440 59.2700 607.00 508.07 24.64
5441 59.2800 570.00 501.15 23.87
5442 59.2900 589.00 492.79 24.27
5443 59.3000 529.00 482.94 23.00
5444 59.3100 532.00 471.69 23.07
5445 59.3200 502.00 459.20 22.41
5446 59.3300 507.00 445.72 22.52
5447 59.3400 461.00 431.51 21.47
5448 59.3500 477.00 416.86 21.84
5449 59.3600 364.00 402.01 19.08
5450 59.3700 364.00 387.20 19.08
5451 59.3800 335.00 372.65 18.30
5452 59.3900 340.00 358.50 18.44
5453 59.4000 319.00 344.86 17.86
5454 59.4100 271.00 331.86 16.46
5455 59.4200 305.00 319.57 17.46
5456 59.4300 257.00 308.03 16.03
5457 59.4400 267.00 297.28 16.34
5458 59.4500 250.00 287.34 15.81
5459 59.4600 275.00 278.21 16.58
5460 59.4700 234.00 269.88 15.30
5461 59.4800 221.00 262.34 14.87
5462 59.4900 217.00 255.56 14.73
5463 59.5000 217.00 249.51 14.73
5464 59.5100 215.00 244.16 14.66
5465 59.5200 243.00 239.47 15.59
5466 59.5300 222.00 235.41 14.90
5467 59.5400 207.00 231.93 14.39
5468 59.5500 199.00 229.01 14.11
5469 59.5600 210.00 226.60 14.49
5470 59.5700 176.00 224.66 13.27
5471 59.5800 207.00 223.18 14.39
5472 59.5900 219.00 222.11 14.80
5473 59.6000 204.00 221.45 14.28
5474 59.6100 212.00 221.15 14.56
5475 59.6200 193.00 221.22 13.89
5476 59.6300 192.00 221.63 13.86
5477 59.6400 198.00 222.37 14.07
5478 59.6500 191.00 223.46 13.82
5479 59.6600 191.00 224.88 13.82
5480 59.6700 221.00 226.63 14.87
5481 59.6800 215.00 228.74 14.66
5482 59.6900 221.00 231.21 14.87
5483 59.7000 230.00 234.06 15.17
5484 59.7100 222.00 237.32 14.90
5485 59.7200 221.00 241.01 14.87
5486 59.7300 243.00 245.18 15.59
5487 59.7400 260.00 249.86 16.12
5488 59.7500 257.00 255.12 16.03
5489 59.7600 236.00 261.03 15.36
5490 59.7700 249.00 267.68 15.78
5491 59.7800 310.00 275.20 17.61
5492 59.7900 287.00 283.77 16.94
5493 59.8000 300.00 293.56 17.32
5494 59.8100 343.00 304.84 18.52
5495 59.8200 343.00 317.98 18.52
5496 59.8300 344.00 333.39 18.55
5497 59.8400 407.00 351.52 20.17
5498 59.8500 364.00 372.95 19.08
5499 59.8600 408.00 398.38 20.20
5500 59.8700 488.00 428.48 22.09
5501 59.8800 516.00 464.07 22.72
5502 59.8900 512.00 505.98 22.63
5503 59.9000 551.00 555.03 23.47
5504 59.9100 618.00 612.02 24.86
5505 59.9200 667.00 677.76 25.83
5506 59.9300 819.00 752.47 28.62
5507 59.9400 873.00 836.48 29.55
5508 59.9500 958.00 929.74 30.95
5509 59.9600 1011.00 1031.14 31.80
5510 59.9700 1154.00 1139.18 33.97
5511 59.9800 1275.00 1250.76 35.71
5512 59.9900 1372.00 1361.52 37.04
5513 60.0000 1430.00 1465.31 37.82
5514 60.0100 1498.00 1554.56 38.70
5515 60.0200 1490.00 1621.07 38.60
5516 60.0300 1559.00 1657.61 39.48
5517 60.0400 1561.00 1659.72 39.51
5518 60.0500 1570.00 1627.08 39.62
5519 60.0600 1537.00 1563.58 39.20
5520 60.0700 1380.00 1476.32 37.15
5521 60.0800 1323.00 1373.59 36.37
5522 60.0900 1271.00 1262.97 35.65
5523 60.1000 1102.00 1151.07 33.20
5524 60.1100 1006.00 1042.44 31.72
5525 60.1200 942.00 940.17 30.69
5526 60.1300 801.00 846.09 28.30
5527 60.1400 787.00 761.08 28.05
5528 60.1500 743.00 685.42 27.26
5529 60.1600 604.00 618.92 24.58
5530 60.1700 534.00 561.09 23.11
5531 60.1800 523.00 511.25 22.87
5532 60.1900 509.00 468.70 22.56
5533 60.2000 441.00 432.49 21.00
5534 60.2100 413.00 401.86 20.32
5535 60.2200 402.00 376.01 20.05
5536 60.2300 368.00 354.19 19.18
5537 60.2400 343.00 335.75 18.52
5538 60.2500 359.00 320.12 18.95
5539 60.2600 358.00 306.81 18.92
5540 60.2700 337.00 295.40 18.36
5541 60.2800 284.00 285.62 16.85
5542 60.2900 277.00 277.17 16.64
5543 60.3000 252.00 269.86 15.87
5544 60.3100 253.00 263.51 15.91
5545 60.3200 270.00 258.01 16.43
5546 60.3300 244.00 253.25 15.62
5547 60.3400 230.00 249.17 15.17
5548 60.3500 236.00 245.71 15.36
5549 60.3600 233.00 242.83 15.26
5550 60.3700 243.00 240.49 15.59
5551 60.3800 217.00 238.69 14.73
5552 60.3900 240.00 237.45 15.49
5553 60.4000 221.00 236.69 14.87
5554 60.4100 212.00 236.43 14.56
5555 60.4200 217.00 236.68 14.73
5556 60.4300 217.00 237.43 14.73
5557 60.4400 241.00 238.69 15.52
5558 60.4500 258.00 240.46 16.06
5559 60.4600 256.00 242.72 16.00
5560 60.4700 251.00 245.47 15.84
5561 60.4800 249.00 248.70 15.78
5562 60.4900 255.00 252.36 15.97
5563 60.5000 242.00 256.43 15.56
5564 60.5100 268.00 260.84 16.37
5565 60.5200 279.00 265.52 16.70
5566 60.5300 268.00 270.35 16.37
5567 60.5400 279.00 275.21 16.70
5568 60.5500 261.00 279.94 16.16
5569 60.5600 322.00 284.39 17.94
5570 60.5700 306.00 288.37 17.49
5571 60.5800 275.00 291.77 16.58
5572 60.5900 332.00 294.48 18.22
5573 60.6000 312.00 296.48 17.66
5574 60.6100 321.00 299.34 17.92
5575 60.6200 332.00 300.18 18.22
5576 60.6300 323.00 300.66 17.97
5577 60.6400 319.00 300.97 17.86
5578 60.6500 289.00 301.27 17.00
5579 60.6600 297.00 301.66 17.23
5580 60.6700 296.00 302.18 17.20
5581 60.6800 306.00 302.78 17.49
5582 60.6900 266.00 303.30 16.31
5583 60.7000 291.00 303.50 17.06
5584 60.7100 298.00 303.08 17.26
5585 60.7200 278.00 301.78 16.67
5586 60.7300 317.00 299.39 17.80
5587 60.7400 282.00 295.92 16.79
5588 60.7500 229.00 291.51 15.13
5589 60.7600 268.00 286.45 16.37
5590 60.7700 264.00 281.07 16.25
5591 60.7800 271.00 275.70 16.46
5592 60.7900 277.00 270.61 16.64
5593 60.8000 236.00 266.00 15.36
5594 60.8100 229.00 262.02 15.13
5595 60.8200 255.00 258.73 15.97
5596 60.8300 247.00 256.17 15.72
5597 60.8400 239.00 254.36 15.46
5598 60.8500 239.00 253.29 15.46
5599 60.8600 277.00 252.94 16.64
5600 60.8700 251.00 253.29 15.84
5601 60.8800 241.00 254.31 15.52
5602 60.8900 244.00 256.00 15.62
5603 60.9000 251.00 258.33 15.84
5604 60.9100 282.00 261.32 16.79
5605 60.9200 241.00 264.95 15.52
5606 60.9300 246.00 269.29 15.68
5607 60.9400 285.00 274.38 16.88
5608 60.9500 273.00 280.27 16.52
5609 60.9600 269.00 287.06 16.40
5610 60.9700 295.00 294.84 17.18
5611 60.9800 312.00 303.75 17.66
5612 60.9900 320.00 313.90 17.89
5613 61.0000 325.00 325.49 18.03
5614 61.0100 352.00 338.66 18.76
5615 61.0200 349.00 353.59 18.68
5616 61.0300 337.00 370.48 18.36
5617 61.0400 398.00 389.50 19.95
5618 61.0500 401.00 410.83 20.02
5619 61.0600 424.00 434.59 20.59
5620 61.0700 460.00 460.90 21.45
5621 61.0800 492.00 489.83 22.18
5622 61.0900 483.00 521.48 21.98
5623 61.1000 516.00 555.93 22.72
5624 61.1100 572.00 593.59 23.92
5625 61.1200 590.00 634.85 24.29
5626 61.1300 659.00 680.38 25.67
5627 61.1400 701.00 730.90 26.48
5628 61.1500 717.00 787.08 26.78
5629 61.1600 719.00 849.44 26.81
5630 61.1700 784.00 918.26 28.00
5631 61.1800 957.00 993.52 30.94
5632 61.1900 1042.00 1074.81 32.28
5633 61.2000 1079.00 1161.33 32.85
5634 61.2100 1234.00 1251.44 35.13
5635 61.2200 1276.00 1343.26 35.72
5636 61.2300 1386.00 1433.67 37.23
5637 61.2400 1482.00 1518.98 38.50
5638 61.2500 1526.00 1594.80 39.06
5639 61.2600 1548.00 1656.41 39.34
5640 61.2700 1692.00 1699.33 41.13
5641 61.2800 1659.00 1720.15 40.73
5642 61.2900 1717.00 1717.11 41.44
5643 61.3000 1691.00 1690.58 41.12
5644 61.3100 1681.00 1642.91 41.00
5645 61.3200 1561.00 1577.98 39.51
5646 61.3300 1455.00 1500.54 38.14
5647 61.3400 1391.00 1415.15 37.30
5648 61.3500 1244.00 1326.27 35.27
5649 61.3600 1149.00 1237.40 33.90
5650 61.3700 1061.00 1151.27 32.57
5651 61.3800 962.00 1069.85 31.02
5652 61.3900 901.00 994.49 30.02
5653 61.4000 884.00 925.99 29.73
5654 61.4100 781.00 864.83 27.95
5655 61.4200 694.00 811.10 26.34
5656 61.4300 733.00 764.64 27.07
5657 61.4400 663.00 725.21 25.75
5658 61.4500 607.00 692.16 24.64
5659 61.4600 618.00 664.87 24.86
5660 61.4700 599.00 642.47 24.47
5661 61.4800 602.00 623.93 24.54
5662 61.4900 581.00 608.14 24.10
5663 61.5000 625.00 593.92 25.00
5664 61.5100 565.00 580.18 23.77
5665 61.5200 562.00 565.99 23.71
5666 61.5300 570.00 550.72 23.87
5667 61.5400 571.00 534.14 23.90
5668 61.5500 554.00 516.37 23.54
5669 61.5600 516.00 497.80 22.72
5670 61.5700 472.00 478.95 21.73
5671 61.5800 502.00 460.38 22.41
5672 61.5900 456.00 442.57 21.35
5673 61.6000 409.00 425.89 20.22
5674 61.6100 397.00 410.57 19.92
5675 61.6200 366.00 396.70 19.13
5676 61.6300 360.00 384.24 18.97
5677 61.6400 341.00 373.03 18.47
5678 61.6500 320.00 362.78 17.89
5679 61.6600 326.00 353.12 18.06
5680 61.6700 314.00 343.68 17.72
5681 61.6800 321.00 334.11 17.92
5682 61.6900 275.00 324.20 16.58
5683 61.7000 299.00 313.91 17.29
5684 61.7100 280.00 303.38 16.73
5685 61.7200 269.00 292.80 16.40
5686 61.7300 226.00 282.44 15.03
5687 61.7400 248.00 272.51 15.75
5688 61.7500 282.00 263.13 16.79
5689 61.7600 223.00 254.39 14.93
5690 61.7700 228.00 246.35 15.10
5691 61.7800 229.00 239.04 15.13
5692 61.7900 208.00 232.34 14.42
5693 61.8000 195.00 226.27 13.96
5694 61.8100 175.00 220.80 13.23
5695 61.8200 196.00 215.64 14.00
5696 61.8300 192.00 211.23 13.86
5697 61.8400 189.00 207.27 13.75
5698 61.8500 180.00 203.72 13.42
5699 61.8600 182.00 200.54 13.49
5700 61.8700 183.00 197.67 13.53
5701 61.8800 175.00 195.09 13.23
5702 61.8900 183.00 192.76 13.53
5703 61.9000 168.00 190.64 12.96
5704 61.9100 177.00 188.71 13.30
5705 61.9200 180.00 186.94 13.42
5706 61.9300 183.00 185.31 13.53
5707 61.9400 195.00 183.80 13.96
5708 61.9500 180.00 182.40 13.42
5709 61.9600 170.00 181.10 13.04
5710 61.9700 169.00 179.89 13.00
5711 61.9800 196.00 178.76 14.00
5712 61.9900 193.00 177.72 13.89
5713 62.0000 178.00 176.75 13.34
5714 62.0100 189.00 175.87 13.75
5715 62.0200 159.00 175.05 12.61
5716 62.0300 183.00 174.32 13.53
5717 62.0400 170.00 173.66 13.04
5718 62.0500 165.00 173.07 12.85
5719 62.0600 176.00 172.57 13.27
5720 62.0700 189.00 172.15 13.75
5721 62.0800 185.00 171.81 13.60
5722 62.0900 200.00 171.57 14.14
5723 62.1000 177.00 171.52 13.30
5724 62.1100 174.00 171.47 13.19
5725 62.1200 165.00 171.52 12.85
5726 62.1300 178.00 171.70 13.34
5727 62.1400 188.00 171.99 13.71
5728 62.1500 178.00 172.43 13.34
5729 62.1600 196.00 173.00 14.00
5730 62.1700 174.00 173.72 13.19
5731 62.1800 171.00 174.59 13.08
5732 62.1900 165.00 175.62 12.85
5733 62.2000 209.00 176.81 14.46
5734 62.2100 191.00 178.15 13.82
5735 62.2200 191.00 181.30 13.82
5736 62.2300 192.00 182.91 13.86
5737 62.2400 182.00 184.60 13.49
5738 62.2500 200.00 186.34 14.14
5739 62.2600 198.00 188.04 14.07
5740 62.2700 191.00 189.64 13.82
5741 62.2800 211.00 191.07 14.53
5742 62.2900 227.00 192.28 15.07
5743 62.3000 236.00 193.16 15.36
5744 62.3100 250.00 193.69 15.81
5745 62.3200 227.00 193.87 15.07
5746 62.3300 253.00 193.71 15.91
5747 62.3400 276.00 193.28 16.61
5748 62.3500 248.00 192.65 15.75
5749 62.3600 244.00 191.90 15.62
5750 62.3700 263.00 191.14 16.22
5751 62.3800 234.00 190.46 15.30
5752 62.3900 283.00 189.93 16.82
5753 62.4000 263.00 189.63 16.22
5754 62.4100 267.00 189.61 16.34
5755 62.4200 267.00 189.93 16.34
5756 62.4300 253.00 190.65 15.91
5757 62.4400 267.00 191.79 16.34
5758 62.4500 264.00 193.43 16.25
5759 62.4600 235.00 195.58 15.33
5760 62.4700 255.00 198.30 15.97
5761 62.4800 275.00 201.62 16.58
5762 62.4900 267.00 205.57 16.34
5763 62.5000 264.00 210.16 16.25
5764 62.5100 260.00 215.44 16.12
5765 62.5200 261.00 221.31 16.16
5766 62.5300 282.00 227.76 16.79
5767 62.5400 277.00 234.65 16.64
5768 62.5500 270.00 241.85 16.43
5769 62.5600 256.00 249.14 16.00
5770 62.5700 284.00 256.26 16.85
5771 62.5800 296.00 262.98 17.20
5772 62.5900 308.00 269.11 17.55
5773 62.6000 303.00 274.56 17.41
5774 62.6100 298.00 279.36 17.26
5775 62.6200 329.00 283.65 18.14
5776 62.6300 307.00 287.65 17.52
5777 62.6400 313.00 291.68 17.69
5778 62.6500 345.00 296.06 18.57
5779 62.6600 322.00 301.08 17.94
5780 62.6700 336.00 306.96 18.33
5781 62.6800 317.00 313.80 17.80
5782 62.6900 357.00 321.53 18.89
5783 62.7000 354.00 329.93 18.81
5784 62.7100 374.00 338.56 19.34
5785 62.7200 374.00 346.85 19.34
5786 62.7300 372.00 354.07 19.29
5787 62.7400 360.00 359.49 18.97
5788 62.7500 355.00 362.52 18.84
5789 62.7600 329.00 362.83 18.14
5790 62.7700 327.00 360.55 18.08
5791 62.7800 336.00 356.19 18.33
5792 62.7900 312.00 350.51 17.66
5793 62.8000 321.00 344.39 17.92
5794 62.8100 339.00 338.65 18.41
5795 62.8200 317.00 333.94 17.80
5796 62.8300 288.00 329.66 16.97
5797 62.8400 311.00 328.23 17.64
5798 62.8500 324.00 328.73 18.00
5799 62.8600 299.00 331.18 17.29
5800 62.8700 305.00 335.48 17.46
5801 62.8800 328.00 341.43 18.11
5802 62.8900 332.00 348.66 18.22
5803 62.9000 333.00 356.71 18.25
5804 62.9100 363.00 364.96 19.05
5805 62.9200 342.00 372.61 18.49
5806 62.9300 389.00 378.83 19.72
5807 62.9400 419.00 382.74 20.47
5808 62.9500 384.00 383.68 19.60
5809 62.9600 377.00 381.29 19.42
5810 62.9700 362.00 375.64 19.03
5811 62.9800 396.00 367.15 19.90
5812 62.9900 350.00 356.55 18.71
5813 63.0000 365.00 344.64 19.10
5814 63.0100 337.00 332.18 18.36
5815 63.0200 332.00 319.82 18.22
5816 63.0300 316.00 308.06 17.78
5817 63.0400 309.00 297.24 17.58
5818 63.0500 297.00 287.58 17.23
5819 63.0600 296.00 279.23 17.20
5820 63.0700 286.00 272.26 16.91
5821 63.0800 284.00 266.68 16.85
5822 63.0900 261.00 262.49 16.16
5823 63.1000 271.00 259.64 16.46
5824 63.1100 260.00 258.08 16.12
5825 63.1200 223.00 257.73 14.93
5826 63.1300 271.00 258.46 16.46
5827 63.1400 258.00 260.14 16.06
5828 63.1500 280.00 262.57 16.73
5829 63.1600 302.00 265.54 17.38
5830 63.1700 264.00 269.01 16.25
5831 63.1800 255.00 272.14 15.97
5832 63.1900 251.00 274.80 15.84
5833 63.2000 265.00 276.71 16.28
5834 63.2100 281.00 277.70 16.76
5835 63.2200 288.00 277.72 16.97
5836 63.2300 287.00 276.92 16.94
5837 63.2400 266.00 275.56 16.31
5838 63.2500 293.00 273.95 17.12
5839 63.2600 301.00 272.38 17.35
5840 63.2700 300.00 271.12 17.32
5841 63.2800 294.00 270.36 17.15
5842 63.2900 309.00 270.27 17.58
5843 63.3000 329.00 270.96 18.14
5844 63.3100 331.00 272.52 18.19
5845 63.3200 322.00 275.02 17.94
5846 63.3300 314.00 278.53 17.72
5847 63.3400 325.00 283.12 18.03
5848 63.3500 310.00 288.91 17.61
5849 63.3600 314.00 295.91 17.72
5850 63.3700 352.00 304.23 18.76
5851 63.3800 368.00 314.01 19.18
5852 63.3900 367.00 325.33 19.16
5853 63.4000 407.00 338.36 20.17
5854 63.4100 385.00 353.22 19.62
5855 63.4200 409.00 370.07 20.22
5856 63.4300 422.00 389.08 20.54
5857 63.4400 445.00 410.43 21.09
5858 63.4500 463.00 434.29 21.52
5859 63.4600 486.00 460.85 22.05
5860 63.4700 498.00 490.29 22.32
5861 63.4800 537.00 522.74 23.17
5862 63.4900 597.00 558.30 24.43
5863 63.5000 637.00 597.14 25.24
5864 63.5100 673.00 639.21 25.94
5865 63.5200 661.00 684.49 25.71
5866 63.5300 703.00 732.87 26.51
5867 63.5400 795.00 784.11 28.20
5868 63.5500 841.00 837.84 29.00
5869 63.5600 890.00 893.57 29.83
5870 63.5700 936.00 950.45 30.59
5871 63.5800 1040.00 1007.64 32.25
5872 63.5900 1167.00 1063.90 34.16
5873 63.6000 1225.00 1117.80 35.00
5874 63.6100 1295.00 1167.83 35.99
5875 63.6200 1328.00 1212.21 36.44
5876 63.6300 1394.00 1249.34 37.34
5877 63.6400 1496.00 1277.79 38.68
5878 63.6500 1478.00 1296.54 38.44
5879 63.6600 1505.00 1305.10 38.79
5880 63.6700 1479.00 1303.41 38.46
5881 63.6800 1508.00 1292.05 38.83
5882 63.6900 1514.00 1271.95 38.91
5883 63.7000 1373.00 1244.25 37.05
5884 63.7100 1333.00 1210.20 36.51
5885 63.7200 1251.00 1170.98 35.37
5886 63.7300 1255.00 1127.63 35.43
5887 63.7400 1142.00 1081.11 33.79
5888 63.7500 1081.00 1032.25 32.88
5889 63.7600 1066.00 981.83 32.65
5890 63.7700 991.00 930.60 31.48
5891 63.7800 909.00 879.27 30.15
5892 63.7900 864.00 828.47 29.39
5893 63.8000 800.00 778.76 28.28
5894 63.8100 737.00 730.88 27.15
5895 63.8200 679.00 685.18 26.06
5896 63.8300 619.00 641.98 24.88
5897 63.8400 607.00 601.40 24.64
5898 63.8500 574.00 563.67 23.96
5899 63.8600 519.00 528.78 22.78
5900 63.8700 469.00 496.67 21.66
5901 63.8800 456.00 467.38 21.35
5902 63.8900 473.00 440.74 21.75
5903 63.9000 410.00 416.64 20.25
5904 63.9100 382.00 394.93 19.54
5905 63.9200 383.00 375.48 19.57
5906 63.9300 318.00 358.12 17.83
5907 63.9400 311.00 342.73 17.64
5908 63.9500 299.00 329.14 17.29
5909 63.9600 318.00 317.24 17.83
5910 63.9700 303.00 306.88 17.41
5911 63.9800 291.00 297.96 17.06
5912 63.9900 280.00 290.38 16.73
5913 64.0000 289.00 284.02 17.00
5914 64.0100 284.00 278.82 16.85
5915 64.0200 281.00 274.68 16.76
5916 64.0300 280.00 271.53 16.73
5917 64.0400 236.00 269.27 15.36
5918 64.0500 239.00 267.80 15.46
5919 64.0600 258.00 266.99 16.06
5920 64.0700 239.00 266.70 15.46
5921 64.0800 268.00 266.75 16.37
5922 64.0900 238.00 266.94 15.43
5923 64.1000 236.00 267.05 15.36
5924 64.1100 220.00 266.89 14.83
5925 64.1200 217.00 266.29 14.73
5926 64.1300 216.00 265.11 14.70
5927 64.1400 220.00 263.24 14.83
5928 64.1500 230.00 260.62 15.17
5929 64.1600 202.00 257.23 14.21
5930 64.1700 209.00 253.12 14.46
5931 64.1800 215.00 248.45 14.66
5932 64.1900 205.00 243.38 14.32
5933 64.2000 203.00 238.14 14.25
5934 64.2100 217.00 232.93 14.73
5935 64.2200 226.00 227.91 15.03
5936 64.2300 200.00 223.18 14.14
5937 64.2400 197.00 218.81 14.04
5938 64.2500 197.00 214.86 14.04
5939 64.2600 197.00 211.32 14.04
5940 64.2700 164.00 208.19 12.81
5941 64.2800 170.00 205.46 13.04
5942 64.2900 196.00 203.10 14.00
5943 64.3000 214.00 201.09 14.63
5944 64.3100 181.00 199.41 13.45
5945 64.3200 193.00 198.02 13.89
5946 64.3300 205.00 196.84 14.32
5947 64.3400 204.00 195.97 14.28
5948 64.3500 177.00 195.36 13.30
5949 64.3600 180.00 194.93 13.42
5950 64.3700 180.00 194.70 13.42
5951 64.3800 210.00 194.66 14.49
5952 64.3900 174.00 194.82 13.19
5953 64.4000 196.00 195.17 14.00
5954 64.4100 173.00 195.72 13.15
5955 64.4200 177.00 196.49 13.30
5956 64.4300 191.00 197.49 13.82
5957 64.4400 210.00 198.74 14.49
5958 64.4500 192.00 200.27 13.86
5959 64.4600 189.00 202.12 13.75
5960 64.4700 182.00 204.26 13.49
5961 64.4800 195.00 206.83 13.96
5962 64.4900 175.00 209.83 13.23
5963 64.5000 201.00 213.27 14.18
5964 64.5100 193.00 217.21 13.89
5965 64.5200 217.00 221.65 14.73
5966 64.5300 204.00 226.63 14.28
5967 64.5400 195.00 232.13 13.96
5968 64.5500 221.00 238.13 14.87
5969 64.5600 191.00 244.56 13.82
5970 64.5700 215.00 251.32 14.66
5971 64.5800 207.00 258.24 14.39
5972 64.5900 236.00 265.11 15.36
5973 64.6000 261.00 271.67 16.16
5974 64.6100 250.00 277.61 15.81
5975 64.6200 244.00 282.65 15.62
5976 64.6300 253.00 286.54 15.91
5977 64.6400 234.00 289.18 15.30
5978 64.6500 246.00 290.73 15.68
5979 64.6600 273.00 291.17 16.52
5980 64.6700 282.00 290.93 16.79
5981 64.6800 251.00 290.40 15.84
5982 64.6900 265.00 288.85 16.28
5983 64.7000 298.00 288.70 17.26
5984 64.7100 258.00 289.06 16.06
5985 64.7200 277.00 290.06 16.64
5986 64.7300 299.00 291.79 17.29
5987 64.7400 268.00 294.17 16.37
5988 64.7500 320.00 297.22 17.89
5989 64.7600 282.00 300.93 16.79
5990 64.7700 343.00 305.32 18.52
5991 64.7800 347.00 310.38 18.63
5992 64.7900 345.00 316.20 18.57
5993 64.8000 321.00 322.91 17.92
5994 64.8100 344.00 330.52 18.55
5995 64.8200 372.00 339.48 19.29
5996 64.8300 378.00 349.89 19.44
5997 64.8400 355.00 362.00 18.84
5998 64.8500 411.00 376.10 20.27
5999 64.8600 445.00 392.56 21.09
6000 64.8700 433.00 411.87 20.81
6001 64.8800 462.00 434.55 21.49
6002 64.8900 468.00 461.32 21.63
6003 64.9000 504.00 492.77 22.45
6004 64.9100 541.00 529.88 23.26
6005 64.9200 609.00 573.59 24.68
6006 64.9300 679.00 624.86 26.06
6007 64.9400 678.00 684.87 26.04
6008 64.9500 756.00 754.73 27.50
6009 64.9600 895.00 835.43 29.92
6010 64.9700 928.00 927.91 30.46
6011 64.9800 1044.00 1033.14 32.31
6012 64.9900 1092.00 1151.38 33.05
6013 65.0000 1249.00 1282.65 35.34
6014 65.0100 1393.00 1426.20 37.32
6015 65.0200 1478.00 1580.21 38.44
6016 65.0300 1673.00 1741.50 40.90
6017 65.0400 1801.00 1904.50 42.44
6018 65.0500 1953.00 2062.01 44.19
6019 65.0600 2011.00 2204.24 44.84
6020 65.0700 2040.00 2319.61 45.17
6021 65.0800 2180.00 2397.33 46.69
6022 65.0900 2127.00 2428.86 46.12
6023 65.1000 2181.00 2410.64 46.70
6024 65.1100 2075.00 2345.18 45.55
6025 65.1200 1938.00 2240.19 44.02
6026 65.1300 1910.00 2106.51 43.70
6027 65.1400 1742.00 1955.45 41.74
6028 65.1500 1665.00 1797.45 40.80
6029 65.1600 1526.00 1640.12 39.06
6030 65.1700 1438.00 1489.04 37.92
6031 65.1800 1296.00 1348.12 36.00
6032 65.1900 1179.00 1219.04 34.34
6033 65.2000 1050.00 1103.05 32.40
6034 65.2100 960.00 1000.24 30.98
6035 65.2200 855.00 910.28 29.24
6036 65.2300 803.00 832.44 28.34
6037 65.2400 775.00 765.76 27.84
6038 65.2500 696.00 709.10 26.38
6039 65.2600 696.00 661.27 26.38
6040 65.2700 653.00 621.01 25.55
6041 65.2800 603.00 587.17 24.56
6042 65.2900 582.00 558.62 24.12
6043 65.3000 518.00 534.26 22.76
6044 65.3100 539.00 513.25 23.22
6045 65.3200 467.00 494.80 21.61
6046 65.3300 486.00 478.26 22.05
6047 65.3400 459.00 463.13 21.42
6048 65.3500 463.00 449.01 21.52
6049 65.3600 444.00 435.56 21.07
6050 65.3700 424.00 422.51 20.59
6051 65.3800 384.00 409.53 19.60
6052 65.3900 398.00 396.48 19.95
6053 65.4000 364.00 383.24 19.08
6054 65.4100 334.00 369.84 18.28
6055 65.4200 311.00 356.39 17.64
6056 65.4300 301.00 343.08 17.35
6057 65.4400 296.00 330.05 17.20
6058 65.4500 279.00 317.57 16.70
6059 65.4600 275.00 305.76 16.58
6060 65.4700 245.00 294.71 15.65
6061 65.4800 270.00 284.49 16.43
6062 65.4900 272.00 275.10 16.49
6063 65.5000 227.00 266.56 15.07
6064 65.5100 225.00 258.83 15.00
6065 65.5200 244.00 251.87 15.62
6066 65.5300 218.00 245.65 14.76
6067 65.5400 215.00 240.11 14.66
6068 65.5500 244.00 235.19 15.62
6069 65.5600 195.00 230.85 13.96
6070 65.5700 229.00 226.97 15.13
6071 65.5800 233.00 223.54 15.26
6072 65.5900 209.00 220.57 14.46
6073 65.6000 245.00 217.95 15.65
6074 65.6100 223.00 215.63 14.93
6075 65.6200 203.00 213.56 14.25
6076 65.6300 221.00 211.69 14.87
6077 65.6400 220.00 209.98 14.83
6078 65.6500 214.00 208.40 14.63
6079 65.6600 204.00 206.91 14.28
6080 65.6700 207.00 205.50 14.39
6081 65.6800 212.00 204.14 14.56
6082 65.6900 198.00 202.87 14.07
6083 65.7000 189.00 201.66 13.75
6084 65.7100 184.00 200.54 13.56
6085 65.7200 185.00 199.52 13.60
6086 65.7300 194.00 198.63 13.93
6087 65.7400 215.00 199.26 14.66
6088 65.7500 203.00 198.69 14.25
6089 65.7600 205.00 198.30 14.32
6090 65.7700 197.00 198.13 14.04
6091 65.7800 202.00 198.19 14.21
6092 65.7900 202.00 198.51 14.21
6093 65.8000 197.00 199.13 14.04
6094 65.8100 160.00 200.07 12.65
6095 65.8200 174.00 201.38 13.19
6096 65.8300 203.00 203.09 14.25
6097 65.8400 213.00 205.27 14.59
6098 65.8500 233.00 207.97 15.26
6099 65.8600 216.00 211.27 14.70
6100 65.8700 219.00 215.27 14.80
6101 65.8800 205.00 220.06 14.32
6102 65.8900 234.00 225.78 15.30
6103 65.9000 246.00 232.57 15.68
6104 65.9100 239.00 240.62 15.46
6105 65.9200 253.00 250.13 15.91
6106 65.9300 274.00 261.29 16.55
6107 65.9400 282.00 274.31 16.79
6108 65.9500 321.00 289.39 17.92
6109 65.9600 323.00 306.66 17.97
6110 65.9700 353.00 326.23 18.79
6111 65.9800 366.00 348.14 19.13
6112 65.9900 381.00 372.27 19.52
6113 66.0000 405.00 398.23 20.12
6114 66.0100 458.00 425.83 21.40
6115 66.0200 495.00 454.08 22.25
6116 66.0300 522.00 481.85 22.85
6117 66.0400 555.00 507.45 23.56
6118 66.0500 568.00 529.15 23.83
6119 66.0600 592.00 544.97 24.33
6120 66.0700 620.00 553.27 24.90
6121 66.0800 589.00 553.19 24.27
6122 66.0900 586.00 544.83 24.21
6123 66.1000 576.00 529.16 24.00
6124 66.1100 555.00 507.95 23.56
6125 66.1200 497.00 483.10 22.29
6126 66.1300 506.00 456.53 22.49
6127 66.1400 447.00 429.76 21.14
6128 66.1500 432.00 403.98 20.78
6129 66.1600 372.00 379.92 19.29
6130 66.1700 398.00 358.04 19.95
6131 66.1800 362.00 338.59 19.03
6132 66.1900 335.00 321.58 18.30
6133 66.2000 330.00 306.90 18.17
6134 66.2100 289.00 294.38 17.00
6135 66.2200 307.00 283.69 17.52
6136 66.2300 270.00 274.46 16.43
6137 66.2400 256.00 266.30 16.00
6138 66.2500 231.00 258.82 15.20
6139 66.2600 257.00 251.69 16.03
6140 66.2700 248.00 244.70 15.75
6141 66.2800 222.00 237.75 14.90
6142 66.2900 215.00 230.89 14.66
6143 66.3000 222.00 224.15 14.90
6144 66.3100 210.00 217.65 14.49
6145 66.3200 188.00 211.50 13.71
6146 66.3300 195.00 205.73 13.96
6147 66.3400 188.00 200.40 13.71
6148 66.3500 190.00 195.55 13.78
6149 66.3600 180.00 191.18 13.42
6150 66.3700 176.00 187.31 13.27
6151 66.3800 161.00 183.91 12.69
6152 66.3900 168.00 181.00 12.96
6153 66.4000 156.00 178.55 12.49
6154 66.4100 168.00 176.56 12.96
6155 66.4200 181.00 175.00 13.45
6156 66.4300 140.00 173.86 11.83
6157 66.4400 148.00 173.13 12.17
6158 66.4500 166.00 172.83 12.88
6159 66.4600 161.00 172.89 12.69
6160 66.4700 172.00 173.34 13.11
6161 66.4800 167.00 174.16 12.92
6162 66.4900 147.00 175.36 12.12
6163 66.5000 193.00 176.92 13.89
6164 66.5100 182.00 178.81 13.49
6165 66.5200 177.00 180.98 13.30
6166 66.5300 171.00 183.34 13.08
6167 66.5400 191.00 185.77 13.82
6168 66.5500 191.00 188.12 13.82
6169 66.5600 167.00 190.18 12.92
6170 66.5700 174.00 191.70 13.19
6171 66.5800 198.00 192.51 14.07
6172 66.5900 169.00 192.45 13.00
6173 66.6000 197.00 191.49 14.04
6174 66.6100 197.00 189.72 14.04
6175 66.6200 180.00 187.29 13.42
6176 66.6300 175.00 184.44 13.23
6177 66.6400 170.00 181.36 13.04
6178 66.6500 156.00 178.24 12.49
6179 66.6600 171.00 175.19 13.08
6180 66.6700 165.00 172.31 12.85
6181 66.6800 170.00 169.63 13.04
6182 66.6900 150.00 167.25 12.25
6183 66.7000 150.00 164.99 12.25
6184 66.7100 145.00 162.92 12.04
6185 66.7200 156.00 161.04 12.49
6186 66.7300 134.00 160.97 11.58
6187 66.7400 134.00 159.44 11.58
6188 66.7500 159.00 158.06 12.61
6189 66.7600 142.00 156.80 11.92
6190 66.7700 148.00 155.65 12.17
6191 66.7800 139.00 154.57 11.79
6192 66.7900 133.00 153.57 11.53
6193 66.8000 127.00 152.62 11.27
6194 66.8100 140.00 151.95 11.83
6195 66.8200 135.00 151.12 11.62
6196 66.8300 155.00 150.37 12.45
6197 66.8400 138.00 149.68 11.75
6198 66.8500 137.00 149.08 11.70
6199 66.8600 116.00 148.54 10.77
6200 66.8700 137.00 148.05 11.70
6201 66.8800 122.00 147.61 11.05
6202 66.8900 154.00 147.19 12.41
6203 66.9000 142.00 146.79 11.92
6204 66.9100 124.00 146.41 11.14
6205 66.9200 131.00 146.04 11.45
6206 66.9300 133.00 145.69 11.53
6207 66.9400 121.00 145.37 11.00
6208 66.9500 146.00 145.09 12.08
6209 66.9600 156.00 144.85 12.49
6210 66.9700 114.00 144.66 10.68
6211 66.9800 132.00 144.52 11.49
6212 66.9900 123.00 144.44 11.09
6213 67.0000 140.00 144.41 11.83
6214 67.0100 138.00 144.45 11.75
6215 67.0200 145.00 144.51 12.04
6216 67.0300 118.00 144.67 10.86
6217 67.0400 137.00 144.89 11.70
6218 67.0500 132.00 145.18 11.49
6219 67.0600 134.00 145.55 11.58
6220 67.0700 143.00 146.00 11.96
6221 67.0800 121.00 146.55 11.00
6222 67.0900 144.00 147.21 12.00
6223 67.1000 129.00 147.98 11.36
6224 67.1100 137.00 148.89 11.70
6225 67.1200 156.00 149.97 12.49
6226 67.1300 140.00 151.22 11.83
6227 67.1400 160.00 152.67 12.65
6228 67.1500 140.00 154.34 11.83
6229 67.1600 156.00 156.26 12.49
6230 67.1700 152.00 158.46 12.33
6231 67.1800 181.00 160.93 13.45
6232 67.1900 171.00 163.71 13.08
6233 67.2000 170.00 166.79 13.04
6234 67.2100 177.00 170.17 13.30
6235 67.2200 152.00 173.81 12.33
6236 67.2300 185.00 177.67 13.60
6237 67.2400 207.00 181.64 14.39
6238 67.2500 187.00 185.61 13.67
6239 67.2600 173.00 189.38 13.15
6240 67.2700 189.00 192.72 13.75
6241 67.2800 182.00 195.42 13.49
6242 67.2900 211.00 197.27 14.53
6243 67.3000 207.00 198.14 14.39
6244 67.3100 201.00 198.05 14.18
6245 67.3200 202.00 197.11 14.21
6246 67.3300 198.00 195.53 14.07
6247 67.3400 199.00 193.57 14.11
6248 67.3500 211.00 191.46 14.53
6249 67.3600 203.00 189.41 14.25
6250 67.3700 191.00 187.60 13.82
6251 67.3800 184.00 186.17 13.56
6252 67.3900 196.00 185.19 14.00
6253 67.4000 195.00 184.76 13.96
6254 67.4100 188.00 184.94 13.71
6255 67.4200 180.00 185.79 13.42
6256 67.4300 190.00 187.36 13.78
6257 67.4400 206.00 189.73 14.35
6258 67.4500 224.00 192.94 14.97
6259 67.4600 224.00 197.07 14.97
6260 67.4700 241.00 202.18 15.52
6261 67.4800 244.00 208.37 15.62
6262 67.4900 254.00 215.68 15.94
6263 67.5000 271.00 224.18 16.46
6264 67.5100 287.00 233.91 16.94
6265 67.5200 305.00 244.84 17.46
6266 67.5300 299.00 257.04 17.29
6267 67.5400 311.00 270.35 17.64
6268 67.5500 312.00 284.60 17.66
6269 67.5600 334.00 299.46 18.28
6270 67.5700 353.00 314.43 18.79
6271 67.5800 339.00 328.88 18.41
6272 67.5900 413.00 342.03 20.32
6273 67.6000 390.00 353.10 19.75
6274 67.6100 402.00 361.43 20.05
6275 67.6200 431.00 366.66 20.76
6276 67.6300 416.00 368.82 20.40
6277 67.6400 436.00 368.28 20.88
6278 67.6500 413.00 365.63 20.32
6279 67.6600 429.00 361.45 20.71
6280 67.6700 401.00 356.24 20.02
6281 67.6800 436.00 350.31 20.88
6282 67.6900 439.00 343.79 20.95
6283 67.7000 433.00 336.77 20.81
6284 67.7100 405.00 329.29 20.12
6285 67.7200 444.00 321.44 21.07
6286 67.7300 446.00 313.40 21.12
6287 67.7400 425.00 305.34 20.62
6288 67.7500 372.00 297.52 19.29
6289 67.7600 351.00 290.16 18.74
6290 67.7700 393.00 283.50 19.82
6291 67.7800 382.00 277.70 19.54
6292 67.7900 391.00 272.22 19.77
6293 67.8000 350.00 268.31 18.71
6294 67.8100 364.00 265.21 19.08
6295 67.8200 314.00 263.48 17.72
6296 67.8300 329.00 261.23 18.14
6297 67.8400 313.00 258.85 17.69
6298 67.8500 295.00 255.99 17.18
6299 67.8600 321.00 252.38 17.92
6300 67.8700 308.00 247.89 17.55
6301 67.8800 270.00 242.56 16.43
6302 67.8900 277.00 236.56 16.64
6303 67.9000 260.00 230.17 16.12
6304 67.9100 270.00 223.65 16.43
6305 67.9200 261.00 217.09 16.16
6306 67.9300 289.00 211.00 17.00
6307 67.9400 261.00 205.34 16.16
6308 67.9500 255.00 200.18 15.97
6309 67.9600 249.00 195.56 15.78
6310 67.9700 271.00 191.49 16.46
6311 67.9800 273.00 186.32 16.52
6312 67.9900 265.00 183.29 16.28
6313 68.0000 241.00 180.75 15.52
6314 68.0100 254.00 178.63 15.94
6315 68.0200 250.00 176.89 15.81
6316 68.0300 250.00 175.48 15.81
6317 68.0400 256.00 174.36 16.00
6318 68.0500 234.00 173.46 15.30
6319 68.0600 282.00 172.74 16.79
6320 68.0700 284.00 172.17 16.85
6321 68.0800 254.00 171.72 15.94
6322 68.0900 254.00 171.38 15.94
6323 68.1000 256.00 171.14 16.00
6324 68.1100 277.00 171.03 16.64
6325 68.1200 278.00 171.05 16.67
6326 68.1300 290.00 171.22 17.03
6327 68.1400 264.00 171.55 16.25
6328 68.1500 296.00 172.07 17.20
6329 68.1600 283.00 172.77 16.82
6330 68.1700 274.00 173.68 16.55
6331 68.1800 275.00 174.82 16.58
6332 68.1900 282.00 176.20 16.79
6333 68.2000 277.00 177.84 16.64
6334 68.2100 287.00 179.76 16.94
6335 68.2200 282.00 181.97 16.79
6336 68.2300 261.00 184.53 16.16
6337 68.2400 264.00 187.38 16.25
6338 68.2500 279.00 190.58 16.70
6339 68.2600 274.00 194.12 16.55
6340 68.2700 252.00 198.01 15.87
6341 68.2800 243.00 202.22 15.59
6342 68.2900 243.00 206.71 15.59
6343 68.3000 259.00 211.36 16.09
6344 68.3100 271.00 216.12 16.46
6345 68.3200 255.00 220.79 15.97
6346 68.3300 230.00 225.15 15.17
6347 68.3400 244.00 228.99 15.62
6348 68.3500 229.00 232.08 15.13
6349 68.3600 222.00 234.30 14.90
6350 68.3700 243.00 235.62 15.59
6351 68.3800 234.00 236.13 15.30
6352 68.3900 214.00 236.02 14.63
6353 68.4000 236.00 235.53 15.36
6354 68.4100 210.00 234.89 14.49
6355 68.4200 233.00 234.32 15.26
6356 68.4300 219.00 233.99 14.80
6357 68.4400 241.00 234.02 15.52
6358 68.4500 221.00 234.51 14.87
6359 68.4600 224.00 235.51 14.97
6360 68.4700 228.00 237.10 15.10
6361 68.4800 214.00 239.30 14.63
6362 68.4900 209.00 242.19 14.46
6363 68.5000 224.00 245.79 14.97
6364 68.5100 226.00 250.18 15.03
6365 68.5200 249.00 255.41 15.78
6366 68.5300 248.00 261.57 15.75
6367 68.5400 251.00 268.74 15.84
6368 68.5500 254.00 277.03 15.94
6369 68.5600 224.00 286.58 14.97
6370 68.5700 293.00 297.50 17.12
6371 68.5800 302.00 309.98 17.38
6372 68.5900 300.00 324.19 17.32
6373 68.6000 336.00 340.30 18.33
6374 68.6100 368.00 358.50 19.18
6375 68.6200 330.00 379.02 18.17
6376 68.6300 371.00 402.02 19.26
6377 68.6400 422.00 427.69 20.54
6378 68.6500 426.00 456.12 20.64
6379 68.6600 436.00 487.45 20.88
6380 68.6700 504.00 521.66 22.45
6381 68.6800 529.00 558.49 23.00
6382 68.6900 578.00 597.66 24.04
6383 68.7000 606.00 638.56 24.62
6384 68.7100 651.00 680.33 25.51
6385 68.7200 677.00 722.09 26.02
6386 68.7300 701.00 763.06 26.48
6387 68.7400 688.00 802.83 26.23
6388 68.7500 807.00 841.62 28.41
6389 68.7600 836.00 880.29 28.91
6390 68.7700 897.00 920.23 29.95
6391 68.7800 931.00 963.09 30.51
6392 68.7900 1011.00 1010.30 31.80
6393 68.8000 1098.00 1063.16 33.14
6394 68.8100 1184.00 1122.20 34.41
6395 68.8200 1242.00 1187.34 35.24
6396 68.8300 1443.00 1257.87 37.99
6397 68.8400 1442.00 1331.88 37.97
6398 68.8500 1621.00 1406.63 40.26
6399 68.8600 1691.00 1478.26 41.12
6400 68.8700 1691.00 1542.02 41.12
6401 68.8800 1827.00 1592.67 42.74
6402 68.8900 1903.00 1625.27 43.62
6403 68.9000 1871.00 1635.98 43.26
6404 68.9100 1895.00 1623.06 43.53
6405 68.9200 1732.00 1587.19 41.62
6406 68.9300 1759.00 1531.33 41.94
6407 68.9400 1675.00 1459.83 40.93
6408 68.9500 1504.00 1377.92 38.78
6409 68.9600 1438.00 1290.46 37.92
6410 68.9700 1370.00 1201.61 37.01
6411 68.9800 1255.00 1114.59 35.43
6412 68.9900 1135.00 1031.65 33.69
6413 69.0000 1012.00 954.15 31.81
6414 69.0100 918.00 883.30 30.30
6415 69.0200 877.00 819.23 29.61
6416 69.0300 824.00 761.98 28.71
6417 69.0400 704.00 711.29 26.53
6418 69.0500 668.00 666.61 25.85
6419 69.0600 659.00 627.39 25.67
6420 69.0700 522.00 592.91 22.85
6421 69.0800 546.00 562.35 23.37
6422 69.0900 536.00 535.00 23.15
6423 69.1000 476.00 510.19 21.82
6424 69.1100 453.00 487.45 21.28
6425 69.1200 475.00 466.40 21.79
6426 69.1300 452.00 446.87 21.26
6427 69.1400 405.00 429.01 20.12
6428 69.1500 393.00 412.45 19.82
6429 69.1600 362.00 397.35 19.03
6430 69.1700 367.00 383.75 19.16
6431 69.1800 357.00 371.61 18.89
6432 69.1900 343.00 360.82 18.52
6433 69.2000 313.00 351.42 17.69
6434 69.2100 315.00 343.29 17.75
6435 69.2200 318.00 336.37 17.83
6436 69.2300 294.00 330.58 17.15
6437 69.2400 333.00 325.84 18.25
6438 69.2500 302.00 322.05 17.38
6439 69.2600 308.00 319.13 17.55
6440 69.2700 311.00 316.87 17.64
6441 69.2800 300.00 315.16 17.32
6442 69.2900 290.00 313.83 17.03
6443 69.3000 318.00 312.73 17.83
6444 69.3100 300.00 311.74 17.32
6445 69.3200 327.00 310.79 18.08
6446 69.3300 305.00 309.90 17.46
6447 69.3400 338.00 309.12 18.38
6448 69.3500 346.00 308.56 18.60
6449 69.3600 310.00 308.32 17.61
6450 69.3700 314.00 308.51 17.72
6451 69.3800 320.00 309.25 17.89
6452 69.3900 324.00 310.60 18.00
6453 69.4000 321.00 312.65 17.92
6454 69.4100 321.00 315.43 17.92
6455 69.4200 335.00 318.99 18.30
6456 69.4300 355.00 323.38 18.84
6457 69.4400 312.00 328.62 17.66
6458 69.4500 359.00 334.79 18.95
6459 69.4600 348.00 341.93 18.65
6460 69.4700 396.00 350.12 19.90
6461 69.4800 413.00 359.51 20.32
6462 69.4900 400.00 370.23 20.00
6463 69.5000 385.00 382.44 19.62
6464 69.5100 399.00 396.51 19.98
6465 69.5200 434.00 412.69 20.83
6466 69.5300 458.00 431.30 21.40
6467 69.5400 481.00 452.84 21.93
6468 69.5500 506.00 477.79 22.49
6469 69.5600 541.00 506.75 23.26
6470 69.5700 554.00 540.30 23.54
6471 69.5800 595.00 579.26 24.39
6472 69.5900 652.00 624.43 25.53
6473 69.6000 722.00 676.61 26.87
6474 69.6100 821.00 736.68 28.65
6475 69.6200 841.00 805.67 29.00
6476 69.6300 969.00 884.27 31.13
6477 69.6400 1004.00 973.35 31.69
6478 69.6500 1113.00 1073.26 33.36
6479 69.6600 1245.00 1184.47 35.28
6480 69.6700 1328.00 1306.84 36.44
6481 69.6800 1507.00 1439.34 38.82
6482 69.6900 1689.00 1580.59 41.10
6483 69.7000 1819.00 1727.88 42.65
6484 69.7100 1954.00 1876.86 44.20
6485 69.7200 2021.00 2021.74 44.96
6486 69.7300 2152.00 2155.32 46.39
6487 69.7400 2334.00 2268.50 48.31
6488 69.7500 2487.00 2352.12 49.87
6489 69.7600 2461.00 2398.28 49.61
6490 69.7700 2485.00 2401.84 49.85
6491 69.7800 2505.00 2362.22 50.05
6492 69.7900 2399.00 2283.63 48.98
6493 69.8000 2276.00 2173.81 47.71
6494 69.8100 2197.00 2041.99 46.87
6495 69.8200 1964.00 1898.12 44.32
6496 69.8300 1782.00 1750.13 42.21
6497 69.8400 1689.00 1604.33 41.10
6498 69.8500 1542.00 1465.37 39.27
6499 69.8600 1420.00 1335.97 37.68
6500 69.8700 1252.00 1217.73 35.38
6501 69.8800 1151.00 1111.35 33.93
6502 69.8900 1027.00 1016.86 32.05
6503 69.9000 974.00 934.13 31.21
6504 69.9100 872.00 862.39 29.53
6505 69.9200 816.00 800.95 28.57
6506 69.9300 770.00 749.11 27.75
6507 69.9400 731.00 705.91 27.04
6508 69.9500 717.00 670.53 26.78
6509 69.9600 647.00 642.19 25.44
6510 69.9700 659.00 620.08 25.67
6511 69.9800 612.00 603.45 24.74
6512 69.9900 656.00 591.57 25.61
6513 70.0000 597.00 583.77 24.43
6514 70.0100 631.00 579.41 25.12
6515 70.0200 597.00 577.88 24.43
6516 70.0300 561.00 578.56 23.69
6517 70.0400 614.00 580.80 24.78
6518 70.0500 651.00 583.82 25.51
6519 70.0600 616.00 586.69 24.82
6520 70.0700 623.00 588.36 24.96
6521 70.0800 649.00 587.75 25.48
6522 70.0900 631.00 583.89 25.12
6523 70.1000 628.00 576.07 25.06
6524 70.1100 601.00 564.07 24.52
6525 70.1200 557.00 548.07 23.60
6526 70.1300 564.00 528.73 23.75
6527 70.1400 536.00 506.98 23.15
6528 70.1500 465.00 483.79 21.56
6529 70.1600 423.00 460.03 20.57
6530 70.1700 425.00 436.51 20.62
6531 70.1800 422.00 413.78 20.54
6532 70.1900 374.00 392.19 19.34
6533 70.2000 365.00 372.03 19.10
6534 70.2100 340.00 353.40 18.44
6535 70.2200 332.00 336.35 18.22
6536 70.2300 290.00 320.86 17.03
6537 70.2400 285.00 306.87 16.88
6538 70.2500 259.00 294.33 16.09
6539 70.2600 266.00 283.07 16.31
6540 70.2700 268.00 273.08 16.37
6541 70.2800 233.00 264.22 15.26
6542 70.2900 240.00 256.37 15.49
6543 70.3000 250.00 249.43 15.81
6544 70.3100 211.00 243.31 14.53
6545 70.3200 228.00 237.91 15.10
6546 70.3300 209.00 233.13 14.46
6547 70.3400 231.00 228.93 15.20
6548 70.3500 215.00 225.22 14.66
6549 70.3600 207.00 221.96 14.39
6550 70.3700 207.00 219.10 14.39
6551 70.3800 189.00 216.60 13.75
6552 70.3900 193.00 214.43 13.89
6553 70.4000 217.00 212.56 14.73
6554 70.4100 194.00 210.97 13.93
6555 70.4200 179.00 209.64 13.38
6556 70.4300 196.00 208.56 14.00
6557 70.4400 204.00 207.72 14.28
6558 70.4500 189.00 207.12 13.75
6559 70.4600 194.00 206.74 13.93
6560 70.4700 179.00 206.61 13.38
6561 70.4800 169.00 206.71 13.00
6562 70.4900 171.00 207.06 13.08
6563 70.5000 183.00 207.66 13.53
6564 70.5100 206.00 208.52 14.35
6565 70.5200 228.00 209.66 15.10
6566 70.5300 209.00 211.09 14.46
6567 70.5400 209.00 212.82 14.46
6568 70.5500 227.00 214.89 15.07
6569 70.5600 206.00 217.31 14.35
6570 70.5700 191.00 220.10 13.82
6571 70.5800 199.00 223.30 14.11
6572 70.5900 212.00 226.80 14.56
6573 70.6000 232.00 230.90 15.23
6574 70.6100 217.00 235.49 14.73
6575 70.6200 205.00 240.62 14.32
6576 70.6300 252.00 246.33 15.87
6577 70.6400 249.00 252.66 15.78
6578 70.6500 240.00 259.70 15.49
6579 70.6600 258.00 267.57 16.06
6580 70.6700 298.00 276.37 17.26
6581 70.6800 329.00 286.42 18.14
6582 70.6900 305.00 298.21 17.46
6583 70.7000 314.00 311.53 17.72
6584 70.7100 300.00 326.96 17.32
6585 70.7200 351.00 344.86 18.74
6586 70.7300 379.00 365.67 19.47
6587 70.7400 408.00 389.71 20.20
6588 70.7500 410.00 417.33 20.25
6589 70.7600 445.00 448.92 21.09
6590 70.7700 475.00 484.69 21.79
6591 70.7800 529.00 524.87 23.00
6592 70.7900 538.00 569.55 23.19
6593 70.8000 609.00 618.68 24.68
6594 70.8100 676.00 672.03 26.00
6595 70.8200 702.00 728.89 26.50
6596 70.8300 749.00 788.32 27.37
6597 70.8400 786.00 848.62 28.04
6598 70.8500 823.00 907.40 28.69
6599 70.8600 911.00 961.43 30.18
6600 70.8700 922.00 1007.04 30.36
6601 70.8800 881.00 1040.21 29.68
6602 70.8900 971.00 1057.70 31.16
6603 70.9000 949.00 1057.54 30.81
6604 70.9100 950.00 1039.70 30.82
6605 70.9200 909.00 1006.01 30.15
6606 70.9300 905.00 959.85 30.08
6607 70.9400 813.00 905.04 28.51
6608 70.9500 783.00 845.43 27.98
6609 70.9600 751.00 784.35 27.40
6610 70.9700 691.00 724.30 26.29
6611 70.9800 632.00 666.90 25.14
6612 70.9900 549.00 613.37 23.43
6613 71.0000 571.00 564.54 23.90
6614 71.0100 524.00 520.12 22.89
6615 71.0200 450.00 480.45 21.21
6616 71.0300 427.00 445.33 20.66
6617 71.0400 403.00 414.57 20.07
6618 71.0500 390.00 387.80 19.75
6619 71.0600 360.00 364.66 18.97
6620 71.0700 356.00 344.85 18.87
6621 71.0800 330.00 327.93 18.17
6622 71.0900 335.00 313.57 18.30
6623 71.1000 312.00 301.45 17.66
6624 71.1100 308.00 291.26 17.55
6625 71.1200 262.00 282.72 16.19
6626 71.1300 274.00 275.57 16.55
6627 71.1400 291.00 269.60 17.06
6628 71.1500 256.00 264.62 16.00
6629 71.1600 255.00 260.45 15.97
6630 71.1700 268.00 256.93 16.37
6631 71.1800 252.00 253.95 15.87
6632 71.1900 251.00 251.41 15.84
6633 71.2000 245.00 249.22 15.65
6634 71.2100 256.00 247.32 16.00
6635 71.2200 232.00 245.64 15.23
6636 71.2300 213.00 244.15 14.59
6637 71.2400 253.00 242.80 15.91
6638 71.2500 236.00 241.53 15.36
6639 71.2600 229.00 240.29 15.13
6640 71.2700 243.00 239.03 15.59
6641 71.2800 207.00 237.67 14.39
6642 71.2900 218.00 236.15 14.76
6643 71.3000 205.00 234.40 14.32
6644 71.3100 230.00 232.39 15.17
6645 71.3200 198.00 230.09 14.07
6646 71.3300 202.00 227.50 14.21
6647 71.3400 197.00 224.65 14.04
6648 71.3500 224.00 221.59 14.97
6649 71.3600 197.00 218.36 14.04
6650 71.3700 219.00 215.12 14.80
6651 71.3800 186.00 211.93 13.64
6652 71.3900 197.00 208.86 14.04
6653 71.4000 208.00 206.01 14.42
6654 71.4100 171.00 203.45 13.08
6655 71.4200 210.00 201.22 14.49
6656 71.4300 169.00 199.38 13.00
6657 71.4400 188.00 197.96 13.71
6658 71.4500 194.00 196.99 13.93
6659 71.4600 200.00 196.47 14.14
6660 71.4700 182.00 196.40 13.49
6661 71.4800 180.00 196.78 13.42
6662 71.4900 181.00 197.56 13.45
6663 71.5000 195.00 198.69 13.96
6664 71.5100 182.00 200.10 13.49
6665 71.5200 192.00 201.68 13.86
6666 71.5300 180.00 203.24 13.42
6667 71.5400 188.00 204.63 13.71
6668 71.5500 198.00 205.65 14.07
6669 71.5600 222.00 206.14 14.90
6670 71.5700 197.00 205.94 14.04
6671 71.5800 207.00 204.99 14.39
6672 71.5900 207.00 203.31 14.39
6673 71.6000 205.00 201.01 14.32
6674 71.6100 191.00 198.22 13.82
6675 71.6200 181.00 195.14 13.45
6676 71.6300 167.00 191.92 12.92
6677 71.6400 167.00 188.73 12.92
6678 71.6500 181.00 185.66 13.45
6679 71.6600 163.00 182.79 12.77
6680 71.6700 157.00 180.16 12.53
6681 71.6800 160.00 177.75 12.65
6682 71.6900 163.00 175.55 12.77
6683 71.7000 153.00 173.50 12.37
6684 71.7100 180.00 171.53 13.42
6685 71.7200 166.00 169.61 12.88
6686 71.7300 157.00 167.67 12.53
6687 71.7400 167.00 165.72 12.92
6688 71.7500 167.00 163.54 12.92
6689 71.7600 145.00 161.59 12.04
6690 71.7700 141.00 159.71 11.87
6691 71.7800 151.00 157.93 12.29
6692 71.7900 153.00 156.27 12.37
6693 71.8000 147.00 154.78 12.12
6694 71.8100 136.00 153.46 11.66
6695 71.8200 137.00 152.31 11.70
6696 71.8300 112.00 151.34 10.58
6697 71.8400 130.00 150.55 11.40
6698 71.8500 120.00 149.93 10.95
6699 71.8600 124.00 149.49 11.14
6700 71.8700 123.00 149.22 11.09
6701 71.8800 142.00 149.12 11.92
6702 71.8900 134.00 149.19 11.58
6703 71.9000 146.00 149.43 12.08
6704 71.9100 138.00 149.85 11.75
6705 71.9200 146.00 150.47 12.08
6706 71.9300 140.00 151.28 11.83
6707 71.9400 144.00 152.32 12.00
6708 71.9500 145.00 153.59 12.04
6709 71.9600 121.00 155.12 11.00
6710 71.9700 156.00 156.94 12.49
6711 71.9800 150.00 159.07 12.25
6712 71.9900 147.00 161.55 12.12
6713 72.0000 164.00 164.40 12.81
6714 72.0100 149.00 167.67 12.21
6715 72.0200 165.00 171.38 12.85
6716 72.0300 163.00 175.56 12.77
6717 72.0400 170.00 180.22 13.04
6718 72.0500 175.00 185.39 13.23
6719 72.0600 176.00 191.06 13.27
6720 72.0700 188.00 197.19 13.71
6721 72.0800 215.00 203.73 14.66
6722 72.0900 203.00 210.55 14.25
6723 72.1000 223.00 217.49 14.93
6724 72.1100 210.00 224.36 14.49
6725 72.1200 203.00 230.93 14.25
6726 72.1300 226.00 236.97 15.03
6727 72.1400 266.00 242.70 16.31
6728 72.1500 223.00 247.53 14.93
6729 72.1600 233.00 251.90 15.26
6730 72.1700 239.00 254.98 15.46
6731 72.1800 258.00 259.24 16.06
6732 72.1900 231.00 263.94 15.20
6733 72.2000 238.00 269.36 15.43
6734 72.2100 228.00 275.72 15.10
6735 72.2200 232.00 283.11 15.23
6736 72.2300 236.00 291.59 15.36
6737 72.2400 272.00 301.02 16.49
6738 72.2500 309.00 311.18 17.58
6739 72.2600 324.00 321.71 18.00
6740 72.2700 309.00 332.11 17.58
6741 72.2800 338.00 341.72 18.38
6742 72.2900 331.00 349.79 18.19
6743 72.3000 313.00 355.61 17.69
6744 72.3100 319.00 358.54 17.86
6745 72.3200 367.00 358.20 19.16
6746 72.3300 329.00 354.51 18.14
6747 72.3400 325.00 347.73 18.03
6748 72.3500 322.00 338.46 17.94
6749 72.3600 282.00 327.36 16.79
6750 72.3700 271.00 315.15 16.46
6751 72.3800 282.00 302.47 16.79
6752 72.3900 275.00 289.86 16.58
6753 72.4000 259.00 277.65 16.09
6754 72.4100 235.00 266.08 15.33
6755 72.4200 233.00 255.26 15.26
6756 72.4300 227.00 245.24 15.07
6757 72.4400 220.00 235.96 14.83
6758 72.4500 224.00 227.37 14.97
6759 72.4600 206.00 219.42 14.35
6760 72.4700 182.00 212.04 13.49
6761 72.4800 180.00 205.22 13.42
6762 72.4900 192.00 198.95 13.86
6763 72.5000 173.00 193.24 13.15
6764 72.5100 180.00 188.07 13.42
6765 72.5200 181.00 183.47 13.45
6766 72.5300 169.00 179.40 13.00
6767 72.5400 181.00 175.85 13.45
6768 72.5500 161.00 172.80 12.69
6769 72.5600 172.00 170.18 13.11
6770 72.5700 160.00 167.97 12.65
6771 72.5800 156.00 166.10 12.49
6772 72.5900 170.00 164.55 13.04
6773 72.6000 152.00 163.25 12.33
6774 72.6100 148.00 162.16 12.17
6775 72.6200 151.00 161.23 12.29
6776 72.6300 143.00 160.42 11.96
6777 72.6400 153.00 159.72 12.37
6778 72.6500 133.00 159.10 11.53
6779 72.6600 153.00 158.56 12.37
6780 72.6700 151.00 158.09 12.29
6781 72.6800 155.00 157.75 12.45
6782 72.6900 126.00 157.56 11.23
6783 72.7000 142.00 157.49 11.92
6784 72.7100 159.00 157.56 12.61
6785 72.7200 147.00 157.79 12.12
6786 72.7300 135.00 158.18 11.62
6787 72.7400 167.00 158.74 12.92
6788 72.7500 156.00 159.47 12.49
6789 72.7600 160.00 160.38 12.65
6790 72.7700 181.00 161.38 13.45
6791 72.7800 150.00 162.66 12.25
6792 72.7900 163.00 164.13 12.77
6793 72.8000 156.00 165.83 12.49
6794 72.8100 166.00 167.77 12.88
6795 72.8200 168.00 168.38 12.96
6796 72.8300 196.00 170.90 14.00
6797 72.8400 170.00 173.77 13.04
6798 72.8500 180.00 177.01 13.42
6799 72.8600 204.00 180.68 14.28
6800 72.8700 207.00 184.82 14.39
6801 72.8800 201.00 189.46 14.18
6802 72.8900 169.00 194.64 13.00
6803 72.9000 172.00 200.37 13.11
6804 72.9100 192.00 206.70 13.86
6805 72.9200 188.00 213.62 13.71
6806 72.9300 226.00 221.14 15.03
6807 72.9400 248.00 229.25 15.75
6808 72.9500 231.00 237.92 15.20
6809 72.9600 246.00 247.14 15.68
6810 72.9700 262.00 256.79 16.19
6811 72.9800 257.00 266.76 16.03
6812 72.9900 273.00 276.81 16.52
6813 73.0000 316.00 286.57 17.78
6814 73.0100 314.00 295.61 17.72
6815 73.0200 327.00 303.31 18.08
6816 73.0300 292.00 309.06 17.09
6817 73.0400 317.00 312.28 17.80
6818 73.0500 280.00 312.58 16.73
6819 73.0600 306.00 309.84 17.49
6820 73.0700 307.00 304.21 17.52
6821 73.0800 279.00 296.19 16.70
6822 73.0900 264.00 286.38 16.25
6823 73.1000 261.00 275.46 16.16
6824 73.1100 239.00 264.04 15.46
6825 73.1200 266.00 252.62 16.31
6826 73.1300 212.00 241.59 14.56
6827 73.1400 244.00 231.20 15.62
6828 73.1500 210.00 221.62 14.49
6829 73.1600 197.00 212.94 14.04
6830 73.1700 199.00 205.18 14.11
6831 73.1800 185.00 198.33 13.60
6832 73.1900 176.00 192.34 13.27
6833 73.2000 177.00 187.16 13.30
6834 73.2100 175.00 182.69 13.23
6835 73.2200 160.00 178.85 12.65
6836 73.2300 174.00 175.52 13.19
6837 73.2400 160.00 172.60 12.65
6838 73.2500 146.00 169.98 12.08
6839 73.2600 137.00 167.55 11.70
6840 73.2700 133.00 165.27 11.53
6841 73.2800 134.00 163.09 11.58
6842 73.2900 159.00 161.00 12.61
6843 73.3000 142.00 159.02 11.92
6844 73.3100 153.00 157.19 12.37
6845 73.3200 146.00 155.53 12.08
6846 73.3300 143.00 154.08 11.96
6847 73.3400 145.00 152.85 12.04
6848 73.3500 156.00 151.88 12.49
6849 73.3600 139.00 151.17 11.79
6850 73.3700 161.00 150.71 12.69
6851 73.3800 151.00 150.52 12.29
6852 73.3900 153.00 150.59 12.37
6853 73.4000 134.00 150.67 11.58
6854 73.4100 145.00 151.19 12.04
6855 73.4200 132.00 151.89 11.49
6856 73.4300 130.00 152.72 11.40
6857 73.4400 134.00 153.62 11.58
6858 73.4500 147.00 154.52 12.12
6859 73.4600 153.00 155.33 12.37
6860 73.4700 159.00 155.99 12.61
6861 73.4800 133.00 156.46 11.53
6862 73.4900 121.00 156.71 11.00
6863 73.5000 138.00 156.80 11.75
6864 73.5100 145.00 156.73 12.04
6865 73.5200 136.00 156.61 11.66
6866 73.5300 155.00 156.50 12.45
6867 73.5400 155.00 156.49 12.45
6868 73.5500 145.00 156.63 12.04
6869 73.5600 146.00 156.96 12.08
6870 73.5700 145.00 157.48 12.04
6871 73.5800 176.00 158.22 13.27
6872 73.5900 162.00 159.16 12.73
6873 73.6000 148.00 160.29 12.17
6874 73.6100 163.00 161.59 12.77
6875 73.6200 177.00 163.04 13.30
6876 73.6300 145.00 164.62 12.04
6877 73.6400 160.00 166.32 12.65
6878 73.6500 156.00 168.13 12.49
6879 73.6600 167.00 170.05 12.92
6880 73.6700 174.00 172.11 13.19
6881 73.6800 174.00 174.36 13.19
6882 73.6900 181.00 176.88 13.45
6883 73.7000 197.00 179.76 14.04
6884 73.7100 178.00 183.14 13.34
6885 73.7200 185.00 187.14 13.60
6886 73.7300 213.00 191.90 14.59
6887 73.7400 201.00 197.53 14.18
6888 73.7500 214.00 204.20 14.63
6889 73.7600 230.00 212.02 15.17
6890 73.7700 224.00 221.11 14.97
6891 73.7800 243.00 231.58 15.59
6892 73.7900 260.00 243.53 16.12
6893 73.8000 260.00 257.06 16.12
6894 73.8100 280.00 272.18 16.73
6895 73.8200 291.00 288.90 17.06
6896 73.8300 331.00 307.18 18.19
6897 73.8400 367.00 326.80 19.16
6898 73.8500 356.00 347.55 18.87
6899 73.8600 393.00 368.71 19.82
6900 73.8700 432.00 389.65 20.78
6901 73.8800 437.00 409.41 20.90
6902 73.8900 437.00 426.75 20.90
6903 73.9000 443.00 440.41 21.05
6904 73.9100 448.00 449.23 21.17
6905 73.9200 488.00 452.33 22.09
6906 73.9300 470.00 449.41 21.68
6907 73.9400 464.00 440.77 21.54
6908 73.9500 425.00 427.27 20.62
6909 73.9600 465.00 410.06 21.56
6910 73.9700 409.00 390.47 20.22
6911 73.9800 381.00 368.96 19.52
6912 73.9900 379.00 347.90 19.47
6913 74.0000 358.00 327.38 18.92
6914 74.0100 298.00 307.87 17.26
6915 74.0200 302.00 289.69 17.38
6916 74.0300 281.00 273.05 16.76
6917 74.0400 265.00 258.00 16.28
6918 74.0500 268.00 244.52 16.37
6919 74.0600 240.00 232.59 15.49
6920 74.0700 206.00 222.12 14.35
6921 74.0800 218.00 213.00 14.76
6922 74.0900 239.00 205.14 15.46
6923 74.1000 219.00 198.41 14.80
6924 74.1100 199.00 192.70 14.11
6925 74.1200 199.00 187.90 14.11
6926 74.1300 195.00 183.90 13.96
6927 74.1400 218.00 180.62 14.76
6928 74.1500 204.00 177.97 14.28
6929 74.1600 203.00 175.87 14.25
6930 74.1700 153.00 174.25 12.37
6931 74.1800 170.00 173.04 13.04
6932 74.1900 193.00 172.20 13.89
6933 74.2000 165.00 171.69 12.85
6934 74.2100 187.00 171.48 13.67
6935 74.2200 175.00 171.58 13.23
6936 74.2300 179.00 171.97 13.38
6937 74.2400 189.00 172.66 13.75
6938 74.2500 191.00 173.66 13.82
6939 74.2600 163.00 174.96 12.77
6940 74.2700 210.00 176.58 14.49
6941 74.2800 177.00 178.48 13.30
6942 74.2900 188.00 180.66 13.71
6943 74.3000 168.00 183.09 12.96
6944 74.3100 189.00 185.72 13.75
6945 74.3200 192.00 188.51 13.86
6946 74.3300 196.00 191.40 14.00
6947 74.3400 198.00 194.34 14.07
6948 74.3500 181.00 197.30 13.45
6949 74.3600 213.00 200.27 14.59
6950 74.3700 193.00 203.29 13.89
6951 74.3800 188.00 206.38 13.71
6952 74.3900 210.00 209.61 14.49
6953 74.4000 227.00 213.03 15.07
6954 74.4100 203.00 216.68 14.25
6955 74.4200 229.00 220.58 15.13
6956 74.4300 203.00 224.74 14.25
6957 74.4400 207.00 229.14 14.39
6958 74.4500 245.00 233.75 15.65
6959 74.4600 243.00 238.50 15.59
6960 74.4700 281.00 243.31 16.76
6961 74.4800 276.00 248.11 16.61
6962 74.4900 268.00 252.78 16.37
6963 74.5000 285.00 257.20 16.88
6964 74.5100 279.00 261.25 16.70
6965 74.5200 304.00 264.79 17.44
6966 74.5300 318.00 267.71 17.83
6967 74.5400 314.00 269.88 17.72
6968 74.5500 310.00 271.24 17.61
6969 74.5600 338.00 271.72 18.38
6970 74.5700 339.00 271.30 18.41
6971 74.5800 339.00 270.03 18.41
6972 74.5900 289.00 267.93 17.00
6973 74.6000 342.00 265.12 18.49
6974 74.6100 290.00 261.71 17.03
6975 74.6200 293.00 257.81 17.12
6976 74.6300 300.00 253.55 17.32
6977 74.6400 270.00 249.07 16.43
6978 74.6500 290.00 244.46 17.03
6979 74.6600 263.00 239.82 16.22
6980 74.6700 263.00 235.19 16.22
6981 74.6800 223.00 230.76 14.93
6982 74.6900 214.00 226.23 14.63
6983 74.7000 207.00 221.70 14.39
6984 74.7100 225.00 217.11 15.00
6985 74.7200 199.00 212.41 14.11
6986 74.7300 181.00 207.52 13.45
6987 74.7400 168.00 202.43 12.96
6988 74.7500 177.00 197.15 13.30
6989 74.7600 179.00 191.75 13.38
6990 74.7700 176.00 186.30 13.27
6991 74.7800 164.00 180.90 12.81
6992 74.7900 154.00 175.66 12.41
6993 74.8000 176.00 170.63 13.27
6994 74.8100 164.00 165.89 12.81
6995 74.8200 149.00 161.47 12.21
6996 74.8300 158.00 157.37 12.57
6997 74.8400 136.00 153.61 11.66
6998 74.8500 156.00 150.19 12.49
6999 74.8600 123.00 147.09 11.09
7000 74.8700 144.00 144.30 12.00
7001 74.8800 134.00 141.78 11.58
7002 74.8900 135.00 139.53 11.62
7003 74.9000 162.00 137.51 12.73
7004 74.9100 138.00 135.71 11.75
7005 74.9200 131.00 134.08 11.45
7006 74.9300 128.00 132.59 11.31
7007 74.9400 126.00 131.27 11.23
7008 74.9500 108.00 130.07 10.39
7009 74.9600 121.00 128.98 11.00
7010 74.9700 107.00 127.99 10.34
7011 74.9800 143.00 127.10 11.96
7012 74.9900 135.00 126.29 11.62
7013 75.0000 127.00 125.57 11.27
7014 75.0100 127.00 124.93 11.27
7015 75.0200 126.00 124.36 11.23
7016 75.0300 112.00 123.86 10.58
7017 75.0400 128.00 123.43 11.31
7018 75.0500 123.00 123.07 11.09
7019 75.0600 132.00 122.76 11.49
7020 75.0700 123.00 122.51 11.09
7021 75.0800 127.00 122.31 11.27
7022 75.0900 121.00 122.17 11.00
7023 75.1000 124.00 122.09 11.14
7024 75.1100 115.00 122.05 10.72
7025 75.1200 122.00 122.07 11.05
7026 75.1300 125.00 122.14 11.18
7027 75.1400 123.00 122.26 11.09
7028 75.1500 139.00 122.44 11.79
7029 75.1600 132.00 122.68 11.49
7030 75.1700 142.00 122.97 11.92
7031 75.1800 133.00 123.38 11.53
7032 75.1900 128.00 123.79 11.31
7033 75.2000 147.00 124.28 12.12
7034 75.2100 140.00 124.83 11.83
7035 75.2200 136.00 125.46 11.66
7036 75.2300 123.00 126.18 11.09
7037 75.2400 146.00 126.98 12.08
7038 75.2500 125.00 127.87 11.18
7039 75.2600 135.00 128.88 11.62
7040 75.2700 147.00 129.95 12.12
7041 75.2800 136.00 131.21 11.66
7042 75.2900 140.00 132.61 11.83
7043 75.3000 158.00 134.18 12.57
7044 75.3100 136.00 135.92 11.66
7045 75.3200 145.00 137.85 12.04
7046 75.3300 161.00 140.00 12.69
7047 75.3400 146.00 142.37 12.08
7048 75.3500 150.00 144.99 12.25
7049 75.3600 175.00 147.87 13.23
7050 75.3700 188.00 151.04 13.71
7051 75.3800 160.00 154.52 12.65
7052 75.3900 176.00 158.32 13.27
7053 75.4000 176.00 162.46 13.27
7054 75.4100 164.00 166.96 12.81
7055 75.4200 165.00 171.84 12.85
7056 75.4300 176.00 177.11 13.27
7057 75.4400 178.00 182.75 13.34
7058 75.4500 209.00 188.84 14.46
7059 75.4600 185.00 195.34 13.60
7060 75.4700 219.00 202.25 14.80
7061 75.4800 223.00 209.57 14.93
7062 75.4900 226.00 217.26 15.03
7063 75.5000 238.00 225.30 15.43
7064 75.5100 252.00 233.65 15.87
7065 75.5200 267.00 242.25 16.34
7066 75.5300 270.00 251.03 16.43
7067 75.5400 304.00 259.86 17.44
7068 75.5500 311.00 268.64 17.64
7069 75.5600 308.00 277.21 17.55
7070 75.5700 314.00 285.41 17.72
7071 75.5800 330.00 293.04 18.17
7072 75.5900 335.00 299.87 18.30
7073 75.6000 374.00 305.69 19.34
7074 75.6100 376.00 310.29 19.39
7075 75.6200 369.00 313.51 19.21
7076 75.6300 372.00 315.23 19.29
7077 75.6400 356.00 315.44 18.87
7078 75.6500 355.00 314.17 18.84
7079 75.6600 380.00 311.41 19.49
7080 75.6700 347.00 307.66 18.63
7081 75.6800 339.00 302.99 18.41
7082 75.6900 295.00 297.61 17.18
7083 75.7000 317.00 291.73 17.80
7084 75.7100 303.00 285.54 17.41
7085 75.7200 327.00 279.16 18.08
7086 75.7300 295.00 272.69 17.18
7087 75.7400 258.00 266.17 16.06
7088 75.7500 250.00 259.62 15.81
7089 75.7600 244.00 252.99 15.62
7090 75.7700 254.00 246.27 15.94
7091 75.7800 219.00 239.41 14.80
7092 75.7900 230.00 232.41 15.17
7093 75.8000 215.00 225.32 14.66
7094 75.8100 204.00 218.17 14.28
7095 75.8200 201.00 211.05 14.18
7096 75.8300 196.00 204.03 14.00
7097 75.8400 190.00 197.22 13.78
7098 75.8500 197.00 190.70 14.04
7099 75.8600 161.00 184.55 12.69
7100 75.8700 161.00 178.81 12.69
7101 75.8800 144.00 173.51 12.00
7102 75.8900 163.00 168.65 12.77
7103 75.9000 165.00 164.23 12.85
7104 75.9100 170.00 160.21 13.04
7105 75.9200 158.00 156.56 12.57
7106 75.9300 155.00 153.24 12.45
7107 75.9400 157.00 150.20 12.53
7108 75.9500 164.00 147.39 12.81
7109 75.9600 152.00 144.79 12.33
7110 75.9700 145.00 142.37 12.04
7111 75.9800 132.00 140.12 11.49
7112 75.9900 127.00 138.05 11.27
7113 76.0000 137.00 136.15 11.70
7114 76.0100 115.00 134.43 10.72
7115 76.0200 138.00 132.89 11.75
7116 76.0300 129.00 131.54 11.36
7117 76.0400 143.00 130.37 11.96
7118 76.0500 125.00 129.38 11.18
7119 76.0600 119.00 128.57 10.91
7120 76.0700 128.00 127.93 11.31
7121 76.0800 141.00 127.44 11.87
7122 76.0900 128.00 127.11 11.31
7123 76.1000 132.00 126.92 11.49
7124 76.1100 126.00 126.86 11.23
7125 76.1200 137.00 126.92 11.70
7126 76.1300 124.00 127.08 11.14
7127 76.1400 133.00 127.35 11.53
7128 76.1500 118.00 127.70 10.86
7129 76.1600 125.00 128.13 11.18
7130 76.1700 136.00 128.63 11.66
7131 76.1800 116.00 129.19 10.77
7132 76.1900 143.00 129.77 11.96
7133 76.2000 120.00 130.34 10.95
7134 76.2100 146.00 130.86 12.08
7135 76.2200 146.00 131.26 12.08
7136 76.2300 124.00 131.49 11.14
7137 76.2400 140.00 131.49 11.83
7138 76.2500 128.00 131.31 11.31
7139 76.2600 122.00 130.75 11.05
7140 76.2700 128.00 129.90 11.31
7141 76.2800 130.00 128.81 11.40
7142 76.2900 125.00 127.51 11.18
7143 76.3000 119.00 126.07 10.91
7144 76.3100 116.00 124.55 10.77
7145 76.3200 120.00 122.86 10.95
7146 76.3300 119.00 121.33 10.91
7147 76.3400 114.00 119.85 10.68
7148 76.3500 122.00 118.44 11.05
7149 76.3600 111.00 117.12 10.54
7150 76.3700 121.00 115.91 11.00
7151 76.3800 119.00 114.81 10.91
7152 76.3900 112.00 113.80 10.58
7153 76.4000 105.00 112.89 10.25
7154 76.4100 95.00 112.09 9.75
7155 76.4200 99.00 111.38 9.95
7156 76.4300 96.00 110.75 9.80
7157 76.4400 115.00 110.20 10.72
7158 76.4500 130.00 109.74 11.40
7159 76.4600 109.00 109.33 10.44
7160 76.4700 111.00 109.02 10.54
7161 76.4800 115.00 108.78 10.72
7162 76.4900 115.00 108.60 10.72
7163 76.5000 110.00 108.50 10.49
7164 76.5100 105.00 108.47 10.25
7165 76.5200 104.00 108.52 10.20
7166 76.5300 98.00 108.63 9.90
7167 76.5400 102.00 108.83 10.10
7168 76.5500 114.00 109.10 10.68
7169 76.5600 122.00 109.47 11.05
7170 76.5700 104.00 109.93 10.20
7171 76.5800 94.00 110.49 9.70
7172 76.5900 120.00 111.16 10.95
7173 76.6000 125.00 111.95 11.18
7174 76.6100 110.00 112.88 10.49
7175 76.6200 113.00 113.93 10.63
7176 76.6300 118.00 115.14 10.86
7177 76.6400 129.00 116.50 11.36
7178 76.6500 108.00 118.02 10.39
7179 76.6600 115.00 119.68 10.72
7180 76.6700 115.00 121.53 10.72
7181 76.6800 133.00 123.54 11.53
7182 76.6900 131.00 125.72 11.45
7183 76.7000 128.00 128.06 11.31
7184 76.7100 143.00 130.56 11.96
7185 76.7200 128.00 133.18 11.31
7186 76.7300 140.00 135.89 11.83
7187 76.7400 130.00 138.61 11.40
7188 76.7500 139.00 141.24 11.79
7189 76.7600 156.00 143.66 12.49
7190 76.7700 143.00 145.70 11.96
7191 76.7800 156.00 147.20 12.49
7192 76.7900 144.00 148.02 12.00
7193 76.8000 150.00 148.09 12.25
7194 76.8100 146.00 147.40 12.08
7195 76.8200 146.00 146.01 12.08
7196 76.8300 149.00 144.05 12.21
7197 76.8400 124.00 141.70 11.14
7198 76.8500 136.00 139.11 11.66
7199 76.8600 141.00 136.43 11.87
7200 76.8700 149.00 133.78 12.21
7201 76.8800 154.00 131.29 12.41
7202 76.8900 130.00 128.99 11.40
7203 76.9000 136.00 126.93 11.66
7204 76.9100 118.00 125.14 10.86
7205 76.9200 108.00 123.63 10.39
7206 76.9300 119.00 122.42 10.91
7207 76.9400 141.00 121.50 11.87
7208 76.9500 105.00 120.88 10.25
7209 76.9600 113.00 120.56 10.63
7210 76.9700 128.00 120.55 11.31
7211 76.9800 123.00 120.85 11.09
7212 76.9900 108.00 121.47 10.39
7213 77.0000 131.00 122.41 11.45
7214 77.0100 132.00 123.68 11.49
7215 77.0200 141.00 125.28 11.87
7216 77.0300 138.00 127.24 11.75
7217 77.0400 137.00 129.53 11.70
7218 77.0500 154.00 132.18 12.41
7219 77.0600 148.00 135.17 12.17
7220 77.0700 141.00 138.47 11.87
7221 77.0800 150.00 142.05 12.25
7222 77.0900 135.00 145.84 11.62
7223 77.1000 150.00 149.73 12.25
7224 77.1100 174.00 153.58 13.19
7225 77.1200 184.00 157.20 13.56
7226 77.1300 154.00 160.37 12.41
7227 77.1400 173.00 162.86 13.15
7228 77.1500 168.00 164.44 12.96
7229 77.1600 182.00 164.97 13.49
7230 77.1700 178.00 164.13 13.34
7231 77.1800 175.00 162.51 13.23
7232 77.1900 168.00 159.99 12.96
7233 77.2000 152.00 156.78 12.33
7234 77.2100 157.00 153.13 12.53
7235 77.2200 149.00 149.26 12.21
7236 77.2300 153.00 145.33 12.37
7237 77.2400 142.00 141.50 11.92
7238 77.2500 158.00 137.86 12.57
7239 77.2600 145.00 134.47 12.04
7240 77.2700 128.00 131.36 11.31
7241 77.2800 138.00 128.56 11.75
7242 77.2900 131.00 126.07 11.45
7243 77.3000 127.00 123.88 11.27
7244 77.3100 109.00 121.98 10.44
7245 77.3200 109.00 120.37 10.44
7246 77.3300 105.00 119.03 10.25
7247 77.3400 110.00 117.94 10.49
7248 77.3500 113.00 117.10 10.63
7249 77.3600 112.00 116.48 10.58
7250 77.3700 96.00 116.08 9.80
7251 77.3800 117.00 115.89 10.82
7252 77.3900 121.00 115.89 11.00
7253 77.4000 104.00 116.06 10.20
7254 77.4100 110.00 116.39 10.49
7255 77.4200 126.00 116.87 11.23
7256 77.4300 125.00 117.46 11.18
7257 77.4400 138.00 118.15 11.75
7258 77.4500 104.00 118.89 10.20
7259 77.4600 113.00 119.65 10.63
7260 77.4700 104.00 120.39 10.20
7261 77.4800 112.00 121.05 10.58
7262 77.4900 116.00 121.58 10.77
7263 77.5000 96.00 121.93 9.80
7264 77.5100 137.00 122.06 11.70
7265 77.5200 128.00 121.98 11.31
7266 77.5300 125.00 121.70 11.18
7267 77.5400 107.00 121.25 10.34
7268 77.5500 118.00 120.68 10.86
7269 77.5600 99.00 120.06 9.95
7270 77.5700 111.00 119.44 10.54
7271 77.5800 120.00 118.88 10.95
7272 77.5900 130.00 118.41 11.40
7273 77.6000 108.00 118.06 10.39
7274 77.6100 129.00 117.85 11.36
7275 77.6200 113.00 117.79 10.63
7276 77.6300 118.00 117.90 10.86
7277 77.6400 110.00 118.19 10.49
7278 77.6500 116.00 118.67 10.77
7279 77.6600 103.00 119.33 10.15
7280 77.6700 121.00 120.20 11.00
7281 77.6800 129.00 121.27 11.36
7282 77.6900 123.00 122.56 11.09
7283 77.7000 122.00 124.08 11.05
7284 77.7100 118.00 125.83 10.86
7285 77.7200 153.00 127.83 12.37
7286 77.7300 138.00 130.09 11.75
7287 77.7400 136.00 132.62 11.66
7288 77.7500 139.00 135.45 11.79
7289 77.7600 153.00 138.57 12.37
7290 77.7700 157.00 142.02 12.53
7291 77.7800 160.00 145.80 12.65
7292 77.7900 157.00 149.91 12.53
7293 77.8000 170.00 154.37 13.04
7294 77.8100 162.00 159.16 12.73
7295 77.8200 168.00 164.29 12.96
7296 77.8300 195.00 169.72 13.96
7297 77.8400 206.00 175.44 14.35
7298 77.8500 190.00 181.41 13.78
7299 77.8600 201.00 187.60 14.18
7300 77.8700 209.00 194.00 14.46
7301 77.8800 241.00 200.59 15.52
7302 77.8900 223.00 207.40 14.93
7303 77.9000 239.00 214.48 15.46
7304 77.9100 252.00 221.87 15.87
7305 77.9200 251.00 229.64 15.84
7306 77.9300 264.00 237.84 16.25
7307 77.9400 298.00 246.45 17.26
7308 77.9500 271.00 255.41 16.46
7309 77.9600 307.00 264.63 17.52
7310 77.9700 296.00 273.60 17.20
7311 77.9800 296.00 282.00 17.20
7312 77.9900 300.00 289.28 17.32
7313 78.0000 319.00 294.83 17.86
7314 78.0100 321.00 298.10 17.92
7315 78.0200 319.00 298.67 17.86
7316 78.0300 315.00 296.36 17.75
7317 78.0400 335.00 291.28 18.30
7318 78.0500 318.00 283.81 17.83
7319 78.0600 295.00 274.46 17.18
7320 78.0700 284.00 263.86 16.85
7321 78.0800 264.00 252.51 16.25
7322 78.0900 258.00 240.89 16.06
7323 78.1000 250.00 229.35 15.81
7324 78.1100 272.00 218.14 16.49
7325 78.1200 243.00 207.40 15.59
7326 78.1300 215.00 197.26 14.66
7327 78.1400 221.00 187.78 14.87
7328 78.1500 203.00 179.01 14.25
7329 78.1600 174.00 170.97 13.19
7330 78.1700 202.00 163.65 14.21
7331 78.1800 163.00 157.08 12.77
7332 78.1900 165.00 151.15 12.85
7333 78.2000 160.00 145.87 12.65
7334 78.2100 157.00 141.18 12.53
7335 78.2200 157.00 137.04 12.53
7336 78.2300 162.00 133.38 12.73
7337 78.2400 139.00 130.17 11.79
7338 78.2500 148.00 127.36 12.17
7339 78.2600 136.00 124.89 11.66
7340 78.2700 128.00 122.74 11.31
7341 78.2800 116.00 120.87 10.77
7342 78.2900 125.00 119.25 11.18
7343 78.3000 122.00 117.85 11.05
7344 78.3100 117.00 116.65 10.82
7345 78.3200 118.00 115.62 10.86
7346 78.3300 128.00 114.76 11.31
7347 78.3400 135.00 114.05 11.62
7348 78.3500 122.00 113.48 11.05
7349 78.3600 135.00 113.04 11.62
7350 78.3700 133.00 112.72 11.53
7351 78.3800 125.00 112.52 11.18
7352 78.3900 135.00 112.43 11.62
7353 78.4000 98.00 112.45 9.90
7354 78.4100 118.00 112.57 10.86
7355 78.4200 120.00 112.80 10.95
7356 78.4300 127.00 113.12 11.27
7357 78.4400 115.00 113.55 10.72
7358 78.4500 124.00 114.06 11.14
7359 78.4600 111.00 114.66 10.54
7360 78.4700 114.00 115.34 10.68
7361 78.4800 111.00 116.09 10.54
7362 78.4900 123.00 116.89 11.09
7363 78.5000 125.00 117.74 11.18
7364 78.5100 111.00 118.63 10.54
7365 78.5200 118.00 119.54 10.86
7366 78.5300 125.00 120.45 11.18
7367 78.5400 122.00 121.34 11.05
7368 78.5500 111.00 122.22 10.54
7369 78.5600 130.00 123.05 11.40
7370 78.5700 122.00 123.84 11.05
7371 78.5800 127.00 124.57 11.27
7372 78.5900 124.00 125.23 11.14
7373 78.6000 153.00 125.79 12.37
7374 78.6100 138.00 126.25 11.75
7375 78.6200 125.00 126.59 11.18
7376 78.6300 139.00 126.78 11.79
7377 78.6400 122.00 126.83 11.05
7378 78.6500 124.00 126.71 11.14
7379 78.6600 131.00 126.42 11.45
7380 78.6700 153.00 125.97 12.37
7381 78.6800 129.00 125.36 11.36
7382 78.6900 139.00 124.61 11.79
7383 78.7000 128.00 123.73 11.31
7384 78.7100 125.00 122.73 11.18
7385 78.7200 140.00 121.64 11.83
7386 78.7300 140.00 120.47 11.83
7387 78.7400 141.00 119.24 11.87
7388 78.7500 126.00 117.98 11.23
7389 78.7600 137.00 116.68 11.70
7390 78.7700 99.00 115.38 9.95
7391 78.7800 111.00 114.08 10.54
7392 78.7900 99.00 112.80 9.95
7393 78.8000 110.00 111.55 10.49
7394 78.8100 99.00 110.33 9.95
7395 78.8200 109.00 109.16 10.44
7396 78.8300 112.00 108.04 10.58
7397 78.8400 101.00 106.97 10.05
7398 78.8500 121.00 105.95 11.00
7399 78.8600 117.00 105.00 10.82
7400 78.8700 99.00 104.10 9.95
7401 78.8800 102.00 103.26 10.10
7402 78.8900 124.00 102.47 11.14
7403 78.9000 103.00 101.72 10.15
7404 78.9100 100.00 101.05 10.00
7405 78.9200 104.00 100.43 10.20
7406 78.9300 110.00 99.86 10.49
7407 78.9400 99.00 99.34 9.95
7408 78.9500 100.00 98.86 10.00
7409 78.9600 98.00 98.44 9.90
7410 78.9700 90.00 98.06 9.49
7411 78.9800 115.00 97.73 10.72
7412 78.9900 97.00 97.44 9.85
7413 79.0000 94.00 97.19 9.70
7414 79.0100 95.00 96.98 9.75
7415 79.0200 108.00 96.81 10.39
7416 79.0300 98.00 96.68 9.90
7417 79.0400 95.00 96.58 9.75
7418 79.0500 103.00 96.52 10.15
7419 79.0600 94.00 96.51 9.70
7420 79.0700 91.00 96.52 9.54
7421 79.0800 103.00 96.59 10.15
7422 79.0900 122.00 96.69 11.05
7423 79.1000 95.00 96.85 9.75
7424 79.1100 94.00 97.05 9.70
7425 79.1200 100.00 97.30 10.00
7426 79.1300 121.00 97.60 11.00
7427 79.1400 115.00 97.96 10.72
7428 79.1500 92.00 98.38 9.59
7429 79.1600 94.00 98.87 9.70
7430 79.1700 100.00 99.43 10.00
7431 79.1800 107.00 100.06 10.34
7432 79.1900 90.00 100.77 9.49
7433 79.2000 99.00 101.57 9.95
7434 79.2100 100.00 102.46 10.00
7435 79.2200 103.00 103.44 10.15
7436 79.2300 106.00 104.51 10.30
7437 79.2400 101.00 105.68 10.05
7438 79.2500 120.00 106.94 10.95
7439 79.2600 107.00 108.55 10.34
7440 79.2700 102.00 109.98 10.10
7441 79.2800 96.00 111.48 9.80
7442 79.2900 119.00 113.02 10.91
7443 79.3000 108.00 114.59 10.39
7444 79.3100 111.00 116.17 10.54
7445 79.3200 119.00 117.71 10.91
7446 79.3300 140.00 119.21 11.83
7447 79.3400 121.00 120.61 11.00
7448 79.3500 113.00 121.89 10.63
7449 79.3600 127.00 123.00 11.27
7450 79.3700 113.00 123.92 10.63
7451 79.3800 121.00 124.58 11.00
7452 79.3900 107.00 124.95 10.34
7453 79.4000 106.00 125.01 10.30
7454 79.4100 105.00 124.73 10.25
7455 79.4200 117.00 124.12 10.82
7456 79.4300 130.00 123.19 11.40
7457 79.4400 132.00 122.00 11.49
7458 79.4500 112.00 120.58 10.58
7459 79.4600 127.00 119.00 11.27
7460 79.4700 111.00 117.33 10.54
7461 79.4800 118.00 115.61 10.86
7462 79.4900 105.00 113.89 10.25
7463 79.5000 101.00 112.23 10.05
7464 79.5100 112.00 110.64 10.58
7465 79.5200 114.00 109.15 10.68
7466 79.5300 85.00 107.77 9.22
7467 79.5400 87.00 106.51 9.33
7468 79.5500 112.00 105.38 10.58
7469 79.5600 111.00 104.38 10.54
7470 79.5700 95.00 103.51 9.75
7471 79.5800 108.00 102.76 10.39
7472 79.5900 100.00 102.14 10.00
7473 79.6000 105.00 101.64 10.25
7474 79.6100 103.00 101.25 10.15
7475 79.6200 92.00 100.97 9.59
7476 79.6300 97.00 100.81 9.85
7477 79.6400 106.00 100.75 10.30
7478 79.6500 102.00 100.81 10.10
7479 79.6600 105.00 100.96 10.25
7480 79.6700 89.00 101.22 9.43
7481 79.6800 109.00 101.57 10.44
7482 79.6900 86.00 102.02 9.27
7483 79.7000 111.00 102.56 10.54
7484 79.7100 119.00 103.17 10.91
7485 79.7200 93.00 103.85 9.64
7486 79.7300 94.00 104.58 9.70
7487 79.7400 102.00 105.33 10.10
7488 79.7500 105.00 106.07 10.25
7489 79.7600 99.00 106.77 9.95
7490 79.7700 105.00 107.37 10.25
7491 79.7800 102.00 107.85 10.10
7492 79.7900 132.00 108.08 11.49
7493 79.8000 118.00 108.24 10.86
7494 79.8100 111.00 108.25 10.54
7495 79.8200 112.00 108.13 10.58
7496 79.8300 106.00 107.90 10.30
7497 79.8400 96.00 107.62 9.80
7498 79.8500 99.00 107.31 9.95
7499 79.8600 100.00 107.00 10.00
7500 79.8700 91.00 106.71 9.54
7501 79.8800 111.00 106.46 10.54
7502 79.8900 121.00 106.25 11.00
7503 79.9000 101.00 106.06 10.05
7504 79.9100 90.00 105.92 9.49
7505 79.9200 109.00 105.80 10.44
7506 79.9300 112.00 105.70 10.58
7507 79.9400 114.00 105.61 10.68
7508 79.9500 99.00 105.53 9.95
7509 79.9600 106.00 105.44 10.30
7510 79.9700 108.00 105.38 10.39
7511 79.9800 101.00 105.34 10.05
7512 79.9900 82.00 105.34 9.06
7513 80.0000 96.00 105.40 9.80
7514 80.0100 92.00 105.54 9.59
7515 80.0200 99.00 105.75 9.95
7516 80.0300 109.00 106.06 10.44
7517 80.0400 111.00 106.46 10.54
7518 80.0500 99.00 106.97 9.95
7519 80.0600 112.00 107.60 10.58
7520 80.0700 100.00 108.33 10.00
7521 80.0800 108.00 109.18 10.39
7522 80.0900 117.00 110.14 10.82
7523 80.1000 99.00 111.18 9.95
7524 80.1100 129.00 112.38 11.36
7525 80.1200 103.00 113.69 10.15
7526 80.1300 114.00 115.11 10.68
7527 80.1400 119.00 116.66 10.91
7528 80.1500 104.00 118.34 10.20
7529 80.1600 137.00 120.15 11.70
7530 80.1700 124.00 122.10 11.14
7531 80.1800 127.00 124.19 11.27
7532 80.1900 118.00 126.43 10.86
7533 80.2000 128.00 128.81 11.31
7534 80.2100 125.00 131.33 11.18
7535 80.2200 151.00 133.98 12.29
7536 80.2300 123.00 136.75 11.09
7537 80.2400 129.00 139.62 11.36
7538 80.2500 141.00 142.57 11.87
7539 80.2600 137.00 145.56 11.70
7540 80.2700 152.00 148.57 12.33
7541 80.2800 139.00 151.54 11.79
7542 80.2900 145.00 154.43 12.04
7543 80.3000 157.00 157.17 12.53
7544 80.3100 147.00 159.71 12.12
7545 80.3200 165.00 161.97 12.85
7546 80.3300 138.00 163.90 11.75
7547 80.3400 155.00 165.42 12.45
7548 80.3500 146.00 166.49 12.08
7549 80.3600 146.00 167.06 12.08
7550 80.3700 154.00 167.11 12.41
7551 80.3800 174.00 166.65 13.19
7552 80.3900 187.00 165.68 13.67
7553 80.4000 162.00 164.25 12.73
7554 80.4100 185.00 162.40 13.60
7555 80.4200 143.00 160.19 11.96
7556 80.4300 146.00 157.68 12.08
7557 80.4400 143.00 154.95 11.96
7558 80.4500 143.00 152.05 11.96
7559 80.4600 128.00 149.04 11.31
7560 80.4700 120.00 145.98 10.95
7561 80.4800 112.00 142.85 10.58
7562 80.4900 117.00 139.80 10.82
7563 80.5000 112.00 136.82 10.58
7564 80.5100 118.00 133.90 10.86
7565 80.5200 142.00 131.09 11.92
7566 80.5300 124.00 128.39 11.14
7567 80.5400 118.00 125.83 10.86
7568 80.5500 125.00 123.39 11.18
7569 80.5600 117.00 121.09 10.82
7570 80.5700 115.00 118.94 10.72
7571 80.5800 99.00 116.92 9.95
7572 80.5900 118.00 115.05 10.86
7573 80.6000 93.00 113.32 9.64
7574 80.6100 91.00 111.72 9.54
7575 80.6200 106.00 110.25 10.30
7576 80.6300 97.00 108.92 9.85
7577 80.6400 99.00 107.69 9.95
7578 80.6500 92.00 106.58 9.59
7579 80.6600 101.00 105.58 10.05
7580 80.6700 90.00 104.68 9.49
7581 80.6800 88.00 103.88 9.38
7582 80.6900 84.00 103.16 9.17
7583 80.7000 102.00 102.53 10.10
7584 80.7100 107.00 101.98 10.34
7585 80.7200 88.00 101.49 9.38
7586 80.7300 105.00 101.07 10.25
7587 80.7400 95.00 100.71 9.75
7588 80.7500 92.00 100.40 9.59
7589 80.7600 114.00 100.13 10.68
7590 80.7700 115.00 99.91 10.72
7591 80.7800 97.00 99.72 9.85
7592 80.7900 91.00 99.57 9.54
7593 80.8000 106.00 99.46 10.30
7594 80.8100 86.00 99.38 9.27
7595 80.8200 101.00 99.33 10.05
7596 80.8300 103.00 99.31 10.15
7597 80.8400 95.00 99.31 9.75
7598 80.8500 91.00 99.32 9.54
7599 80.8600 103.00 99.36 10.15
7600 80.8700 104.00 99.28 10.20
7601 80.8800 96.00 99.33 9.80
7602 80.8900 94.00 99.37 9.70
7603 80.9000 93.00 99.41 9.64
7604 80.9100 94.00 99.46 9.70
7605 80.9200 93.00 99.51 9.64
7606 80.9300 99.00 99.57 9.95
7607 80.9400 94.00 99.65 9.70
7608 80.9500 111.00 99.75 10.54
7609 80.9600 115.00 99.87 10.72
7610 80.9700 112.00 100.01 10.58
7611 80.9800 89.00 100.18 9.43
7612 80.9900 122.00 100.37 11.05
7613 81.0000 106.00 100.59 10.30
7614 81.0100 93.00 100.84 9.64
7615 81.0200 83.00 101.11 9.11
7616 81.0300 99.00 101.42 9.95
7617 81.0400 105.00 101.77 10.25
7618 81.0500 93.00 102.16 9.64
7619 81.0600 112.00 102.60 10.58
7620 81.0700 102.00 103.10 10.10
7621 81.0800 101.00 103.65 10.05
7622 81.0900 99.00 104.25 9.95
7623 81.1000 105.00 104.91 10.25
7624 81.1100 117.00 105.64 10.82
7625 81.1200 107.00 106.40 10.34
7626 81.1300 125.00 107.19 11.18
7627 81.1400 117.00 108.04 10.82
7628 81.1500 127.00 108.92 11.27
7629 81.1600 123.00 109.88 11.09
7630 81.1700 113.00 110.90 10.63
7631 81.1800 118.00 112.03 10.86
7632 81.1900 124.00 113.29 11.14
7633 81.2000 103.00 114.70 10.15
7634 81.2100 116.00 116.31 10.77
7635 81.2200 116.00 118.15 10.77
7636 81.2300 108.00 120.25 10.39
7637 81.2400 114.00 122.66 10.68
7638 81.2500 136.00 125.40 11.66
7639 81.2600 120.00 128.52 10.95
7640 81.2700 106.00 132.06 10.30
7641 81.2800 142.00 136.05 11.92
7642 81.2900 128.00 140.54 11.31
7643 81.3000 147.00 145.57 12.12
7644 81.3100 138.00 151.15 11.75
7645 81.3200 152.00 157.32 12.33
7646 81.3300 155.00 164.08 12.45
7647 81.3400 158.00 171.41 12.57
7648 81.3500 155.00 179.28 12.45
7649 81.3600 155.00 187.59 12.45
7650 81.3700 169.00 196.21 13.00
7651 81.3800 163.00 204.80 12.77
7652 81.3900 188.00 213.33 13.71
7653 81.4000 208.00 221.31 14.42
7654 81.4100 201.00 228.31 14.18
7655 81.4200 194.00 233.91 13.93
7656 81.4300 193.00 237.70 13.89
7657 81.4400 216.00 239.43 14.70
7658 81.4500 191.00 239.01 13.82
7659 81.4600 220.00 236.54 14.83
7660 81.4700 208.00 232.32 14.42
7661 81.4800 195.00 226.76 13.96
7662 81.4900 175.00 220.31 13.23
7663 81.5000 189.00 213.42 13.75
7664 81.5100 200.00 206.45 14.14
7665 81.5200 174.00 199.71 13.19
7666 81.5300 186.00 193.41 13.64
7667 81.5400 197.00 187.70 14.04
7668 81.5500 153.00 182.65 12.37
7669 81.5600 156.00 178.30 12.49
7670 81.5700 165.00 174.64 12.85
7671 81.5800 175.00 171.64 13.23
7672 81.5900 151.00 169.22 12.29
7673 81.6000 160.00 167.31 12.65
7674 81.6100 145.00 165.80 12.04
7675 81.6200 167.00 164.54 12.92
7676 81.6300 140.00 163.41 11.83
7677 81.6400 151.00 162.25 12.29
7678 81.6500 140.00 160.93 11.83
7679 81.6600 135.00 159.32 11.62
7680 81.6700 151.00 157.35 12.29
7681 81.6800 152.00 155.00 12.33
7682 81.6900 135.00 152.21 11.62
7683 81.7000 119.00 149.09 10.91
7684 81.7100 106.00 145.72 10.30
7685 81.7200 116.00 142.21 10.77
7686 81.7300 106.00 138.67 10.30
7687 81.7400 130.00 135.18 11.40
7688 81.7500 118.00 131.82 10.86
7689 81.7600 131.00 128.63 11.45
7690 81.7700 119.00 125.66 10.91
7691 81.7800 107.00 122.91 10.34
7692 81.7900 98.00 120.41 9.90
7693 81.8000 128.00 118.13 11.31
7694 81.8100 110.00 116.07 10.49
7695 81.8200 121.00 114.24 11.00
7696 81.8300 98.00 112.60 9.90
7697 81.8400 104.00 111.16 10.20
7698 81.8500 107.00 109.88 10.34
7699 81.8600 100.00 108.77 10.00
7700 81.8700 105.00 107.79 10.25
7701 81.8800 118.00 106.93 10.86
7702 81.8900 94.00 106.18 9.70
7703 81.9000 108.00 105.52 10.39
7704 81.9100 94.00 104.93 9.70
7705 81.9200 97.00 104.40 9.85
7706 81.9300 127.00 103.92 11.27
7707 81.9400 118.00 103.47 10.86
7708 81.9500 100.00 103.02 10.00
7709 81.9600 100.00 102.62 10.00
7710 81.9700 112.00 102.24 10.58
7711 81.9800 116.00 101.87 10.77
7712 81.9900 101.00 101.51 10.05
7713 82.0000 103.00 101.16 10.15
7714 82.0100 121.00 100.82 11.00
7715 82.0200 111.00 100.49 10.54
7716 82.0300 86.00 100.18 9.27
7717 82.0400 118.00 99.87 10.86
7718 82.0500 117.00 99.59 10.82
7719 82.0600 106.00 99.32 10.30
7720 82.0700 88.00 99.07 9.38
7721 82.0800 103.00 98.84 10.15
7722 82.0900 117.00 98.64 10.82
7723 82.1000 118.00 98.46 10.86
7724 82.1100 96.00 98.30 9.80
7725 82.1200 89.00 98.17 9.43
7726 82.1300 100.00 98.05 10.00
7727 82.1400 92.00 97.96 9.59
7728 82.1500 96.00 97.89 9.80
7729 82.1600 102.00 97.83 10.10
7730 82.1700 111.00 97.79 10.54
7731 82.1800 102.00 97.76 10.10
7732 82.1900 107.00 97.75 10.34
7733 82.2000 85.00 97.75 9.22
7734 82.2100 103.00 97.75 10.15
7735 82.2200 92.00 97.76 9.59
7736 82.2300 89.00 97.76 9.43
7737 82.2400 88.00 97.75 9.38
7738 82.2500 110.00 97.73 10.49
7739 82.2600 111.00 97.70 10.54
7740 82.2700 99.00 97.65 9.95
7741 82.2800 108.00 97.60 10.39
7742 82.2900 98.00 97.54 9.90
7743 82.3000 95.00 97.47 9.75
7744 82.3100 113.00 97.41 10.63
7745 82.3200 97.00 97.35 9.85
7746 82.3300 96.00 97.30 9.80
7747 82.3400 96.00 97.25 9.80
7748 82.3500 92.00 97.31 9.59
7749 82.3600 102.00 97.27 10.10
7750 82.3700 92.00 97.23 9.59
7751 82.3800 93.00 97.19 9.64
7752 82.3900 108.00 97.14 10.39
7753 82.4000 103.00 97.09 10.15
7754 82.4100 93.00 97.04 9.64
7755 82.4200 91.00 96.98 9.54
7756 82.4300 95.00 96.92 9.75
7757 82.4400 90.00 96.87 9.49
7758 82.4500 94.00 96.83 9.70
7759 82.4600 106.00 96.79 10.30
7760 82.4700 102.00 96.77 10.10
7761 82.4800 81.00 96.76 9.00
7762 82.4900 103.00 96.76 10.15
7763 82.5000 106.00 96.77 10.30
7764 82.5100 94.00 96.80 9.70
7765 82.5200 96.00 96.84 9.80
7766 82.5300 97.00 96.90 9.85
7767 82.5400 96.00 96.97 9.80
7768 82.5500 103.00 97.05 10.15
7769 82.5600 112.00 97.16 10.58
7770 82.5700 101.00 97.27 10.05
7771 82.5800 102.00 97.41 10.10
7772 82.5900 90.00 97.56 9.49
7773 82.6000 108.00 97.73 10.39
7774 82.6100 93.00 97.93 9.64
7775 82.6200 90.00 98.14 9.49
7776 82.6300 92.00 98.38 9.59
7777 82.6400 114.00 98.64 10.68
7778 82.6500 104.00 98.92 10.20
7779 82.6600 100.00 99.24 10.00
7780 82.6700 96.00 99.57 9.80
7781 82.6800 112.00 99.94 10.58
7782 82.6900 100.00 100.33 10.00
7783 82.7000 98.00 100.76 9.90
7784 82.7100 117.00 101.21 10.82
7785 82.7200 105.00 101.68 10.25
7786 82.7300 99.00 102.18 9.95
7787 82.7400 105.00 102.71 10.25
7788 82.7500 94.00 103.25 9.70
7789 82.7600 114.00 103.82 10.68
7790 82.7700 107.00 104.41 10.34
7791 82.7800 129.00 105.00 11.36
7792 82.7900 121.00 105.60 11.00
7793 82.8000 108.00 106.20 10.39
7794 82.8100 108.00 106.79 10.39
7795 82.8200 114.00 107.36 10.68
7796 82.8300 100.00 107.90 10.00
7797 82.8400 116.00 108.41 10.77
7798 82.8500 127.00 108.89 11.27
7799 82.8600 104.00 109.33 10.20
7800 82.8700 109.00 109.76 10.44
7801 82.8800 122.00 110.17 11.05
7802 82.8900 118.00 110.59 10.86
7803 82.9000 132.00 111.03 11.49
7804 82.9100 113.00 111.50 10.63
7805 82.9200 121.00 112.01 11.00
7806 82.9300 119.00 112.57 10.91
7807 82.9400 117.00 113.21 10.82
7808 82.9500 116.00 113.93 10.77
7809 82.9600 111.00 114.73 10.54
7810 82.9700 141.00 115.64 11.87
7811 82.9800 144.00 116.65 12.00
7812 82.9900 130.00 117.79 11.40
7813 83.0000 131.00 119.06 11.45
7814 83.0100 140.00 120.47 11.83
7815 83.0200 155.00 122.04 12.45
7816 83.0300 136.00 123.77 11.66
7817 83.0400 145.00 125.69 12.04
7818 83.0500 155.00 127.80 12.45
7819 83.0600 125.00 130.13 11.18
7820 83.0700 152.00 132.69 12.33
7821 83.0800 165.00 135.50 12.85
7822 83.0900 168.00 138.57 12.96
7823 83.1000 164.00 141.93 12.81
7824 83.1100 179.00 145.60 13.38
7825 83.1200 202.00 149.58 14.21
7826 83.1300 193.00 153.90 13.89
7827 83.1400 210.00 158.56 14.49
7828 83.1500 203.00 163.56 14.25
7829 83.1600 218.00 168.89 14.76
7830 83.1700 214.00 174.60 14.63
7831 83.1800 223.00 180.54 14.93
7832 83.1900 237.00 186.72 15.39
7833 83.2000 238.00 193.11 15.43
7834 83.2100 277.00 199.65 16.64
7835 83.2200 272.00 206.29 16.49
7836 83.2300 267.00 213.02 16.34
7837 83.2400 284.00 219.84 16.85
7838 83.2500 291.00 226.74 17.06
7839 83.2600 290.00 233.73 17.03
7840 83.2700 285.00 240.82 16.88
7841 83.2800 328.00 248.03 18.11
7842 83.2900 323.00 255.26 17.97
7843 83.3000 326.00 262.52 18.06
7844 83.3100 315.00 269.64 17.75
7845 83.3200 311.00 276.46 17.64
7846 83.3300 291.00 282.79 17.06
7847 83.3400 319.00 288.39 17.86
7848 83.3500 354.00 293.03 18.81
7849 83.3600 325.00 296.51 18.03
7850 83.3700 328.00 298.69 18.11
7851 83.3800 326.00 299.50 18.06
7852 83.3900 322.00 298.95 17.94
7853 83.4000 311.00 297.14 17.64
7854 83.4100 334.00 294.24 18.28
7855 83.4200 301.00 290.48 17.35
7856 83.4300 302.00 286.08 17.38
7857 83.4400 299.00 282.09 17.29
7858 83.4500 316.00 277.07 17.78
7859 83.4600 298.00 272.03 17.26
7860 83.4700 283.00 267.09 16.82
7861 83.4800 282.00 262.35 16.79
7862 83.4900 297.00 257.87 17.23
7863 83.5000 276.00 253.70 16.61
7864 83.5100 290.00 249.83 17.03
7865 83.5200 300.00 246.25 17.32
7866 83.5300 272.00 242.96 16.49
7867 83.5400 277.00 239.92 16.64
7868 83.5500 264.00 237.07 16.25
7869 83.5600 263.00 234.39 16.22
7870 83.5700 265.00 231.81 16.28
7871 83.5800 287.00 229.29 16.94
7872 83.5900 264.00 226.76 16.25
7873 83.6000 261.00 224.17 16.16
7874 83.6100 248.00 221.47 15.75
7875 83.6200 263.00 218.60 16.22
7876 83.6300 251.00 215.51 15.84
7877 83.6400 221.00 212.18 14.87
7878 83.6500 240.00 208.58 15.49
7879 83.6600 214.00 204.70 14.63
7880 83.6700 229.00 200.58 15.13
7881 83.6800 208.00 196.23 14.42
7882 83.6900 192.00 191.71 13.86
7883 83.7000 217.00 187.07 14.73
7884 83.7100 213.00 182.38 14.59
7885 83.7200 191.00 177.71 13.82
7886 83.7300 185.00 173.10 13.60
7887 83.7400 175.00 168.61 13.23
7888 83.7500 188.00 164.28 13.71
7889 83.7600 187.00 160.12 13.67
7890 83.7700 185.00 156.16 13.60
7891 83.7800 183.00 152.41 13.53
7892 83.7900 144.00 148.88 12.00
7893 83.8000 141.00 145.55 11.87
7894 83.8100 138.00 142.43 11.75
7895 83.8200 145.00 139.51 12.04
7896 83.8300 137.00 136.79 11.70
7897 83.8400 125.00 134.25 11.18
7898 83.8500 125.00 131.90 11.18
7899 83.8600 126.00 129.71 11.23
7900 83.8700 133.00 127.67 11.53
7901 83.8800 128.00 125.79 11.31
7902 83.8900 136.00 124.04 11.66
7903 83.9000 110.00 122.43 10.49
7904 83.9100 111.00 120.93 10.54
7905 83.9200 110.00 119.55 10.49
7906 83.9300 117.00 118.27 10.82
7907 83.9400 109.00 117.09 10.44
7908 83.9500 90.00 115.99 9.49
7909 83.9600 106.00 114.98 10.30
7910 83.9700 121.00 114.05 11.00
7911 83.9800 109.00 113.18 10.44
7912 83.9900 100.00 112.39 10.00
7913 84.0000 118.00 111.65 10.86
7914 84.0100 119.00 110.97 10.91
7915 84.0200 105.00 110.35 10.25
7916 84.0300 102.00 109.77 10.10
7917 84.0400 130.00 109.24 11.40
7918 84.0500 112.00 108.75 10.58
7919 84.0600 101.00 108.30 10.05
7920 84.0700 115.00 107.89 10.72
7921 84.0800 102.00 107.52 10.10
7922 84.0900 99.00 107.18 9.95
7923 84.1000 107.00 106.87 10.34
7924 84.1100 129.00 106.60 11.36
7925 84.1200 119.00 106.35 10.91
7926 84.1300 90.00 106.13 9.49
7927 84.1400 95.00 105.94 9.75
7928 84.1500 124.00 105.78 11.14
7929 84.1600 94.00 105.64 9.70
7930 84.1700 99.00 105.54 9.95
7931 84.1800 113.00 105.46 10.63
7932 84.1900 101.00 105.41 10.05
7933 84.2000 97.00 105.39 9.85
7934 84.2100 111.00 105.39 10.54
7935 84.2200 97.00 105.43 9.85
7936 84.2300 95.00 105.50 9.75
7937 84.2400 108.00 105.62 10.39
7938 84.2500 113.00 105.76 10.63
7939 84.2600 92.00 105.94 9.59
7940 84.2700 103.00 106.15 10.15
7941 84.2800 95.00 106.40 9.75
7942 84.2900 109.00 106.67 10.44
7943 84.3000 92.00 107.00 9.59
7944 84.3100 127.00 107.38 11.27
7945 84.3200 99.00 107.80 9.95
7946 84.3300 107.00 108.27 10.34
7947 84.3400 103.00 108.80 10.15
7948 84.3500 111.00 109.35 10.54
7949 84.3600 91.00 109.94 9.54
7950 84.3700 92.00 110.54 9.59
7951 84.3800 104.00 111.50 10.20
7952 84.3900 94.00 112.10 9.70
7953 84.4000 102.00 112.68 10.10
7954 84.4100 100.00 113.20 10.00
7955 84.4200 120.00 113.68 10.95
7956 84.4300 117.00 114.09 10.82
7957 84.4400 112.00 114.46 10.58
7958 84.4500 104.00 114.79 10.20
7959 84.4600 114.00 115.12 10.68
7960 84.4700 111.00 115.46 10.54
7961 84.4800 104.00 115.83 10.20
7962 84.4900 102.00 116.29 10.10
7963 84.5000 115.00 116.81 10.72
7964 84.5100 112.00 117.43 10.58
7965 84.5200 113.00 118.15 10.63
7966 84.5300 130.00 118.98 11.40
7967 84.5400 124.00 119.91 11.14
7968 84.5500 129.00 120.93 11.36
7969 84.5600 113.00 122.02 10.63
7970 84.5700 128.00 123.15 11.31
7971 84.5800 120.00 124.30 10.95
7972 84.5900 121.00 125.42 11.00
7973 84.6000 137.00 126.45 11.70
7974 84.6100 140.00 127.34 11.83
7975 84.6200 129.00 128.05 11.36
7976 84.6300 130.00 128.52 11.40
7977 84.6400 121.00 128.74 11.00
7978 84.6500 124.00 128.70 11.14
7979 84.6600 128.00 128.39 11.31
7980 84.6700 139.00 127.87 11.79
7981 84.6800 146.00 127.16 12.08
7982 84.6900 117.00 126.33 10.82
7983 84.7000 143.00 125.42 11.96
7984 84.7100 136.00 124.47 11.66
7985 84.7200 109.00 123.53 10.44
7986 84.7300 122.00 122.63 11.05
7987 84.7400 120.00 121.78 10.95
7988 84.7500 126.00 121.01 11.23
7989 84.7600 118.00 120.32 10.86
7990 84.7700 122.00 119.71 11.05
7991 84.7800 122.00 119.17 11.05
7992 84.7900 99.00 118.71 9.95
7993 84.8000 116.00 118.33 10.77
7994 84.8100 120.00 118.01 10.95
7995 84.8200 118.00 117.74 10.86
7996 84.8300 116.00 117.53 10.77
7997 84.8400 118.00 117.38 10.86
7998 84.8500 129.00 117.28 11.36
7999 84.8600 110.00 117.23 10.49
8000 84.8700 102.00 117.22 10.10
8001 84.8800 107.00 117.26 10.34
8002 84.8900 123.00 117.32 11.09
8003 84.9000 112.00 117.42 10.58
8004 84.9100 111.00 117.53 10.54
8005 84.9200 122.00 117.65 11.05
8006 84.9300 135.00 117.77 11.62
8007 84.9400 124.00 117.78 11.14
8008 84.9500 112.00 117.89 10.58
8009 84.9600 109.00 118.31 10.44
8010 84.9700 125.00 118.38 11.18
8011 84.9800 119.00 118.42 10.91
8012 84.9900 113.00 118.45 10.63
8013 85.0000 122.00 118.44 11.05
8014 85.0100 135.00 118.40 11.62
8015 85.0200 121.00 118.33 11.00
8016 85.0300 127.00 118.24 11.27
8017 85.0400 126.00 118.14 11.23
8018 85.0500 124.00 118.04 11.14
8019 85.0600 123.00 117.93 11.09
8020 85.0700 115.00 117.83 10.72
8021 85.0800 113.00 117.74 10.63
8022 85.0900 142.00 117.68 11.92
8023 85.1000 116.00 117.65 10.77
8024 85.1100 125.00 117.67 11.18
8025 85.1200 121.00 117.73 11.00
8026 85.1300 121.00 117.85 11.00
8027 85.1400 104.00 118.05 10.20
8028 85.1500 128.00 118.32 11.31
8029 85.1600 145.00 118.68 12.04
8030 85.1700 112.00 119.14 10.58
8031 85.1800 120.00 119.68 10.95
8032 85.1900 126.00 120.35 11.23
8033 85.2000 116.00 121.14 10.77
8034 85.2100 131.00 122.05 11.45
8035 85.2200 125.00 123.09 11.18
8036 85.2300 136.00 124.26 11.66
8037 85.2400 133.00 125.56 11.53
8038 85.2500 147.00 126.96 12.12
8039 85.2600 136.00 128.46 11.66
8040 85.2700 124.00 130.01 11.14
8041 85.2800 144.00 131.59 12.00
8042 85.2900 148.00 133.13 12.17
8043 85.3000 156.00 134.58 12.49
8044 85.3100 141.00 135.86 11.87
8045 85.3200 157.00 136.93 12.53
8046 85.3300 148.00 137.75 12.17
8047 85.3400 153.00 138.27 12.37
8048 85.3500 154.00 138.51 12.41
8049 85.3600 147.00 138.52 12.12
8050 85.3700 140.00 138.32 11.83
8051 85.3800 132.00 137.98 11.49
8052 85.3900 138.00 137.55 11.75
8053 85.4000 144.00 137.06 12.00
8054 85.4100 130.00 136.53 11.40
8055 85.4200 151.00 135.96 12.29
8056 85.4300 131.00 135.38 11.45
8057 85.4400 137.00 134.72 11.70
8058 85.4500 142.00 134.02 11.92
8059 85.4600 126.00 133.27 11.23
8060 85.4700 130.00 132.49 11.40
8061 85.4800 137.00 131.70 11.70
8062 85.4900 127.00 130.93 11.27
8063 85.5000 145.00 130.21 12.04
8064 85.5100 140.00 129.57 11.83
8065 85.5200 123.00 129.04 11.09
8066 85.5300 119.00 128.62 10.91
8067 85.5400 116.00 128.35 10.77
8068 85.5500 132.00 128.21 11.49
8069 85.5600 114.00 128.20 10.68
8070 85.5700 132.00 128.53 11.49
8071 85.5800 126.00 128.80 11.23
8072 85.5900 122.00 129.20 11.05
8073 85.6000 132.00 129.72 11.49
8074 85.6100 148.00 130.36 12.17
8075 85.6200 151.00 131.11 12.29
8076 85.6300 136.00 131.96 11.66
8077 85.6400 139.00 132.92 11.79
8078 85.6500 129.00 133.97 11.36
8079 85.6600 140.00 135.06 11.83
8080 85.6700 148.00 136.29 12.17
8081 85.6800 150.00 137.60 12.25
8082 85.6900 149.00 139.01 12.21
8083 85.7000 154.00 140.47 12.41
8084 85.7100 153.00 141.99 12.37
8085 85.7200 138.00 143.56 11.75
8086 85.7300 139.00 145.19 11.79
8087 85.7400 146.00 146.85 12.08
8088 85.7500 158.00 148.55 12.57
8089 85.7600 161.00 150.27 12.69
8090 85.7700 182.00 152.01 13.49
8091 85.7800 176.00 153.79 13.27
8092 85.7900 185.00 155.57 13.60
8093 85.8000 159.00 157.38 12.61
8094 85.8100 191.00 159.22 13.82
8095 85.8200 171.00 161.13 13.08
8096 85.8300 186.00 163.13 13.64
8097 85.8400 165.00 165.26 12.85
8098 85.8500 181.00 167.55 13.45
8099 85.8600 183.00 170.05 13.53
8100 85.8700 190.00 172.78 13.78
8101 85.8800 176.00 175.80 13.27
8102 85.8900 175.00 179.12 13.23
8103 85.9000 206.00 182.77 14.35
8104 85.9100 193.00 186.76 13.89
8105 85.9200 195.00 191.08 13.96
8106 85.9300 179.00 195.71 13.38
8107 85.9400 223.00 200.61 14.93
8108 85.9500 208.00 205.73 14.42
8109 85.9600 200.00 210.97 14.14
8110 85.9700 184.00 216.21 13.56
8111 85.9800 219.00 221.30 14.80
8112 85.9900 234.00 226.06 15.30
8113 86.0000 251.00 230.24 15.84
8114 86.0100 242.00 233.60 15.56
8115 86.0200 216.00 236.03 14.70
8116 86.0300 209.00 236.98 14.46
8117 86.0400 203.00 236.45 14.25
8118 86.0500 216.00 234.41 14.70
8119 86.0600 213.00 230.92 14.59
8120 86.0700 197.00 226.18 14.04
8121 86.0800 224.00 220.45 14.97
8122 86.0900 204.00 214.04 14.28
8123 86.1000 191.00 207.23 13.82
8124 86.1100 199.00 200.29 14.11
8125 86.1200 195.00 193.43 13.96
8126 86.1300 181.00 186.79 13.45
8127 86.1400 173.00 180.50 13.15
8128 86.1500 168.00 174.61 12.96
8129 86.1600 148.00 169.16 12.17
8130 86.1700 145.00 164.16 12.04
8131 86.1800 152.00 159.62 12.33
8132 86.1900 140.00 155.51 11.83
8133 86.2000 152.00 151.84 12.33
8134 86.2100 146.00 148.54 12.08
8135 86.2200 134.00 145.60 11.58
8136 86.2300 138.00 142.99 11.75
8137 86.2400 133.00 140.68 11.53
8138 86.2500 143.00 138.65 11.96
8139 86.2600 118.00 136.88 10.86
8140 86.2700 128.00 135.33 11.31
8141 86.2800 111.00 133.99 10.54
8142 86.2900 144.00 132.83 12.00
8143 86.3000 134.00 131.84 11.58
8144 86.3100 121.00 131.00 11.00
8145 86.3200 126.00 130.30 11.23
8146 86.3300 137.00 129.73 11.70
8147 86.3400 123.00 129.26 11.09
8148 86.3500 134.00 128.91 11.58
8149 86.3600 130.00 128.65 11.40
8150 86.3700 142.00 128.49 11.92
8151 86.3800 116.00 128.41 10.77
8152 86.3900 128.00 128.41 11.31
8153 86.4000 118.00 128.49 10.86
8154 86.4100 122.00 128.64 11.05
8155 86.4200 109.00 128.85 10.44
8156 86.4300 134.00 129.13 11.58
8157 86.4400 127.00 129.47 11.27
8158 86.4500 127.00 129.86 11.27
8159 86.4600 114.00 130.30 10.68
8160 86.4700 108.00 130.77 10.39
8161 86.4800 125.00 131.28 11.18
8162 86.4900 121.00 131.81 11.00
8163 86.5000 120.00 132.34 10.95
8164 86.5100 112.00 132.88 10.58
8165 86.5200 106.00 133.42 10.30
8166 86.5300 118.00 133.95 10.86
8167 86.5400 109.00 134.47 10.44
8168 86.5500 121.00 134.98 11.00
8169 86.5600 113.00 135.47 10.63
8170 86.5700 109.00 136.04 10.44
8171 86.5800 130.00 136.49 11.40
8172 86.5900 113.00 136.92 10.63
8173 86.6000 127.00 137.32 11.27
8174 86.6100 94.00 137.68 9.70
8175 86.6200 116.00 138.02 10.77
8176 86.6300 107.00 138.35 10.34
8177 86.6400 116.00 138.66 10.77
8178 86.6500 107.00 138.98 10.34
8179 86.6600 124.00 139.32 11.14
8180 86.6700 124.00 139.70 11.14
8181 86.6800 133.00 140.12 11.53
8182 86.6900 115.00 140.61 10.72
8183 86.7000 123.00 141.17 11.09
8184 86.7100 120.00 141.80 10.95
8185 86.7200 127.00 142.51 11.27
8186 86.7300 124.00 143.31 11.14
8187 86.7400 126.00 144.20 11.23
8188 86.7500 137.00 145.20 11.70
8189 86.7600 147.00 146.29 12.12
8190 86.7700 148.00 147.50 12.17
8191 86.7800 120.00 148.82 10.95
8192 86.7900 110.00 150.27 10.49
8193 86.8000 132.00 151.84 11.49
8194 86.8100 140.00 153.55 11.83
8195 86.8200 142.00 155.39 11.92
8196 86.8300 140.00 157.36 11.83
8197 86.8400 154.00 159.46 12.41
8198 86.8500 161.00 161.68 12.69
8199 86.8600 141.00 164.03 11.87
8200 86.8700 136.00 166.49 11.66
8201 86.8800 155.00 169.05 12.45
8202 86.8900 164.00 171.71 12.81
8203 86.9000 171.00 174.47 13.08
8204 86.9100 171.00 177.33 13.08
8205 86.9200 190.00 180.30 13.78
8206 86.9300 188.00 183.41 13.71
8207 86.9400 172.00 186.68 13.11
8208 86.9500 171.00 190.13 13.08
8209 86.9600 165.00 193.79 12.85
8210 86.9700 190.00 197.68 13.78
8211 86.9800 193.00 201.82 13.89
8212 86.9900 189.00 206.22 13.75
8213 87.0000 201.00 210.90 14.18
8214 87.0100 216.00 215.84 14.70
8215 87.0200 219.00 221.05 14.80
8216 87.0300 208.00 226.52 14.42
8217 87.0400 212.00 232.22 14.56
8218 87.0500 243.00 238.16 15.59
8219 87.0600 226.00 244.32 15.03
8220 87.0700 218.00 250.69 14.76
8221 87.0800 275.00 257.32 16.58
8222 87.0900 290.00 264.22 17.03
8223 87.1000 293.00 271.47 17.12
8224 87.1100 296.00 279.11 17.20
8225 87.1200 274.00 287.25 16.55
8226 87.1300 323.00 295.98 17.97
8227 87.1400 310.00 305.36 17.61
8228 87.1500 319.00 315.50 17.86
8229 87.1600 313.00 326.48 17.69
8230 87.1700 339.00 338.34 18.41
8231 87.1800 352.00 351.15 18.76
8232 87.1900 374.00 364.99 19.34
8233 87.2000 423.00 379.86 20.57
8234 87.2100 394.00 395.77 19.85
8235 87.2200 389.00 412.74 19.72
8236 87.2300 408.00 430.74 20.20
8237 87.2400 423.00 449.73 20.57
8238 87.2500 493.00 469.54 22.20
8239 87.2600 530.00 490.11 23.02
8240 87.2700 562.00 511.26 23.71
8241 87.2800 548.00 532.80 23.41
8242 87.2900 564.00 554.56 23.75
8243 87.3000 544.00 576.44 23.32
8244 87.3100 636.00 598.30 25.22
8245 87.3200 653.00 620.15 25.55
8246 87.3300 642.00 642.03 25.34
8247 87.3400 717.00 664.05 26.78
8248 87.3500 759.00 686.37 27.55
8249 87.3600 738.00 709.09 27.17
8250 87.3700 783.00 732.29 27.98
8251 87.3800 777.00 755.94 27.87
8252 87.3900 809.00 779.76 28.44
8253 87.4000 895.00 803.26 29.92
8254 87.4100 839.00 825.82 28.97
8255 87.4200 859.00 846.42 29.31
8256 87.4300 874.00 863.93 29.56
8257 87.4400 883.00 877.13 29.72
8258 87.4500 908.00 884.83 30.13
8259 87.4600 919.00 886.08 30.32
8260 87.4700 903.00 880.29 30.05
8261 87.4800 864.00 867.36 29.39
8262 87.4900 912.00 847.66 30.20
8263 87.5000 832.00 822.08 28.84
8264 87.5100 832.00 791.69 28.84
8265 87.5200 828.00 757.85 28.77
8266 87.5300 801.00 721.82 28.30
8267 87.5400 660.00 684.78 25.69
8268 87.5500 639.00 647.72 25.28
8269 87.5600 604.00 611.41 24.58
8270 87.5700 590.00 576.44 24.29
8271 87.5800 561.00 543.20 23.69
8272 87.5900 509.00 511.92 22.56
8273 87.6000 507.00 482.79 22.52
8274 87.6100 431.00 455.83 20.76
8275 87.6200 415.00 430.99 20.37
8276 87.6300 387.00 408.26 19.67
8277 87.6400 390.00 387.52 19.75
8278 87.6500 366.00 368.69 19.13
8279 87.6600 388.00 351.62 19.70
8280 87.6700 314.00 336.22 17.72
8281 87.6800 317.00 322.35 17.80
8282 87.6900 302.00 309.89 17.38
8283 87.7000 324.00 298.73 18.00
8284 87.7100 321.00 288.79 17.92
8285 87.7200 292.00 279.79 17.09
8286 87.7300 296.00 271.91 17.20
8287 87.7400 273.00 264.94 16.52
8288 87.7500 269.00 258.80 16.40
8289 87.7600 235.00 253.42 15.33
8290 87.7700 248.00 248.74 15.75
8291 87.7800 243.00 244.70 15.59
8292 87.7900 254.00 241.26 15.94
8293 87.8000 229.00 238.71 15.13
8294 87.8100 229.00 236.33 15.13
8295 87.8200 261.00 234.45 16.16
8296 87.8300 269.00 233.03 16.40
8297 87.8400 249.00 232.07 15.78
8298 87.8500 242.00 231.56 15.56
8299 87.8600 246.00 231.51 15.68
8300 87.8700 241.00 231.92 15.52
8301 87.8800 235.00 232.82 15.33
8302 87.8900 230.00 234.24 15.17
8303 87.9000 241.00 236.21 15.52
8304 87.9100 236.00 238.78 15.36
8305 87.9200 232.00 242.00 15.23
8306 87.9300 225.00 245.90 15.00
8307 87.9400 240.00 250.54 15.49
8308 87.9500 271.00 255.99 16.46
8309 87.9600 257.00 262.29 16.03
8310 87.9700 271.00 269.49 16.46
8311 87.9800 296.00 277.65 17.20
8312 87.9900 292.00 286.81 17.09
8313 88.0000 280.00 297.02 16.73
8314 88.0100 299.00 308.31 17.29
8315 88.0200 324.00 320.74 18.00
8316 88.0300 318.00 334.36 17.83
8317 88.0400 332.00 349.19 18.22
8318 88.0500 340.00 365.26 18.44
8319 88.0600 361.00 382.56 19.00
8320 88.0700 372.00 400.97 19.29
8321 88.0800 386.00 420.37 19.65
8322 88.0900 408.00 440.44 20.20
8323 88.1000 428.00 460.74 20.69
8324 88.1100 434.00 480.68 20.83
8325 88.1200 498.00 499.52 22.32
8326 88.1300 487.00 516.38 22.07
8327 88.1400 480.00 530.33 21.91
8328 88.1500 517.00 540.47 22.74
8329 88.1600 472.00 546.09 21.73
8330 88.1700 463.00 546.77 21.52
8331 88.1800 475.00 542.46 21.79
8332 88.1900 504.00 533.49 22.45
8333 88.2000 433.00 520.53 20.81
8334 88.2100 460.00 504.46 21.45
8335 88.2200 466.00 486.21 21.59
8336 88.2300 444.00 466.68 21.07
8337 88.2400 412.00 446.64 20.30
8338 88.2500 424.00 426.73 20.59
8339 88.2600 393.00 407.39 19.82
8340 88.2700 367.00 388.91 19.16
8341 88.2800 354.00 371.50 18.81
8342 88.2900 349.00 355.26 18.68
8343 88.3000 321.00 340.18 17.92
8344 88.3100 300.00 326.34 17.32
8345 88.3200 246.00 313.68 15.68
8346 88.3300 250.00 302.18 15.81
8347 88.3400 268.00 291.81 16.37
8348 88.3500 289.00 282.54 17.00
8349 88.3600 254.00 274.33 15.94
8350 88.3700 253.00 267.11 15.91
8351 88.3800 261.00 260.85 16.16
8352 88.3900 260.00 255.47 16.12
8353 88.4000 253.00 250.93 15.91
8354 88.4100 253.00 247.17 15.91
8355 88.4200 225.00 244.15 15.00
8356 88.4300 217.00 241.83 14.73
8357 88.4400 241.00 240.16 15.52
8358 88.4500 258.00 239.11 16.06
8359 88.4600 231.00 238.66 15.20
8360 88.4700 262.00 238.80 16.19
8361 88.4800 237.00 239.51 15.39
8362 88.4900 231.00 240.79 15.20
8363 88.5000 228.00 242.64 15.10
8364 88.5100 229.00 245.08 15.13
8365 88.5200 244.00 248.13 15.62
8366 88.5300 244.00 251.79 15.62
8367 88.5400 241.00 256.09 15.52
8368 88.5500 284.00 261.06 16.85
8369 88.5600 238.00 266.71 15.43
8370 88.5700 257.00 273.07 16.03
8371 88.5800 244.00 280.15 15.62
8372 88.5900 282.00 287.97 16.79
8373 88.6000 298.00 296.59 17.26
8374 88.6100 307.00 306.03 17.52
8375 88.6200 315.00 316.38 17.75
8376 88.6300 320.00 327.72 17.89
8377 88.6400 331.00 340.14 18.19
8378 88.6500 352.00 353.72 18.76
8379 88.6600 355.00 368.52 18.84
8380 88.6700 408.00 384.58 20.20
8381 88.6800 405.00 401.85 20.12
8382 88.6900 447.00 420.19 21.14
8383 88.7000 420.00 439.26 20.49
8384 88.7100 427.00 458.69 20.66
8385 88.7200 446.00 477.84 21.12
8386 88.7300 471.00 495.98 21.70
8387 88.7400 496.00 512.23 22.27
8388 88.7500 552.00 525.58 23.49
8389 88.7600 527.00 535.17 22.96
8390 88.7700 576.00 540.21 24.00
8391 88.7800 557.00 540.27 23.60
8392 88.7900 570.00 535.26 23.87
8393 88.8000 503.00 525.52 22.43
8394 88.8100 516.00 511.66 22.72
8395 88.8200 439.00 494.55 20.95
8396 88.8300 468.00 475.12 21.63
8397 88.8400 461.00 454.27 21.47
8398 88.8500 428.00 432.86 20.69
8399 88.8600 418.00 411.54 20.44
8400 88.8700 412.00 390.79 20.30
8401 88.8800 367.00 371.01 19.16
8402 88.8900 354.00 352.44 18.81
8403 88.9000 332.00 335.22 18.22
8404 88.9100 339.00 319.41 18.41
8405 88.9200 307.00 305.02 17.52
8406 88.9300 290.00 292.04 17.03
8407 88.9400 260.00 280.39 16.12
8408 88.9500 278.00 270.01 16.67
8409 88.9600 273.00 260.82 16.52
8410 88.9700 237.00 252.73 15.39
8411 88.9800 237.00 245.63 15.39
8412 88.9900 209.00 239.44 14.46
8413 89.0000 227.00 234.05 15.07
8414 89.0100 226.00 229.41 15.03
8415 89.0200 232.00 225.44 15.23
8416 89.0300 215.00 222.09 14.66
8417 89.0400 214.00 219.32 14.63
8418 89.0500 227.00 217.09 15.07
8419 89.0600 212.00 215.38 14.56
8420 89.0700 225.00 214.18 15.00
8421 89.0800 224.00 213.47 14.97
8422 89.0900 209.00 213.23 14.46
8423 89.1000 253.00 213.44 15.91
8424 89.1100 218.00 214.08 14.76
8425 89.1200 217.00 215.09 14.73
8426 89.1300 204.00 216.46 14.28
8427 89.1400 215.00 218.13 14.66
8428 89.1500 212.00 220.05 14.56
8429 89.1600 241.00 222.18 15.52
8430 89.1700 210.00 224.51 14.49
8431 89.1800 227.00 227.00 15.07
8432 89.1900 217.00 229.68 14.73
8433 89.2000 193.00 232.59 13.89
8434 89.2100 230.00 235.88 15.17
8435 89.2200 226.00 239.36 15.03
8436 89.2300 240.00 243.20 15.49
8437 89.2400 253.00 247.45 15.91
8438 89.2500 271.00 252.14 16.46
8439 89.2600 252.00 257.31 15.87
8440 89.2700 247.00 262.99 15.72
8441 89.2800 296.00 269.21 17.20
8442 89.2900 273.00 276.02 16.52
8443 89.3000 271.00 283.47 16.46
8444 89.3100 300.00 291.60 17.32
8445 89.3200 311.00 300.41 17.64
8446 89.3300 294.00 309.91 17.15
8447 89.3400 299.00 320.00 17.29
8448 89.3500 335.00 330.55 18.30
8449 89.3600 345.00 341.31 18.57
8450 89.3700 350.00 351.95 18.71
8451 89.3800 375.00 362.04 19.36
8452 89.3900 389.00 371.08 19.72
8453 89.4000 374.00 378.52 19.34
8454 89.4100 423.00 383.90 20.57
8455 89.4200 379.00 386.81 19.47
8456 89.4300 373.00 387.07 19.31
8457 89.4400 387.00 384.67 19.67
8458 89.4500 420.00 379.86 20.49
8459 89.4600 401.00 373.03 20.02
8460 89.4700 365.00 364.66 19.10
8461 89.4800 346.00 355.29 18.60
8462 89.4900 387.00 345.39 19.67
8463 89.5000 364.00 335.36 19.08
8464 89.5100 321.00 325.50 17.92
8465 89.5200 351.00 316.01 18.74
8466 89.5300 324.00 307.02 18.00
8467 89.5400 304.00 298.61 17.44
8468 89.5500 302.00 290.78 17.38
8469 89.5600 283.00 283.56 16.82
8470 89.5700 285.00 276.96 16.88
8471 89.5800 332.00 270.96 18.22
8472 89.5900 306.00 265.58 17.49
8473 89.6000 304.00 260.80 17.44
8474 89.6100 271.00 256.60 16.46
8475 89.6200 290.00 252.94 17.03
8476 89.6300 288.00 249.78 16.97
8477 89.6400 291.00 247.08 17.06
8478 89.6500 291.00 244.81 17.06
8479 89.6600 289.00 242.92 17.00
8480 89.6700 286.00 241.42 16.91
8481 89.6800 277.00 240.31 16.64
8482 89.6900 293.00 239.60 17.12
8483 89.7000 258.00 240.03 16.06
8484 89.7100 255.00 240.21 15.97
8485 89.7200 283.00 240.89 16.82
8486 89.7300 274.00 242.14 16.55
8487 89.7400 275.00 243.91 16.58
8488 89.7500 271.00 246.46 16.46
8489 89.7600 250.00 249.75 15.81
8490 89.7700 281.00 253.82 16.76
8491 89.7800 274.00 258.71 16.55
8492 89.7900 292.00 264.39 17.09
8493 89.8000 275.00 270.86 16.58
8494 89.8100 298.00 278.00 17.26
8495 89.8200 329.00 285.68 18.14
8496 89.8300 305.00 293.68 17.46
8497 89.8400 327.00 301.72 18.08
8498 89.8500 349.00 309.44 18.68
8499 89.8600 379.00 316.39 19.47
8500 89.8700 344.00 322.16 18.55
8501 89.8800 322.00 326.30 17.94
8502 89.8900 342.00 328.45 18.49
8503 89.9000 369.00 328.41 19.21
8504 89.9100 345.00 326.14 18.57
8505 89.9200 350.00 321.78 18.71
8506 89.9300 342.00 315.63 18.49
8507 89.9400 312.00 308.09 17.66
8508 89.9500 322.00 299.59 17.94
8509 89.9600 304.00 290.55 17.44
8510 89.9700 285.00 281.36 16.88
8511 89.9800 271.00 272.31 16.46
8512 89.9900 273.00 263.62 16.52
8513 90.0000 274.00 255.44 16.55
8514 90.0100 259.00 247.85 16.09
8515 90.0200 248.00 240.87 15.75
8516 90.0300 238.00 234.48 15.43
8517 90.0400 231.00 228.63 15.20
8518 90.0500 212.00 223.22 14.56
8519 90.0600 222.00 218.15 14.90
8520 90.0700 230.00 213.34 15.17
8521 90.0800 223.00 208.66 14.93
8522 90.0900 205.00 204.05 14.32
8523 90.1000 213.00 199.47 14.59
8524 90.1100 189.00 194.89 13.75
8525 90.1200 202.00 190.33 14.21
8526 90.1300 194.00 185.82 13.93
8527 90.1400 203.00 181.40 14.25
8528 90.1500 195.00 177.12 13.96
8529 90.1600 165.00 173.03 12.85
8530 90.1700 203.00 169.15 14.25
8531 90.1800 193.00 165.53 13.89
8532 90.1900 185.00 162.15 13.60
8533 90.2000 178.00 159.04 13.34
8534 90.2100 183.00 156.20 13.53
8535 90.2200 173.00 153.57 13.15
8536 90.2300 163.00 151.24 12.77
8537 90.2400 155.00 149.14 12.45
8538 90.2500 157.00 147.29 12.53
8539 90.2600 161.00 145.64 12.69
8540 90.2700 164.00 144.21 12.81
8541 90.2800 162.00 142.98 12.73
8542 90.2900 168.00 141.93 12.96
8543 90.3000 154.00 141.06 12.41
8544 90.3100 162.00 140.35 12.73
8545 90.3200 150.00 139.79 12.25
8546 90.3300 159.00 139.38 12.61
8547 90.3400 134.00 139.10 11.58
8548 90.3500 157.00 138.95 12.53
8549 90.3600 140.00 138.92 11.83
8550 90.3700 155.00 139.00 12.45
8551 90.3800 159.00 139.20 12.61
8552 90.3900 155.00 139.50 12.45
8553 90.4000 168.00 139.90 12.96
8554 90.4100 148.00 140.39 12.17
8555 90.4200 139.00 140.96 11.79
8556 90.4300 160.00 141.60 12.65
8557 90.4400 161.00 142.30 12.69
8558 90.4500 182.00 143.02 13.49
8559 90.4600 159.00 143.77 12.61
8560 90.4700 174.00 144.53 13.19
8561 90.4800 168.00 145.30 12.96
8562 90.4900 162.00 146.09 12.73
8563 90.5000 167.00 146.93 12.92
8564 90.5100 163.00 147.84 12.77
8565 90.5200 154.00 148.85 12.41
8566 90.5300 170.00 149.99 13.04
8567 90.5400 191.00 151.30 13.82
8568 90.5500 168.00 152.79 12.96
8569 90.5600 181.00 154.49 13.45
8570 90.5700 150.00 156.40 12.25
8571 90.5800 169.00 158.54 13.00
8572 90.5900 164.00 160.93 12.81
8573 90.6000 169.00 163.51 13.00
8574 90.6100 195.00 166.27 13.96
8575 90.6200 186.00 169.19 13.64
8576 90.6300 190.00 172.24 13.78
8577 90.6400 176.00 175.35 13.27
8578 90.6500 181.00 178.45 13.45
8579 90.6600 219.00 181.48 14.80
8580 90.6700 173.00 184.33 13.15
8581 90.6800 185.00 186.88 13.60
8582 90.6900 200.00 189.05 14.14
8583 90.7000 211.00 190.71 14.53
8584 90.7100 207.00 191.80 14.39
8585 90.7200 211.00 192.23 14.53
8586 90.7300 199.00 191.99 14.11
8587 90.7400 210.00 191.09 14.49
8588 90.7500 175.00 189.55 13.23
8589 90.7600 188.00 187.47 13.71
8590 90.7700 175.00 184.92 13.23
8591 90.7800 184.00 182.02 13.56
8592 90.7900 205.00 178.87 14.32
8593 90.8000 187.00 175.55 13.67
8594 90.8100 193.00 172.17 13.89
8595 90.8200 185.00 168.79 13.60
8596 90.8300 172.00 165.45 13.11
8597 90.8400 183.00 162.20 13.53
8598 90.8500 167.00 159.07 12.92
8599 90.8600 173.00 156.06 13.15
8600 90.8700 170.00 153.20 13.04
8601 90.8800 174.00 150.49 13.19
8602 90.8900 180.00 147.94 13.42
8603 90.9000 168.00 145.56 12.96
8604 90.9100 152.00 143.35 12.33
8605 90.9200 160.00 141.33 12.65
8606 90.9300 145.00 139.49 12.04
8607 90.9400 139.00 137.84 11.79
8608 90.9500 143.00 136.38 11.96
8609 90.9600 154.00 135.11 12.41
8610 90.9700 136.00 134.02 11.66
8611 90.9800 142.00 133.10 11.92
8612 90.9900 146.00 132.35 12.08
8613 91.0000 148.00 131.75 12.17
8614 91.0100 146.00 131.28 12.08
8615 91.0200 123.00 130.92 11.09
8616 91.0300 120.00 130.66 10.95
8617 91.0400 128.00 130.45 11.31
8618 91.0500 124.00 130.28 11.14
8619 91.0600 131.00 130.11 11.45
8620 91.0700 124.00 129.89 11.14
8621 91.0800 151.00 129.62 12.29
8622 91.0900 137.00 129.26 11.70
8623 91.1000 140.00 128.80 11.83
8624 91.1100 131.00 128.24 11.45
8625 91.1200 144.00 127.61 12.00
8626 91.1300 129.00 126.91 11.36
8627 91.1400 140.00 126.19 11.83
8628 91.1500 141.00 125.45 11.87
8629 91.1600 115.00 124.73 10.72
8630 91.1700 129.00 124.06 11.36
8631 91.1800 125.00 123.44 11.18
8632 91.1900 113.00 122.89 10.63
8633 91.2000 139.00 122.41 11.79
8634 91.2100 131.00 122.02 11.45
8635 91.2200 118.00 121.73 10.86
8636 91.2300 109.00 121.52 10.44
8637 91.2400 116.00 121.39 10.77
8638 91.2500 127.00 121.34 11.27
8639 91.2600 116.00 121.37 10.77
8640 91.2700 128.00 121.44 11.31
8641 91.2800 119.00 121.56 10.91
8642 91.2900 123.00 121.72 11.09
8643 91.3000 121.00 121.89 11.00
8644 91.3100 120.00 122.07 10.95
8645 91.3200 119.00 122.24 10.91
8646 91.3300 124.00 122.41 11.14
8647 91.3400 123.00 122.55 11.09
8648 91.3500 123.00 122.66 11.09
8649 91.3600 112.00 122.74 10.58
8650 91.3700 110.00 122.79 10.49
8651 91.3800 122.00 122.81 11.05
8652 91.3900 108.00 122.82 10.39
8653 91.4000 120.00 122.79 10.95
8654 91.4100 126.00 122.74 11.23
8655 91.4200 147.00 122.70 12.12
8656 91.4300 117.00 122.68 10.82
8657 91.4400 116.00 122.69 10.77
8658 91.4500 109.00 122.77 10.44
8659 91.4600 119.00 122.89 10.91
8660 91.4700 136.00 123.12 11.66
8661 91.4800 125.00 123.45 11.18
8662 91.4900 119.00 123.89 10.91
8663 91.5000 141.00 124.44 11.87
8664 91.5100 120.00 125.11 10.95
8665 91.5200 118.00 125.89 10.86
8666 91.5300 98.00 126.81 9.90
8667 91.5400 119.00 127.83 10.91
8668 91.5500 111.00 128.42 10.54
8669 91.5600 134.00 129.67 11.58
8670 91.5700 106.00 131.00 10.30
8671 91.5800 121.00 132.40 11.00
8672 91.5900 103.00 133.87 10.15
8673 91.6000 115.00 135.33 10.72
8674 91.6100 107.00 136.78 10.34
8675 91.6200 123.00 138.16 11.09
8676 91.6300 134.00 139.43 11.58
8677 91.6400 129.00 140.54 11.36
8678 91.6500 106.00 141.42 10.30
8679 91.6600 114.00 142.05 10.68
8680 91.6700 119.00 142.39 10.91
8681 91.6800 105.00 142.42 10.25
8682 91.6900 127.00 142.15 11.27
8683 91.7000 109.00 141.61 10.44
8684 91.7100 117.00 140.86 10.82
8685 91.7200 128.00 139.95 11.31
8686 91.7300 129.00 138.95 11.36
8687 91.7400 134.00 137.91 11.58
8688 91.7500 142.00 136.90 11.92
8689 91.7600 114.00 135.94 10.68
8690 91.7700 107.00 135.09 10.34
8691 91.7800 109.00 134.35 10.44
8692 91.7900 110.00 133.76 10.49
8693 91.8000 123.00 133.30 11.09
8694 91.8100 121.00 133.01 11.00
8695 91.8200 124.00 132.86 11.14
8696 91.8300 129.00 132.89 11.36
8697 91.8400 139.00 133.08 11.79
8698 91.8500 141.00 133.43 11.87
8699 91.8600 142.00 133.94 11.92
8700 91.8700 113.00 134.60 10.63
8701 91.8800 140.00 135.42 11.83
8702 91.8900 141.00 136.37 11.87
8703 91.9000 134.00 137.47 11.58
8704 91.9100 116.00 138.68 10.77
8705 91.9200 134.00 139.98 11.58
8706 91.9300 115.00 141.17 10.72
8707 91.9400 137.00 142.60 11.70
8708 91.9500 121.00 144.04 11.00
8709 91.9600 149.00 145.49 12.21
8710 91.9700 155.00 146.58 12.45
8711 91.9800 148.00 147.94 12.17
8712 91.9900 153.00 149.25 12.37
8713 92.0000 141.00 150.51 11.87
8714 92.0100 152.00 151.74 12.33
8715 92.0200 155.00 152.96 12.45
8716 92.0300 152.00 154.22 12.33
8717 92.0400 175.00 155.54 13.23
8718 92.0500 144.00 156.96 12.00
8719 92.0600 167.00 158.52 12.92
8720 92.0700 157.00 160.25 12.53
8721 92.0800 178.00 162.18 13.34
8722 92.0900 175.00 164.30 13.23
8723 92.1000 169.00 166.67 13.00
8724 92.1100 143.00 169.26 11.96
8725 92.1200 179.00 172.07 13.38
8726 92.1300 188.00 175.10 13.71
8727 92.1400 188.00 178.29 13.71
8728 92.1500 183.00 181.61 13.53
8729 92.1600 182.00 185.01 13.49
8730 92.1700 176.00 188.40 13.27
8731 92.1800 173.00 191.71 13.15
8732 92.1900 191.00 194.88 13.82
8733 92.2000 193.00 197.82 13.89
8734 92.2100 214.00 200.50 14.63
8735 92.2200 197.00 202.90 14.04
8736 92.2300 193.00 205.00 13.89
8737 92.2400 183.00 206.87 13.53
8738 92.2500 183.00 208.54 13.53
8739 92.2600 184.00 210.09 13.56
8740 92.2700 205.00 211.61 14.32
8741 92.2800 198.00 213.15 14.07
8742 92.2900 229.00 214.80 15.13
8743 92.3000 215.00 216.60 14.66
8744 92.3100 200.00 218.61 14.14
8745 92.3200 209.00 220.88 14.46
8746 92.3300 188.00 223.45 13.71
8747 92.3400 192.00 226.37 13.86
8748 92.3500 214.00 229.70 14.63
8749 92.3600 202.00 233.48 14.21
8750 92.3700 221.00 237.76 14.87
8751 92.3800 222.00 242.59 14.90
8752 92.3900 218.00 247.99 14.76
8753 92.4000 242.00 254.00 15.56
8754 92.4100 255.00 260.63 15.97
8755 92.4200 264.00 267.90 16.25
8756 92.4300 256.00 275.78 16.00
8757 92.4400 277.00 284.31 16.64
8758 92.4500 260.00 293.46 16.12
8759 92.4600 305.00 303.18 17.46
8760 92.4700 289.00 313.44 17.00
8761 92.4800 324.00 324.19 18.00
8762 92.4900 357.00 335.35 18.89
8763 92.5000 340.00 346.81 18.44
8764 92.5100 340.00 358.48 18.44
8765 92.5200 358.00 370.19 18.92
8766 92.5300 378.00 381.80 19.44
8767 92.5400 393.00 393.10 19.82
8768 92.5500 422.00 403.89 20.54
8769 92.5600 425.00 413.96 20.62
8770 92.5700 466.00 423.05 21.59
8771 92.5800 491.00 430.97 22.16
8772 92.5900 447.00 437.52 21.14
8773 92.6000 448.00 442.53 21.17
8774 92.6100 503.00 445.57 22.43
8775 92.6200 501.00 447.22 22.38
8776 92.6300 476.00 447.15 21.82
8777 92.6400 491.00 445.38 22.16
8778 92.6500 489.00 442.05 22.11
8779 92.6600 479.00 437.25 21.89
8780 92.6700 459.00 431.11 21.42
8781 92.6800 459.00 423.79 21.42
8782 92.6900 451.00 415.41 21.24
8783 92.7000 418.00 406.09 20.44
8784 92.7100 431.00 395.99 20.76
8785 92.7200 425.00 385.25 20.62
8786 92.7300 409.00 373.98 20.22
8787 92.7400 367.00 362.35 19.16
8788 92.7500 388.00 350.53 19.70
8789 92.7600 373.00 338.64 19.31
8790 92.7700 377.00 326.85 19.42
8791 92.7800 354.00 315.27 18.81
8792 92.7900 317.00 304.03 17.80
8793 92.8000 299.00 293.20 17.29
8794 92.8100 275.00 282.84 16.58
8795 92.8200 267.00 273.02 16.34
8796 92.8300 258.00 263.75 16.06
8797 92.8400 286.00 255.04 16.91
8798 92.8500 247.00 246.92 15.72
8799 92.8600 264.00 239.37 16.25
8800 92.8700 248.00 232.40 15.75
8801 92.8800 247.00 225.99 15.72
8802 92.8900 217.00 220.12 14.73
8803 92.9000 232.00 214.79 15.23
8804 92.9100 212.00 209.96 14.56
8805 92.9200 234.00 205.61 15.30
8806 92.9300 221.00 201.73 14.87
8807 92.9400 192.00 198.29 13.86
8808 92.9500 200.00 195.27 14.14
8809 92.9600 204.00 192.65 14.28
8810 92.9700 205.00 190.42 14.32
8811 92.9800 201.00 188.55 14.18
8812 92.9900 203.00 187.02 14.25
8813 93.0000 200.00 185.83 14.14
8814 93.0100 206.00 184.96 14.35
8815 93.0200 197.00 184.70 14.04
8816 93.0300 170.00 184.42 13.04
8817 93.0400 184.00 184.40 13.56
8818 93.0500 207.00 184.64 14.39
8819 93.0600 188.00 185.12 13.71
8820 93.0700 193.00 185.82 13.89
8821 93.0800 199.00 186.71 14.11
8822 93.0900 196.00 187.78 14.00
8823 93.1000 188.00 188.98 13.71
8824 93.1100 189.00 190.29 13.75
8825 93.1200 193.00 191.67 13.89
8826 93.1300 193.00 193.07 13.89
8827 93.1400 180.00 194.47 13.42
8828 93.1500 167.00 195.84 12.92
8829 93.1600 211.00 197.15 14.53
8830 93.1700 206.00 198.39 14.35
8831 93.1800 193.00 199.55 13.89
8832 93.1900 207.00 200.65 14.39
8833 93.2000 234.00 201.67 15.30
8834 93.2100 209.00 202.64 14.46
8835 93.2200 214.00 203.56 14.63
8836 93.2300 229.00 204.42 15.13
8837 93.2400 215.00 205.23 14.66
8838 93.2500 208.00 205.97 14.42
8839 93.2600 210.00 206.65 14.49
8840 93.2700 219.00 207.25 14.80
8841 93.2800 201.00 207.76 14.18
8842 93.2900 224.00 208.00 14.97
8843 93.3000 215.00 208.34 14.66
8844 93.3100 206.00 208.58 14.35
8845 93.3200 245.00 208.75 15.65
8846 93.3300 238.00 208.84 15.43
8847 93.3400 194.00 208.88 13.93
8848 93.3500 212.00 208.88 14.56
8849 93.3600 218.00 208.84 14.76
8850 93.3700 228.00 208.80 15.10
8851 93.3800 233.00 208.78 15.26
8852 93.3900 217.00 208.80 14.73
8853 93.4000 215.00 208.88 14.66
8854 93.4100 225.00 209.06 15.00
8855 93.4200 252.00 209.32 15.87
8856 93.4300 240.00 209.75 15.49
8857 93.4400 229.00 210.34 15.13
8858 93.4500 192.00 211.13 13.86
8859 93.4600 235.00 212.13 15.33
8860 93.4700 188.00 213.38 13.71
8861 93.4800 208.00 214.90 14.42
8862 93.4900 223.00 216.73 14.93
8863 93.5000 212.00 218.89 14.56
8864 93.5100 233.00 221.41 15.26
8865 93.5200 233.00 224.34 15.26
8866 93.5300 218.00 227.72 14.76
8867 93.5400 194.00 231.58 13.93
8868 93.5500 221.00 235.97 14.87
8869 93.5600 215.00 240.94 14.66
8870 93.5700 240.00 246.54 15.49
8871 93.5800 252.00 252.82 15.87
8872 93.5900 236.00 259.86 15.36
8873 93.6000 239.00 267.72 15.46
8874 93.6100 268.00 276.44 16.37
8875 93.6200 251.00 286.14 15.84
8876 93.6300 292.00 296.85 17.09
8877 93.6400 325.00 308.66 18.03
8878 93.6500 292.00 321.63 17.09
8879 93.6600 330.00 335.85 18.17
8880 93.6700 336.00 351.35 18.33
8881 93.6800 321.00 368.17 17.92
8882 93.6900 368.00 386.31 19.18
8883 93.7000 376.00 405.77 19.39
8884 93.7100 328.00 426.45 18.11
8885 93.7200 442.00 448.23 21.02
8886 93.7300 416.00 470.98 20.40
8887 93.7400 447.00 494.46 21.14
8888 93.7500 479.00 518.45 21.89
8889 93.7600 477.00 542.77 21.84
8890 93.7700 479.00 567.19 21.89
8891 93.7800 543.00 591.47 23.30
8892 93.7900 543.00 615.82 23.30
8893 93.8000 577.00 640.15 24.02
8894 93.8100 591.00 664.47 24.31
8895 93.8200 613.00 688.73 24.76
8896 93.8300 604.00 712.86 24.58
8897 93.8400 635.00 736.59 25.20
8898 93.8500 661.00 759.43 25.71
8899 93.8600 703.00 780.67 26.51
8900 93.8700 699.00 799.47 26.44
8901 93.8800 703.00 814.79 26.51
8902 93.8900 725.00 825.65 26.93
8903 93.9000 757.00 831.12 27.51
8904 93.9100 748.00 830.51 27.35
8905 93.9200 758.00 823.52 27.53
8906 93.9300 715.00 810.25 26.74
8907 93.9400 749.00 791.19 27.37
8908 93.9500 725.00 767.13 26.93
8909 93.9600 689.00 739.12 26.25
8910 93.9700 610.00 708.28 24.70
8911 93.9800 592.00 675.59 24.33
8912 93.9900 535.00 642.13 23.13
8913 94.0000 522.00 608.62 22.85
8914 94.0100 499.00 575.73 22.34
8915 94.0200 466.00 543.90 21.59
8916 94.0300 455.00 513.43 21.33
8917 94.0400 419.00 484.57 20.47
8918 94.0500 413.00 457.37 20.32
8919 94.0600 377.00 431.89 19.42
8920 94.0700 368.00 408.19 19.18
8921 94.0800 358.00 386.17 18.92
8922 94.0900 359.00 365.84 18.95
8923 94.1000 303.00 347.11 17.41
8924 94.1100 292.00 329.90 17.09
8925 94.1200 312.00 314.15 17.66
8926 94.1300 285.00 299.75 16.88
8927 94.1400 284.00 286.62 16.85
8928 94.1500 269.00 274.68 16.40
8929 94.1600 240.00 263.81 15.49
8930 94.1700 248.00 253.92 15.75
8931 94.1800 211.00 244.96 14.53
8932 94.1900 228.00 236.81 15.10
8933 94.2000 189.00 229.41 13.75
8934 94.2100 189.00 222.70 13.75
8935 94.2200 224.00 216.59 14.97
8936 94.2300 204.00 211.04 14.28
8937 94.2400 200.00 205.99 14.14
8938 94.2500 198.00 201.38 14.07
8939 94.2600 177.00 197.16 13.30
8940 94.2700 205.00 193.28 14.32
8941 94.2800 198.00 189.69 14.07
8942 94.2900 189.00 186.35 13.75
8943 94.3000 180.00 183.20 13.42
8944 94.3100 187.00 180.20 13.67
8945 94.3200 172.00 177.32 13.11
8946 94.3300 180.00 174.53 13.42
8947 94.3400 163.00 171.81 12.77
8948 94.3500 171.00 169.15 13.08
8949 94.3600 186.00 166.56 13.64
8950 94.3700 164.00 164.04 12.81
8951 94.3800 163.00 161.60 12.77
8952 94.3900 146.00 159.24 12.08
8953 94.4000 136.00 156.99 11.66
8954 94.4100 146.00 154.85 12.08
8955 94.4200 152.00 152.81 12.33
8956 94.4300 161.00 150.89 12.69
8957 94.4400 131.00 149.09 11.45
8958 94.4500 154.00 147.39 12.41
8959 94.4600 150.00 145.80 12.25
8960 94.4700 146.00 144.32 12.08
8961 94.4800 140.00 142.94 11.83
8962 94.4900 162.00 141.65 12.73
8963 94.5000 151.00 140.48 12.29
8964 94.5100 135.00 139.40 11.62
8965 94.5200 141.00 138.40 11.87
8966 94.5300 136.00 137.51 11.66
8967 94.5400 139.00 136.69 11.79
8968 94.5500 140.00 135.94 11.83
8969 94.5600 148.00 135.28 12.17
8970 94.5700 157.00 134.70 12.53
8971 94.5800 153.00 134.61 12.37
8972 94.5900 144.00 134.18 12.00
8973 94.6000 117.00 133.82 10.82
8974 94.6100 129.00 133.54 11.36
8975 94.6200 147.00 133.33 12.12
8976 94.6300 130.00 133.19 11.40
8977 94.6400 129.00 133.12 11.36
8978 94.6500 132.00 133.09 11.49
8979 94.6600 144.00 133.09 12.00
8980 94.6700 152.00 133.12 12.33
8981 94.6800 133.00 133.14 11.53
8982 94.6900 148.00 133.22 12.17
8983 94.7000 144.00 133.19 12.00
8984 94.7100 144.00 133.11 12.00
8985 94.7200 135.00 132.97 11.62
8986 94.7300 155.00 132.76 12.45
8987 94.7400 153.00 132.49 12.37
8988 94.7500 137.00 132.18 11.70
8989 94.7600 137.00 131.84 11.70
8990 94.7700 128.00 131.48 11.31
8991 94.7800 149.00 131.12 12.21
8992 94.7900 152.00 130.79 12.33
8993 94.8000 123.00 130.49 11.09
8994 94.8100 136.00 130.23 11.66
8995 94.8200 146.00 130.02 12.08
8996 94.8300 142.00 129.86 11.92
8997 94.8400 145.00 129.74 12.04
8998 94.8500 115.00 129.65 10.72
8999 94.8600 121.00 129.58 11.00
9000 94.8700 128.00 129.52 11.31
9001 94.8800 137.00 129.44 11.70
9002 94.8900 116.00 129.35 10.77
9003 94.9000 121.00 129.21 11.00
9004 94.9100 142.00 129.02 11.92
9005 94.9200 141.00 128.76 11.87
9006 94.9300 153.00 128.42 12.37
9007 94.9400 142.00 127.99 11.92
9008 94.9500 135.00 127.48 11.62
9009 94.9600 142.00 126.90 11.92
9010 94.9700 142.00 126.24 11.92
9011 94.9800 133.00 125.53 11.53
9012 94.9900 136.00 124.77 11.66
9013 95.0000 134.00 123.98 11.58
9014 95.0100 130.00 123.18 11.40
9015 95.0200 137.00 122.37 11.70
9016 95.0300 127.00 121.58 11.27
9017 95.0400 129.00 120.80 11.36
9018 95.0500 124.00 120.06 11.14
9019 95.0600 124.00 119.37 11.14
9020 95.0700 125.00 118.72 11.18
9021 95.0800 130.00 118.12 11.40
9022 95.0900 132.00 117.58 11.49
9023 95.1000 111.00 117.09 10.54
9024 95.1100 124.00 116.67 11.14
9025 95.1200 115.00 116.31 10.72
9026 95.1300 116.00 116.01 10.77
9027 95.1400 123.00 115.77 11.09
9028 95.1500 116.00 115.60 10.77
9029 95.1600 122.00 115.50 11.05
9030 95.1700 132.00 115.46 11.49
9031 95.1800 138.00 115.50 11.75
9032 95.1900 134.00 115.59 11.58
9033 95.2000 122.00 115.74 11.05
9034 95.2100 107.00 115.96 10.34
9035 95.2200 131.00 116.22 11.45
9036 95.2300 103.00 116.53 10.15
9037 95.2400 122.00 116.88 11.05
9038 95.2500 116.00 117.25 10.77
9039 95.2600 128.00 117.63 11.31
9040 95.2700 120.00 118.00 10.95
9041 95.2800 130.00 118.36 11.40
9042 95.2900 130.00 118.69 11.40
9043 95.3000 109.00 118.99 10.44
9044 95.3100 133.00 119.24 11.53
9045 95.3200 122.00 119.46 11.05
9046 95.3300 141.00 119.64 11.87
9047 95.3400 134.00 119.79 11.58
9048 95.3500 144.00 119.91 12.00
9049 95.3600 113.00 120.03 10.63
9050 95.3700 114.00 120.14 10.68
9051 95.3800 133.00 120.32 11.53
9052 95.3900 133.00 120.35 11.53
9053 95.4000 142.00 120.43 11.92
9054 95.4100 147.00 120.48 12.12
9055 95.4200 132.00 120.51 11.49
9056 95.4300 135.00 120.50 11.62
9057 95.4400 146.00 120.45 12.08
9058 95.4500 120.00 120.37 10.95
9059 95.4600 128.00 120.26 11.31
9060 95.4700 151.00 120.14 12.29
9061 95.4800 123.00 120.00 11.09
9062 95.4900 136.00 119.87 11.66
9063 95.5000 126.00 119.76 11.23
9064 95.5100 128.00 119.67 11.31
9065 95.5200 113.00 119.61 10.63
9066 95.5300 133.00 119.59 11.53
9067 95.5400 145.00 119.62 12.04
9068 95.5500 126.00 119.69 11.23
9069 95.5600 126.00 119.82 11.23
9070 95.5700 128.00 120.01 11.31
9071 95.5800 138.00 120.26 11.75
9072 95.5900 139.00 120.58 11.79
9073 95.6000 129.00 120.96 11.36
9074 95.6100 128.00 121.41 11.31
9075 95.6200 141.00 121.94 11.87
9076 95.6300 117.00 122.54 10.82
9077 95.6400 138.00 123.22 11.75
9078 95.6500 134.00 123.95 11.58
9079 95.6600 130.00 124.77 11.40
9080 95.6700 129.00 125.66 11.36
9081 95.6800 126.00 126.61 11.23
9082 95.6900 138.00 127.62 11.75
9083 95.7000 135.00 128.65 11.62
9084 95.7100 135.00 129.71 11.62
9085 95.7200 134.00 130.77 11.58
9086 95.7300 132.00 131.79 11.49
9087 95.7400 132.00 132.76 11.49
9088 95.7500 147.00 133.65 12.12
9089 95.7600 123.00 134.41 11.09
9090 95.7700 132.00 135.04 11.49
9091 95.7800 115.00 135.49 10.72
9092 95.7900 143.00 135.77 11.96
9093 95.8000 120.00 135.87 10.95
9094 95.8100 107.00 135.80 10.34
9095 95.8200 143.00 135.57 11.96
9096 95.8300 134.00 135.18 11.58
9097 95.8400 131.00 134.68 11.45
9098 95.8500 148.00 134.06 12.17
9099 95.8600 123.00 133.35 11.09
9100 95.8700 132.00 132.64 11.49
9101 95.8800 124.00 131.82 11.14
9102 95.8900 133.00 130.96 11.53
9103 95.9000 115.00 130.10 10.72
9104 95.9100 152.00 129.23 12.33
9105 95.9200 110.00 128.40 10.49
9106 95.9300 137.00 127.61 11.70
9107 95.9400 138.00 126.89 11.75
9108 95.9500 124.00 126.25 11.14
9109 95.9600 131.00 125.69 11.45
9110 95.9700 103.00 125.22 10.15
9111 95.9800 127.00 124.87 11.27
9112 95.9900 134.00 124.62 11.58
9113 96.0000 119.00 124.48 10.91
9114 96.0100 121.00 124.43 11.00
9115 96.0200 148.00 124.46 12.17
9116 96.0300 144.00 124.58 12.00
9117 96.0400 109.00 124.75 10.44
9118 96.0500 137.00 124.95 11.70
9119 96.0600 124.00 125.16 11.14
9120 96.0700 131.00 125.34 11.45
9121 96.0800 130.00 125.47 11.40
9122 96.0900 132.00 125.50 11.49
9123 96.1000 138.00 125.42 11.75
9124 96.1100 133.00 125.21 11.53
9125 96.1200 124.00 124.86 11.14
9126 96.1300 96.00 124.37 9.80
9127 96.1400 106.00 123.77 10.30
9128 96.1500 105.00 123.09 10.25
9129 96.1600 121.00 122.34 11.00
9130 96.1700 109.00 121.55 10.44
9131 96.1800 108.00 120.76 10.39
9132 96.1900 122.00 120.00 11.05
9133 96.2000 125.00 119.27 11.18
9134 96.2100 116.00 118.60 10.77
9135 96.2200 129.00 118.00 11.36
9136 96.2300 134.00 117.47 11.58
9137 96.2400 128.00 117.03 11.31
9138 96.2500 121.00 116.68 11.00
9139 96.2600 114.00 116.41 10.68
9140 96.2700 120.00 116.24 10.95
9141 96.2800 127.00 116.15 11.27
9142 96.2900 130.00 116.15 11.40
9143 96.3000 112.00 116.24 10.58
9144 96.3100 128.00 116.41 11.31
9145 96.3200 118.00 116.65 10.86
9146 96.3300 113.00 116.99 10.63
9147 96.3400 120.00 117.40 10.95
9148 96.3500 108.00 117.88 10.39
9149 96.3600 117.00 118.43 10.82
9150 96.3700 117.00 119.02 10.82
9151 96.3800 125.00 119.65 11.18
9152 96.3900 130.00 120.30 11.40
9153 96.4000 132.00 120.94 11.49
9154 96.4100 117.00 121.54 10.82
9155 96.4200 121.00 122.08 11.00
9156 96.4300 132.00 122.52 11.49
9157 96.4400 148.00 122.84 12.17
9158 96.4500 159.00 123.00 12.61
9159 96.4600 124.00 123.01 11.14
9160 96.4700 112.00 122.86 10.58
9161 96.4800 114.00 122.56 10.68
9162 96.4900 120.00 122.12 10.95
9163 96.5000 145.00 121.58 12.04
9164 96.5100 125.00 120.95 11.18
9165 96.5200 141.00 120.28 11.87
9166 96.5300 130.00 119.59 11.40
9167 96.5400 116.00 118.91 10.77
9168 96.5500 132.00 118.25 11.49
9169 96.5600 131.00 117.62 11.45
9170 96.5700 136.00 117.04 11.66
9171 96.5800 156.00 116.52 12.49
9172 96.5900 117.00 116.04 10.82
9173 96.6000 120.00 115.62 10.95
9174 96.6100 145.00 115.25 12.04
9175 96.6200 121.00 114.94 11.00
9176 96.6300 119.00 114.67 10.91
9177 96.6400 118.00 114.42 10.86
9178 96.6500 122.00 114.25 11.05
9179 96.6600 115.00 114.11 10.72
9180 96.6700 113.00 114.01 10.63
9181 96.6800 122.00 113.96 11.05
9182 96.6900 107.00 113.95 10.34
9183 96.7000 113.00 113.98 10.63
9184 96.7100 110.00 114.05 10.49
9185 96.7200 117.00 114.16 10.82
9186 96.7300 113.00 114.32 10.63
9187 96.7400 121.00 114.52 11.00
9188 96.7500 123.00 114.73 11.09
9189 96.7600 115.00 115.02 10.72
9190 96.7700 108.00 115.35 10.39
9191 96.7800 129.00 115.73 11.36
9192 96.7900 126.00 116.16 11.23
9193 96.8000 118.00 116.63 10.86
9194 96.8100 127.00 117.15 11.27
9195 96.8200 120.00 117.72 10.95
9196 96.8300 120.00 118.34 10.95
9197 96.8400 109.00 119.02 10.44
9198 96.8500 132.00 119.75 11.49
9199 96.8600 117.00 120.53 10.82
9200 96.8700 130.00 121.38 11.40
9201 96.8800 130.00 122.29 11.40
9202 96.8900 122.00 123.25 11.05
9203 96.9000 126.00 124.28 11.23
9204 96.9100 110.00 125.38 10.49
9205 96.9200 126.00 126.54 11.23
9206 96.9300 132.00 127.76 11.49
9207 96.9400 127.00 129.04 11.27
9208 96.9500 129.00 130.38 11.36
9209 96.9600 129.00 131.77 11.36
9210 96.9700 146.00 133.22 12.08
9211 96.9800 144.00 134.71 12.00
9212 96.9900 133.00 136.25 11.53
9213 97.0000 143.00 137.82 11.96
9214 97.0100 151.00 139.45 12.29
9215 97.0200 125.00 141.13 11.18
9216 97.0300 110.00 142.87 10.49
9217 97.0400 123.00 144.68 11.09
9218 97.0500 150.00 146.60 12.25
9219 97.0600 144.00 148.62 12.00
9220 97.0700 151.00 150.79 12.29
9221 97.0800 167.00 153.12 12.92
9222 97.0900 150.00 155.63 12.25
9223 97.1000 167.00 158.35 12.92
9224 97.1100 164.00 161.30 12.81
9225 97.1200 163.00 164.49 12.77
9226 97.1300 169.00 167.97 13.00
9227 97.1400 154.00 171.73 12.41
9228 97.1500 180.00 175.81 13.42
9229 97.1600 173.00 180.21 13.15
9230 97.1700 196.00 184.96 14.00
9231 97.1800 175.00 190.07 13.23
9232 97.1900 190.00 195.54 13.78
9233 97.2000 173.00 201.40 13.15
9234 97.2100 201.00 207.62 14.18
9235 97.2200 195.00 214.23 13.96
9236 97.2300 193.00 221.20 13.89
9237 97.2400 199.00 228.50 14.11
9238 97.2500 203.00 236.09 14.25
9239 97.2600 213.00 243.96 14.59
9240 97.2700 203.00 252.04 14.25
9241 97.2800 254.00 260.27 15.94
9242 97.2900 220.00 268.60 14.83
9243 97.3000 249.00 276.96 15.78
9244 97.3100 258.00 285.29 16.06
9245 97.3200 269.00 293.52 16.40
9246 97.3300 258.00 301.56 16.06
9247 97.3400 268.00 309.34 16.37
9248 97.3500 289.00 316.75 17.00
9249 97.3600 301.00 323.69 17.35
9250 97.3700 335.00 330.03 18.30
9251 97.3800 332.00 335.63 18.22
9252 97.3900 300.00 340.35 17.32
9253 97.4000 347.00 344.06 18.63
9254 97.4100 316.00 346.64 17.78
9255 97.4200 344.00 348.42 18.55
9256 97.4300 340.00 348.50 18.44
9257 97.4400 366.00 347.30 19.13
9258 97.4500 339.00 344.85 18.41
9259 97.4600 333.00 341.21 18.25
9260 97.4700 317.00 336.52 17.80
9261 97.4800 323.00 330.90 17.97
9262 97.4900 336.00 324.51 18.33
9263 97.5000 318.00 317.53 17.83
9264 97.5100 292.00 310.11 17.09
9265 97.5200 284.00 302.41 16.85
9266 97.5300 288.00 294.57 16.97
9267 97.5400 269.00 286.72 16.40
9268 97.5500 264.00 278.96 16.25
9269 97.5600 270.00 271.38 16.43
9270 97.5700 252.00 264.04 15.87
9271 97.5800 212.00 256.98 14.56
9272 97.5900 230.00 250.22 15.17
9273 97.6000 228.00 243.78 15.10
9274 97.6100 226.00 237.66 15.03
9275 97.6200 207.00 231.83 14.39
9276 97.6300 208.00 226.27 14.42
9277 97.6400 188.00 220.95 13.71
9278 97.6500 187.00 215.85 13.67
9279 97.6600 174.00 210.93 13.19
9280 97.6700 168.00 206.16 12.96
9281 97.6800 186.00 201.52 13.64
9282 97.6900 181.00 197.00 13.45
9283 97.7000 198.00 192.59 14.07
9284 97.7100 193.00 188.30 13.89
9285 97.7200 170.00 184.12 13.04
9286 97.7300 180.00 180.07 13.42
9287 97.7400 184.00 176.16 13.56
9288 97.7500 163.00 172.40 12.77
9289 97.7600 149.00 168.80 12.21
9290 97.7700 149.00 165.37 12.21
9291 97.7800 137.00 162.12 11.70
9292 97.7900 130.00 159.05 11.40
9293 97.8000 142.00 156.17 11.92
9294 97.8100 166.00 153.48 12.88
9295 97.8200 148.00 150.97 12.17
9296 97.8300 125.00 148.65 11.18
9297 97.8400 141.00 146.51 11.87
9298 97.8500 143.00 144.54 11.96
9299 97.8600 142.00 142.74 11.92
9300 97.8700 141.00 140.97 11.87
9301 97.8800 149.00 139.48 12.21
9302 97.8900 149.00 138.14 12.21
9303 97.9000 142.00 136.93 11.92
9304 97.9100 136.00 135.86 11.66
9305 97.9200 132.00 134.90 11.49
9306 97.9300 145.00 134.07 12.04
9307 97.9400 141.00 133.34 11.87
9308 97.9500 147.00 132.71 12.12
9309 97.9600 134.00 132.19 11.58
9310 97.9700 154.00 131.75 12.41
9311 97.9800 134.00 131.40 11.58
9312 97.9900 132.00 131.12 11.49
9313 98.0000 137.00 130.94 11.70
9314 98.0100 122.00 130.82 11.05
9315 98.0200 140.00 130.77 11.83
9316 98.0300 153.00 130.80 12.37
9317 98.0400 146.00 130.90 12.08
9318 98.0500 137.00 131.07 11.70
9319 98.0600 129.00 131.31 11.36
9320 98.0700 134.00 131.63 11.58
9321 98.0800 138.00 132.02 11.75
9322 98.0900 155.00 132.46 12.45
9323 98.1000 130.00 132.97 11.40
9324 98.1100 137.00 133.51 11.70
9325 98.1200 125.00 134.09 11.18
9326 98.1300 116.00 134.66 10.77
9327 98.1400 123.00 135.21 11.09
9328 98.1500 161.00 135.71 12.69
9329 98.1600 129.00 136.15 11.36
9330 98.1700 138.00 136.50 11.75
9331 98.1800 139.00 136.75 11.79
9332 98.1900 150.00 136.88 12.25
9333 98.2000 137.00 136.93 11.70
9334 98.2100 137.00 136.64 11.70
9335 98.2200 135.00 135.96 11.62
9336 98.2300 125.00 135.79 11.18
9337 98.2400 135.00 135.58 11.62
9338 98.2500 141.00 135.36 11.87
9339 98.2600 135.00 135.13 11.62
9340 98.2700 142.00 134.90 11.92
9341 98.2800 122.00 134.67 11.05
9342 98.2900 137.00 134.45 11.70
9343 98.3000 141.00 134.22 11.87
9344 98.3100 130.00 133.99 11.40
9345 98.3200 130.00 133.76 11.40
9346 98.3300 145.00 133.53 12.04
9347 98.3400 134.00 133.31 11.58
9348 98.3500 135.00 133.11 11.62
9349 98.3600 123.00 132.94 11.09
9350 98.3700 146.00 132.82 12.08
9351 98.3800 119.00 132.75 10.91
9352 98.3900 124.00 132.75 11.14
9353 98.4000 134.00 132.83 11.58
9354 98.4100 124.00 132.99 11.14
9355 98.4200 113.00 133.24 10.63
9356 98.4300 147.00 133.59 12.12
9357 98.4400 140.00 134.05 11.83
9358 98.4500 146.00 134.60 12.08
9359 98.4600 134.00 135.27 11.58
9360 98.4700 149.00 136.05 12.21
9361 98.4800 137.00 136.94 11.70
9362 98.4900 148.00 137.96 12.17
9363 98.5000 131.00 139.10 11.45
9364 98.5100 140.00 140.38 11.83
9365 98.5200 148.00 141.79 12.17
9366 98.5300 159.00 143.34 12.61
9367 98.5400 154.00 145.05 12.41
9368 98.5500 157.00 146.93 12.53
9369 98.5600 168.00 148.97 12.96
9370 98.5700 155.00 151.20 12.45
9371 98.5800 171.00 153.63 13.08
9372 98.5900 171.00 156.28 13.08
9373 98.6000 169.00 159.16 13.00
9374 98.6100 155.00 162.29 12.45
9375 98.6200 167.00 165.70 12.92
9376 98.6300 181.00 169.40 13.45
9377 98.6400 174.00 173.43 13.19
9378 98.6500 169.00 177.81 13.00
9379 98.6600 180.00 182.57 13.42
9380 98.6700 186.00 187.92 13.64
9381 98.6800 224.00 193.57 14.97
9382 98.6900 220.00 199.73 14.83
9383 98.7000 245.00 206.44 15.65
9384 98.7100 235.00 213.74 15.33
9385 98.7200 214.00 221.67 14.63
9386 98.7300 233.00 230.31 15.26
9387 98.7400 226.00 239.69 15.03
9388 98.7500 226.00 249.85 15.03
9389 98.7600 260.00 260.86 16.12
9390 98.7700 258.00 272.74 16.06
9391 98.7800 294.00 285.53 17.15
9392 98.7900 334.00 299.21 18.28
9393 98.8000 337.00 313.83 18.36
9394 98.8100 328.00 329.36 18.11
9395 98.8200 320.00 345.72 17.89
9396 98.8300 335.00 362.89 18.30
9397 98.8400 386.00 380.76 19.65
9398 98.8500 388.00 399.18 19.70
9399 98.8600 396.00 417.97 19.90
9400 98.8700 399.00 436.90 19.98
9401 98.8800 428.00 455.70 20.69
9402 98.8900 450.00 474.01 21.21
9403 98.9000 461.00 491.35 21.47
9404 98.9100 477.00 507.28 21.84
9405 98.9200 512.00 521.23 22.63
9406 98.9300 514.00 532.59 22.67
9407 98.9400 482.00 540.84 21.95
9408 98.9500 558.00 545.50 23.62
9409 98.9600 505.00 546.25 22.47
9410 98.9700 547.00 542.97 23.39
9411 98.9800 508.00 535.77 22.54
9412 98.9900 532.00 525.00 23.07
9413 99.0000 513.00 511.15 22.65
9414 99.0100 496.00 494.86 22.27
9415 99.0200 461.00 476.80 21.47
9416 99.0300 432.00 457.62 20.78
9417 99.0400 474.00 437.94 21.77
9418 99.0500 407.00 418.23 20.17
9419 99.0600 391.00 398.91 19.77
9420 99.0700 387.00 380.30 19.67
9421 99.0800 369.00 362.56 19.21
9422 99.0900 370.00 345.87 19.24
9423 99.1000 309.00 330.30 17.58
9424 99.1100 290.00 315.87 17.03
9425 99.1200 307.00 302.57 17.52
9426 99.1300 281.00 290.38 16.76
9427 99.1400 292.00 279.25 17.09
9428 99.1500 269.00 269.13 16.40
9429 99.1600 275.00 259.92 16.58
9430 99.1700 240.00 251.59 15.49
9431 99.1800 243.00 244.04 15.59
9432 99.1900 262.00 237.19 16.19
9433 99.2000 223.00 230.98 14.93
9434 99.2100 217.00 225.33 14.73
9435 99.2200 243.00 220.18 15.59
9436 99.2300 234.00 215.46 15.30
9437 99.2400 228.00 211.12 15.10
9438 99.2500 211.00 207.11 14.53
9439 99.2600 233.00 203.39 15.26
9440 99.2700 232.00 199.94 15.23
9441 99.2800 209.00 196.71 14.46
9442 99.2900 215.00 193.71 14.66
9443 99.3000 208.00 190.89 14.42
9444 99.3100 215.00 188.25 14.66
9445 99.3200 212.00 185.77 14.56
9446 99.3300 214.00 183.45 14.63
9447 99.3400 207.00 181.27 14.39
9448 99.3500 197.00 179.25 14.04
9449 99.3600 194.00 177.34 13.93
9450 99.3700 195.00 175.55 13.96
9451 99.3800 208.00 173.87 14.42
9452 99.3900 197.00 172.32 14.04
9453 99.4000 188.00 170.88 13.71
9454 99.4100 200.00 169.54 14.14
9455 99.4200 205.00 168.31 14.32
9456 99.4300 174.00 167.19 13.19
9457 99.4400 185.00 166.18 13.60
9458 99.4500 198.00 165.28 14.07
9459 99.4600 184.00 164.49 13.56
9460 99.4700 172.00 163.87 13.11
9461 99.4800 164.00 163.30 12.81
9462 99.4900 182.00 162.83 13.49
9463 99.5000 173.00 162.48 13.15
9464 99.5100 172.00 162.23 13.11
9465 99.5200 157.00 162.09 12.53
9466 99.5300 168.00 162.05 12.96
9467 99.5400 156.00 162.11 12.49
9468 99.5500 175.00 162.27 13.23
9469 99.5600 171.00 162.53 13.08
9470 99.5700 144.00 162.87 12.00
9471 99.5800 174.00 163.31 13.19
9472 99.5900 175.00 163.82 13.23
9473 99.6000 176.00 164.42 13.27
9474 99.6100 168.00 165.08 12.96
9475 99.6200 155.00 165.82 12.45
9476 99.6300 163.00 166.62 12.77
9477 99.6400 156.00 167.49 12.49
9478 99.6500 162.00 168.41 12.73
9479 99.6600 177.00 169.39 13.30
9480 99.6700 155.00 170.42 12.45
9481 99.6800 157.00 171.49 12.53
9482 99.6900 164.00 172.61 12.81
9483 99.7000 160.00 173.76 12.65
9484 99.7100 152.00 174.95 12.33
9485 99.7200 171.00 176.16 13.08
9486 99.7300 169.00 177.41 13.00
9487 99.7400 173.00 178.67 13.15
9488 99.7500 189.00 179.94 13.75
9489 99.7600 170.00 181.23 13.04
9490 99.7700 156.00 182.52 12.49
9491 99.7800 197.00 183.82 14.04
9492 99.7900 202.00 185.10 14.21
9493 99.8000 196.00 186.38 14.00
9494 99.8100 203.00 187.63 14.25
9495 99.8200 191.00 188.85 13.82
9496 99.8300 195.00 190.04 13.96
9497 99.8400 204.00 191.18 14.28
9498 99.8500 202.00 192.27 14.21
9499 99.8600 187.00 193.31 13.67
9500 99.8700 184.00 194.31 13.56
9501 99.8800 225.00 195.26 15.00
9502 99.8900 194.00 196.17 13.93
9503 99.9000 211.00 197.05 14.53
9504 99.9100 170.00 197.93 13.04
9505 99.9200 219.00 198.82 14.80
9506 99.9300 185.00 199.89 13.60
9507 99.9400 183.00 200.82 13.53
9508 99.9500 195.00 201.80 13.96
9509 99.9600 181.00 202.84 13.45
9510 99.9700 194.00 203.95 13.93
9511 99.9800 197.00 205.13 14.04
9512 99.9900 169.00 206.36 13.00
9513 100.0000 194.00 207.66 13.93
9514 100.0100 192.00 208.99 13.86
9515 100.0200 190.00 210.32 13.78
9516 100.0300 219.00 211.62 14.80
9517 100.0400 206.00 212.85 14.35
9518 100.0500 203.00 213.96 14.25
9519 100.0600 195.00 214.90 13.96
9520 100.0700 201.00 215.61 14.18
loop_
_refln_index_h
_refln_index_k
_refln_index_l
_refln_F_squared_calc
_refln_F_squared_meas
_refln_F_squared_sigma
_refln_observed_status
_refln_d_spacing
0 2 0 101339.75 101656.85 1773.85 o 9.042910
0 2 1 1931.86 1286.92 51.34 o 6.011061
1 1 0 586.73 547.16 33.84 o 4.921630
0 4 0 59.33 105.14 84.87 o 4.521455
1 1 1 835.79 691.33 26.20 o 4.198462
0 0 2 1405.13 1373.68 74.87 o 4.023000
0 4 1 3306.75 3391.07 76.06 o 3.941714
1 3 0 114801.02 109216.11 1943.62 o 3.900137
1 2 1 924.19 878.35 17.58 o 3.895374
0 2 2 9278.56 7714.30 154.22 o 3.675671
1 3 1 10368.38 9935.76 212.08 o 3.509561
1 0 2 1288.63 1737.98 38.00 o 3.162053
1 4 1 1310.44 1297.89 25.59 o 3.122122
1 1 2 186763.77 184203.28 3324.43 o 3.114805
0 6 0 8598.12 8538.55 238.06 o 3.014303
0 4 2 152671.69 151476.11 2776.05 o 3.005530
1 2 2 19.21 21.49 0.48 o 2.984835
1 5 0 221275.64 223735.95 4164.03 o 2.953249
0 6 1 696.14 449.96 34.08 o 2.822720
1 3 2 4132.88 2885.21 55.59 o 2.800241
1 5 1 0.52 0.35 0.33 o 2.772396
1 4 2 0.59 0.36 0.04 o 2.591253
0 2 3 3602.36 3469.34 75.01 o 2.571293
2 0 0 134517.56 133955.89 2478.43 o 2.557325
1 6 1 10612.35 11077.58 265.05 o 2.471338
2 2 0 18228.91 19121.32 341.65 o 2.460815
2 1 1 0.27 0.27 0.04 o 2.415351
0 6 2 65117.39 64850.88 1282.47 o 2.412290
1 5 2 263.52 196.34 19.83 o 2.380654
1 1 3 9545.79 9824.58 227.96 o 2.355024
2 2 1 75.49 77.63 2.48 o 2.353215
0 4 3 3153.27 3444.97 73.74 o 2.306715
1 7 0 46111.12 51105.16 978.21 o 2.306147
1 2 3 5221.21 5877.49 138.66 o 2.297320
0 8 0 68972.79 69312.89 1434.44 o 2.260727
2 3 1 6679.03 6658.32 158.47 o 2.259525
2 4 0 4534.06 3392.89 97.16 o 2.225949
1 7 1 5278.54 4212.01 172.63 o 2.216884
1 3 3 320.82 276.99 13.98 o 2.209907
1 6 2 13.22 15.71 0.72 o 2.181798
0 8 1 17020.85 20064.98 786.19 o 2.176447
2 0 2 4.49 4.36 5.46 o 2.158188
2 4 1 2751.55 2068.09 106.02 o 2.145363
2 1 2 29.79 22.11 1.34 o 2.142984
1 4 3 1603.77 1787.06 51.58 o 2.102755
2 2 2 9928.53 11185.51 205.67 o 2.099231
2 3 2 140.17 109.88 5.99 o 2.031910
2 5 1 9.68 9.71 0.22 o 2.021196
0 0 4 214750.25 216023.97 4108.20 o 2.011500
0 6 3 467.55 482.75 6.07 o 2.003687
1 8 1 6451.55 6570.97 136.56 o 2.002668
1 7 2 5414.51 5686.23 68.59 o 2.000733
1 5 3 166.52 142.38 1.59 o 1.985447
0 8 2 19021.47 18696.46 325.67 o 1.970857
0 2 4 36555.57 38562.04 690.50 o 1.963510
2 6 0 1330.40 1339.67 6.29 o 1.950068
2 4 2 184333.64 184384.20 3414.79 o 1.947687
2 6 1 862.70 661.78 22.77 o 1.895200
1 0 4 1019.19 1154.98 89.96 o 1.871936
1 9 0 1.24 1.53 2.84 o 1.870352
1 6 3 1293.74 1711.83 121.85 o 1.865634
1 1 4 366.89 652.67 38.14 o 1.861989
2 5 2 181.20 148.87 43.05 o 1.853363
2 1 3 51.55 34.17 3.92 o 1.841192
1 8 2 125.87 80.77 8.06 o 1.839047
0 4 4 5272.78 3499.63 204.35 o 1.837835
1 2 4 0.36 0.25 0.03 o 1.833073
1 9 1 1384.06 1307.11 24.23 o 1.821778
2 2 3 7777.72 8094.82 187.76 o 1.813220
0 10 0 170152.55 170119.47 3680.01 o 1.808582
1 3 4 51073.11 50287.29 919.87 o 1.787736
2 7 1 5320.73 5069.03 150.16 o 1.772880
2 3 3 1738.06 1659.80 50.98 o 1.769305
0 10 1 882.50 830.08 8.93 o 1.764553
2 6 2 93116.88 88263.09 1654.81 o 1.754781
1 7 3 14181.12 13473.32 266.83 o 1.748607
1 4 4 121.78 172.82 8.60 o 1.729566
0 8 3 4552.75 6176.39 214.83 o 1.728557
2 4 3 7237.13 7020.03 175.98 o 1.712861
3 1 0 1381.64 1505.07 5.57 o 1.697358
1 9 2 118120.16 126929.97 2454.64 o 1.696018
2 8 0 57712.75 61587.13 1139.99 o 1.693777
0 6 4 320.26 285.93 7.36 o 1.673166
1 10 1 493.91 457.06 9.58 o 1.668072
1 5 4 105657.85 98722.73 1855.82 o 1.662501
3 1 1 268.91 250.34 5.99 o 1.660805
2 8 1 10126.54 9335.74 173.65 o 1.657450
2 7 2 121.97 111.65 2.38 o 1.656353
0 10 2 834.53 790.24 43.30 o 1.649556
2 5 3 0.57 0.56 0.02 o 1.647648
3 3 0 32719.55 35160.23 733.99 o 1.640543
3 2 1 1279.14 1368.36 34.92 o 1.640188
1 8 3 133.96 140.84 3.72 o 1.637565
3 3 1 6215.61 8111.25 212.56 o 1.607470
1 6 4 52.57 49.26 1.40 o 1.590238
0 2 5 17667.28 18664.44 404.24 o 1.584310
2 0 4 110324.43 116472.55 2212.15 o 1.581026
2 6 3 1372.05 1483.27 39.19 o 1.577224
2 1 4 88.85 92.08 2.06 o 1.575020
1 10 2 98.18 101.60 2.14 o 1.569926
3 0 2 245.34 257.07 5.69 o 1.569743
1 11 0 2333.72 2443.91 79.87 o 1.565277
3 4 1 4182.21 4369.20 90.33 o 1.564787
3 1 2 83712.63 87502.67 1609.59 o 1.563864
2 8 2 5479.36 5711.68 71.57 o 1.561061
2 2 4 18116.04 18640.79 309.20 o 1.557402
2 9 1 21.60 20.68 0.58 o 1.550458
3 2 2 377.83 348.16 8.22 o 1.546614
3 5 0 103003.74 96320.80 1944.02 o 1.542168
1 11 1 8372.82 7720.06 144.05 o 1.536472
1 9 3 6336.13 5966.08 136.52 o 1.534144
1 1 5 2073.18 1747.84 63.89 o 1.529518
2 3 4 133.47 111.82 4.42 o 1.529310
3 3 2 6758.85 5888.30 109.99 o 1.519091
0 4 5 129.08 112.94 4.75 o 1.516045
1 7 4 22653.82 19831.54 454.40 o 1.515884
3 5 1 40.47 35.26 0.26 o 1.514598
1 2 5 785.48 676.19 20.17 o 1.513369
0 12 0 17432.17 15986.71 365.82 o 1.507151
2 7 3 1688.02 1566.50 48.61 o 1.504599
0 8 4 37949.19 35241.90 946.28 o 1.502765
0 10 3 2348.91 2112.85 46.17 o 1.499499
2 4 4 206.83 209.38 6.65 o 1.492417
1 3 5 14855.76 15808.44 404.24 o 1.487553
3 4 2 187.03 194.60 5.64 o 1.482916
0 12 1 6127.87 6614.24 131.24 o 1.481387
2 10 0 63208.44 65898.16 1673.50 o 1.476625
2 9 2 0.88 0.93 0.04 o 1.470703
3 6 1 528.61 576.51 16.09 o 1.459353
1 11 2 44872.48 48676.47 1155.01 o 1.458750
1 4 5 303.42 299.13 10.45 o 1.453535
2 10 1 952.34 979.31 16.03 o 1.452369
2 5 4 1377.58 1278.67 84.74 o 1.448687
1 8 4 227.64 213.73 13.63 o 1.441819
3 5 2 457.33 452.01 63.64 o 1.439991
1 10 3 7.53 7.71 0.37 o 1.438933
3 1 3 2444.67 2490.78 135.14 o 1.434261
2 8 3 1.06 1.03 0.58 o 1.432098
3 7 0 13875.70 15788.62 347.51 o 1.423001
1 12 1 182.27 205.27 5.96 o 1.422905
3 2 3 7900.06 9122.24 268.46 o 1.420919
0 6 5 2424.54 2810.06 68.65 o 1.419575
1 5 5 3.88 4.12 1.27 o 1.413044
0 12 2 22560.75 24345.89 1161.23 o 1.411360
3 7 1 1471.64 1209.27 79.34 o 1.401254
2 6 4 195.37 158.20 42.36 o 1.400121
3 3 3 53.72 43.34 5.48 o 1.399487
3 6 2 296.91 253.55 19.97 o 1.392266
2 10 2 8081.71 6607.45 407.47 o 1.386198
3 4 3 7949.32 6242.06 227.17 o 1.371049
1 9 4 301.11 235.59 4.42 o 1.369722
1 6 5 2644.54 2058.74 79.20 o 1.367866
2 11 1 81.38 62.20 3.83 o 1.363006
2 9 3 163.20 130.99 14.87 o 1.361380
1 12 2 6.93 5.60 0.60 o 1.360512
2 1 5 92.53 81.05 13.92 o 1.358144
1 11 3 629.29 884.97 16.47 o 1.351883
2 7 4 66.49 82.03 2.47 o 1.348572
2 2 5 1564.98 1911.85 56.69 o 1.346800
0 10 4 57772.95 70430.12 1642.90 o 1.344896
1 13 0 52193.57 62499.29 1456.59 o 1.342441
3 8 1 10.07 11.93 0.70 o 1.342132
3 7 2 5506.61 6404.24 106.49 o 1.341549
0 0 6 579.94 665.95 41.46 o 1.341000
3 5 3 57.52 58.46 0.08 o 1.336911
2 3 5 1523.28 1329.13 99.58 o 1.328508
0 2 6 1841.90 1768.45 37.93 o 1.326494
1 13 1 6849.57 6911.92 284.95 o 1.324137
1 7 5 64.83 68.22 8.19 o 1.319678
0 12 3 17858.15 17128.11 505.27 o 1.313905
0 8 5 24910.21 23454.38 764.35 o 1.310995
2 11 2 43.43 36.87 1.32 o 1.307871
2 4 5 724.76 512.31 22.56 o 1.304108
1 10 4 27.02 25.29 0.71 o 1.300681
3 0 4 537.81 492.09 14.79 o 1.300577
3 9 0 631.59 619.79 1.70 o 1.300045
3 6 3 1827.41 1847.66 42.56 o 1.298458
2 12 0 13665.90 13809.25 237.54 o 1.298434
3 1 4 285.12 291.26 4.53 o 1.297227
1 0 6 304.96 312.62 6.87 o 1.297156
2 8 4 35824.05 36622.62 681.27 o 1.295626
1 1 6 51996.02 53463.27 1011.04 o 1.293832
2 10 3 619.36 636.39 6.21 o 1.293531
0 14 0 7087.89 7115.87 192.11 o 1.291844
3 8 2 114.59 111.94 2.46 o 1.289395
3 2 4 797.59 740.26 17.59 o 1.287331
0 4 6 62807.12 57771.46 1219.88 o 1.285647
1 2 6 188.70 173.34 4.07 o 1.284013
3 9 1 837.73 784.90 10.38 o 1.283401
2 12 1 6483.89 6117.47 111.24 o 1.281850
4 0 0 102480.41 100849.09 2180.35 o 1.278662
0 14 1 1891.87 1886.15 24.68 o 1.275508
2 5 5 0.03 0.03 0.00 o 1.274626
1 13 2 1579.49 1610.34 15.65 o 1.273414
1 12 3 1167.88 1208.54 28.68 o 1.272585
3 3 4 22054.28 23101.45 460.95 o 1.271329
1 8 5 2762.34 2955.41 72.16 o 1.269941
1 3 6 3669.26 3987.72 51.04 o 1.268133
4 2 0 32359.69 36193.48 780.54 o 1.266068
4 1 1 623.35 719.03 25.38 o 1.259748
3 7 3 10596.18 12056.79 390.41 o 1.257026
4 2 1 180.18 147.31 10.81 o 1.250679
3 4 4 417.22 310.42 19.33 o 1.249896
1 4 6 1926.91 1389.66 78.13 o 1.246859
2 9 4 125.07 110.97 3.23 o 1.242557
2 6 5 3091.70 2951.98 66.11 o 1.241171
1 14 1 1281.04 1308.88 30.38 o 1.237604
3 9 2 62025.64 63469.12 1332.81 o 1.237057
4 3 1 2700.36 2830.52 67.13 o 1.235990
2 12 2 2891.56 2965.44 38.39 o 1.235669
1 11 4 287.35 297.65 17.35 o 1.235324
4 4 0 106.04 106.74 4.73 o 1.230408
0 14 2 53791.78 50077.68 1026.54 o 1.229985
2 11 3 27.07 24.66 0.62 o 1.229193
3 10 1 1058.47 941.10 20.61 o 1.226087
0 6 6 36728.44 32251.71 608.63 o 1.225224
3 5 4 68462.31 59928.50 1183.85 o 1.223869
1 5 6 205.09 180.54 3.54 o 1.221017
1 9 5 168.08 149.46 6.99 o 1.219847
4 0 2 1379.20 1298.51 12.06 o 1.218591
4 4 1 263.73 272.94 8.48 o 1.216269
4 1 2 304.58 318.28 14.49 o 1.215835
3 8 3 2284.77 2518.25 118.43 o 1.213818
2 13 1 1526.03 1601.58 73.79 o 1.208226
4 2 2 926.40 941.05 5.05 o 1.207675
0 12 4 6555.47 6390.50 230.83 o 1.206145
2 7 5 1311.82 1250.37 67.51 o 1.204836
0 10 5 315.58 287.07 4.52 o 1.202212
1 13 3 1220.76 1174.04 34.08 o 1.200458
1 14 2 25.34 22.69 0.69 o 1.195891
4 3 2 20.50 17.70 0.60 o 1.194434
3 6 4 599.07 532.34 15.94 o 1.194163
4 5 1 51.46 46.62 1.24 o 1.192247
1 6 6 1800.12 1610.96 42.38 o 1.191513
2 10 4 54614.38 48843.31 1120.31 o 1.190327
2 0 6 3886.70 3546.08 54.84 o 1.187623
3 10 2 19.60 18.10 0.52 o 1.185489
2 1 6 186.07 165.00 5.76 o 1.185071
3 11 0 32.83 31.23 3.32 o 1.183484
2 2 6 6295.66 6193.04 93.91 o 1.177512
4 6 0 1293.25 1270.84 51.69 o 1.177132
4 4 2 41279.83 40687.20 826.64 o 1.176608
1 12 4 129.89 127.98 2.97 o 1.173944
1 15 0 32391.04 31972.62 638.34 o 1.173553
3 11 1 4344.56 4349.11 89.81 o 1.170885
1 10 5 201.45 201.55 5.92 o 1.170317
3 9 3 2404.40 2410.28 53.75 o 1.169854
2 13 2 16.91 16.98 0.49 o 1.169322
2 12 3 17764.50 17542.48 472.22 o 1.168679
3 1 5 13.72 12.76 0.27 o 1.167799
