#------------------------------------------------------------------------------
#$Date: 2021-04-14 07:10:29 +0300 (Wed, 14 Apr 2021) $
#$Revision: 264115 $
#$URL: file:///home/coder/svn-repositories/cod/cif/7/24/26/7242654.cif $
#------------------------------------------------------------------------------
#
# This file is available in the Crystallography Open Database (COD),
# http://www.crystallography.net/
#
# All data on this site have been placed in the public domain by the
# contributors.
#
data_7242654
loop_
_publ_author_name
'Miranda, Carlos Dar\'io'
'Villarroel-Rocha, Dimar'
'Sapag, Karim'
'L\'opez, Carlos Alberto'
'Pedregosa, Jos\'e Carmelo'
'Alonso, Jos\'e Antonio'
_publ_section_title
;
 Synthesis conditions impact on Sr11Mo4O23 electroceramic: crystal
 structure, stability and transport properties
;
_journal_issue                   23
_journal_name_full               'RSC Advances'
_journal_page_first              13814
_journal_page_last               13820
_journal_paper_doi               10.1039/D0RA10620H
_journal_volume                  11
_journal_year                    2021
_chemical_formula_iupac          Sr11Mo4O23
_chemical_formula_sum            'Mo4 O23 Sr11'
_chemical_formula_weight         1715.57
_space_group_IT_number           2
_space_group_name_Hall           '-P 1'
_space_group_name_H-M_alt        'P -1'
_symmetry_cell_setting           triclinic
_symmetry_space_group_name_Hall  '-P 1'
_symmetry_space_group_name_H-M   'P -1'
_audit_update_record
;
2020-12-07 deposited with the CCDC.	2021-03-24 downloaded from the CCDC.
;
_cell_angle_alpha                90.084(3)
_cell_angle_beta                 90.4494(13)
_cell_angle_gamma                89.964(4)
_cell_formula_units_Z            8
_cell_length_a                   16.4007(8)
_cell_length_b                   16.4236(5)
_cell_length_c                   16.4090(8)
_cell_measurement_temperature    298
_cell_volume                     4419.8(3)
_diffrn_ambient_temperature      298
_diffrn_measurement_device_type  ALBA-bl04
_diffrn_radiation_probe          x-rays
_diffrn_radiation_wavelength     0.3252
_exptl_crystal_preparation       electrolite
_exptl_crystal_recrystallization_method 'Solid state reaction'
_pd_calc_method                  '   Rietveld Refinement'
_pd_instr_location
' ?                                                                                         '
_pd_meas_2theta_range_inc        0.003000
_pd_meas_2theta_range_max        38.958000
_pd_meas_2theta_range_min        1.020000
_pd_proc_2theta_range_inc        0.003000
_pd_proc_2theta_range_max        38.959370
_pd_proc_2theta_range_min        1.021370
_pd_proc_info_excluded_regions
' ?                                                                                         '
_pd_proc_ls_background_function  '   FullProf Background function number  '
_pd_proc_ls_peak_cutoff          0.00500
_pd_proc_ls_profile_function
'                                                                              '
_pd_proc_ls_prof_R_factor        14.5144
_pd_proc_ls_prof_wR_expected     8.5919
_pd_proc_ls_prof_wR_factor       19.6397
_pd_proc_number_of_points        9333
_cod_data_source_file            d0ra10620h2.cif
_cod_data_source_block           Sr11Mo4O23_25
_cod_original_formula_sum        Sr11Mo4O23
_cod_database_code               7242654
_pd_proc_ls_prof_cr_factor       27.2830
_pd_proc_ls_prof_cwr_factor      30.7483
_pd_proc_ls_prof_cwr_expected    13.4517
_pd_proc_ls_prof_chi2            5.2251
_pd_proc_ls_prof_echi2           5.3663
_publcif_funding_html
;
;
loop_
_symmetry_equiv_pos_as_xyz
x,y,z
-x,-y,-z
loop_
_atom_site_label
_atom_site_fract_x
_atom_site_fract_y
_atom_site_fract_z
_atom_site_U_iso_or_equiv
_atom_site_occupancy
_atom_site_adp_type
_atom_site_type_symbol
Sr11 0.354(4) 0.122(4) 0.614(4) 0.0205(17) 1.00000 Uiso Sr+2
Sr12 0.864(4) 0.614(4) 0.623(4) 0.0205(17) 1.00000 Uiso Sr+2
Sr13 0.868(3) 0.601(3) 0.131(3) 0.0205(17) 1.00000 Uiso Sr+2
Sr14 0.121(4) 0.402(4) 0.133(4) 0.0205(17) 1.00000 Uiso Sr+2
Sr15 0.648(4) 0.352(4) 0.142(4) 0.0205(17) 1.00000 Uiso Sr+2
Sr16 0.643(4) 0.846(4) 0.632(4) 0.0205(17) 1.00000 Uiso Sr+2
Sr17 0.132(4) 0.910(4) 0.638(4) 0.0205(17) 1.00000 Uiso Sr+2
Sr18 0.135(4) 0.123(4) 0.401(4) 0.0205(17) 1.00000 Uiso Sr+2
Sr19 0.124(4) 0.629(4) 0.361(4) 0.0205(17) 1.00000 Uiso Sr+2
Sr110 0.651(3) 0.621(4) 0.884(3) 0.0205(17) 1.00000 Uiso Sr+2
Sr111 0.635(4) 0.119(4) 0.909(4) 0.0205(17) 1.00000 Uiso Sr+2
Sr112 0.864(4) 0.652(4) 0.373(4) 0.0205(17) 1.00000 Uiso Sr+2
Sr113 0.382(4) 0.097(4) 0.861(4) 0.0205(17) 1.00000 Uiso Sr+2
Sr114 0.086(3) 0.855(4) 0.389(3) 0.0205(17) 1.00000 Uiso Sr+2
Sr115 0.652(4) 0.386(4) 0.898(4) 0.0205(17) 1.00000 Uiso Sr+2
Sr116 0.865(4) 0.387(4) 0.108(4) 0.0205(17) 1.00000 Uiso Sr+2
Sr117 0.387(4) 0.852(4) 0.651(4) 0.0205(17) 1.00000 Uiso Sr+2
Sr118 0.399(4) 0.641(4) 0.621(4) 0.0205(17) 1.00000 Uiso Sr+2
Sr119 0.852(4) 0.118(4) 0.122(4) 0.0205(17) 1.00000 Uiso Sr+2
Sr120 0.142(4) 0.139(4) 0.857(4) 0.0205(17) 1.00000 Uiso Sr+2
Sr121 0.636(4) 0.615(4) 0.408(4) 0.0205(17) 1.00000 Uiso Sr+2
Sr122 0.862(3) 0.153(4) 0.869(4) 0.0205(17) 1.00000 Uiso Sr+2
Sr123 0.392(4) 0.596(4) 0.383(4) 0.0205(17) 1.00000 Uiso Sr+2
Sr124 0.393(4) 0.142(4) 0.123(4) 0.0205(17) 1.00000 Uiso Sr+2
Sr21 0.373(4) 0.372(3) 0.377(4) 0.017(4) 1.00000 Uiso Sr+2
Sr22 0.375(4) 0.877(4) 0.876(4) 0.017(4) 1.00000 Uiso Sr+2
Sr23 0.884(4) 0.876(4) 0.377(4) 0.017(4) 1.00000 Uiso Sr+2
Sr24 0.882(4) 0.379(4) 0.882(4) 0.017(4) 1.00000 Uiso Sr+2
Sr31 0.218(4) 0.229(4) 0.243(3) 0.020(2) 1.00000 Uiso Sr+2
Sr32 0.525(4) 0.012(4) 0.728(3) 0.020(2) 1.00000 Uiso Sr+2
Sr33 0.033(3) 0.741(4) 0.527(3) 0.020(2) 1.00000 Uiso Sr+2
Sr34 0.738(3) 0.533(3) 0.030(3) 0.020(2) 1.00000 Uiso Sr+2
Sr35 0.969(3) 0.493(4) 0.276(3) 0.020(2) 1.00000 Uiso Sr+2
Sr36 0.511(3) 0.280(3) 0.974(3) 0.020(2) 1.00000 Uiso Sr+2
Sr37 0.270(3) 0.973(3) 0.488(4) 0.020(2) 1.00000 Uiso Sr+2
Sr38 0.226(4) 0.734(4) 0.710(3) 0.020(2) 1.00000 Uiso Sr+2
Sr39 0.521(4) 0.515(4) 0.233(3) 0.020(2) 1.00000 Uiso Sr+2
Sr310 0.051(3) 0.258(3) 0.023(3) 0.020(2) 1.00000 Uiso Sr+2
Sr311 0.973(4) 0.991(4) 0.773(4) 0.020(2) 1.00000 Uiso Sr+2
Sr312 0.475(3) 0.769(4) 0.471(3) 0.020(2) 1.00000 Uiso Sr+2
Sr313 0.726(4) 0.232(4) 0.734(4) 0.020(2) 1.00000 Uiso Sr+2
Sr314 0.225(4) 0.540(4) 0.515(4) 0.020(2) 1.00000 Uiso Sr+2
Sr315 0.763(4) 0.975(4) 0.991(4) 0.020(2) 1.00000 Uiso Sr+2
Sr316 0.728(3) 0.733(4) 0.260(3) 0.020(2) 1.00000 Uiso Sr+2
Mo101 0.50000 0.50000 0.50000 0.014(2) 1.00000 Uiso Mo+6
Mo102 0.255(4) 0.756(4) -0.002(4) 0.014(2) 1.00000 Uiso Mo+6
Mo103 0.748(4) 0.005(4) 0.258(4) 0.014(2) 1.00000 Uiso Mo+6
Mo104 0.005(4) 0.247(4) 0.762(4) 0.014(2) 1.00000 Uiso Mo+6
Mo105 0.50000 0.00000 0.00000 0.014(2) 1.00000 Uiso Mo+6
Mo106 0.247(4) 0.249(4) 0.504(4) 0.014(2) 1.00000 Uiso Mo+6
Mo107 0.760(3) 0.492(4) 0.767(3) 0.014(2) 1.00000 Uiso Mo+6
Mo108 0.00000 0.50000 0.00000 0.014(2) 1.00000 Uiso Mo+6
Mo109 0.500(3) 0.256(4) 0.253(4) 0.014(2) 1.00000 Uiso Mo+6
Mo110 0.00000 0.00000 0.50000 0.014(2) 1.00000 Uiso Mo+6
Mo201 0.00000 0.00000 0.00000 0.017(3) 1.00000 Uiso Mo+6
Mo202 0.746(3) 0.251(4) 0.503(4) 0.017(3) 1.00000 Uiso Mo+6
Mo203 0.269(4) 0.500(4) 0.764(3) 0.017(3) 1.00000 Uiso Mo+6
Mo204 0.501(4) 0.753(4) 0.245(4) 0.017(3) 1.00000 Uiso Mo+6
Mo205 0.00000 0.50000 0.50000 0.017(3) 1.00000 Uiso Mo+6
Mo206 0.758(4) 0.750(4) 0.003(4) 0.017(3) 1.00000 Uiso Mo+6
Mo207 0.270(3) 0.001(4) 0.251(3) 0.017(3) 1.00000 Uiso Mo+6
Mo208 0.50000 0.00000 0.50000 0.017(3) 1.00000 Uiso Mo+6
Mo209 0.020(3) 0.752(4) 0.757(4) 0.017(3) 1.00000 Uiso Mo+6
Mo210 0.50000 0.50000 0.00000 0.017(3) 1.00000 Uiso Mo+6
O101 0.49870 0.49870 0.61180 0.013(3) 1.00000 Uiso O-2
O102 0.25130 0.75130 0.11180 0.013(3) 1.00000 Uiso O-2
O103 0.75130 0.99870 0.13820 0.013(3) 1.00000 Uiso O-2
O104 0.99870 0.25130 0.63820 0.013(3) 1.00000 Uiso O-2
O105 0.61180 0.49870 0.49870 0.013(3) 1.00000 Uiso O-2
O106 0.11180 0.25130 0.75130 0.013(3) 1.00000 Uiso O-2
O107 0.13820 0.75130 0.99870 0.013(3) 1.00000 Uiso O-2
O108 0.63820 0.99870 0.25130 0.013(3) 1.00000 Uiso O-2
O109 0.49870 0.61180 0.49870 0.013(3) 1.00000 Uiso O-2
O110 0.75130 0.11180 0.25130 0.013(3) 1.00000 Uiso O-2
O111 0.99870 0.13820 0.75130 0.013(3) 1.00000 Uiso O-2
O112 0.25130 0.63820 0.99870 0.013(3) 1.00000 Uiso O-2
O113 0.24870 0.74870 0.88820 0.013(3) 1.00000 Uiso O-2
O114 0.74870 0.00130 0.36180 0.013(3) 1.00000 Uiso O-2
O115 0.00130 0.24870 0.86180 0.013(3) 1.00000 Uiso O-2
O116 0.24870 0.86180 0.00130 0.013(3) 1.00000 Uiso O-2
O117 0.00130 0.36180 0.74870 0.013(3) 1.00000 Uiso O-2
O118 0.74870 0.88820 0.24870 0.013(3) 1.00000 Uiso O-2
O119 0.36180 0.74870 0.00130 0.013(3) 1.00000 Uiso O-2
O120 0.86180 0.00130 0.24870 0.013(3) 1.00000 Uiso O-2
O121 0.88820 0.24870 0.74870 0.013(3) 1.00000 Uiso O-2
O122 0.49870 0.99870 0.11180 0.013(3) 1.00000 Uiso O-2
O123 0.25130 0.25130 0.61180 0.013(3) 1.00000 Uiso O-2
O124 0.75130 0.49870 0.63820 0.013(3) 1.00000 Uiso O-2
O125 0.61180 0.99870 0.99870 0.013(3) 1.00000 Uiso O-2
O126 0.13820 0.25130 0.49870 0.013(3) 1.00000 Uiso O-2
O127 0.63820 0.49870 0.75130 0.013(3) 1.00000 Uiso O-2
O128 0.49870 0.11180 0.99870 0.013(3) 1.00000 Uiso O-2
O129 0.75130 0.61180 0.75130 0.013(3) 1.00000 Uiso O-2
O130 0.25130 0.13820 0.49870 0.013(3) 1.00000 Uiso O-2
O131 0.24870 0.24870 0.38820 0.013(3) 1.00000 Uiso O-2
O132 0.74870 0.50130 0.86180 0.013(3) 1.00000 Uiso O-2
O133 0.24870 0.36180 0.50130 0.013(3) 1.00000 Uiso O-2
O134 0.74870 0.38820 0.74870 0.013(3) 1.00000 Uiso O-2
O135 0.36180 0.24870 0.50130 0.013(3) 1.00000 Uiso O-2
O136 0.86180 0.50130 0.74870 0.013(3) 1.00000 Uiso O-2
O137 0.99870 0.49870 0.11180 0.013(3) 1.00000 Uiso O-2
O138 0.49870 0.25130 0.13820 0.013(3) 1.00000 Uiso O-2
O139 0.11180 0.49870 0.99870 0.013(3) 1.00000 Uiso O-2
O140 0.61180 0.25130 0.25130 0.013(3) 1.00000 Uiso O-2
O141 0.99870 0.61180 0.99870 0.013(3) 1.00000 Uiso O-2
O142 0.49870 0.13820 0.25130 0.013(3) 1.00000 Uiso O-2
O143 0.50130 0.24870 0.36180 0.013(3) 1.00000 Uiso O-2
O144 0.50130 0.36180 0.24870 0.013(3) 1.00000 Uiso O-2
O145 0.38820 0.24870 0.24870 0.013(3) 1.00000 Uiso O-2
O146 0.99870 0.99870 0.61180 0.013(3) 1.00000 Uiso O-2
O147 0.11180 0.99870 0.49870 0.013(3) 1.00000 Uiso O-2
O148 0.99870 0.11180 0.49870 0.013(3) 1.00000 Uiso O-2
O201 0.07920 0.07920 0.00440 0.123(12) 0.49995 Uiso O-2
O202 0.67080 0.17080 0.50440 0.123(12) 0.49995 Uiso O-2
O203 0.17080 0.57920 0.74560 0.123(12) 0.49995 Uiso O-2
O204 0.57920 0.67080 0.24560 0.123(12) 0.49995 Uiso O-2
O205 0.00440 0.07920 0.07920 0.123(12) 0.49995 Uiso O-2
O206 0.50440 0.67080 0.17080 0.123(12) 0.49995 Uiso O-2
O207 0.74560 0.17080 0.57920 0.123(12) 0.49995 Uiso O-2
O208 0.24560 0.57920 0.67080 0.123(12) 0.49995 Uiso O-2
O209 0.07920 0.00440 0.07920 0.123(12) 0.49995 Uiso O-2
O210 0.17080 0.50440 0.67080 0.123(12) 0.49995 Uiso O-2
O211 0.57920 0.74560 0.17080 0.123(12) 0.49995 Uiso O-2
O212 0.67080 0.24560 0.57920 0.123(12) 0.49995 Uiso O-2
O213 0.82920 0.32920 0.49560 0.123(12) 0.49995 Uiso O-2
O214 0.32920 0.42080 0.75440 0.123(12) 0.49995 Uiso O-2
O215 0.42080 0.82920 0.25440 0.123(12) 0.49995 Uiso O-2
O216 0.82920 0.25440 0.42080 0.123(12) 0.49995 Uiso O-2
O217 0.42080 0.75440 0.32920 0.123(12) 0.49995 Uiso O-2
O218 0.32920 0.49560 0.82920 0.123(12) 0.49995 Uiso O-2
O219 0.75440 0.32920 0.42080 0.123(12) 0.49995 Uiso O-2
O220 0.25440 0.42080 0.82920 0.123(12) 0.49995 Uiso O-2
O221 0.49560 0.82920 0.32920 0.123(12) 0.49995 Uiso O-2
O222 0.07920 0.57920 0.50440 0.123(12) 0.49995 Uiso O-2
O223 0.67080 0.67080 0.00440 0.123(12) 0.49995 Uiso O-2
O224 0.17080 0.07920 0.24560 0.123(12) 0.49995 Uiso O-2
O225 0.00440 0.57920 0.57920 0.123(12) 0.49995 Uiso O-2
O226 0.74560 0.67080 0.07920 0.123(12) 0.49995 Uiso O-2
O227 0.24560 0.07920 0.17080 0.123(12) 0.49995 Uiso O-2
O228 0.07920 0.50440 0.57920 0.123(12) 0.49995 Uiso O-2
O229 0.17080 0.00440 0.17080 0.123(12) 0.49995 Uiso O-2
O230 0.67080 0.74560 0.07920 0.123(12) 0.49995 Uiso O-2
O231 0.82920 0.82920 0.99560 0.123(12) 0.49995 Uiso O-2
O232 0.32920 0.92080 0.25440 0.123(12) 0.49995 Uiso O-2
O233 0.82920 0.75440 0.92080 0.123(12) 0.49995 Uiso O-2
O234 0.32920 0.99560 0.32920 0.123(12) 0.49995 Uiso O-2
O235 0.75440 0.82920 0.92080 0.123(12) 0.49995 Uiso O-2
O236 0.25440 0.92080 0.32920 0.123(12) 0.49995 Uiso O-2
O237 0.57920 0.07920 0.50440 0.123(12) 0.49995 Uiso O-2
O238 0.07920 0.67080 0.74560 0.123(12) 0.49995 Uiso O-2
O239 0.50440 0.07920 0.57920 0.123(12) 0.49995 Uiso O-2
O240 0.00440 0.67080 0.67080 0.123(12) 0.49995 Uiso O-2
O241 0.57920 0.00440 0.57920 0.123(12) 0.49995 Uiso O-2
O242 0.07920 0.74560 0.67080 0.123(12) 0.49995 Uiso O-2
O243 0.92080 0.82920 0.75440 0.123(12) 0.49995 Uiso O-2
O244 0.92080 0.75440 0.82920 0.123(12) 0.49995 Uiso O-2
O245 0.99560 0.82920 0.82920 0.123(12) 0.49995 Uiso O-2
O246 0.57920 0.57920 0.00440 0.123(12) 0.49995 Uiso O-2
O247 0.50440 0.57920 0.07920 0.123(12) 0.49995 Uiso O-2
O248 0.57920 0.50440 0.07920 0.123(12) 0.49995 Uiso O-2
O301 0.00000 0.07740 0.92260 0.123(12) 0.49995 Uiso O-2
O302 0.75000 0.17260 0.42260 0.123(12) 0.49995 Uiso O-2
O303 0.25000 0.57740 0.82740 0.123(12) 0.49995 Uiso O-2
O304 0.50000 0.67260 0.32740 0.123(12) 0.49995 Uiso O-2
O305 0.92260 0.00000 0.07740 0.123(12) 0.49995 Uiso O-2
O306 0.42260 0.75000 0.17260 0.123(12) 0.49995 Uiso O-2
O307 0.82740 0.25000 0.57740 0.123(12) 0.49995 Uiso O-2
O308 0.32740 0.50000 0.67260 0.123(12) 0.49995 Uiso O-2
O309 0.07740 0.92260 0.00000 0.123(12) 0.49995 Uiso O-2
O310 0.17260 0.42260 0.75000 0.123(12) 0.49995 Uiso O-2
O311 0.57740 0.82740 0.25000 0.123(12) 0.49995 Uiso O-2
O312 0.67260 0.32740 0.50000 0.123(12) 0.49995 Uiso O-2
O313 0.00000 0.57740 0.42260 0.123(12) 0.49995 Uiso O-2
O314 0.75000 0.67260 0.92260 0.123(12) 0.49995 Uiso O-2
O315 0.25000 0.07740 0.32740 0.123(12) 0.49995 Uiso O-2
O316 0.50000 0.17260 0.82740 0.123(12) 0.49995 Uiso O-2
O317 0.92260 0.50000 0.57740 0.123(12) 0.49995 Uiso O-2
O318 0.42260 0.25000 0.67260 0.123(12) 0.49995 Uiso O-2
O319 0.82740 0.75000 0.07740 0.123(12) 0.49995 Uiso O-2
O320 0.32740 0.00000 0.17260 0.123(12) 0.49995 Uiso O-2
O321 0.07740 0.42260 0.50000 0.123(12) 0.49995 Uiso O-2
O322 0.17260 0.92260 0.25000 0.123(12) 0.49995 Uiso O-2
O323 0.57740 0.32740 0.75000 0.123(12) 0.49995 Uiso O-2
O324 0.67260 0.82740 0.00000 0.123(12) 0.49995 Uiso O-2
O325 0.50000 0.07740 0.42260 0.123(12) 0.49995 Uiso O-2
O326 0.25000 0.17260 0.92260 0.123(12) 0.49995 Uiso O-2
O327 0.75000 0.57740 0.32740 0.123(12) 0.49995 Uiso O-2
O328 0.00000 0.67260 0.82740 0.123(12) 0.49995 Uiso O-2
O329 0.42260 0.00000 0.57740 0.123(12) 0.49995 Uiso O-2
O330 0.92260 0.75000 0.67260 0.123(12) 0.49995 Uiso O-2
O331 0.32740 0.25000 0.07740 0.123(12) 0.49995 Uiso O-2
O332 0.82740 0.50000 0.17260 0.123(12) 0.49995 Uiso O-2
O333 0.57740 0.92260 0.50000 0.123(12) 0.49995 Uiso O-2
O334 0.67260 0.42260 0.25000 0.123(12) 0.49995 Uiso O-2
O335 0.07740 0.82740 0.75000 0.123(12) 0.49995 Uiso O-2
O336 0.17260 0.32740 0.00000 0.123(12) 0.49995 Uiso O-2
O337 0.50000 0.57740 0.92260 0.123(12) 0.49995 Uiso O-2
O338 0.25000 0.67260 0.42260 0.123(12) 0.49995 Uiso O-2
O339 0.75000 0.07740 0.82740 0.123(12) 0.49995 Uiso O-2
O340 0.00000 0.17260 0.32740 0.123(12) 0.49995 Uiso O-2
O341 0.42260 0.50000 0.07740 0.123(12) 0.49995 Uiso O-2
O342 0.92260 0.25000 0.17260 0.123(12) 0.49995 Uiso O-2
O343 0.32740 0.75000 0.57740 0.123(12) 0.49995 Uiso O-2
O344 0.82740 0.00000 0.67260 0.123(12) 0.49995 Uiso O-2
O345 0.57740 0.42260 0.00000 0.123(12) 0.49995 Uiso O-2
O346 0.67260 0.92260 0.75000 0.123(12) 0.49995 Uiso O-2
O347 0.07740 0.32740 0.25000 0.123(12) 0.49995 Uiso O-2
O348 0.17260 0.82740 0.50000 0.123(12) 0.49995 Uiso O-2
loop_
_atom_type_symbol
_atom_type_scat_Cromer_Mann_a1
_atom_type_scat_Cromer_Mann_b1
_atom_type_scat_Cromer_Mann_a2
_atom_type_scat_Cromer_Mann_b2
_atom_type_scat_Cromer_Mann_a3
_atom_type_scat_Cromer_Mann_b3
_atom_type_scat_Cromer_Mann_a4
_atom_type_scat_Cromer_Mann_b4
_atom_type_scat_Cromer_Mann_c
_atom_type_scat_dispersion_real
_atom_type_scat_dispersion_imag
_atom_type_scat_source
sr+2 18.08740 1.49070 8.13730 12.69630 2.56540 24.56510 -34.19300 -0.01380
41.40250 -0.23000 2.20300
International_Tables_for_Crystallography_Vol.C(1991)_Tables_6.1.1.4_and_6.1.1.5
mo+6 17.88710 1.03649 11.17500 8.48061 6.57891 0.05888 0.00000 0.00000 0.34494
-1.41600 3.10300
International_Tables_for_Crystallography_Vol.C(1991)_Tables_6.1.1.4_and_6.1.1.5
o-2 4.75800 7.83100 3.63700 30.05000 0.00000 0.00000 0.00000 0.00000 1.59400
0.00300 0.00400
International_Tables_for_Crystallography_Vol.C(1991)_Tables_6.1.1.4_and_6.1.1.5
loop_
_geom_angle_atom_site_label_1
_geom_angle_atom_site_label_2
_geom_angle_atom_site_label_3
_geom_angle_site_symmetry_1
_geom_angle_site_symmetry_2
_geom_angle_site_symmetry_3
_geom_angle
_geom_angle_publ_flag
? ? ? ? ? ? ? ?
loop_
_geom_bond_atom_site_label_1
_geom_bond_atom_site_label_2
_geom_bond_site_symmetry_1
_geom_bond_site_symmetry_2
_geom_bond_distance
_geom_bond_publ_flag
? ? ? ? ? ?
loop_
_geom_contact_atom_site_label_1
_geom_contact_atom_site_label_2
_geom_contact_distance
_geom_contact_site_symmetry_1
_geom_contact_site_symmetry_2
_geom_contact_publ_flag
? ? ? ? ? ?
loop_
_geom_hbond_atom_site_label_D
_geom_hbond_atom_site_label_H
_geom_hbond_atom_site_label_A
_geom_hbond_site_symmetry_D
_geom_hbond_site_symmetry_H
_geom_hbond_site_symmetry_A
_geom_hbond_distance_DH
_geom_hbond_distance_HA
_geom_hbond_distance_DA
_geom_hbond_angle_DHA
_geom_hbond_publ_flag
? ? ? ? ? ? ? ? ? ? ?
loop_
_geom_torsion_atom_site_label_1
_geom_torsion_atom_site_label_2
_geom_torsion_atom_site_label_3
_geom_torsion_atom_site_label_4
_geom_torsion_site_symmetry_1
_geom_torsion_site_symmetry_2
_geom_torsion_site_symmetry_3
_geom_torsion_site_symmetry_4
_geom_torsion
_geom_torsion_publ_flag
? ? ? ? ? ? ? ? ? ?
loop_
_pd_proc_point_id
_pd_proc_2theta_corrected
_pd_proc_intensity_total
_pd_calc_intensity_total
_pd_proc_intensity_bkg_calc
328 2.0024 89(17) 134.4523 118.1080
329 2.0054 140(22) 131.9948 118.1415
330 2.0084 102(19) 127.1434 118.1750
331 2.0114 144(22) 124.3901 118.2085
332 2.0144 127(21) 123.5990 118.2420
333 2.0174 144(22) 122.9621 118.2756
334 2.0204 123(20) 118.3091 118.3091
335 2.0234 144(22) 118.3426 118.3426
336 2.0264 117(20) 118.3761 118.3761
337 2.0294 125(21) 118.4096 118.4096
338 2.0324 105(19) 118.4431 118.4431
339 2.0354 123(20) 118.4766 118.4766
340 2.0384 169(24) 118.5101 118.5101
341 2.0414 106(19) 118.5436 118.5436
342 2.0444 111(19) 118.5771 118.5771
343 2.0474 121(20) 118.6106 118.6106
344 2.0504 170(24) 118.6441 118.6441
345 2.0534 128(21) 118.6776 118.6776
346 2.0564 123(20) 118.7111 118.7111
347 2.0594 103(19) 118.7446 118.7446
348 2.0624 99(18) 118.7781 118.7781
349 2.0654 74(16) 118.8116 118.8116
350 2.0684 117(20) 118.8451 118.8451
351 2.0714 177(24) 118.8786 118.8786
352 2.0744 99(18) 118.9122 118.9122
353 2.0774 110(19) 118.9457 118.9457
354 2.0804 112(19) 118.9792 118.9792
355 2.0834 111(19) 118.8619 118.8619
356 2.0864 138(22) 118.6898 118.6898
357 2.0894 94(18) 118.5177 118.5177
358 2.0924 114(20) 118.3456 118.3456
359 2.0954 96(18) 118.1735 118.1735
360 2.0984 105(19) 118.0014 118.0014
361 2.1014 111(19) 117.8293 117.8293
362 2.1044 125(21) 117.6572 117.6572
363 2.1074 136(21) 117.4851 117.4851
364 2.1104 117(20) 117.3130 117.3130
365 2.1134 99(18) 117.1409 117.1409
366 2.1164 113(19) 116.9688 116.9688
367 2.1194 133(21) 116.7967 116.7967
368 2.1224 116(20) 116.6246 116.6246
369 2.1254 120(20) 116.4525 116.4525
370 2.1284 126(21) 116.2804 116.2804
371 2.1314 106(19) 116.1083 116.1083
372 2.1344 115(20) 115.9362 115.9362
373 2.1374 101(19) 115.7641 115.7641
374 2.1404 132(21) 115.5920 115.5920
375 2.1434 94(18) 115.4199 115.4199
376 2.1464 102(19) 115.2478 115.2478
377 2.1494 100(19) 115.0757 115.0757
378 2.1524 115(20) 114.9036 114.9036
379 2.1554 117(20) 114.7315 114.7315
380 2.1584 122(20) 114.5594 114.5594
381 2.1614 110(20) 114.3873 114.3873
382 2.1644 111(19) 114.2152 114.2152
383 2.1674 128(21) 114.0431 114.0431
384 2.1704 95(18) 113.8710 113.8710
385 2.1734 124(21) 113.6989 113.6989
386 2.1764 118(20) 113.5268 113.5268
387 2.1794 101(19) 113.3547 113.3547
388 2.1824 135(21) 113.1826 113.1826
389 2.1854 157(23) 113.0105 113.0105
390 2.1884 130(21) 112.8384 112.8384
391 2.1914 105(19) 112.6663 112.6663
392 2.1944 86(17) 112.4942 112.4942
393 2.1974 169(24) 112.3221 112.3221
394 2.2004 117(20) 112.1500 112.1500
395 2.2034 141(22) 111.9779 111.9779
396 2.2064 106(19) 111.8058 111.8058
397 2.2094 100(19) 111.6337 111.6337
398 2.2124 107(19) 111.4616 111.4616
399 2.2154 151(23) 111.2895 111.2895
400 2.2184 112(20) 111.1174 111.1174
401 2.2214 133(21) 110.9453 110.9453
402 2.2244 136(21) 110.7733 110.7732
403 2.2274 110(19) 111.8952 110.6011
404 2.2304 127(21) 111.9134 110.4290
405 2.2334 114(20) 111.9768 110.2569
406 2.2364 91(18) 112.1005 110.0849
407 2.2394 125(21) 112.3072 109.9128
408 2.2424 126(21) 112.6306 109.7407
409 2.2454 130(21) 113.1235 109.5686
410 2.2484 158(23) 113.8719 109.3965
411 2.2514 121(20) 115.0227 109.2244
412 2.2544 117(20) 116.8485 109.0523
413 2.2574 130(21) 119.9789 108.8802
414 2.2604 121(20) 126.6618 108.7081
415 2.2634 162(23) 145.5170 108.5360
416 2.2664 164(24) 195.9261 108.3639
417 2.2694 199(26) 284.6268 108.1918
418 2.2724 206(26) 336.6384 108.0197
419 2.2754 181(25) 268.3633 107.8476
420 2.2784 149(22) 183.5640 107.6755
421 2.2814 105(19) 139.6105 107.5034
422 2.2844 130(21) 123.6144 107.3313
423 2.2874 140(22) 117.5443 107.1592
424 2.2904 144(22) 114.3761 106.9871
425 2.2934 115(20) 112.3503 106.8150
426 2.2964 148(22) 110.9383 106.6429
427 2.2994 125(21) 109.8975 106.4708
428 2.3024 94(18) 109.0942 106.2987
429 2.3054 127(21) 108.4496 106.1266
430 2.3084 150(22) 107.9148 105.9545
431 2.3114 108(19) 107.4584 105.7824
432 2.3144 121(20) 107.0595 105.6103
433 2.3174 118(20) 106.7034 105.4382
434 2.3204 144(22) 105.2661 105.2661
435 2.3234 135(21) 105.0940 105.0940
436 2.3264 106(19) 104.9219 104.9219
437 2.3294 79(17) 104.7498 104.7498
438 2.3324 107(19) 104.5777 104.5777
439 2.3354 109(19) 104.4056 104.4056
440 2.3384 102(19) 104.2335 104.2335
441 2.3414 79(17) 104.0614 104.0614
442 2.3444 109(19) 103.8893 103.8893
443 2.3474 116(20) 103.7172 103.7172
444 2.3504 105(19) 103.5451 103.5451
445 2.3534 88(17) 103.3730 103.3730
446 2.3564 95(18) 103.2009 103.2009
447 2.3594 97(18) 103.0288 103.0288
448 2.3624 75(16) 102.9404 102.9404
449 2.3654 109(19) 102.8519 102.8519
450 2.3684 96(18) 102.7635 102.7635
451 2.3714 110(19) 102.6750 102.6750
452 2.3744 80(17) 102.5866 102.5866
453 2.3774 103(19) 102.4981 102.4981
454 2.3804 120(20) 102.4097 102.4097
455 2.3834 134(21) 102.3212 102.3212
456 2.3864 115(20) 102.2328 102.2328
457 2.3894 98(18) 102.1443 102.1443
458 2.3924 122(20) 102.0559 102.0559
459 2.3954 90(17) 101.9674 101.9674
460 2.3984 120(20) 101.8790 101.8790
461 2.4014 122(20) 101.7905 101.7905
462 2.4044 85(17) 101.7021 101.7021
463 2.4074 93(18) 101.6136 101.6136
464 2.4104 113(20) 101.5252 101.5252
465 2.4134 94(18) 101.4367 101.4367
466 2.4164 123(20) 101.3483 101.3483
467 2.4194 89(17) 101.2598 101.2598
468 2.4224 108(19) 101.1714 101.1714
469 2.4254 104(19) 101.0830 101.0830
470 2.4284 101(18) 100.9945 100.9945
471 2.4314 126(21) 100.9061 100.9061
472 2.4344 139(22) 100.8176 100.8176
473 2.4374 109(19) 100.7292 100.7292
474 2.4404 126(20) 100.6407 100.6407
475 2.4434 117(20) 100.5523 100.5523
476 2.4464 109(19) 100.4638 100.4638
477 2.4494 121(20) 100.3754 100.3754
478 2.4524 113(19) 100.2869 100.2869
479 2.4554 124(20) 100.1985 100.1985
480 2.4584 134(21) 100.1100 100.1100
481 2.4614 92(18) 100.0216 100.0216
482 2.4644 91(18) 99.9331 99.9331
483 2.4674 140(22) 99.8447 99.8447
484 2.4704 133(21) 99.7562 99.7562
485 2.4734 145(22) 99.6678 99.6678
486 2.4764 173(24) 99.5793 99.5793
487 2.4794 166(24) 99.4909 99.4909
488 2.4824 132(21) 99.4025 99.4025
489 2.4854 127(21) 99.3259 99.3140
490 2.4884 92(18) 99.5813 99.2256
491 2.4914 127(21) 100.1080 99.1371
492 2.4944 108(19) 100.9059 99.0487
493 2.4974 95(18) 101.1095 98.9602
494 2.5004 88(17) 101.3879 98.8718
495 2.5034 96(18) 102.0891 98.7833
496 2.5064 66(15) 102.6623 98.6949
497 2.5094 123(20) 103.4579 98.6064
498 2.5124 166(24) 104.5895 98.5180
499 2.5154 107(19) 106.2551 98.4295
500 2.5184 73(16) 108.8668 98.3411
501 2.5214 79(17) 113.6575 98.2526
502 2.5244 79(16) 124.8837 98.1642
503 2.5274 111(19) 152.8839 98.0757
504 2.5304 104(19) 209.2552 97.9873
505 2.5334 118(20) 281.8945 97.8988
506 2.5364 159(23) 338.3359 97.8104
507 2.5394 121(20) 336.0305 97.7219
508 2.5424 143(22) 269.5229 97.6335
509 2.5454 124(21) 214.2914 97.5451
510 2.5484 88(17) 188.3138 97.4566
511 2.5514 101(18) 155.5538 97.3682
512 2.5544 140(22) 127.6947 97.2797
513 2.5574 100(19) 113.3489 97.1913
514 2.5604 115(20) 107.3468 97.1028
515 2.5634 99(18) 104.4670 97.0144
516 2.5664 139(22) 102.6898 96.9259
517 2.5694 117(20) 101.4457 96.8375
518 2.5724 124(20) 100.5233 96.7490
519 2.5754 112(19) 99.8118 96.6606
520 2.5784 119(21) 99.2329 96.5721
521 2.5814 118(20) 98.4922 96.4837
522 2.5844 119(20) 97.6371 96.3952
523 2.5874 93(18) 96.7224 96.3068
524 2.5904 90(17) 96.5777 96.2183
525 2.5934 162(23) 96.4436 96.1299
526 2.5964 86(17) 96.0414 96.0414
527 2.5994 124(21) 95.9530 95.9530
528 2.6024 116(20) 95.8645 95.8645
529 2.6054 84(17) 95.7761 95.7761
530 2.6084 110(19) 95.6876 95.6876
531 2.6114 97(18) 95.5992 95.5992
532 2.6144 112(19) 95.5108 95.5108
533 2.6174 95(18) 95.4223 95.4223
534 2.6204 145(22) 95.3339 95.3339
535 2.6234 113(19) 95.2454 95.2454
536 2.6264 75(16) 95.1570 95.1570
537 2.6294 121(20) 95.0685 95.0685
538 2.6324 127(21) 94.9801 94.9801
539 2.6354 122(20) 94.8916 94.8916
540 2.6384 133(21) 94.8032 94.8032
541 2.6414 131(21) 94.7147 94.7147
542 2.6444 83(17) 94.6263 94.6263
543 2.6474 92(18) 94.5378 94.5378
544 2.6504 128(21) 94.4494 94.4494
545 2.6534 109(19) 94.3609 94.3609
546 2.6564 108(19) 94.2725 94.2725
547 2.6594 161(23) 94.1840 94.1840
548 2.6624 112(20) 94.0956 94.0956
549 2.6654 98(18) 94.0071 94.0071
550 2.6684 122(20) 93.9187 93.9187
551 2.6714 110(19) 93.8302 93.8302
552 2.6744 120(20) 93.7418 93.7418
553 2.6774 89(17) 93.6534 93.6534
554 2.6804 106(19) 93.5649 93.5649
555 2.6834 91(18) 93.4765 93.4765
556 2.6864 120(20) 93.3880 93.3880
557 2.6894 102(19) 93.2996 93.2996
558 2.6924 101(18) 93.2111 93.2111
559 2.6954 109(19) 93.1227 93.1227
560 2.6984 146(22) 93.0342 93.0342
561 2.7014 97(18) 92.9458 92.9458
562 2.7044 70(15) 92.8573 92.8573
563 2.7074 111(19) 92.7689 92.7689
564 2.7104 121(20) 92.6804 92.6804
565 2.7134 90(18) 92.5920 92.5920
566 2.7164 94(18) 92.5035 92.5035
567 2.7194 135(21) 92.4151 92.4151
568 2.7224 83(17) 92.3266 92.3266
569 2.7254 119(20) 92.2382 92.2382
570 2.7284 99(18) 92.7810 92.1497
571 2.7314 140(22) 92.9661 92.0613
572 2.7344 133(21) 93.1289 91.9728
573 2.7374 112(20) 93.3495 91.8844
574 2.7404 124(20) 93.7508 91.8254
575 2.7434 122(20) 94.9470 92.0313
576 2.7464 101(19) 95.7288 92.2371
577 2.7494 128(21) 96.7011 92.4430
578 2.7524 124(20) 97.9653 92.6488
579 2.7554 108(19) 99.6962 92.8547
580 2.7584 134(21) 102.2583 93.0605
581 2.7614 115(20) 106.7969 93.2664
582 2.7644 127(21) 117.7486 93.4723
583 2.7674 118(20) 146.6571 93.6781
584 2.7704 124(20) 203.3461 93.8840
585 2.7734 130(21) 257.5378 94.0898
586 2.7764 106(19) 251.5980 94.2957
587 2.7794 77(16) 221.9092 94.5015
588 2.7824 111(19) 219.4425 94.7074
589 2.7854 129(21) 241.2386 94.9132
590 2.7884 93(18) 256.3308 95.1191
591 2.7914 98(18) 222.0686 95.3250
592 2.7944 94(18) 162.4639 95.5308
593 2.7974 124(21) 126.1019 95.7367
594 2.8004 129(21) 111.5911 95.9425
595 2.8034 117(20) 106.2616 96.1484
596 2.8064 87(17) 103.7304 96.3543
597 2.8094 143(22) 102.2308 96.5601
598 2.8124 133(21) 101.2724 96.7660
599 2.8154 105(19) 100.6447 96.9718
600 2.8184 128(21) 100.2320 97.1777
601 2.8214 112(20) 99.3867 97.3835
602 2.8244 92(18) 99.1535 97.5894
603 2.8274 94(18) 99.0445 97.7952
604 2.8304 103(19) 98.9717 98.0011
605 2.8334 142(22) 98.8878 98.2070
606 2.8364 114(20) 98.4128 98.4128
607 2.8394 128(21) 98.6187 98.6187
608 2.8424 108(19) 98.8245 98.8245
609 2.8454 128(21) 99.0304 99.0304
610 2.8484 118(20) 99.2362 99.2362
611 2.8514 117(20) 99.4421 99.4421
612 2.8544 106(19) 99.6480 99.6480
613 2.8574 129(21) 99.8538 99.8538
614 2.8604 92(18) 100.0597 100.0597
615 2.8634 135(21) 100.2655 100.2655
616 2.8664 105(19) 100.4714 100.4714
617 2.8694 108(19) 100.6773 100.6773
618 2.8724 134(21) 100.8831 100.8831
619 2.8754 87(17) 101.0890 101.0890
620 2.8784 99(18) 101.2948 101.2948
621 2.8814 116(20) 101.5007 101.5007
622 2.8844 101(18) 101.7065 101.7065
623 2.8874 142(22) 101.9124 101.9124
624 2.8904 98(18) 102.1182 102.1182
625 2.8934 83(17) 102.3241 102.3241
626 2.8964 103(19) 102.5300 102.5300
627 2.8994 92(18) 102.7358 102.7358
628 2.9024 91(18) 102.9417 102.9417
629 2.9054 102(19) 103.1475 103.1475
630 2.9084 125(20) 103.3534 103.3534
631 2.9114 92(18) 103.5593 103.5593
632 2.9144 115(20) 103.7651 103.7651
633 2.9174 118(20) 103.9710 103.9710
634 2.9204 124(20) 104.1768 104.1768
635 2.9234 96(18) 104.3827 104.3827
636 2.9264 83(17) 104.5885 104.5885
637 2.9294 101(19) 104.7944 104.7944
638 2.9324 57(14) 105.0002 105.0002
639 2.9354 98(18) 105.2061 105.2061
640 2.9384 129(21) 105.4120 105.4120
641 2.9414 83(17) 105.6178 105.6178
642 2.9444 115(20) 105.8237 105.8237
643 2.9474 128(20) 106.0295 106.0295
644 2.9504 126(19) 106.2354 106.2354
645 2.9534 135(20) 106.4412 106.4412
646 2.9564 126(19) 106.6471 106.6471
647 2.9594 110(18) 106.8530 106.8530
648 2.9624 121(19) 107.0588 107.0588
649 2.9654 97(17) 107.2647 107.2647
650 2.9684 134(20) 107.4705 107.4705
651 2.9714 135(20) 107.6764 107.6764
652 2.9744 100(17) 107.8822 107.8822
653 2.9774 135(20) 108.0881 108.0881
654 2.9804 131(20) 108.2940 108.2940
655 2.9834 104(18) 108.4998 108.4998
656 2.9864 93(17) 108.7057 108.7057
657 2.9894 133(20) 108.9115 108.9115
658 2.9924 106(18) 109.1174 109.1174
659 2.9954 113(19) 109.3232 109.3232
660 2.9984 145(21) 109.5291 109.5291
661 3.0014 161(22) 109.7350 109.7350
662 3.0044 118(19) 109.9408 109.9408
663 3.0074 121(19) 110.1467 110.1467
664 3.0104 119(19) 110.3525 110.3525
665 3.0134 107(18) 110.5584 110.5584
666 3.0164 89(16) 110.7643 110.7643
667 3.0194 121(19) 110.9701 110.9701
668 3.0224 127(20) 111.1760 111.1760
669 3.0254 106(18) 111.3818 111.3818
670 3.0284 120(19) 111.5877 111.5877
671 3.0314 155(22) 111.7935 111.7935
672 3.0344 138(20) 111.9994 111.9994
673 3.0374 105(18) 112.2052 112.2052
674 3.0404 98(17) 112.4111 112.4111
675 3.0434 106(18) 112.6170 112.6170
676 3.0464 109(18) 112.8228 112.8228
677 3.0494 85(16) 113.0287 113.0287
678 3.0524 148(21) 113.2345 113.2345
679 3.0554 131(20) 113.4404 113.4404
680 3.0584 157(22) 113.6462 113.6462
681 3.0614 124(19) 113.8521 113.8521
682 3.0644 115(19) 114.0580 114.0580
683 3.0674 94(17) 114.2638 114.2638
684 3.0704 142(21) 114.4697 114.4697
685 3.0734 107(18) 114.6755 114.6755
686 3.0764 122(19) 114.8814 114.8814
687 3.0794 109(18) 115.0872 115.0872
688 3.0824 108(18) 115.2931 115.2931
689 3.0854 132(20) 115.4990 115.4990
690 3.0884 112(18) 115.7048 115.7048
691 3.0914 122(19) 115.9107 115.9107
692 3.0944 130(20) 116.1165 116.1165
693 3.0974 127(20) 116.3224 116.3224
694 3.1004 160(22) 116.5282 116.5282
695 3.1034 125(19) 116.7341 116.7341
696 3.1064 116(19) 116.9400 116.9400
697 3.1094 111(18) 117.1458 117.1458
698 3.1124 91(17) 117.3517 117.3517
699 3.1154 126(20) 117.5575 117.5575
700 3.1184 92(17) 117.7634 117.7634
701 3.1214 149(21) 117.8686 117.8686
702 3.1244 144(21) 117.6433 117.6433
703 3.1274 145(21) 117.4181 117.4181
704 3.1304 85(16) 117.1928 117.1928
705 3.1334 137(20) 116.9675 116.9675
706 3.1364 135(20) 116.7422 116.7422
707 3.1394 106(18) 116.5169 116.5169
708 3.1424 127(20) 116.2916 116.2916
709 3.1454 127(20) 116.0663 116.0663
710 3.1484 114(19) 115.8410 115.8410
711 3.1514 98(17) 115.6157 115.6157
712 3.1544 105(18) 116.6074 115.3904
713 3.1574 114(19) 116.5556 115.1651
714 3.1604 120(19) 116.5435 114.9398
715 3.1634 144(21) 117.4686 114.7146
716 3.1664 148(21) 119.5972 114.4893
717 3.1694 104(18) 121.4265 114.2640
718 3.1724 128(20) 122.5018 114.0387
719 3.1754 115(19) 123.9751 113.8134
720 3.1784 139(20) 126.0311 113.5881
721 3.1814 87(16) 129.4719 113.3628
722 3.1844 120(19) 133.9655 113.1375
723 3.1874 156(22) 141.4479 112.9122
724 3.1904 115(19) 157.5739 112.6869
725 3.1934 164(22) 199.7209 112.4616
726 3.1964 245(27) 291.2371 112.2364
727 3.1994 365(33) 409.5742 112.0111
728 3.2024 399(35) 458.8749 111.7858
729 3.2054 431(36) 526.9388 111.5605
730 3.2084 756(48) 704.7733 111.3352
731 3.2114 864(51) 802.1165 111.1099
732 3.2144 579(42) 647.9322 110.8846
733 3.2174 303(30) 402.4450 110.6593
734 3.2204 247(27) 270.5504 110.4340
735 3.2234 209(25) 245.4947 110.2087
736 3.2264 237(27) 236.2318 109.9835
737 3.2294 183(24) 192.8462 109.7582
738 3.2324 127(20) 154.5482 109.5329
739 3.2354 125(19) 135.2256 109.3076
740 3.2384 120(19) 126.9356 109.0823
741 3.2414 125(20) 122.5853 108.8570
742 3.2444 112(18) 119.6823 108.6317
743 3.2474 88(16) 116.3642 108.4064
744 3.2504 98(17) 114.8321 108.1811
745 3.2534 129(20) 113.6052 107.9558
746 3.2564 140(21) 111.8128 107.7305
747 3.2594 114(19) 109.3996 107.5052
748 3.2624 103(18) 107.9900 107.2800
749 3.2654 129(20) 107.6629 107.0547
750 3.2684 116(19) 107.3562 106.8294
751 3.2714 122(19) 107.0648 106.6041
752 3.2744 133(20) 106.3788 106.3788
753 3.2774 122(19) 106.1535 106.1535
754 3.2804 123(19) 105.9282 105.9282
755 3.2834 113(18) 105.7029 105.7029
756 3.2864 129(20) 105.4776 105.4776
757 3.2894 116(19) 105.2523 105.2523
758 3.2924 98(17) 105.0270 105.0270
759 3.2954 124(19) 104.8018 104.8018
760 3.2984 91(17) 104.5765 104.5765
761 3.3014 154(22) 104.3512 104.3512
762 3.3044 119(19) 104.1259 104.1259
763 3.3074 81(16) 103.9006 103.9006
764 3.3104 99(17) 103.6753 103.6753
765 3.3134 100(18) 103.4500 103.4500
766 3.3164 105(18) 103.2247 103.2247
767 3.3194 137(20) 102.9994 102.9994
768 3.3224 149(21) 102.7741 102.7741
769 3.3254 117(19) 102.5488 102.5488
770 3.3284 102(18) 102.3236 102.3236
771 3.3314 118(19) 102.0983 102.0983
772 3.3344 118(19) 102.0166 102.0166
773 3.3374 102(18) 102.0992 102.0992
774 3.3404 121(19) 102.1817 102.1817
775 3.3434 97(17) 102.2642 102.2642
776 3.3464 140(21) 102.3467 102.3467
777 3.3494 111(18) 102.4348 102.4293
778 3.3524 123(19) 102.8643 102.5118
779 3.3554 122(19) 102.9980 102.5943
780 3.3584 112(18) 103.4257 102.6769
781 3.3614 138(21) 103.6343 102.7594
782 3.3644 123(19) 103.9458 102.8419
783 3.3674 151(21) 104.5334 102.9244
784 3.3704 147(21) 104.9318 103.0070
785 3.3734 139(21) 105.7022 103.0895
786 3.3764 159(22) 106.4021 103.1720
787 3.3794 123(19) 107.3634 103.2546
788 3.3824 109(18) 108.7870 103.3371
789 3.3854 114(19) 111.2980 103.4196
790 3.3884 116(19) 117.2273 103.5022
791 3.3914 126(20) 132.4948 103.5847
792 3.3944 109(18) 162.5580 103.6672
793 3.3974 131(20) 195.3461 103.7497
794 3.4004 101(17) 204.1764 103.8323
795 3.4034 142(21) 197.4339 103.9148
796 3.4064 139(20) 183.8026 103.9973
797 3.4094 121(19) 184.4444 104.0799
798 3.4124 114(19) 194.7093 104.1624
799 3.4154 96(17) 192.4328 104.2449
800 3.4184 139(20) 186.1189 104.3275
801 3.4214 113(19) 170.8678 104.4100
802 3.4244 114(19) 142.5149 104.4925
803 3.4274 136(20) 122.7093 104.5751
804 3.4304 148(21) 113.9868 104.6576
805 3.4334 154(22) 110.7113 104.7401
806 3.4364 103(18) 109.2015 104.8226
807 3.4394 101(18) 108.3048 104.9052
808 3.4424 126(20) 107.7102 104.9877
809 3.4454 122(19) 107.1034 105.0702
810 3.4484 101(17) 106.7501 105.1528
811 3.4514 127(20) 106.3390 105.2353
812 3.4544 130(20) 106.2495 105.3178
813 3.4574 124(19) 106.1335 105.4003
814 3.4604 109(18) 106.0256 105.4829
815 3.4634 104(18) 105.8746 105.5654
816 3.4664 151(21) 105.9182 105.6479
817 3.4694 111(18) 105.7305 105.7305
818 3.4724 108(18) 105.8130 105.8130
819 3.4754 134(20) 105.8955 105.8955
820 3.4784 95(17) 105.9781 105.9781
821 3.4814 135(20) 106.0606 106.0606
822 3.4844 136(20) 106.1431 106.1431
823 3.4874 117(19) 106.2256 106.2256
824 3.4904 133(20) 106.3082 106.3082
825 3.4934 133(20) 106.3907 106.3907
826 3.4964 102(18) 106.4732 106.4732
827 3.4994 135(20) 106.5558 106.5558
828 3.5024 106(18) 106.6383 106.6383
829 3.5054 109(18) 106.7208 106.7208
830 3.5084 102(18) 106.8034 106.8034
831 3.5114 102(18) 106.8859 106.8859
832 3.5144 100(17) 106.9684 106.9684
833 3.5174 106(18) 107.0509 107.0509
834 3.5204 107(18) 107.1335 107.1335
835 3.5234 80(16) 107.2160 107.2160
836 3.5264 126(20) 107.2985 107.2985
837 3.5294 107(18) 107.3811 107.3811
838 3.5324 135(20) 107.4636 107.4636
839 3.5354 126(20) 107.5461 107.5461
840 3.5384 143(21) 107.6525 107.6286
841 3.5414 131(20) 107.8387 107.7112
842 3.5444 138(20) 107.9486 107.7937
843 3.5474 139(21) 108.8128 107.8762
844 3.5504 127(20) 109.0361 107.9588
845 3.5534 181(24) 109.5060 108.0413
846 3.5564 126(20) 109.8420 108.1238
847 3.5594 130(20) 110.2471 108.2064
848 3.5624 123(19) 110.7529 108.2889
849 3.5654 117(19) 111.4065 108.3714
850 3.5684 118(19) 112.2874 108.4539
851 3.5714 158(22) 113.5512 108.5365
852 3.5744 117(19) 115.5882 108.6190
853 3.5774 135(20) 119.5104 108.7015
854 3.5804 144(21) 128.2280 108.7841
855 3.5834 124(19) 147.9567 108.8666
856 3.5864 136(20) 187.2365 108.9491
857 3.5894 147(21) 242.9870 109.0317
858 3.5924 138(20) 275.1721 109.1142
859 3.5954 116(19) 241.5335 109.1967
860 3.5984 143(21) 201.5271 109.2792
861 3.6014 134(20) 173.2939 109.3618
862 3.6044 78(15) 145.4292 109.4443
863 3.6074 140(21) 127.3951 109.5268
864 3.6104 87(16) 119.2051 109.6094
865 3.6134 140(21) 115.9269 109.6919
866 3.6164 151(21) 114.3447 109.7744
867 3.6194 120(19) 113.3896 109.8570
868 3.6224 135(20) 112.7572 109.9395
869 3.6254 158(22) 112.3234 110.0220
870 3.6284 147(21) 112.0205 110.1045
871 3.6314 152(21) 111.7975 110.1871
872 3.6344 149(21) 111.6213 110.2696
873 3.6374 137(20) 111.4414 110.3521
874 3.6404 124(19) 110.7538 110.4347
875 3.6434 157(22) 110.7675 110.5172
876 3.6464 132(20) 110.8189 110.5997
877 3.6494 115(19) 110.6823 110.6823
878 3.6524 114(19) 110.7648 110.7648
879 3.6554 137(20) 110.8473 110.8473
880 3.6584 144(21) 110.9298 110.9298
881 3.6614 115(19) 111.0124 111.0124
882 3.6644 160(22) 111.0949 111.0949
883 3.6674 155(22) 111.1774 111.1774
884 3.6704 89(16) 111.2600 111.2600
885 3.6734 148(21) 111.3425 111.3425
886 3.6764 109(18) 111.4250 111.4250
887 3.6794 124(19) 111.5076 111.5076
888 3.6824 134(20) 111.5901 111.5901
889 3.6854 136(20) 111.7861 111.7861
890 3.6884 125(19) 112.2091 112.2091
891 3.6914 118(19) 112.6321 112.6321
892 3.6944 122(19) 113.0550 113.0550
893 3.6974 94(17) 113.4780 113.4780
894 3.7004 151(21) 113.9010 113.9010
895 3.7034 116(19) 114.3240 114.3240
896 3.7064 105(18) 114.7469 114.7469
897 3.7094 135(20) 115.5855 115.1699
898 3.7124 133(20) 116.1954 115.5929
899 3.7154 158(22) 116.7656 116.0159
900 3.7184 126(20) 117.3646 116.4389
901 3.7214 125(20) 118.0814 116.8619
902 3.7244 157(22) 118.7211 117.2848
903 3.7274 145(21) 119.9464 117.7078
904 3.7304 159(22) 121.2232 118.1308
905 3.7334 162(22) 122.3019 118.5538
906 3.7364 140(21) 123.6253 118.9767
907 3.7394 179(23) 125.3409 119.3997
908 3.7424 124(19) 127.7806 119.8227
909 3.7454 145(21) 132.1068 120.2457
910 3.7484 143(21) 142.6414 120.6687
911 3.7514 169(23) 168.9498 121.0917
912 3.7544 152(21) 215.4673 121.5146
913 3.7574 214(25) 251.8486 121.9376
914 3.7604 240(27) 240.2101 122.3606
915 3.7634 219(26) 217.3584 122.7836
916 3.7664 202(25) 220.8642 123.2066
917 3.7694 164(22) 250.9178 123.6295
918 3.7724 235(27) 297.2594 124.0525
919 3.7754 234(27) 306.2209 124.4755
920 3.7784 205(25) 250.7779 124.8985
921 3.7814 183(24) 188.0158 125.3215
922 3.7844 109(18) 153.9554 125.7445
923 3.7874 157(22) 140.9998 126.1674
924 3.7904 144(21) 136.3004 126.5904
925 3.7934 158(22) 134.1329 127.0134
926 3.7964 105(18) 132.9263 127.4364
927 3.7994 161(22) 132.2305 127.8594
928 3.8024 184(24) 131.8493 128.2823
929 3.8054 175(23) 131.2735 128.7053
930 3.8084 172(23) 131.1488 129.1283
931 3.8114 172(23) 131.2252 129.5513
932 3.8144 156(22) 131.3632 129.9743
933 3.8174 141(21) 131.4806 130.3972
934 3.8204 118(19) 131.7671 130.8202
935 3.8234 160(22) 131.6309 131.2432
936 3.8264 156(22) 131.4148 131.4148
937 3.8294 143(21) 131.5778 131.5778
938 3.8324 135(20) 131.7407 131.7407
939 3.8354 121(19) 131.9037 131.9037
940 3.8384 168(22) 132.0666 132.0666
941 3.8414 134(20) 132.2296 132.2296
942 3.8444 151(21) 132.3925 132.3925
943 3.8474 171(23) 132.5555 132.5555
944 3.8504 172(23) 132.7184 132.7184
945 3.8534 169(23) 132.8814 132.8814
946 3.8564 176(23) 133.0443 133.0443
947 3.8594 128(20) 133.2073 133.2073
948 3.8624 144(21) 133.3703 133.3703
949 3.8654 115(19) 133.5332 133.5332
950 3.8684 147(21) 133.6962 133.6962
951 3.8714 200(25) 133.8591 133.8591
952 3.8744 155(22) 140.7618 134.0221
953 3.8774 153(22) 141.8756 134.1850
954 3.8804 159(22) 148.5874 134.3480
955 3.8834 151(21) 150.9707 134.5109
956 3.8864 171(23) 153.9161 134.6739
957 3.8894 194(24) 157.6301 134.8368
958 3.8924 192(24) 162.4233 134.9998
959 3.8954 142(21) 177.2181 135.1627
960 3.8984 165(22) 189.4134 135.3257
961 3.9014 175(23) 203.5584 135.4886
962 3.9044 178(23) 224.4455 135.6516
963 3.9074 214(25) 259.5353 135.8145
964 3.9104 232(26) 337.6217 135.9775
965 3.9134 348(33) 548.2769 136.1404
966 3.9164 758(48) 1027.2646 136.3034
967 3.9194 1392(65) 1721.5381 136.4664
968 3.9224 1901(76) 2078.1738 136.6293
969 3.9254 1832(75) 1948.2042 136.7923
970 3.9284 1549(68) 1457.6229 136.9552
971 3.9314 819(50) 926.9185 137.1182
972 3.9344 781(48) 759.8478 137.2811
973 3.9374 948(54) 1086.7560 137.4441
974 3.9404 1672(71) 1854.0933 137.6070
975 3.9434 2156(81) 2389.5151 137.7700
976 3.9464 1911(76) 1886.0239 137.9329
977 3.9494 1042(56) 1051.8026 138.0959
978 3.9524 414(35) 542.3141 138.2588
979 3.9554 242(27) 338.1573 138.4218
980 3.9584 178(23) 263.9306 138.5847
981 3.9614 153(22) 229.2842 138.7477
982 3.9644 171(23) 208.3275 138.9106
983 3.9674 187(24) 194.1863 139.0736
984 3.9704 149(21) 178.2112 139.2366
985 3.9734 116(19) 171.4796 139.3995
986 3.9764 156(22) 161.9070 139.5625
987 3.9794 172(23) 158.5435 139.7254
988 3.9824 146(21) 155.9501 139.8884
989 3.9854 173(23) 153.9186 140.0513
990 3.9884 164(22) 152.3067 140.2143
991 3.9914 166(22) 142.7867 140.3772
992 3.9944 162(22) 140.5402 140.5402
993 3.9974 135(20) 140.7031 140.7031
994 4.0004 135(20) 140.8661 140.8661
995 4.0034 156(22) 141.0290 141.0290
996 4.0064 167(22) 141.1920 141.1920
997 4.0094 127(20) 141.3549 141.3549
998 4.0124 156(22) 141.5179 141.5179
999 4.0154 163(22) 141.6808 141.6808
1000 4.0184 153(21) 141.8438 141.8438
1001 4.0214 140(21) 142.0067 142.0067
1002 4.0244 142(21) 142.1697 142.1697
1003 4.0274 184(24) 142.3327 142.3327
1004 4.0304 127(20) 142.4956 142.4956
1005 4.0334 148(21) 142.7008 142.6586
1006 4.0364 175(23) 142.8695 142.8215
1007 4.0394 160(22) 143.0396 142.9845
1008 4.0424 153(21) 143.3499 143.1474
1009 4.0454 133(20) 143.9509 143.3104
1010 4.0484 199(25) 144.5705 143.4733
1011 4.0514 179(23) 144.9022 143.6363
1012 4.0544 187(24) 145.2763 143.7992
1013 4.0574 251(28) 145.7088 143.9622
1014 4.0604 247(27) 145.1774 143.0789
1015 4.0634 204(25) 144.7004 142.0348
1016 4.0664 205(25) 144.3354 140.9905
1017 4.0694 181(23) 144.3479 139.9464
1018 4.0724 155(22) 145.2569 138.9021
1019 4.0754 143(21) 148.0851 137.8580
1020 4.0784 157(22) 153.8135 136.8137
1021 4.0814 134(20) 163.0854 135.7696
1022 4.0844 105(18) 182.2314 134.7254
1023 4.0874 143(21) 223.0357 133.6812
1024 4.0904 137(20) 270.0981 132.6370
1025 4.0934 140(21) 278.7653 131.5929
1026 4.0964 132(20) 250.3751 130.5488
1027 4.0994 165(22) 203.2095 129.5045
1028 4.1024 160(22) 166.9578 128.4604
1029 4.1054 143(21) 152.3742 127.4161
1030 4.1084 147(21) 151.5286 126.3720
1031 4.1114 121(19) 150.1050 125.3277
1032 4.1144 205(25) 141.1315 124.2836
1033 4.1174 155(22) 132.4554 123.2393
1034 4.1204 184(23) 127.3579 122.1952
1035 4.1234 135(20) 124.6034 121.1510
1036 4.1264 183(24) 122.7397 120.1068
1037 4.1294 166(23) 121.1840 119.0627
1038 4.1324 143(21) 119.7388 118.0185
1039 4.1354 202(25) 118.4248 116.9744
1040 4.1384 165(22) 117.1718 115.9301
1041 4.1414 150(21) 115.5013 114.8860
1042 4.1444 172(23) 114.2435 113.8417
1043 4.1474 157(22) 112.9520 112.7976
1044 4.1504 148(21) 111.8856 111.7533
1045 4.1534 137(20) 110.8238 110.7092
1046 4.1564 117(19) 109.7652 109.6649
1047 4.1594 149(21) 108.7092 108.6208
1048 4.1624 148(21) 107.5767 107.5767
1049 4.1654 120(19) 106.5325 106.5325
1050 4.1684 126(20) 105.4883 105.4883
1051 4.1714 137(20) 104.4441 104.4441
1052 4.1744 101(17) 103.4000 103.4000
1053 4.1774 148(21) 102.3557 102.3557
1054 4.1804 142(21) 101.3116 101.3116
1055 4.1834 101(18) 100.2673 100.2673
1056 4.1864 162(22) 99.6763 99.2232
1057 4.1894 132(20) 98.8809 98.1789
1058 4.1924 139(20) 98.1291 97.1348
1059 4.1954 167(22) 97.2344 96.0907
1060 4.1984 129(20) 96.9346 95.0464
1061 4.2014 159(22) 96.3275 94.0023
1062 4.2044 138(20) 96.2281 92.9581
1063 4.2074 142(21) 95.8430 91.9140
1064 4.2104 153(21) 95.9908 90.8697
1065 4.2134 142(21) 96.0995 89.8256
1066 4.2164 139(20) 97.9319 88.7813
1067 4.2194 127(20) 99.5144 87.7372
1068 4.2224 184(24) 103.1900 86.6929
1069 4.2254 167(22) 113.1943 85.6488
1070 4.2284 150(21) 138.8081 84.6045
1071 4.2314 120(19) 186.7027 83.5604
1072 4.2344 176(23) 237.3993 82.5163
1073 4.2374 210(25) 257.9161 81.4720
1074 4.2404 157(22) 264.9218 80.4279
1075 4.2434 180(23) 279.4740 81.7657
1076 4.2464 145(21) 290.2510 83.4698
1077 4.2494 132(20) 298.5257 85.1741
1078 4.2524 130(20) 317.4641 86.8781
1079 4.2554 149(21) 318.5463 88.5824
1080 4.2584 151(21) 325.5064 90.2865
1081 4.2614 150(21) 360.4396 91.9908
1082 4.2644 142(21) 396.5241 93.6948
1083 4.2674 191(24) 338.2928 95.3988
1084 4.2704 139(20) 231.2772 97.1031
1085 4.2734 130(20) 161.0391 98.8072
1086 4.2764 129(20) 131.7376 100.5115
1087 4.2794 169(23) 121.8568 102.2155
1088 4.2824 136(20) 118.2098 103.9198
1089 4.2854 184(24) 116.2730 105.6239
1090 4.2884 121(19) 115.6344 107.3282
1091 4.2914 156(22) 115.6279 109.0322
1092 4.2944 151(21) 115.8689 110.7365
1093 4.2974 135(20) 116.6107 112.4405
1094 4.3004 139(20) 117.5789 114.1446
1095 4.3034 152(21) 118.3175 115.8489
1096 4.3064 135(20) 119.6170 117.5529
1097 4.3094 150(21) 120.7590 119.2572
1098 4.3124 161(22) 122.2808 120.9613
1099 4.3154 130(20) 122.6656 122.6656
1100 4.3184 168(22) 124.3696 124.3696
1101 4.3214 186(24) 126.0739 126.0739
1102 4.3244 170(23) 127.7779 127.7779
1103 4.3274 112(18) 129.4822 129.4822
1104 4.3304 157(22) 131.1863 131.1863
1105 4.3334 131(20) 132.8903 132.8903
1106 4.3364 146(21) 134.5946 134.5946
1107 4.3394 120(19) 136.2986 136.2986
1108 4.3424 165(22) 138.0030 138.0030
1109 4.3454 188(24) 139.7070 139.7070
1110 4.3484 154(22) 141.4113 141.4113
1111 4.3514 139(21) 143.1153 143.1153
1112 4.3544 164(22) 144.8196 144.8196
1113 4.3574 151(21) 146.5237 146.5237
1114 4.3604 177(23) 148.2280 148.2280
1115 4.3634 194(24) 149.9320 149.9320
1116 4.3664 148(21) 151.6360 151.6360
1117 4.3694 162(22) 153.3403 153.3403
1118 4.3724 164(22) 155.0444 155.0444
1119 4.3754 167(22) 156.7487 156.7487
1120 4.3784 158(22) 158.4527 158.4527
1121 4.3814 189(24) 160.1570 160.1570
1122 4.3844 172(23) 161.8611 161.8611
1123 4.3874 152(22) 163.5654 163.5654
1124 4.3904 153(22) 165.2694 165.2694
1125 4.3934 160(22) 166.9737 166.9737
1126 4.3964 124(19) 168.6777 168.6777
1127 4.3994 152(21) 170.3818 170.3818
1128 4.4024 173(23) 172.0861 172.0861
1129 4.4054 208(25) 173.7901 173.7901
1130 4.4084 190(24) 175.4944 175.4944
1131 4.4114 174(23) 177.1985 177.1985
1132 4.4144 157(22) 178.9028 178.9028
1133 4.4174 142(21) 180.6068 180.6068
1134 4.4204 151(21) 182.3111 182.3111
1135 4.4234 166(22) 184.0151 184.0151
1136 4.4264 177(23) 183.3497 183.3497
1137 4.4294 184(24) 182.3199 182.3199
1138 4.4324 177(23) 181.2899 181.2899
1139 4.4354 165(22) 180.2600 180.2600
1140 4.4384 180(23) 179.2302 179.2302
1141 4.4414 168(23) 178.2001 178.2001
1142 4.4444 186(24) 177.1703 177.1703
1143 4.4474 198(24) 176.1403 176.1403
1144 4.4504 173(23) 175.1104 175.1104
1145 4.4534 177(23) 174.0804 174.0804
1146 4.4564 152(21) 173.0506 173.0506
1147 4.4594 177(22) 172.0205 172.0205
1148 4.4624 162(21) 170.9907 170.9907
1149 4.4654 155(21) 169.9607 169.9607
1150 4.4684 198(23) 168.9308 168.9308
1151 4.4714 194(23) 167.9010 167.9010
1152 4.4744 179(22) 166.8710 166.8710
1153 4.4774 144(20) 165.8411 165.8411
1154 4.4804 164(21) 164.8111 164.8111
1155 4.4834 164(21) 163.7812 163.7812
1156 4.4864 179(22) 162.7512 162.7512
1157 4.4894 179(22) 168.1927 161.7214
1158 4.4924 187(23) 168.0089 160.6913
1159 4.4954 215(24) 176.9581 159.6615
1160 4.4984 113(18) 178.3728 158.6315
1161 4.5014 157(21) 180.3438 157.6016
1162 4.5044 151(20) 183.0539 156.5718
1163 4.5074 217(24) 186.7670 155.5418
1164 4.5104 209(24) 191.8740 154.5119
1165 4.5134 166(21) 198.9792 153.4819
1166 4.5164 184(22) 209.0455 152.4520
1167 4.5194 196(23) 223.7114 151.4220
1168 4.5224 252(26) 246.1581 150.3922
1169 4.5254 337(30) 285.2679 149.3622
1170 4.5284 361(31) 373.5577 148.3323
1171 4.5314 625(41) 606.9316 147.3023
1172 4.5344 1078(54) 1139.1166 146.2724
1173 4.5374 2094(76) 1983.2216 145.2426
1174 4.5404 3137(92) 2657.8230 144.2126
1175 4.5434 3294(95) 2735.0168 143.1827
1176 4.5464 1890(72) 2158.0654 142.1527
1177 4.5494 1094(55) 1289.9243 141.1228
1178 4.5524 512(37) 681.4811 140.0928
1179 4.5554 321(29) 397.0111 139.0630
1180 4.5584 256(26) 286.8555 138.0330
1181 4.5614 187(23) 239.3291 137.0031
1182 4.5644 165(21) 212.3861 135.9731
1183 4.5674 165(21) 194.3748 134.9433
1184 4.5704 162(21) 181.4508 133.9134
1185 4.5734 194(23) 171.7601 132.8834
1186 4.5764 185(22) 164.2337 131.8535
1187 4.5794 180(22) 158.2060 130.8235
1188 4.5824 182(22) 153.2513 129.7937
1189 4.5854 177(22) 149.0823 128.7636
1190 4.5884 137(19) 145.5036 127.7338
1191 4.5914 164(21) 136.4742 126.7038
1192 4.5944 167(21) 129.8113 125.6739
1193 4.5974 160(21) 124.6439 124.6439
1194 4.6004 176(22) 123.6141 123.6141
1195 4.6034 134(19) 122.5840 122.5840
1196 4.6064 194(23) 121.5542 121.5542
1197 4.6094 158(21) 120.5243 120.5243
1198 4.6124 154(20) 119.4943 119.4943
1199 4.6154 143(20) 118.4645 118.4645
1200 4.6184 180(22) 117.9939 117.4345
1201 4.6214 185(23) 117.0355 116.4046
1202 4.6244 153(20) 116.3868 115.3746
1203 4.6274 144(20) 115.6368 114.3447
1204 4.6304 172(22) 115.2746 113.3147
1205 4.6334 162(21) 114.5632 112.2849
1206 4.6364 172(22) 113.9500 111.2549
1207 4.6394 181(22) 113.5077 110.2250
1208 4.6424 183(22) 113.2095 109.1951
1209 4.6454 206(24) 114.4629 108.9424
1210 4.6484 167(21) 116.1312 109.0785
1211 4.6514 148(20) 118.1595 109.2146
1212 4.6544 121(18) 121.2842 109.3506
1213 4.6574 168(22) 127.3545 109.4867
1214 4.6604 186(22) 142.2233 109.6228
1215 4.6634 177(22) 176.9669 109.7589
1216 4.6664 151(20) 236.3813 109.8949
1217 4.6694 150(20) 292.2789 110.0310
1218 4.6724 153(20) 301.9069 110.1671
1219 4.6754 152(20) 288.6315 110.3032
1220 4.6784 198(23) 287.1060 110.4393
1221 4.6814 185(23) 284.6483 110.5753
1222 4.6844 144(20) 259.9749 110.7114
1223 4.6874 147(20) 250.1962 110.8475
1224 4.6904 209(24) 275.5743 110.9836
1225 4.6934 131(19) 307.9188 111.1196
1226 4.6964 164(21) 290.6890 111.2557
1227 4.6994 151(20) 230.2729 111.3918
1228 4.7024 180(22) 173.5754 111.5279
1229 4.7054 164(21) 142.0581 111.6639
1230 4.7084 145(20) 128.7924 111.8000
1231 4.7114 169(22) 123.4045 111.9361
1232 4.7144 114(18) 120.7075 112.0722
1233 4.7174 141(20) 119.0381 112.2083
1234 4.7204 169(21) 117.8832 112.3443
1235 4.7234 158(21) 116.6069 112.4804
1236 4.7264 164(21) 115.8322 112.6165
1237 4.7294 141(20) 115.4049 112.7526
1238 4.7324 182(22) 114.9875 112.8886
1239 4.7354 145(20) 114.5433 113.0247
1240 4.7384 168(21) 114.4357 113.1608
1241 4.7414 159(21) 114.3298 113.2969
1242 4.7444 144(20) 114.2755 113.4330
1243 4.7474 151(20) 113.7942 113.5690
1244 4.7504 172(22) 114.0712 113.7051
1245 4.7534 131(19) 114.2539 113.8412
1246 4.7564 133(19) 114.4461 113.9773
1247 4.7594 148(20) 114.8518 114.1133
1248 4.7624 154(20) 115.3676 114.2494
1249 4.7654 141(20) 115.7296 114.3855
1250 4.7684 169(21) 116.6710 114.5216
1251 4.7714 128(19) 117.1601 114.6576
1252 4.7744 145(20) 117.7514 114.7937
1253 4.7774 148(20) 118.6257 114.9298
1254 4.7804 144(20) 120.1502 115.0659
1255 4.7834 183(22) 121.5148 115.2020
1256 4.7864 166(21) 123.5419 115.3380
1257 4.7894 160(21) 127.8590 115.4741
1258 4.7924 181(22) 136.9831 115.6102
1259 4.7954 202(23) 157.3667 115.7463
1260 4.7984 160(21) 189.8562 115.8823
1261 4.8014 220(25) 215.6336 116.0184
1262 4.8044 193(23) 215.2380 116.1545
1263 4.8074 177(22) 220.6849 116.2906
1264 4.8104 168(21) 250.3292 116.4267
1265 4.8134 145(20) 281.7553 116.5627
1266 4.8164 155(21) 301.0674 116.6988
1267 4.8194 135(19) 314.5534 116.8349
1268 4.8224 183(22) 303.7824 116.9710
1269 4.8254 147(20) 295.3243 117.1070
1270 4.8284 132(19) 309.2895 117.2431
1271 4.8314 192(23) 297.7797 117.3792
1272 4.8344 170(21) 268.0724 117.5153
1273 4.8374 137(19) 259.4506 117.6513
1274 4.8404 148(20) 242.6977 117.7874
1275 4.8434 162(21) 198.7286 117.9235
1276 4.8464 163(21) 160.3978 118.0596
1277 4.8494 161(21) 140.2576 118.5101
1278 4.8524 157(21) 132.7969 119.5894
1279 4.8554 188(23) 129.8451 120.6689
1280 4.8584 143(20) 128.8693 121.7483
1281 4.8614 167(21) 128.5622 122.8278
1282 4.8644 143(20) 128.4501 123.9071
1283 4.8674 169(21) 128.5574 124.9867
1284 4.8704 164(21) 129.0404 126.0660
1285 4.8734 194(23) 129.1515 127.1455
1286 4.8764 166(21) 129.9532 128.2249
1287 4.8794 164(21) 130.8055 129.3042
1288 4.8824 174(22) 131.2833 130.3837
1289 4.8854 221(25) 134.9464 131.4631
1290 4.8884 166(21) 136.4637 132.5426
1291 4.8914 155(21) 140.3444 133.6219
1292 4.8944 162(21) 142.0148 134.7014
1293 4.8974 194(23) 144.2070 135.7808
1294 4.9004 163(21) 146.6749 136.8603
1295 4.9034 221(25) 149.5449 137.9396
1296 4.9064 301(28) 154.6609 139.0191
1297 4.9094 400(33) 158.9979 140.0985
1298 4.9124 410(33) 164.4953 141.1778
1299 4.9154 432(34) 171.8121 142.2574
1300 4.9184 414(33) 183.5231 143.3367
1301 4.9214 434(34) 202.0465 144.4162
1302 4.9244 334(30) 243.4083 145.4956
1303 4.9274 413(33) 343.2607 146.5751
1304 4.9304 718(44) 542.5002 147.6544
1305 4.9334 1017(53) 815.0146 148.7339
1306 4.9364 1263(58) 998.2983 149.8133
1307 4.9394 1224(58) 1008.7415 150.8928
1308 4.9424 925(50) 887.1302 151.9721
1309 4.9454 645(42) 655.7676 153.0515
1310 4.9484 409(33) 486.5834 154.1310
1311 4.9514 430(34) 456.1927 155.2103
1312 4.9544 488(36) 536.4138 156.2899
1313 4.9574 604(41) 589.6517 157.3692
1314 4.9604 660(42) 511.9808 158.4487
1315 4.9634 371(32) 423.4429 159.5281
1316 4.9664 352(31) 418.9945 160.6076
1317 4.9694 381(32) 450.8567 161.6869
1318 4.9724 314(29) 405.3934 162.7664
1319 4.9754 284(28) 310.2351 163.8458
1320 4.9784 208(24) 240.1964 164.9253
1321 4.9814 142(20) 206.7994 166.0046
1322 4.9844 216(24) 193.8783 167.0840
1323 4.9874 143(20) 188.2535 168.1635
1324 4.9904 191(23) 183.1892 169.2428
1325 4.9934 137(19) 181.5955 170.3224
1326 4.9964 204(24) 178.8023 171.4017
1327 4.9994 152(20) 178.6619 172.4812
1328 5.0024 193(23) 178.6509 173.5605
1329 5.0054 155(21) 179.0095 174.6401
1330 5.0084 169(21) 179.5129 175.7194
1331 5.0114 186(22) 177.7442 175.5034
1332 5.0144 166(21) 176.8052 174.6399
1333 5.0174 139(20) 175.8385 173.7764
1334 5.0204 152(20) 175.0540 172.9127
1335 5.0234 141(20) 173.7056 172.0492
1336 5.0264 158(21) 173.5037 171.1856
1337 5.0294 142(20) 173.2104 170.3221
1338 5.0324 151(20) 172.8071 169.4584
1339 5.0354 154(21) 172.5263 168.5949
1340 5.0384 168(21) 172.4165 167.7313
1341 5.0414 181(22) 172.5539 166.8678
1342 5.0444 181(22) 174.2427 166.0041
1343 5.0474 187(23) 175.5309 165.1406
1344 5.0504 152(20) 178.2385 164.2771
1345 5.0534 207(24) 185.0416 163.4135
1346 5.0564 203(23) 202.8186 162.5499
1347 5.0594 246(26) 240.0620 161.6863
1348 5.0624 345(30) 291.7609 160.8228
1349 5.0654 450(35) 322.6289 159.9592
1350 5.0684 351(31) 321.7125 159.0956
1351 5.0714 296(28) 343.0515 158.2320
1352 5.0744 293(28) 397.1166 157.3685
1353 5.0774 361(31) 429.6549 156.5048
1354 5.0804 341(30) 399.5620 155.6413
1355 5.0834 385(32) 329.0630 154.7778
1356 5.0864 258(27) 273.8998 153.9142
1357 5.0894 221(25) 274.9994 153.0507
1358 5.0924 342(30) 336.4095 152.1870
1359 5.0954 384(32) 409.9321 151.3235
1360 5.0984 461(35) 396.7311 150.4599
1361 5.1014 327(30) 306.5535 149.5964
1362 5.1044 256(26) 227.2765 148.7327
1363 5.1074 182(22) 185.3215 147.8692
1364 5.1104 176(22) 168.0612 147.0056
1365 5.1134 141(20) 160.5794 146.1421
1366 5.1164 169(21) 156.2397 145.2786
1367 5.1194 177(22) 152.6625 144.4149
1368 5.1224 165(21) 150.1684 143.5514
1369 5.1254 160(21) 148.1694 142.6878
1370 5.1284 142(20) 146.3221 141.8242
1371 5.1314 156(21) 144.3885 140.9606
1372 5.1344 175(22) 142.7193 140.0971
1373 5.1374 168(22) 141.4700 139.2335
1374 5.1404 157(21) 140.7024 138.3699
1375 5.1434 162(21) 139.7253 137.5063
1376 5.1464 129(19) 138.8161 136.6428
1377 5.1494 173(22) 138.3930 136.0294
1378 5.1524 159(21) 137.5823 135.9999
1379 5.1554 165(21) 137.8971 135.9704
1380 5.1584 186(22) 138.2176 135.9409
1381 5.1614 156(21) 138.6311 135.9114
1382 5.1644 190(23) 139.1528 135.8819
1383 5.1674 194(23) 139.8871 135.8524
1384 5.1704 248(26) 141.3872 135.8229
1385 5.1734 266(27) 143.0339 135.7934
1386 5.1764 224(25) 146.1217 135.7639
1387 5.1794 212(24) 153.2478 135.7343
1388 5.1824 214(24) 169.5930 135.7048
1389 5.1854 172(22) 199.7019 135.6753
1390 5.1884 170(21) 237.2062 135.6458
1391 5.1914 156(21) 261.8893 135.6163
1392 5.1944 161(21) 265.1560 135.5868
1393 5.1974 163(21) 252.8408 135.5573
1394 5.2004 137(19) 249.6623 135.5278
1395 5.2034 200(23) 258.0288 135.4983
1396 5.2064 151(20) 255.8890 135.4688
1397 5.2094 152(20) 232.2357 135.4392
1398 5.2124 150(20) 206.7871 135.4097
1399 5.2154 166(21) 202.6396 135.3802
1400 5.2184 176(22) 223.3960 135.3507
1401 5.2214 168(21) 249.1509 135.3212
1402 5.2244 161(21) 240.0648 135.2917
1403 5.2274 168(21) 201.5639 135.2622
1404 5.2304 139(19) 168.8846 135.2327
1405 5.2334 122(18) 151.7542 135.2032
1406 5.2364 125(18) 144.7991 135.1737
1407 5.2394 147(20) 141.8987 135.1441
1408 5.2424 147(20) 140.3223 135.1146
1409 5.2454 167(21) 139.0072 135.0851
1410 5.2484 163(21) 138.2128 135.0556
1411 5.2514 158(21) 137.4283 135.0261
1412 5.2544 207(24) 137.1255 134.9966
1413 5.2574 167(21) 136.8710 134.9671
1414 5.2604 163(21) 136.4092 134.9376
1415 5.2634 156(21) 136.0907 134.9081
1416 5.2664 146(20) 136.0973 134.8786
1417 5.2694 166(21) 136.0462 134.8490
1418 5.2724 163(21) 136.0062 134.8195
1419 5.2754 197(23) 136.0037 134.7900
1420 5.2784 157(21) 135.6378 134.7605
1421 5.2814 189(23) 135.8148 134.7310
1422 5.2844 170(21) 136.1006 134.7015
1423 5.2874 192(23) 136.4096 134.6720
1424 5.2904 151(20) 136.8697 134.6425
1425 5.2934 140(20) 137.8665 134.6130
1426 5.2964 185(22) 139.5152 134.5835
1427 5.2994 178(22) 143.5414 134.5540
1428 5.3024 144(20) 152.5629 134.5244
1429 5.3054 130(19) 167.8421 134.4949
1430 5.3084 165(21) 183.7716 134.4654
1431 5.3114 171(22) 190.1152 134.4359
1432 5.3144 168(21) 186.0969 134.4064
1433 5.3174 154(21) 180.1087 134.3769
1434 5.3204 149(20) 171.8672 134.3474
1435 5.3234 152(20) 159.5954 134.3179
1436 5.3264 140(20) 150.7460 134.2884
1437 5.3294 135(19) 149.0391 134.2589
1438 5.3324 175(22) 154.2680 134.2293
1439 5.3354 149(20) 163.3390 134.1998
1440 5.3384 148(20) 170.9819 134.1703
1441 5.3414 114(18) 178.2351 134.6896
1442 5.3444 144(20) 188.2638 135.3185
1443 5.3474 162(21) 189.4688 135.9476
1444 5.3504 140(20) 174.2415 136.5765
1445 5.3534 157(21) 157.4997 137.2056
1446 5.3564 211(24) 147.6039 137.8345
1447 5.3594 172(22) 143.6269 138.4635
1448 5.3624 148(20) 142.4390 139.0925
1449 5.3654 146(20) 142.1140 139.7215
1450 5.3684 134(19) 142.1030 140.3505
1451 5.3714 144(20) 142.3818 140.9794
1452 5.3744 143(20) 142.6422 141.6085
1453 5.3774 135(19) 143.0938 142.2374
1454 5.3804 173(22) 143.5874 142.8665
1455 5.3834 188(23) 144.1108 143.4954
1456 5.3864 151(20) 144.6558 144.1245
1457 5.3894 170(22) 145.2168 144.7534
1458 5.3924 166(21) 145.7623 145.3824
1459 5.3954 182(22) 146.2815 146.0114
1460 5.3984 185(22) 146.8803 146.6404
1461 5.4014 157(21) 147.4838 147.2694
1462 5.4044 159(21) 147.8984 147.8984
1463 5.4074 175(22) 148.5274 148.5274
1464 5.4104 195(23) 149.1564 149.1564
1465 5.4134 172(22) 149.7854 149.7854
1466 5.4164 139(19) 150.4143 150.4143
1467 5.4194 185(22) 151.0434 151.0434
1468 5.4224 205(24) 151.6723 151.6723
1469 5.4254 262(27) 152.3013 152.3013
1470 5.4284 307(29) 152.9303 152.9303
1471 5.4314 329(30) 153.5593 153.5593
1472 5.4344 332(30) 154.1883 154.1883
1473 5.4374 272(27) 154.8173 154.8173
1474 5.4404 233(25) 155.4463 155.4463
1475 5.4434 217(24) 156.0753 156.0753
1476 5.4464 167(21) 156.7043 156.7043
1477 5.4494 182(22) 157.3333 157.3333
1478 5.4524 178(22) 157.9623 157.9623
1479 5.4554 164(21) 158.5912 158.5912
1480 5.4584 164(21) 159.2202 159.2202
1481 5.4614 133(19) 159.8492 159.8492
1482 5.4644 154(20) 160.4782 160.4782
1483 5.4674 114(18) 161.1072 161.1072
1484 5.4704 108(17) 161.7362 161.7362
1485 5.4734 178(22) 162.3652 162.3652
1486 5.4764 162(21) 162.9942 162.9942
1487 5.4794 164(21) 163.1493 163.1493
1488 5.4824 143(20) 162.7627 162.7627
1489 5.4854 171(22) 162.3761 162.3761
1490 5.4884 135(19) 161.9895 161.9895
1491 5.4914 127(19) 162.6311 161.6029
1492 5.4944 130(19) 164.3504 161.2162
1493 5.4974 153(20) 165.1355 160.8297
1494 5.5004 143(20) 165.6110 160.4430
1495 5.5034 144(21) 168.6178 160.0564
1496 5.5064 166(21) 169.3781 159.6698
1497 5.5094 123(18) 170.3865 159.2832
1498 5.5124 167(21) 172.7536 158.8966
1499 5.5154 165(21) 175.4396 158.5100
1500 5.5184 158(21) 178.0402 158.1234
1501 5.5214 186(23) 183.0499 157.7368
1502 5.5244 161(21) 188.7923 157.3502
1503 5.5274 160(21) 196.0302 156.9635
1504 5.5304 172(22) 206.5361 156.5770
1505 5.5334 192(23) 224.8997 156.1903
1506 5.5364 202(23) 265.1197 155.8037
1507 5.5394 272(27) 360.2135 155.4171
1508 5.5424 483(36) 552.3380 155.0305
1509 5.5454 792(46) 835.1072 154.6439
1510 5.5484 1084(54) 1078.2885 154.2573
1511 5.5514 1166(56) 1150.6240 153.8707
1512 5.5544 1204(57) 1140.3042 153.4841
1513 5.5574 1154(56) 1123.9485 153.0974
1514 5.5604 1074(54) 1018.7893 152.7108
1515 5.5634 842(48) 856.7067 152.3243
1516 5.5664 796(46) 791.5656 151.9376
1517 5.5694 820(47) 800.3364 151.5510
1518 5.5724 898(49) 813.8557 151.1644
1519 5.5754 859(48) 839.0619 150.7778
1520 5.5784 704(44) 825.1542 150.3912
1521 5.5814 762(46) 697.6082 150.0046
1522 5.5844 580(40) 503.6057 149.6179
1523 5.5874 325(30) 343.5781 149.2314
1524 5.5904 238(25) 252.7830 148.8447
1525 5.5934 193(23) 211.0925 148.4581
1526 5.5964 194(23) 192.2758 148.0715
1527 5.5994 158(21) 182.0202 147.6849
1528 5.6024 157(21) 175.1768 147.2983
1529 5.6054 164(21) 169.8567 146.9117
1530 5.6084 166(21) 164.1702 146.5251
1531 5.6114 157(21) 160.5903 146.1385
1532 5.6144 181(22) 158.4231 145.7519
1533 5.6174 168(21) 154.3321 145.3652
1534 5.6204 155(20) 153.4113 144.9787
1535 5.6234 172(22) 152.4801 144.5920
1536 5.6264 149(20) 151.3119 144.2054
1537 5.6294 151(20) 150.1909 143.8188
1538 5.6324 162(21) 150.0815 143.4322
1539 5.6354 156(21) 148.8121 143.0456
1540 5.6384 178(22) 148.4560 142.6590
1541 5.6414 167(21) 149.6878 142.2724
1542 5.6444 171(21) 152.0449 141.8858
1543 5.6474 224(25) 158.0331 141.4992
1544 5.6504 336(30) 172.5678 141.1125
1545 5.6534 530(38) 204.1850 140.7260
1546 5.6564 521(37) 252.9809 140.3393
1547 5.6594 470(36) 292.7350 139.9527
1548 5.6624 482(36) 282.7995 139.5661
1549 5.6654 363(31) 246.0644 139.1795
1550 5.6684 295(28) 229.6139 138.7929
1551 5.6714 282(28) 245.1839 138.4063
1552 5.6744 163(21) 273.1928 138.0197
1553 5.6774 183(22) 289.4295 137.6331
1554 5.6804 180(22) 295.7141 137.2465
1555 5.6834 218(24) 278.7840 136.8598
1556 5.6864 161(21) 234.6372 136.4732
1557 5.6894 191(23) 194.2850 136.0866
1558 5.6924 180(22) 174.7397 135.7000
1559 5.6954 135(19) 177.5731 135.3134
1560 5.6984 191(23) 198.1586 135.1878
1561 5.7014 148(20) 222.3757 135.7795
1562 5.7044 185(22) 222.4076 136.3714
1563 5.7074 177(22) 196.5846 136.9632
1564 5.7104 158(21) 170.3441 137.5551
1565 5.7134 196(23) 154.8391 138.1469
1566 5.7164 162(21) 148.6585 138.7387
1567 5.7194 158(21) 145.8156 139.3305
1568 5.7224 178(22) 145.1857 139.9224
1569 5.7254 184(22) 145.7615 140.5142
1570 5.7284 199(23) 146.3160 141.1060
1571 5.7314 200(23) 146.8393 141.6978
1572 5.7344 191(23) 147.6140 142.2896
1573 5.7374 204(24) 149.3640 142.8815
1574 5.7404 192(23) 150.2976 143.4733
1575 5.7434 185(22) 152.0221 144.0652
1576 5.7464 195(23) 153.7999 144.6569
1577 5.7494 235(25) 155.9420 145.2488
1578 5.7524 193(23) 158.6703 145.8406
1579 5.7554 226(25) 162.4698 146.4325
1580 5.7584 239(25) 169.7626 147.0242
1581 5.7614 272(27) 182.3717 147.6161
1582 5.7644 254(26) 208.6199 148.2079
1583 5.7674 254(26) 252.1956 148.7997
1584 5.7704 313(29) 303.6841 149.3916
1585 5.7734 308(29) 341.5938 149.9834
1586 5.7764 309(29) 380.4367 150.5752
1587 5.7794 416(34) 451.0412 151.1670
1588 5.7824 593(40) 531.2369 151.7589
1589 5.7854 896(49) 567.9320 152.3507
1590 5.7884 688(43) 581.9836 152.9426
1591 5.7914 516(37) 608.1614 153.5343
1592 5.7944 356(31) 608.6239 154.1262
1593 5.7974 305(29) 536.5266 154.7180
1594 5.8004 254(26) 427.9521 155.3098
1595 5.8034 260(27) 338.8051 155.9016
1596 5.8064 285(28) 301.6583 156.4934
1597 5.8094 249(26) 322.9420 157.0853
1598 5.8124 267(27) 376.9308 157.6771
1599 5.8154 239(25) 396.6206 158.2690
1600 5.8184 219(24) 341.7355 158.8607
1601 5.8214 229(25) 267.4869 159.4526
1602 5.8244 205(24) 218.6584 160.0444
1603 5.8274 226(25) 193.9911 160.6363
1604 5.8304 239(25) 183.6040 161.1174
1605 5.8334 232(25) 180.7766 161.3770
1606 5.8364 228(25) 187.8132 161.6367
1607 5.8394 200(23) 197.7672 161.8964
1608 5.8424 162(21) 213.4083 162.1561
1609 5.8454 256(26) 217.8979 162.4157
1610 5.8484 240(25) 223.8464 162.6754
1611 5.8514 279(28) 235.5952 162.9351
1612 5.8544 603(40) 248.4706 163.1948
1613 5.8574 583(40) 274.1677 163.4544
1614 5.8604 508(37) 294.1537 163.7141
1615 5.8634 514(37) 318.3624 163.9738
1616 5.8664 506(37) 351.7390 164.2334
1617 5.8694 543(38) 403.5027 164.4931
1618 5.8724 575(39) 496.1963 164.7528
1619 5.8754 684(43) 666.8589 165.0125
1620 5.8784 1079(54) 950.5851 165.2721
1621 5.8814 1687(68) 1347.9001 165.5318
1622 5.8844 2295(79) 1870.9603 165.7915
1623 5.8874 3094(92) 2774.8599 166.0512
1624 5.8904 4449(110) 4304.0371 166.3108
1625 5.8934 6100(130) 6074.8428 166.5705
1626 5.8964 7116(140) 7221.3892 166.8302
1627 5.8994 7352(143) 7046.0894 167.0898
1628 5.9024 6735(136) 5698.4492 167.3495
1629 5.9054 5303(121) 4543.5376 167.6092
1630 5.9084 4256(107) 4489.5283 167.8689
1631 5.9114 4372(109) 5102.2998 168.1285
1632 5.9144 4434(110) 5247.0522 168.3882
1633 5.9174 4157(107) 4294.5557 168.6479
1634 5.9204 3117(92) 2856.1780 168.9076
1635 5.9234 1827(70) 1673.6162 169.1672
1636 5.9264 992(52) 977.8929 169.4269
1637 5.9294 508(37) 644.3652 169.6866
1638 5.9324 321(29) 492.3141 169.9463
1639 5.9354 239(26) 414.1454 170.2059
1640 5.9384 229(25) 365.6360 170.4656
1641 5.9414 251(26) 331.5196 170.7253
1642 5.9444 213(24) 304.0368 170.9849
1643 5.9474 228(25) 284.6494 171.2446
1644 5.9504 224(23) 267.9320 171.5043
1645 5.9534 199(22) 247.6632 171.7640
1646 5.9564 206(23) 233.9765 172.0236
1647 5.9594 190(22) 214.9763 172.2833
1648 5.9624 201(22) 204.9295 172.5430
1649 5.9654 185(22) 201.5465 172.8027
1650 5.9684 245(25) 198.7445 173.0623
1651 5.9714 184(21) 192.2256 173.3220
1652 5.9744 201(22) 179.0186 173.5817
1653 5.9774 216(23) 175.6121 173.8413
1654 5.9804 210(23) 174.1010 174.1010
1655 5.9834 238(24) 174.2484 174.2484
1656 5.9864 179(21) 173.3854 173.3854
1657 5.9894 234(24) 172.5225 172.5225
1658 5.9924 153(19) 171.6595 171.6595
1659 5.9954 172(21) 170.7966 170.7966
1660 5.9984 174(21) 169.9335 169.9335
1661 6.0014 170(21) 169.0706 169.0706
1662 6.0044 207(23) 168.2077 168.2077
1663 6.0074 155(20) 167.3447 167.3447
1664 6.0104 223(24) 166.4818 166.4818
1665 6.0134 197(22) 165.6188 165.6188
1666 6.0164 167(20) 164.7559 164.7559
1667 6.0194 199(22) 163.8929 163.8929
1668 6.0224 172(21) 163.0300 163.0300
1669 6.0254 185(22) 162.1669 162.1669
1670 6.0284 167(20) 161.3040 161.3040
1671 6.0314 189(22) 160.4410 160.4410
1672 6.0344 198(22) 159.5781 159.5781
1673 6.0374 154(20) 158.7357 158.7152
1674 6.0404 159(20) 158.0138 157.8522
1675 6.0434 127(18) 157.5042 156.9893
1676 6.0464 155(20) 156.7585 156.1262
1677 6.0494 167(20) 155.9914 155.2633
1678 6.0524 185(21) 155.4455 154.4003
1679 6.0554 166(20) 154.7705 153.5374
1680 6.0584 203(22) 154.1367 152.6744
1681 6.0614 201(22) 153.4866 151.8115
1682 6.0644 164(20) 153.1065 150.9484
1683 6.0674 196(22) 152.7666 150.0855
1684 6.0704 263(26) 152.4126 149.2227
1685 6.0734 256(25) 152.1897 148.3596
1686 6.0764 231(24) 152.5097 147.4967
1687 6.0794 178(21) 153.1269 146.6337
1688 6.0824 176(21) 154.0869 145.7708
1689 6.0854 180(21) 156.5278 144.9078
1690 6.0884 203(22) 162.7084 144.0449
1691 6.0914 194(22) 177.0969 143.1818
1692 6.0944 160(20) 204.4527 142.3189
1693 6.0974 204(23) 242.9031 141.4559
1694 6.1004 218(23) 275.9727 140.5930
1695 6.1034 149(19) 280.6251 139.7300
1696 6.1064 156(20) 265.6663 138.8671
1697 6.1094 157(20) 254.6000 138.0042
1698 6.1124 146(19) 248.6860 137.1411
1699 6.1154 141(19) 241.9884 136.2782
1700 6.1184 163(20) 240.0424 135.4152
1701 6.1214 140(19) 248.6375 134.5523
1702 6.1244 159(20) 262.2622 133.6893
1703 6.1274 149(19) 275.1968 132.8264
1704 6.1304 148(19) 289.4261 131.9633
1705 6.1334 204(23) 305.9744 131.1005
1706 6.1364 142(19) 308.7676 130.2374
1707 6.1394 151(19) 284.3651 129.3745
1708 6.1424 150(19) 238.2102 128.5116
1709 6.1454 122(18) 192.7125 128.2378
1710 6.1484 142(19) 163.4970 128.7345
1711 6.1514 165(20) 149.3704 129.2313
1712 6.1544 161(20) 143.1281 129.7281
1713 6.1574 181(21) 140.4943 130.2249
1714 6.1604 150(19) 139.3193 130.7217
1715 6.1634 145(19) 138.5875 131.2185
1716 6.1664 132(18) 138.4160 131.7152
1717 6.1694 155(20) 138.5435 132.2121
1718 6.1724 159(20) 139.0645 132.7088
1719 6.1754 177(21) 139.5327 133.2056
1720 6.1784 157(20) 140.5296 133.7024
1721 6.1814 197(22) 142.0867 134.1991
1722 6.1844 222(23) 143.4712 134.6960
1723 6.1874 200(22) 145.4017 135.1927
1724 6.1904 247(25) 148.1507 135.6895
1725 6.1934 230(24) 152.8546 136.1863
1726 6.1964 219(23) 162.1157 136.6831
1727 6.1994 275(26) 183.2570 137.1799
1728 6.2024 210(23) 225.1434 137.6767
1729 6.2054 202(23) 291.2457 138.1734
1730 6.2084 187(22) 361.5506 138.6702
1731 6.2114 191(22) 395.6992 139.1670
1732 6.2144 173(21) 373.4465 139.6638
1733 6.2174 199(22) 328.0544 140.1606
1734 6.2204 182(21) 290.5566 140.6573
1735 6.2234 193(22) 263.0811 141.1542
1736 6.2264 215(23) 247.5536 141.6509
1737 6.2294 186(22) 251.2973 142.1478
1738 6.2324 205(23) 271.1404 142.6445
1739 6.2354 220(23) 295.7222 143.1413
1740 6.2384 265(26) 313.7179 143.6381
1741 6.2414 242(25) 304.0096 144.1348
1742 6.2444 241(24) 261.9888 144.6317
1743 6.2474 218(23) 215.1174 145.1284
1744 6.2504 252(25) 182.9776 145.6252
1745 6.2534 238(24) 166.5277 146.1220
1746 6.2564 252(25) 159.4931 146.6188
1747 6.2594 273(26) 156.5080 147.1156
1748 6.2624 280(26) 155.0292 147.6124
1749 6.2654 270(26) 154.1877 148.1091
1750 6.2684 271(26) 153.6947 148.6060
1751 6.2714 270(26) 153.2286 149.1027
1752 6.2744 275(26) 152.4700 149.5995
1753 6.2774 305(28) 152.5026 150.0963
1754 6.2804 316(28) 152.5763 150.5930
1755 6.2834 363(30) 152.6545 151.0899
1756 6.2864 324(28) 152.9360 151.5866
1757 6.2894 234(24) 153.2643 152.0834
1758 6.2924 312(28) 153.6341 152.5802
1759 6.2954 273(26) 153.8259 153.0770
1760 6.2984 347(29) 154.2482 153.5738
1761 6.3014 382(31) 154.5037 154.0706
1762 6.3044 332(29) 154.5673 154.5673
1763 6.3074 373(30) 155.0642 155.0642
1764 6.3104 353(30) 155.5609 155.5609
1765 6.3134 388(31) 156.0577 156.0577
1766 6.3164 384(31) 156.5545 156.5545
1767 6.3194 379(31) 157.0512 157.0512
1768 6.3224 338(29) 157.5481 157.5481
1769 6.3254 380(31) 158.0448 158.0448
1770 6.3284 353(29) 158.5416 158.5416
1771 6.3314 317(28) 159.0384 159.0384
1772 6.3344 383(31) 159.5352 159.5352
1773 6.3374 452(34) 160.0320 160.0320
1774 6.3404 431(33) 160.5288 160.5288
1775 6.3434 382(31) 213.1878 161.0255
1776 6.3464 390(31) 219.2557 161.5223
1777 6.3494 405(32) 226.2629 162.0191
1778 6.3524 411(32) 234.4293 162.5159
1779 6.3554 412(32) 244.0485 163.0127
1780 6.3584 439(33) 301.6794 163.5094
1781 6.3614 404(32) 363.4522 164.0063
1782 6.3644 461(34) 390.4352 164.5030
1783 6.3674 535(36) 518.9216 164.9998
1784 6.3704 547(37) 569.4893 165.4966
1785 6.3734 635(40) 632.1678 165.9934
1786 6.3764 567(37) 711.4218 166.4902
1787 6.3794 646(40) 814.3223 166.9869
1788 6.3824 792(44) 954.1042 167.4837
1789 6.3854 873(47) 1164.9037 167.9805
1790 6.3884 1181(54) 1553.7549 168.4773
1791 6.3914 1763(66) 2449.0862 168.9741
1792 6.3944 3687(96) 4286.7412 169.4709
1793 6.3974 7775(141) 7484.7969 169.9677
1794 6.4004 13109(183) 11429.2021 170.4645
1795 6.4034 15389(198) 13733.5742 170.9612
1796 6.4064 13831(188) 12586.1113 171.4581
1797 6.4094 12150(176) 10696.5938 171.9548
1798 6.4124 11668(172) 11373.9199 172.4516
1799 6.4154 14911(195) 15922.6885 172.9484
1800 6.4184 23059(245) 23316.1074 173.4451
1801 6.4214 31994(293) 30480.2148 173.9420
1802 6.4244 37160(317) 34941.4336 174.4387
1803 6.4274 34544(306) 34519.7227 174.9355
1804 6.4304 28220(274) 27689.3418 175.4323
1805 6.4334 18206(217) 17924.5781 175.9291
1806 6.4364 9927(158) 10192.1426 176.4259
1807 6.4394 5624(119) 5920.3779 176.9227
1808 6.4424 3929(99) 4513.2334 177.4194
1809 6.4454 4478(106) 5189.8779 177.9162
1810 6.4484 6148(124) 7420.2319 178.4130
1811 6.4514 8313(145) 10125.6650 178.9098
1812 6.4544 9519(155) 10959.3760 179.4066
1813 6.4574 8144(145) 8730.0361 179.9033
1814 6.4604 5262(115) 5546.6909 180.4002
1815 6.4634 2950(86) 3147.0117 180.8969
1816 6.4664 1502(61) 1787.0469 181.3937
1817 6.4694 929(48) 1196.9434 181.8905
1818 6.4724 777(44) 929.4952 182.3873
1819 6.4754 595(38) 782.4132 182.8841
1820 6.4784 595(38) 684.7800 183.3809
1821 6.4814 619(39) 612.7184 183.8776
1822 6.4844 556(37) 516.7637 184.3744
1823 6.4874 681(41) 435.9863 184.8712
1824 6.4904 886(47) 409.1795 185.3680
1825 6.4934 1178(54) 306.2361 185.8648
1826 6.4964 1213(55) 301.7152 186.3615
1827 6.4994 1079(52) 307.2764 186.8584
1828 6.5024 841(46) 330.1630 187.3551
1829 6.5054 708(42) 379.7429 187.8519
1830 6.5084 611(39) 457.4648 188.3487
1831 6.5114 511(36) 540.0980 188.8455
1832 6.5144 475(34) 582.1627 189.3423
1833 6.5174 484(35) 538.4264 189.8390
1834 6.5204 611(39) 533.6813 190.3358
1835 6.5234 663(40) 546.2333 190.8326
1836 6.5264 779(44) 554.8768 191.3294
1837 6.5294 879(47) 542.6127 191.8262
1838 6.5324 692(41) 529.5115 192.3230
1839 6.5354 573(38) 527.8763 192.8197
1840 6.5384 445(33) 534.3445 193.3166
1841 6.5414 410(32) 511.8207 193.8133
1842 6.5444 375(30) 447.5288 194.3102
1843 6.5474 382(31) 367.9929 194.8069
1844 6.5504 345(29) 303.6017 195.3036
1845 6.5534 326(29) 263.7408 195.8005
1846 6.5564 312(28) 240.5826 196.2972
1847 6.5594 307(28) 226.9124 196.7941
1848 6.5624 310(28) 219.0195 197.2908
1849 6.5654 291(27) 214.5955 197.7876
1850 6.5684 309(28) 212.1330 198.2844
1851 6.5714 318(28) 210.7682 198.7812
1852 6.5744 214(23) 210.1280 199.2780
1853 6.5774 259(25) 209.3649 199.7748
1854 6.5804 261(25) 209.3297 200.2715
1855 6.5834 261(25) 210.0661 200.7683
1856 6.5864 294(27) 211.4426 201.2651
1857 6.5894 265(26) 214.5909 201.7619
1858 6.5924 252(25) 220.8138 202.2587
1859 6.5954 273(26) 233.7618 202.7554
1860 6.5984 247(25) 252.8882 203.2523
1861 6.6014 236(24) 274.0812 203.7490
1862 6.6044 202(22) 287.1442 204.2458
1863 6.6074 214(23) 292.2176 204.7426
1864 6.6104 208(23) 290.7731 205.2394
1865 6.6134 201(23) 283.2736 205.7362
1866 6.6164 221(23) 277.9500 206.2329
1867 6.6194 238(24) 281.1459 206.7297
1868 6.6224 239(24) 289.5229 207.2265
1869 6.6254 225(24) 292.4010 207.7233
1870 6.6284 166(20) 283.1518 207.5068
1871 6.6314 226(24) 269.1190 206.0581
1872 6.6344 222(24) 264.3096 204.6097
1873 6.6374 200(22) 273.4639 203.1611
1874 6.6404 201(22) 288.2329 201.7127
1875 6.6434 201(22) 297.8676 200.2641
1876 6.6464 187(22) 291.5049 198.8157
1877 6.6494 152(20) 270.9052 197.3673
1878 6.6524 201(22) 247.4986 195.9186
1879 6.6554 202(22) 227.1176 194.4702
1880 6.6584 180(21) 215.8612 193.0216
1881 6.6614 189(22) 210.5654 191.5732
1882 6.6644 145(19) 207.6543 190.1246
1883 6.6674 203(22) 206.2331 188.6762
1884 6.6704 207(23) 205.7105 187.2275
1885 6.6734 206(23) 205.9920 185.7791
1886 6.6764 238(24) 206.8792 184.3305
1887 6.6794 384(31) 209.4247 182.8821
1888 6.6824 382(31) 213.4630 181.4335
1889 6.6854 395(31) 220.7594 179.9851
1890 6.6884 318(28) 236.2103 178.5367
1891 6.6914 300(27) 268.9962 177.0881
1892 6.6944 291(27) 330.2986 175.6396
1893 6.6974 416(32) 422.6633 174.1910
1894 6.7004 515(36) 525.7429 172.7426
1895 6.7034 685(41) 602.9348 171.2940
1896 6.7064 842(46) 662.8098 169.8456
1897 6.7094 815(45) 746.6507 168.3970
1898 6.7124 724(42) 869.8205 166.9486
1899 6.7154 660(40) 1024.0010 165.4999
1900 6.7184 777(44) 1162.9963 164.0515
1901 6.7214 941(49) 1237.6033 162.6031
1902 6.7244 1011(50) 1203.0013 161.1545
1903 6.7274 1066(51) 1017.3784 159.7061
1904 6.7304 832(46) 762.0642 158.2575
1905 6.7334 484(35) 543.5870 156.8091
1906 6.7364 349(29) 412.3783 155.3604
1907 6.7394 209(23) 365.6430 153.9120
1908 6.7424 257(25) 365.8535 152.4634
1909 6.7454 254(25) 358.9579 151.0150
1910 6.7484 250(25) 318.9736 149.5664
1911 6.7514 240(24) 264.7032 148.1180
1912 6.7544 156(20) 220.0704 146.6696
1913 6.7574 158(20) 192.9129 145.2209
1914 6.7604 144(19) 177.9457 143.7726
1915 6.7634 149(19) 170.0777 142.3239
1916 6.7664 121(17) 165.0974 140.8755
1917 6.7694 126(18) 160.6832 139.4269
1918 6.7724 123(17) 158.1493 137.9785
1919 6.7754 125(18) 156.2889 136.5299
1920 6.7784 144(19) 156.2232 135.0815
1921 6.7814 166(20) 158.7223 133.6328
1922 6.7844 128(18) 163.5982 132.1844
1923 6.7874 179(21) 175.2940 130.7360
1924 6.7904 258(25) 189.5746 129.2874
1925 6.7934 269(26) 206.1668 127.8390
1926 6.7964 249(25) 227.5656 126.3904
1927 6.7994 244(25) 256.0846 124.9420
1928 6.8024 273(26) 296.7519 123.4933
1929 6.8054 305(28) 346.3596 122.0449
1930 6.8084 397(31) 374.2151 120.5963
1931 6.8114 455(34) 354.8772 119.1479
1932 6.8144 378(31) 325.3417 117.6993
1933 6.8174 319(28) 325.3922 116.2509
1934 6.8204 278(26) 354.3427 114.8025
1935 6.8234 305(28) 376.6658 113.3539
1936 6.8264 255(25) 361.5390 111.9055
1937 6.8294 320(28) 319.4985 110.4568
1938 6.8324 284(26) 278.4610 109.0084
1939 6.8354 248(25) 266.7252 107.5598
1940 6.8384 276(26) 288.6930 106.1114
1941 6.8414 275(26) 315.5228 104.6628
1942 6.8444 297(27) 303.8161 103.2144
1943 6.8474 300(27) 250.6416 101.7657
1944 6.8504 218(23) 191.9570 100.3173
1945 6.8534 142(19) 149.9332 98.8687
1946 6.8564 128(18) 126.4990 97.4203
1947 6.8594 129(18) 115.0167 95.9719
1948 6.8624 104(16) 108.9489 94.5233
1949 6.8654 150(19) 104.9205 93.0749
1950 6.8684 129(18) 101.8994 91.6262
1951 6.8714 131(18) 99.4791 90.1778
1952 6.8744 190(22) 97.4541 88.7292
1953 6.8774 191(22) 95.0083 87.2808
1954 6.8804 197(22) 93.7546 85.8322
1955 6.8834 181(21) 92.9897 84.3838
1956 6.8864 159(20) 93.1519 82.9352
1957 6.8894 145(19) 95.5448 81.4868
1958 6.8924 148(19) 102.6271 80.0384
1959 6.8954 149(19) 118.7719 78.5897
1960 6.8984 144(19) 145.2338 77.2638
1961 6.9014 135(18) 176.8376 77.6546
1962 6.9044 182(21) 196.0719 78.0452
1963 6.9074 180(21) 194.3292 78.4360
1964 6.9104 243(25) 179.8464 78.8266
1965 6.9134 186(22) 164.2354 79.2174
1966 6.9164 187(22) 150.1490 79.6080
1967 6.9194 145(19) 141.7286 79.9988
1968 6.9224 183(21) 137.4217 80.3894
1969 6.9254 160(20) 128.9780 80.7801
1970 6.9284 168(20) 115.3815 81.1708
1971 6.9314 142(19) 103.1556 81.5615
1972 6.9344 142(19) 94.7481 81.9523
1973 6.9374 116(17) 90.3818 82.3429
1974 6.9404 134(18) 88.5433 82.7337
1975 6.9434 134(18) 87.9202 83.1243
1976 6.9464 129(18) 87.9853 83.5151
1977 6.9494 161(20) 88.4265 83.9057
1978 6.9524 121(17) 88.7488 84.2965
1979 6.9554 128(18) 89.5005 84.6871
1980 6.9584 145(19) 90.1167 85.0778
1981 6.9614 130(18) 91.1089 85.4685
1982 6.9644 130(18) 92.1541 85.8592
1983 6.9674 142(19) 93.6144 86.2499
1984 6.9704 130(18) 95.6444 86.6406
1985 6.9734 135(18) 99.1903 87.0314
1986 6.9764 123(17) 105.1218 87.4220
1987 6.9794 137(18) 114.1062 87.8128
1988 6.9824 140(19) 126.4200 88.2034
1989 6.9854 92(15) 143.0580 88.5942
1990 6.9884 107(16) 165.3568 88.9848
1991 6.9914 141(19) 195.5964 89.3755
1992 6.9944 112(17) 229.3138 89.7662
1993 6.9974 96(16) 248.0757 90.1569
1994 7.0004 118(17) 239.2479 90.5476
1995 7.0034 107(16) 222.1563 90.9383
1996 7.0064 106(16) 222.5551 91.3290
1997 7.0094 159(20) 246.0803 91.7197
1998 7.0124 134(18) 276.7874 92.1105
1999 7.0154 138(19) 294.3260 92.5011
2000 7.0184 121(17) 292.2573 92.8919
2001 7.0214 112(17) 273.5752 93.2825
2002 7.0244 128(18) 243.6189 93.6732
2003 7.0274 97(16) 211.0804 94.0639
2004 7.0304 113(17) 177.6098 94.4546
2005 7.0334 146(19) 147.8459 94.8453
2006 7.0364 136(18) 126.8910 95.2360
2007 7.0394 143(19) 114.6347 95.6267
2008 7.0424 115(17) 108.4115 96.0174
2009 7.0454 132(18) 105.4359 96.4082
2010 7.0484 121(18) 103.9201 96.7988
2011 7.0514 103(16) 103.0598 97.1896
2012 7.0544 126(18) 102.4920 97.5802
2013 7.0574 185(22) 102.1346 97.9710
2014 7.0604 139(19) 101.9698 98.3616
2015 7.0634 122(17) 101.8521 98.7523
2016 7.0664 118(17) 101.4538 99.1430
2017 7.0694 121(17) 101.5347 99.5337
2018 7.0724 152(19) 101.7056 99.9244
2019 7.0754 117(17) 101.9031 100.3151
2020 7.0784 139(19) 102.1355 100.7058
2021 7.0814 149(19) 102.1517 101.0965
2022 7.0844 128(18) 102.2366 101.4873
2023 7.0874 119(17) 102.4633 101.8779
2024 7.0904 132(18) 102.5031 102.2687
2025 7.0934 144(19) 102.8717 102.6593
2026 7.0964 133(18) 103.0500 103.0500
2027 7.0994 134(18) 103.4407 103.4407
2028 7.1024 133(18) 103.3346 103.2099
2029 7.1054 127(18) 103.0065 102.7899
2030 7.1084 130(18) 102.6096 102.3699
2031 7.1114 126(18) 102.2415 101.9499
2032 7.1144 138(19) 102.5371 101.5299
2033 7.1174 91(15) 102.2163 101.1099
2034 7.1204 126(18) 102.0482 100.6899
2035 7.1234 114(17) 102.0210 100.2699
2036 7.1264 139(19) 101.7961 99.8499
2037 7.1294 101(16) 101.6061 99.4300
2038 7.1324 130(18) 101.4599 99.0099
2039 7.1354 104(16) 101.6659 98.5900
2040 7.1384 131(18) 102.0550 98.1699
2041 7.1414 124(18) 102.2004 97.7500
2042 7.1444 124(18) 102.4872 97.3299
2043 7.1474 122(17) 102.9770 96.9100
2044 7.1504 133(18) 103.8004 96.4899
2045 7.1534 116(17) 105.2891 96.0700
2046 7.1564 133(18) 108.2491 95.6499
2047 7.1594 123(17) 114.2067 95.2300
2048 7.1624 146(19) 125.0864 94.8100
2049 7.1654 170(21) 141.9703 94.3900
2050 7.1684 249(25) 163.6264 93.9700
2051 7.1714 222(23) 187.2864 93.5500
2052 7.1744 217(23) 215.8335 93.1300
2053 7.1774 283(27) 257.3926 92.7100
2054 7.1804 336(29) 308.3933 92.2900
2055 7.1834 415(32) 341.6261 91.8700
2056 7.1864 389(31) 335.9120 91.4500
2057 7.1894 361(30) 303.2259 91.0300
2058 7.1924 226(24) 261.0648 90.6100
2059 7.1954 209(23) 231.0666 90.1900
2060 7.1984 236(24) 229.8617 89.7700
2061 7.2014 237(24) 252.5877 89.3500
2062 7.2044 233(24) 273.1370 88.9300
2063 7.2074 279(26) 261.7653 88.5100
2064 7.2104 218(23) 219.8862 88.0900
2065 7.2134 177(21) 173.0781 87.6700
2066 7.2164 197(22) 138.5203 87.2500
2067 7.2194 111(17) 119.0437 86.8300
2068 7.2224 164(20) 109.9392 86.4100
2069 7.2254 120(17) 106.3983 85.9900
2070 7.2284 129(18) 105.6725 85.5700
2071 7.2314 140(19) 106.9591 85.1500
2072 7.2344 144(19) 111.5153 84.7301
2073 7.2374 143(19) 123.0502 84.3100
2074 7.2404 195(22) 147.0539 83.8901
2075 7.2434 252(25) 189.0677 83.4700
2076 7.2464 380(31) 247.0880 83.0501
2077 7.2494 553(37) 304.3954 82.6300
2078 7.2524 739(43) 337.3154 82.2101
2079 7.2554 809(45) 345.1053 81.7900
2080 7.2584 526(36) 339.3964 81.3701
2081 7.2614 355(30) 322.7426 80.9500
2082 7.2644 255(25) 301.5974 80.5301
2083 7.2674 183(21) 289.9471 80.1101
2084 7.2704 153(20) 289.8582 79.6901
2085 7.2734 117(17) 282.9261 79.2701
2086 7.2764 166(20) 255.7229 78.8501
2087 7.2794 146(19) 223.6954 78.4301
2088 7.2824 114(17) 201.5311 78.0101
2089 7.2854 104(16) 191.9748 77.5901
2090 7.2884 109(16) 185.8195 77.1701
2091 7.2914 105(16) 175.6051 76.7501
2092 7.2944 138(19) 163.4402 76.3300
2093 7.2974 125(18) 152.3169 75.9101
2094 7.3004 107(16) 143.7627 75.4901
2095 7.3034 127(18) 137.7364 75.0701
2096 7.3064 137(18) 129.1687 74.6501
2097 7.3094 105(16) 116.2671 74.5462
2098 7.3124 114(17) 103.3810 74.5572
2099 7.3154 108(16) 93.9204 74.5683
2100 7.3184 122(17) 88.4537 74.5793
2101 7.3214 92(15) 85.5820 74.5903
2102 7.3244 114(17) 85.3135 74.6014
2103 7.3274 110(17) 86.4914 74.6124
2104 7.3304 133(18) 89.1278 74.6234
2105 7.3334 101(16) 93.4516 74.6345
2106 7.3364 101(16) 99.5821 74.6455
2107 7.3394 128(18) 106.8776 74.6565
2108 7.3424 146(19) 116.2153 74.6676
2109 7.3454 126(18) 129.3566 74.6786
2110 7.3484 81(14) 145.9308 74.6896
2111 7.3514 146(19) 160.3991 74.7007
2112 7.3544 122(17) 170.5349 74.7117
2113 7.3574 172(21) 179.9962 74.7227
2114 7.3604 114(17) 194.1717 74.7338
2115 7.3634 121(17) 210.4537 74.7448
2116 7.3664 141(19) 220.9073 74.7558
2117 7.3694 130(18) 213.5124 74.7669
2118 7.3724 132(18) 189.6157 74.7779
2119 7.3754 134(18) 158.8754 74.7889
2120 7.3784 158(20) 133.5341 74.8000
2121 7.3814 154(20) 121.5486 74.8110
2122 7.3844 158(20) 125.3424 74.8220
2123 7.3874 130(18) 143.9225 74.8331
2124 7.3904 134(18) 169.3325 74.8441
2125 7.3934 137(19) 186.8892 74.8551
2126 7.3964 144(19) 180.4056 74.8662
2127 7.3994 150(19) 156.2828 74.8772
2128 7.4024 164(20) 132.6648 74.8882
2129 7.4054 149(19) 116.5329 74.8993
2130 7.4084 173(20) 110.5995 74.9103
2131 7.4114 153(19) 114.3048 74.9213
2132 7.4144 127(17) 129.8290 74.9324
2133 7.4174 183(21) 163.6378 74.9434
2134 7.4204 228(23) 223.2455 74.9544
2135 7.4234 320(27) 308.8882 74.9655
2136 7.4264 389(30) 402.2882 74.9765
2137 7.4294 570(36) 471.4612 74.9875
2138 7.4324 502(34) 494.2087 74.9986
2139 7.4354 481(33) 473.6927 75.0096
2140 7.4384 354(29) 423.0319 75.0206
2141 7.4414 374(29) 358.2310 75.0317
2142 7.4444 278(25) 290.1964 75.0427
2143 7.4474 254(24) 239.0029 75.0537
2144 7.4504 240(23) 221.7167 75.0648
2145 7.4534 230(23) 240.0926 75.0758
2146 7.4564 201(21) 281.7265 75.0869
2147 7.4594 290(26) 321.6273 75.0979
2148 7.4624 330(27) 348.5301 75.1089
2149 7.4654 359(29) 374.0184 75.1199
2150 7.4684 360(29) 410.1006 75.1310
2151 7.4714 383(30) 438.8117 75.1420
2152 7.4744 411(31) 417.6838 75.1531
2153 7.4774 365(29) 340.5545 75.1641
2154 7.4804 316(27) 250.1086 75.1751
2155 7.4834 214(22) 179.6661 75.1861
2156 7.4864 190(21) 139.1841 75.1972
2157 7.4894 165(20) 118.3559 75.2082
2158 7.4924 190(21) 109.4947 75.2193
2159 7.4954 112(16) 106.2697 75.2303
2160 7.4984 187(21) 105.8127 75.2413
2161 7.5014 157(19) 108.1401 75.2524
2162 7.5044 193(21) 114.9107 75.2634
2163 7.5074 180(20) 130.6917 75.2744
2164 7.5104 244(24) 161.1305 75.2855
2165 7.5134 346(28) 211.1340 75.2965
2166 7.5164 487(33) 280.1913 75.3075
2167 7.5194 569(36) 355.1065 75.3186
2168 7.5224 679(40) 418.6246 75.3296
2169 7.5254 763(42) 449.7869 75.3406
2170 7.5284 790(42) 434.9197 75.3517
2171 7.5314 686(40) 394.3333 75.3627
2172 7.5344 581(36) 360.0873 75.3737
2173 7.5374 593(37) 340.7946 75.3848
2174 7.5404 454(32) 324.5312 75.3958
2175 7.5434 378(29) 311.3348 75.4068
2176 7.5464 410(31) 330.0377 75.4179
2177 7.5494 472(33) 403.5016 75.4289
2178 7.5524 485(33) 512.0200 75.4399
2179 7.5554 482(33) 586.7174 75.4510
2180 7.5584 486(33) 550.9115 75.4620
2181 7.5614 386(30) 428.1102 75.4730
2182 7.5644 291(26) 297.1298 75.4841
2183 7.5674 206(22) 201.5737 75.4951
2184 7.5704 176(20) 147.1480 75.5061
2185 7.5734 147(19) 121.3972 75.5172
2186 7.5764 159(19) 110.9228 75.5282
2187 7.5794 151(19) 108.3842 75.5392
2188 7.5824 181(20) 111.6183 75.5503
2189 7.5854 193(21) 121.8346 75.5613
2190 7.5884 150(19) 139.6288 75.5723
2191 7.5914 162(19) 161.9608 75.5834
2192 7.5944 155(19) 181.3412 75.5944
2193 7.5974 194(21) 191.0061 75.6054
2194 7.6004 207(22) 191.2202 75.6165
2195 7.6034 171(20) 183.5397 75.6275
2196 7.6064 168(20) 173.5103 75.6385
2197 7.6094 173(20) 171.4833 75.6496
2198 7.6124 187(21) 178.6310 75.6606
2199 7.6154 212(22) 188.4390 75.6716
2200 7.6184 198(21) 192.9787 75.6827
2201 7.6214 174(20) 192.8433 75.6937
2202 7.6244 192(21) 189.0375 75.7047
2203 7.6274 189(21) 182.2519 75.7158
2204 7.6304 159(19) 172.9737 75.7268
2205 7.6334 118(17) 165.0730 75.7378
2206 7.6364 91(15) 157.0360 75.7489
2207 7.6394 135(18) 153.1547 75.7599
2208 7.6424 160(19) 159.1161 75.7709
2209 7.6454 103(16) 173.8637 75.7820
2210 7.6484 149(18) 186.7004 75.7930
2211 7.6514 131(17) 183.6023 75.8040
2212 7.6544 135(18) 162.6506 75.8151
2213 7.6574 141(18) 135.5774 75.8261
2214 7.6604 107(16) 113.1639 75.8372
2215 7.6634 150(19) 98.9796 75.8482
2216 7.6664 103(15) 92.4068 76.3851
2217 7.6694 126(17) 90.7890 77.4478
2218 7.6724 134(18) 92.4175 78.5104
2219 7.6754 94(15) 96.4405 79.5730
2220 7.6784 107(16) 103.3523 80.6358
2221 7.6814 128(17) 112.2695 81.6984
2222 7.6844 121(17) 121.5332 82.7612
2223 7.6874 140(18) 129.6590 83.8238
2224 7.6904 123(17) 137.0193 84.8865
2225 7.6934 100(15) 147.2643 85.9491
2226 7.6964 108(16) 162.8832 87.0119
2227 7.6994 80(14) 182.7521 88.0745
2228 7.7024 146(18) 200.7580 89.1373
2229 7.7054 131(17) 210.7977 90.1999
2230 7.7084 128(17) 213.3983 91.2625
2231 7.7114 148(18) 213.2424 92.3252
2232 7.7144 139(18) 210.7866 93.3878
2233 7.7174 102(15) 200.5704 94.4506
2234 7.7204 109(16) 181.7429 95.5132
2235 7.7234 138(18) 163.3313 96.5759
2236 7.7264 99(15) 152.3634 97.6385
2237 7.7294 128(17) 148.4077 98.7013
2238 7.7324 131(17) 145.0174 99.7639
2239 7.7354 114(16) 137.9606 100.8267
2240 7.7384 95(15) 128.5986 101.8893
2241 7.7414 124(17) 120.3059 102.9519
2242 7.7444 123(17) 114.8145 104.0146
2243 7.7474 110(16) 112.0247 105.0772
2244 7.7504 113(16) 111.0370 106.1400
2245 7.7534 123(17) 110.9959 107.2026
2246 7.7564 117(16) 111.3889 108.2654
2247 7.7594 124(17) 111.9550 109.3279
2248 7.7624 104(15) 112.5912 110.3907
2249 7.7654 152(19) 113.3762 111.4533
2250 7.7684 119(17) 114.1867 112.5161
2251 7.7714 132(17) 115.2902 113.5787
2252 7.7744 129(17) 116.1629 114.6413
2253 7.7774 124(17) 117.0223 115.7040
2254 7.7804 109(16) 117.8415 116.7666
2255 7.7834 118(16) 119.2150 117.8294
2256 7.7864 111(16) 120.2006 118.8920
2257 7.7894 136(18) 121.2852 119.9548
2258 7.7924 142(18) 122.1685 121.0174
2259 7.7954 130(17) 123.2545 122.0801
2260 7.7984 139(18) 123.6243 122.3523
2261 7.8014 101(15) 123.4900 122.0977
2262 7.8044 127(17) 123.3834 121.8432
2263 7.8074 100(15) 123.2306 121.5885
2264 7.8104 107(16) 123.1649 121.3340
2265 7.8134 122(17) 123.2037 121.0794
2266 7.8164 152(19) 123.3760 120.8248
2267 7.8194 125(17) 123.8883 120.5702
2268 7.8224 137(18) 124.3205 120.3156
2269 7.8254 102(15) 125.0993 120.0610
2270 7.8284 107(16) 126.6627 119.8064
2271 7.8314 114(16) 129.9984 119.5518
2272 7.8344 105(16) 136.7863 119.2972
2273 7.8374 185(21) 148.8509 119.0426
2274 7.8404 137(18) 166.7401 118.7880
2275 7.8434 207(22) 187.9998 118.5335
2276 7.8464 212(22) 206.4414 118.2789
2277 7.8494 240(24) 218.1574 118.0243
2278 7.8524 262(25) 227.1117 117.7697
2279 7.8554 278(25) 232.6489 117.5151
2280 7.8584 269(25) 224.8256 117.2605
2281 7.8614 221(23) 201.4842 117.0059
2282 7.8644 207(22) 173.9612 116.7513
2283 7.8674 178(20) 151.8553 116.4967
2284 7.8704 175(20) 138.2610 116.2421
2285 7.8734 152(19) 131.8087 115.9875
2286 7.8764 164(19) 130.2763 115.7330
2287 7.8794 156(19) 133.0921 115.4784
2288 7.8824 157(19) 141.3909 115.2238
2289 7.8854 181(20) 156.3694 114.9692
2290 7.8884 192(21) 177.1891 114.7146
2291 7.8914 222(23) 198.0877 114.4600
2292 7.8944 297(26) 208.5487 114.2054
2293 7.8974 263(25) 200.5516 113.9508
2294 7.9004 225(23) 179.4904 113.6962
2295 7.9034 284(26) 157.4109 113.4417
2296 7.9064 336(28) 141.3300 113.1870
2297 7.9094 306(27) 132.2579 112.9325
2298 7.9124 233(23) 128.6919 112.6779
2299 7.9154 202(22) 129.0868 112.4233
2300 7.9184 179(20) 133.4682 112.1687
2301 7.9214 148(18) 143.6448 111.9141
2302 7.9244 215(22) 162.0359 111.6595
2303 7.9274 215(22) 190.3205 111.4049
2304 7.9304 220(23) 225.1000 111.1503
2305 7.9334 278(25) 256.9774 110.8957
2306 7.9364 310(27) 277.4437 110.6412
2307 7.9394 300(26) 281.8765 110.3865
2308 7.9424 290(26) 275.4043 110.1320
2309 7.9454 322(27) 263.4630 109.8774
2310 7.9484 298(26) 246.8735 109.6228
2311 7.9514 216(22) 229.8221 109.3682
2312 7.9544 186(21) 217.3833 109.1136
2313 7.9574 150(19) 208.5356 108.8590
2314 7.9604 128(17) 199.0401 108.6044
2315 7.9634 177(20) 191.1752 108.3498
2316 7.9664 135(18) 189.4255 108.0952
2317 7.9694 143(18) 194.2712 107.8407
2318 7.9724 111(16) 200.1202 107.5860
2319 7.9754 178(20) 200.4185 107.3315
2320 7.9784 176(20) 191.0564 107.0769
2321 7.9814 138(18) 174.2982 106.8223
2322 7.9844 138(18) 155.5069 106.5677
2323 7.9874 120(17) 140.2108 106.3131
2324 7.9904 147(18) 130.4286 106.0585
2325 7.9934 169(20) 126.8057 105.8039
2326 7.9964 180(20) 128.7132 105.5493
2327 7.9994 148(19) 135.5190 105.2947
2328 8.0024 164(19) 145.6425 105.0401
2329 8.0054 136(18) 155.5104 104.7104
2330 8.0084 119(17) 160.7060 104.3232
2331 8.0114 157(19) 161.3398 103.9359
2332 8.0144 118(16) 160.9552 103.5488
2333 8.0174 143(18) 163.9637 103.1615
2334 8.0204 140(18) 172.6749 102.7743
2335 8.0234 157(19) 186.9710 102.3870
2336 8.0264 142(18) 201.4795 101.9999
2337 8.0294 161(19) 211.4458 101.6126
2338 8.0324 169(20) 212.8436 101.2254
2339 8.0354 142(18) 211.3348 100.8381
2340 8.0384 148(19) 209.1033 100.4510
2341 8.0414 157(19) 211.5844 100.0637
2342 8.0444 120(17) 220.0152 99.6765
2343 8.0474 175(20) 231.4142 99.2893
2344 8.0504 184(21) 242.2975 98.9021
2345 8.0534 137(18) 248.6265 98.5148
2346 8.0564 162(19) 251.8981 98.1276
2347 8.0594 166(20) 257.2697 97.7404
2348 8.0624 149(18) 260.3328 97.3532
2349 8.0654 192(21) 251.3628 96.9659
2350 8.0684 163(19) 230.6718 96.5787
2351 8.0714 192(21) 207.5552 96.1915
2352 8.0744 268(25) 190.5561 95.8043
2353 8.0774 285(26) 185.4654 95.4170
2354 8.0804 327(27) 192.9654 95.0298
2355 8.0834 467(33) 209.8135 94.6426
2356 8.0864 522(35) 232.2683 94.2554
2357 8.0894 671(39) 263.9658 93.8681
2358 8.0924 720(41) 322.6572 93.4810
2359 8.0954 945(47) 436.3355 93.0937
2360 8.0984 1111(51) 626.3312 92.7065
2361 8.1014 1333(56) 884.7806 92.3192
2362 8.1044 1560(60) 1154.7554 91.9321
2363 8.1074 1609(61) 1338.7100 91.5448
2364 8.1104 1573(60) 1372.8297 91.1575
2365 8.1134 1609(61) 1274.5382 90.7703
2366 8.1164 1325(55) 1151.3745 90.3832
2367 8.1194 1120(51) 1122.9008 89.9959
2368 8.1224 1204(53) 1212.1985 89.6086
2369 8.1254 1382(57) 1327.1143 89.2215
2370 8.1284 1491(59) 1322.4896 88.8343
2371 8.1314 1236(53) 1132.1853 88.4470
2372 8.1344 893(45) 841.1064 88.0597
2373 8.1374 671(39) 570.2461 87.6726
2374 8.1404 495(34) 378.6987 87.2853
2375 8.1434 303(26) 268.1855 86.8981
2376 8.1464 251(24) 213.2721 86.5108
2377 8.1494 164(20) 185.3633 86.1237
2378 8.1524 193(21) 166.7843 85.7364
2379 8.1554 178(20) 153.3219 85.3492
2380 8.1584 172(20) 145.2403 84.9621
2381 8.1614 191(21) 142.4153 84.5748
2382 8.1644 161(19) 142.6599 84.1875
2383 8.1674 154(19) 142.0962 83.8003
2384 8.1704 162(19) 137.9351 83.4131
2385 8.1734 169(20) 131.9598 83.0259
2386 8.1764 195(21) 129.0643 82.6386
2387 8.1794 156(19) 133.3311 82.2514
2388 8.1824 152(19) 147.7093 81.8642
2389 8.1854 204(22) 169.3082 81.4770
2390 8.1884 255(24) 194.6346 81.0897
2391 8.1914 221(23) 212.8678 80.7026
2392 8.1944 189(21) 214.8550 80.3153
2393 8.1974 206(22) 196.5962 79.9281
2394 8.2004 192(21) 167.5736 79.5408
2395 8.2034 159(19) 139.5288 79.1537
2396 8.2064 182(20) 118.0900 78.7664
2397 8.2094 145(18) 105.2492 78.3792
2398 8.2124 138(18) 103.4075 77.9919
2399 8.2154 123(17) 109.9898 77.6048
2400 8.2184 122(17) 125.6438 77.2175
2401 8.2214 150(19) 149.1045 76.8303
2402 8.2244 133(18) 174.5767 76.4431
2403 8.2274 126(17) 189.9219 76.0559
2404 8.2304 181(20) 184.6225 75.6686
2405 8.2334 220(23) 164.8609 75.2814
2406 8.2364 287(26) 145.2456 74.8942
2407 8.2394 278(25) 134.6875 74.5070
2408 8.2424 260(24) 134.5518 74.1197
2409 8.2454 221(23) 140.9140 73.7325
2410 8.2484 198(21) 148.7550 73.3453
2411 8.2514 223(23) 158.1295 72.9581
2412 8.2544 225(23) 173.9695 72.5708
2413 8.2574 316(27) 198.5386 72.1837
2414 8.2604 343(28) 226.6122 71.7964
2415 8.2634 262(25) 249.0043 71.4091
2416 8.2664 228(23) 263.0585 71.0219
2417 8.2694 204(22) 271.1689 70.6348
2418 8.2724 238(23) 271.8063 70.2475
2419 8.2754 191(21) 262.0101 69.8602
2420 8.2784 245(24) 240.5256 69.4730
2421 8.2814 223(23) 210.0912 69.0859
2422 8.2844 215(22) 179.2821 68.6986
2423 8.2874 251(24) 155.7784 68.3113
2424 8.2904 235(23) 142.3075 67.9242
2425 8.2934 218(22) 136.1260 67.5369
2426 8.2964 168(20) 132.8835 67.1497
2427 8.2994 142(18) 130.8875 66.7624
2428 8.3024 138(18) 129.6567 66.3753
2429 8.3054 110(16) 126.5101 65.9880
2430 8.3084 136(18) 118.6932 65.6008
2431 8.3114 101(15) 109.9299 65.2135
2432 8.3144 146(18) 104.6160 64.8264
2433 8.3174 132(18) 105.7154 64.4391
2434 8.3204 126(17) 113.8568 64.0519
2435 8.3234 120(17) 127.4723 63.6647
2436 8.3264 116(16) 143.6895 63.2775
2437 8.3294 109(16) 160.7656 62.8902
2438 8.3324 162(19) 181.2195 64.6285
2439 8.3354 137(18) 202.6104 66.8973
2440 8.3384 126(17) 221.9511 69.1668
2441 8.3414 108(16) 236.7707 71.4363
2442 8.3444 126(17) 245.0902 73.7058
2443 8.3474 135(18) 242.5586 75.9746
2444 8.3504 110(16) 228.8192 78.2441
2445 8.3534 120(17) 212.8168 80.5136
2446 8.3564 153(19) 201.2152 82.7824
2447 8.3594 111(16) 196.0784 85.0519
2448 8.3624 134(18) 196.5978 87.3214
2449 8.3654 129(17) 200.1852 89.5909
2450 8.3684 123(17) 204.5289 91.8597
2451 8.3714 120(17) 206.4840 94.1292
2452 8.3744 147(18) 202.2705 96.3987
2453 8.3774 114(16) 192.1218 98.6682
2454 8.3804 127(17) 180.4658 100.9369
2455 8.3834 139(18) 169.7076 103.2064
2456 8.3864 121(17) 158.4515 105.4759
2457 8.3894 168(20) 146.7449 107.7447
2458 8.3924 189(21) 136.6678 110.0142
2459 8.3954 187(21) 129.7191 112.2837
2460 8.3984 147(18) 125.9871 114.5532
2461 8.4014 130(17) 124.7645 116.8220
2462 8.4044 169(20) 125.0854 119.0915
2463 8.4074 134(18) 126.1991 121.3610
2464 8.4104 143(18) 127.6743 123.6305
2465 8.4134 143(18) 129.3328 125.8993
2466 8.4164 157(19) 131.5546 128.1688
2467 8.4194 150(19) 133.3994 130.4383
2468 8.4224 115(16) 135.3709 132.7070
2469 8.4254 113(17) 137.3684 134.9765
2470 8.4284 114(16) 139.2853 137.2460
2471 8.4314 102(15) 141.1114 138.9205
2472 8.4344 139(18) 141.6257 139.4051
2473 8.4374 122(17) 142.0135 139.8900
2474 8.4404 124(17) 142.8354 140.3748
2475 8.4434 167(20) 143.3244 140.8596
2476 8.4464 135(18) 143.9367 141.3443
2477 8.4494 124(17) 144.5889 141.8291
2478 8.4524 158(19) 145.4779 142.3140
2479 8.4554 132(17) 146.2914 142.7988
2480 8.4584 117(16) 147.1877 143.2835
2481 8.4614 95(15) 148.3592 143.7683
2482 8.4644 140(18) 149.8413 144.2531
2483 8.4674 146(18) 151.7337 144.7378
2484 8.4704 163(19) 154.4694 145.2226
2485 8.4734 199(22) 158.3222 145.7075
2486 8.4764 207(22) 163.3842 146.1923
2487 8.4794 221(22) 170.7449 146.6770
2488 8.4824 244(24) 181.1954 147.1618
2489 8.4854 216(22) 196.7137 147.6466
2490 8.4884 262(24) 218.3548 148.1314
2491 8.4914 336(28) 244.7896 148.6161
2492 8.4944 356(29) 271.0530 149.1010
2493 8.4974 376(29) 287.3113 149.5858
2494 8.5004 416(31) 289.8171 150.0704
2495 8.5034 440(32) 287.4320 150.5553
2496 8.5064 327(27) 289.0965 151.0401
2497 8.5094 305(27) 295.2919 151.5249
2498 8.5124 292(26) 300.7631 152.0096
2499 8.5154 290(26) 301.5454 152.4944
2500 8.5184 313(27) 297.4163 152.9793
2501 8.5214 250(24) 287.0682 153.4641
2502 8.5244 224(23) 273.9074 153.9488
2503 8.5274 238(23) 265.6912 154.4336
2504 8.5304 205(22) 264.1633 154.9184
2505 8.5334 200(22) 263.0220 155.4031
2506 8.5364 222(23) 255.2815 155.8879
2507 8.5394 175(20) 241.5757 156.3728
2508 8.5424 180(20) 229.0865 156.8576
2509 8.5454 194(21) 225.1685 157.3423
2510 8.5484 262(24) 233.3793 157.8271
2511 8.5514 235(23) 252.6709 158.3119
2512 8.5544 289(26) 277.6519 158.7968
2513 8.5574 343(28) 301.7185 159.2814
2514 8.5604 470(33) 318.3604 159.7663
2515 8.5634 689(40) 321.7372 160.2511
2516 8.5664 810(43) 314.6711 160.7358
2517 8.5694 868(45) 304.0363 161.2206
2518 8.5724 729(41) 293.1029 161.7054
2519 8.5754 595(37) 281.3350 162.1902
2520 8.5784 502(34) 267.6689 162.6749
2521 8.5814 426(31) 252.9476 163.1597
2522 8.5844 371(29) 241.2097 163.6446
2523 8.5874 445(32) 237.6093 164.1294
2524 8.5904 370(29) 245.9692 164.6141
2525 8.5934 439(32) 265.3745 165.0989
2526 8.5964 409(31) 289.4750 165.5837
2527 8.5994 305(27) 308.3027 166.0684
2528 8.6024 261(25) 310.9196 166.5532
2529 8.6054 216(22) 294.1605 167.0381
2530 8.6084 175(20) 265.1945 167.5229
2531 8.6114 191(21) 234.9765 168.0076
2532 8.6144 185(21) 212.6783 168.4924
2533 8.6174 197(21) 197.2044 168.9772
2534 8.6204 163(19) 190.3603 169.4621
2535 8.6234 166(19) 190.8622 169.9467
2536 8.6264 191(21) 192.3074 170.4316
2537 8.6294 162(19) 194.8929 170.9164
2538 8.6324 185(21) 197.5303 170.8175
2539 8.6354 150(19) 203.1021 169.8428
2540 8.6384 204(22) 202.8778 168.8681
2541 8.6414 169(20) 205.1203 167.8935
2542 8.6444 186(21) 209.4118 166.9191
2543 8.6474 225(23) 212.9818 165.9445
2544 8.6504 199(21) 218.6888 164.9698
2545 8.6534 140(18) 225.0877 163.9951
2546 8.6564 220(22) 233.2153 163.0208
2547 8.6594 179(20) 242.9977 162.0461
2548 8.6624 208(22) 249.1472 161.0714
2549 8.6654 206(22) 253.8995 160.0971
2550 8.6684 202(22) 259.0530 159.1224
2551 8.6714 213(22) 269.4119 158.1478
2552 8.6744 253(24) 288.2470 157.1731
2553 8.6774 285(26) 317.1242 156.1987
2554 8.6804 339(28) 361.1565 155.2241
2555 8.6834 433(32) 428.9714 154.2494
2556 8.6864 524(35) 541.2038 153.2748
2557 8.6894 694(40) 724.8567 152.3004
2558 8.6924 996(48) 1004.0870 151.3257
2559 8.6954 1610(61) 1381.3534 150.3511
2560 8.6984 2025(68) 1823.6134 149.3767
2561 8.7014 2851(81) 2286.6189 148.4021
2562 8.7044 3160(85) 2719.3167 147.4274
2563 8.7074 3412(89) 3052.0437 146.4527
2564 8.7104 3644(92) 3279.1555 145.4784
2565 8.7134 3817(94) 3455.9954 144.5037
2566 8.7164 3841(94) 3566.3025 143.5291
2567 8.7194 4113(97) 3534.1372 142.5544
2568 8.7224 3811(94) 3377.1526 141.5800
2569 8.7254 3626(92) 3147.1326 140.6054
2570 8.7284 3343(88) 2864.1711 139.6307
2571 8.7314 2961(83) 2594.1772 138.6564
2572 8.7344 2453(75) 2441.2112 137.6817
2573 8.7374 2242(72) 2448.8586 136.7070
2574 8.7404 2170(71) 2545.9226 135.7324
2575 8.7434 2284(72) 2589.4888 134.7580
2576 8.7464 2169(71) 2504.3782 133.7834
2577 8.7494 2404(75) 2324.7014 132.8087
2578 8.7524 2036(68) 2137.4890 131.8340
2579 8.7554 1902(66) 1992.1816 130.8597
2580 8.7584 1746(63) 1842.8638 129.8850
2581 8.7614 1489(59) 1615.3037 128.9103
2582 8.7644 1238(53) 1303.9185 127.9360
2583 8.7674 922(46) 972.3065 126.9613
2584 8.7704 575(36) 690.4655 125.9867
2585 8.7734 325(27) 488.9600 125.0120
2586 8.7764 285(26) 362.8898 124.0377
2587 8.7794 269(25) 290.7188 123.0630
2588 8.7824 205(22) 248.7026 122.0883
2589 8.7854 222(23) 224.5138 121.1137
2590 8.7884 234(23) 206.9268 120.1393
2591 8.7914 231(23) 191.4785 119.1646
2592 8.7944 156(19) 180.8830 118.1900
2593 8.7974 151(19) 172.3604 117.2156
2594 8.8004 182(20) 164.6948 116.2410
2595 8.8034 195(21) 154.1599 115.2663
2596 8.8064 193(21) 149.0195 114.2916
2597 8.8094 168(20) 143.7262 113.3173
2598 8.8124 123(17) 137.3580 112.3426
2599 8.8154 157(19) 134.2502 111.3680
2600 8.8184 182(20) 131.0742 110.3933
2601 8.8214 176(20) 129.2047 109.4189
2602 8.8244 149(19) 127.0690 108.4443
2603 8.8274 199(21) 123.6185 107.4696
2604 8.8304 211(22) 123.3248 106.4949
2605 8.8334 199(21) 128.0339 107.0948
2606 8.8364 183(21) 138.6454 109.4937
2607 8.8394 169(20) 153.6326 111.8927
2608 8.8424 196(21) 170.8521 114.2908
2609 8.8454 193(21) 185.9490 116.6897
2610 8.8484 143(18) 195.8456 119.0887
2611 8.8514 168(20) 199.5575 121.4876
2612 8.8544 183(20) 197.0569 123.8858
2613 8.8574 188(21) 191.3746 126.2847
2614 8.8604 182(20) 186.6854 128.6836
2615 8.8634 192(21) 185.0629 131.0825
2616 8.8664 217(22) 185.6170 133.4807
2617 8.8694 175(20) 186.6127 135.8796
2618 8.8724 186(21) 188.3853 138.2785
2619 8.8754 169(20) 191.5373 140.6767
2620 8.8784 174(20) 195.4937 143.0756
2621 8.8814 147(18) 198.8054 145.4746
2622 8.8844 184(20) 200.8331 147.8735
2623 8.8874 154(19) 201.3585 150.2717
2624 8.8904 183(20) 201.0321 152.6706
2625 8.8934 192(21) 200.8510 155.0695
2626 8.8964 161(19) 200.9240 157.4684
2627 8.8994 149(19) 201.9478 159.8666
2628 8.9024 166(20) 204.1435 162.2655
2629 8.9054 178(20) 206.7441 164.6644
2630 8.9084 145(18) 209.2640 167.0626
2631 8.9114 165(20) 211.7847 169.4615
2632 8.9144 150(19) 213.9555 170.9925
2633 8.9174 177(20) 214.1080 170.1367
2634 8.9204 188(21) 214.6058 169.2812
2635 8.9234 204(22) 216.6251 168.4255
2636 8.9264 196(21) 221.5939 167.5697
2637 8.9294 171(20) 229.4097 166.7140
2638 8.9324 211(22) 237.9553 165.8585
2639 8.9354 129(17) 244.2597 165.0027
2640 8.9384 139(18) 245.5443 164.1469
2641 8.9414 194(21) 241.0621 163.2915
2642 8.9444 182(20) 234.0320 162.4357
2643 8.9474 193(21) 228.8868 161.5799
2644 8.9504 155(19) 227.5667 160.7242
2645 8.9534 173(20) 229.6351 159.8687
2646 8.9564 170(20) 234.5271 159.0129
2647 8.9594 172(18) 242.0673 158.1572
2648 8.9624 189(20) 252.8624 157.3014
2649 8.9654 213(21) 267.0294 156.4459
2650 8.9684 226(21) 281.4128 155.5901
2651 8.9714 274(24) 289.9360 154.7344
2652 8.9744 333(26) 289.8490 153.8789
2653 8.9774 329(26) 282.3861 153.0231
2654 8.9804 280(24) 269.6536 152.1674
2655 8.9834 293(24) 255.1725 151.3116
2656 8.9864 275(24) 239.4375 150.4561
2657 8.9894 268(23) 220.8268 149.6004
2658 8.9924 275(24) 200.9491 148.7446
2659 8.9954 264(23) 183.3366 147.8889
2660 8.9984 271(24) 182.2470 147.0334
2661 9.0014 296(25) 173.9874 146.1776
2662 9.0044 246(22) 169.1905 145.3218
2663 9.0074 242(22) 179.9139 144.4664
2664 9.0104 267(23) 179.7141 143.6106
2665 9.0134 284(24) 191.7571 142.7548
2666 9.0164 300(25) 193.8224 141.8991
2667 9.0194 299(25) 196.4742 141.0436
2668 9.0224 332(26) 199.7588 140.1878
2669 9.0254 382(28) 203.6817 139.3321
2670 9.0284 457(30) 208.4619 138.4763
2671 9.0314 465(31) 214.2387 137.6208
2672 9.0344 413(29) 221.1211 136.7651
2673 9.0374 467(31) 229.3835 135.9093
2674 9.0404 480(31) 239.2704 135.0538
2675 9.0434 408(29) 251.2843 134.1980
2676 9.0464 401(29) 265.9058 133.3423
2677 9.0494 479(31) 283.9832 132.4865
2678 9.0524 492(32) 306.5671 131.6310
2679 9.0554 592(35) 335.6431 130.7753
2680 9.0584 674(37) 374.3033 129.9195
2681 9.0614 727(39) 431.5328 129.0638
2682 9.0644 852(42) 526.2077 128.2083
2683 9.0674 1021(46) 699.1257 127.3525
2684 9.0704 1169(49) 1019.6390 126.4967
2685 9.0734 1511(56) 1580.3250 125.6413
2686 9.0764 2166(66) 2466.7764 124.7855
2687 9.0794 3334(82) 3702.3535 123.9297
2688 9.0824 4828(100) 5180.6582 123.0740
2689 9.0854 7217(122) 6622.5684 122.2185
2690 9.0884 9576(141) 7746.3428 121.3627
2691 9.0914 10586(149) 8455.1201 120.5070
2692 9.0944 10357(148) 8583.0244 119.6512
2693 9.0974 8523(134) 7922.4458 118.7957
2694 9.1004 6544(116) 6548.4155 117.9400
2695 9.1034 4855(100) 4847.3525 117.0842
2696 9.1064 3406(84) 3273.8020 116.2287
2697 9.1094 2104(66) 2078.1077 115.3729
2698 9.1124 1285(51) 1296.9471 114.5172
2699 9.1154 814(41) 844.2108 113.6614
2700 9.1184 596(35) 601.9918 112.8059
2701 9.1214 490(32) 474.2324 111.9502
2702 9.1244 385(28) 403.0954 111.0944
2703 9.1274 300(25) 360.1321 110.2387
2704 9.1304 294(24) 333.0251 109.3832
2705 9.1334 289(24) 315.9944 108.5274
2706 9.1364 265(23) 305.4254 107.6716
2707 9.1394 252(23) 297.8264 106.8162
2708 9.1424 203(20) 290.1346 105.9604
2709 9.1454 226(22) 282.3055 105.1046
2710 9.1484 214(21) 277.4593 104.2489
2711 9.1514 214(21) 278.2104 103.3934
2712 9.1544 212(21) 283.2918 102.5376
2713 9.1574 211(21) 288.8980 101.6819
2714 9.1604 190(20) 292.6713 100.8261
2715 9.1634 214(21) 295.9219 99.9706
2716 9.1664 228(22) 300.4098 99.1149
2717 9.1694 202(20) 305.5522 98.2591
2718 9.1724 212(21) 307.4506 97.4036
2719 9.1754 206(21) 289.6912 96.5479
2720 9.1784 174(19) 272.5733 95.6921
2721 9.1814 203(20) 246.4491 94.8363
2722 9.1844 189(20) 208.4891 93.9808
2723 9.1874 181(19) 183.1227 93.1251
2724 9.1904 156(18) 184.1145 92.2693
2725 9.1934 206(21) 199.7249 91.4136
2726 9.1964 217(21) 223.7273 90.5581
2727 9.1994 206(21) 244.6286 89.7023
2728 9.2024 190(20) 252.0768 88.8465
2729 9.2054 132(17) 244.1944 87.9908
2730 9.2084 178(19) 226.6346 87.1353
2731 9.2114 161(18) 207.9304 86.2795
2732 9.2144 168(19) 195.7092 85.4238
2733 9.2174 177(19) 193.1034 84.5683
2734 9.2204 156(18) 199.7937 83.7125
2735 9.2234 133(17) 213.8432 82.8568
2736 9.2264 159(18) 230.4450 82.0010
2737 9.2294 165(18) 243.7677 82.0275
2738 9.2324 159(18) 246.6345 82.4319
2739 9.2354 156(18) 238.7095 82.8363
2740 9.2384 168(19) 226.9058 83.2406
2741 9.2414 163(18) 218.9919 83.6448
2742 9.2444 185(19) 216.3071 84.0492
2743 9.2474 168(19) 216.2065 84.4536
2744 9.2504 166(18) 215.1483 84.8578
2745 9.2534 134(17) 212.2421 85.2622
2746 9.2564 192(20) 207.8953 85.6665
2747 9.2594 161(18) 203.3073 86.0709
2748 9.2624 169(19) 200.3143 86.4751
2749 9.2654 182(19) 200.0808 86.8795
2750 9.2684 156(18) 200.2778 87.2838
2751 9.2714 220(21) 198.3509 87.6882
2752 9.2744 177(19) 194.8530 88.0924
2753 9.2774 211(21) 193.3223 88.4968
2754 9.2804 253(23) 194.3503 88.9011
2755 9.2834 245(22) 194.8956 89.3054
2756 9.2864 293(25) 191.9208 89.7097
2757 9.2894 365(27) 185.8589 90.1141
2758 9.2924 283(24) 178.8350 90.5185
2759 9.2954 235(22) 171.9608 90.9227
2760 9.2984 235(22) 165.8878 91.3271
2761 9.3014 217(21) 162.9708 91.7314
2762 9.3044 238(22) 165.4082 92.1358
2763 9.3074 224(21) 171.8898 92.5400
2764 9.3104 207(21) 178.1755 92.9444
2765 9.3134 195(20) 180.2495 93.3487
2766 9.3164 177(19) 179.0496 93.7530
2767 9.3194 195(20) 181.0016 94.1573
2768 9.3224 133(17) 190.4549 94.5617
2769 9.3254 160(18) 206.7808 94.9660
2770 9.3284 179(19) 223.2246 95.3703
2771 9.3314 159(18) 230.0392 95.7746
2772 9.3344 154(18) 224.0425 96.1790
2773 9.3374 201(20) 211.3795 96.5834
2774 9.3404 215(21) 199.1187 96.9876
2775 9.3434 263(23) 190.5490 97.3920
2776 9.3464 262(23) 188.4418 97.7963
2777 9.3494 289(24) 194.7637 98.2005
2778 9.3524 266(23) 208.9413 98.6049
2779 9.3554 239(22) 226.0757 99.0093
2780 9.3584 296(25) 238.9771 99.4136
2781 9.3614 369(27) 241.1469 99.8179
2782 9.3644 390(28) 232.8867 100.2222
2783 9.3674 338(26) 220.5128 100.6266
2784 9.3704 290(24) 210.3540 101.0309
2785 9.3734 275(24) 205.3390 101.4352
2786 9.3764 271(23) 206.5598 101.8395
2787 9.3794 219(21) 213.9977 102.2439
2788 9.3824 210(21) 230.5371 102.6481
2789 9.3854 244(22) 258.7094 103.0525
2790 9.3884 322(26) 296.2940 103.4569
2791 9.3914 390(28) 334.0050 103.8612
2792 9.3944 431(30) 359.1243 104.2654
2793 9.3974 482(31) 363.7683 104.6698
2794 9.4004 545(33) 347.0576 105.0742
2795 9.4034 467(31) 312.9207 105.4785
2796 9.4064 347(27) 271.1356 105.8828
2797 9.4094 290(24) 233.4746 106.2871
2798 9.4124 207(21) 207.2344 106.6915
2799 9.4154 164(18) 193.5571 107.0957
2800 9.4184 168(19) 189.6127 107.5001
2801 9.4214 181(19) 191.3594 107.9044
2802 9.4244 165(18) 197.1005 108.3088
2803 9.4274 151(18) 204.6652 108.7130
2804 9.4304 160(18) 211.0866 109.1174
2805 9.4334 187(20) 212.6915 109.5218
2806 9.4364 202(20) 207.7382 109.9261
2807 9.4394 156(18) 196.7580 110.3303
2808 9.4424 163(18) 182.8028 110.7347
2809 9.4454 158(18) 170.5684 111.1391
2810 9.4484 156(18) 163.6087 111.5433
2811 9.4514 141(17) 162.9630 111.9477
2812 9.4544 143(17) 168.2858 112.3520
2813 9.4574 134(17) 176.1886 112.7564
2814 9.4604 139(17) 183.1078 113.1606
2815 9.4634 102(15) 186.7732 113.5650
2816 9.4664 110(15) 187.4389 113.9693
2817 9.4694 126(16) 186.8015 114.3737
2818 9.4724 123(16) 186.3544 114.7779
2819 9.4754 145(17) 185.4198 115.1823
2820 9.4784 124(16) 183.0019 115.5867
2821 9.4814 119(16) 179.2169 115.9909
2822 9.4844 115(15) 173.7386 116.3952
2823 9.4874 126(16) 166.2946 116.7996
2824 9.4904 119(16) 157.6167 117.2040
2825 9.4934 142(17) 148.9566 117.6082
2826 9.4964 125(16) 142.2691 118.0126
2827 9.4994 145(17) 137.1588 118.0458
2828 9.5024 129(16) 133.7982 117.9661
2829 9.5054 159(18) 132.4205 117.8864
2830 9.5084 137(17) 133.2886 117.8067
2831 9.5114 142(17) 136.9639 117.7270
2832 9.5144 137(17) 144.1259 117.6473
2833 9.5174 139(17) 155.0410 117.5676
2834 9.5204 159(18) 169.3195 117.4878
2835 9.5234 128(16) 184.8971 117.4081
2836 9.5264 139(17) 198.9389 117.3284
2837 9.5294 147(17) 207.3728 117.2487
2838 9.5324 134(17) 207.9735 117.1690
2839 9.5354 128(16) 202.5107 117.0893
2840 9.5384 137(17) 195.7135 117.0096
2841 9.5414 138(17) 190.8754 116.9299
2842 9.5444 124(16) 187.2507 116.8502
2843 9.5474 142(17) 180.6852 116.7705
2844 9.5504 168(19) 170.0155 116.6908
2845 9.5534 147(17) 157.0580 116.6111
2846 9.5564 179(19) 145.6549 116.5313
2847 9.5594 160(18) 136.4068 116.4517
2848 9.5624 192(20) 130.2841 116.3719
2849 9.5654 150(18) 126.6812 116.2922
2850 9.5684 161(18) 124.7797 116.2125
2851 9.5714 163(18) 123.9098 116.1328
2852 9.5744 149(17) 124.1091 116.0531
2853 9.5774 176(19) 124.0854 115.9734
2854 9.5804 208(21) 124.2407 115.8937
2855 9.5834 220(21) 124.6877 115.8140
2856 9.5864 257(23) 125.4204 115.7343
2857 9.5894 283(24) 126.6479 115.6546
2858 9.5924 309(25) 128.6850 115.5749
2859 9.5954 239(22) 132.5939 115.4952
2860 9.5984 219(21) 138.0687 115.4155
2861 9.6014 190(20) 145.9474 115.3357
2862 9.6044 235(22) 156.0872 115.2561
2863 9.6074 248(23) 167.1507 115.1763
2864 9.6104 249(23) 177.5527 115.0966
2865 9.6134 283(24) 186.5602 115.0169
2866 9.6164 274(24) 197.5423 114.9372
2867 9.6194 290(24) 216.3366 114.8575
2868 9.6224 320(26) 248.2908 114.7778
2869 9.6254 369(28) 295.3492 114.6981
2870 9.6284 373(28) 356.2234 114.6184
2871 9.6314 442(30) 425.1313 114.5387
2872 9.6344 527(33) 491.9447 114.4590
2873 9.6374 633(36) 544.1275 114.3793
2874 9.6404 661(37) 572.2273 114.2996
2875 9.6434 754(39) 571.4785 114.2198
2876 9.6464 704(38) 542.3073 114.1401
2877 9.6494 632(36) 490.8595 114.0604
2878 9.6524 482(31) 431.4715 113.9807
2879 9.6554 405(29) 383.1606 113.9010
2880 9.6584 341(26) 357.2083 113.8213
2881 9.6614 285(24) 351.3205 113.7416
2882 9.6644 301(25) 352.9688 113.6619
2883 9.6674 234(22) 346.3214 113.5822
2884 9.6704 252(23) 325.9171 113.5025
2885 9.6734 227(22) 301.6549 113.4228
2886 9.6764 243(22) 286.5109 113.3431
2887 9.6794 253(23) 286.5910 113.2634
2888 9.6824 233(22) 299.2801 113.1837
2889 9.6854 307(25) 314.1294 113.1040
2890 9.6884 269(23) 317.8362 113.0242
2891 9.6914 343(27) 305.9191 112.9446
2892 9.6944 273(24) 283.9835 112.8648
2893 9.6974 305(25) 259.3513 112.7851
2894 9.7004 254(23) 236.1707 112.7054
2895 9.7034 241(22) 217.7887 112.6257
2896 9.7064 207(21) 204.4667 112.5460
2897 9.7094 170(19) 195.4980 112.4663
2898 9.7124 176(19) 189.0526 112.3866
2899 9.7154 149(17) 183.4704 112.3069
2900 9.7184 181(19) 179.2708 112.2272
2901 9.7214 192(20) 171.8744 112.1475
2902 9.7244 161(18) 164.6801 112.0678
2903 9.7274 177(19) 159.9613 111.9881
2904 9.7304 228(22) 159.4198 111.9083
2905 9.7334 200(20) 166.3027 111.8286
2906 9.7364 259(23) 175.3328 111.7489
2907 9.7394 254(23) 186.6196 111.6692
2908 9.7424 226(22) 197.3701 111.5895
2909 9.7454 195(20) 206.9579 111.5098
2910 9.7484 183(19) 214.2750 111.4301
2911 9.7514 187(20) 218.0780 111.3504
2912 9.7544 149(17) 218.2375 111.2707
2913 9.7574 141(17) 216.7057 111.1910
2914 9.7604 148(17) 215.5727 111.1113
2915 9.7634 174(19) 217.1642 111.0316
2916 9.7664 154(18) 222.7800 110.9519
2917 9.7694 172(19) 232.6571 110.8722
2918 9.7724 204(20) 246.7866 110.7925
2919 9.7754 195(20) 266.6551 110.7127
2920 9.7784 295(25) 289.0013 110.6330
2921 9.7814 217(21) 310.8625 110.5533
2922 9.7844 256(23) 335.6984 110.4736
2923 9.7874 271(23) 360.0530 110.3939
2924 9.7904 390(28) 380.5502 110.3142
2925 9.7934 325(26) 400.6050 110.2345
2926 9.7964 429(30) 433.8754 110.1548
2927 9.7994 444(30) 497.5206 110.0751
2928 9.8024 572(34) 599.5415 109.9954
2929 9.8054 742(39) 733.9020 109.9157
2930 9.8084 992(45) 877.2372 109.8360
2931 9.8114 1224(50) 992.0085 109.7563
2932 9.8144 1304(52) 1050.8844 109.6766
2933 9.8174 1248(51) 1066.8622 109.5968
2934 9.8204 1258(51) 1069.4061 109.5171
2935 9.8234 1384(53) 1058.7440 109.4374
2936 9.8264 1232(50) 1004.5223 109.3577
2937 9.8294 1072(47) 888.6058 109.2780
2938 9.8324 880(42) 736.1662 109.1983
2939 9.8354 805(40) 587.5771 109.1186
2940 9.8384 718(38) 469.2679 109.0389
2941 9.8414 726(38) 390.0146 108.9592
2942 9.8444 646(36) 347.5853 108.8795
2943 9.8474 708(38) 338.0006 108.7998
2944 9.8504 651(36) 364.0782 108.7201
2945 9.8534 663(37) 436.5451 108.6404
2946 9.8564 693(38) 569.2732 108.5607
2947 9.8594 734(39) 771.4183 108.4810
2948 9.8624 908(43) 1030.9712 108.4012
2949 9.8654 1178(49) 1301.3761 108.3215
2950 9.8684 1479(55) 1504.6388 108.2418
2951 9.8714 1672(58) 1571.4618 108.1621
2952 9.8744 1818(61) 1482.0228 108.0824
2953 9.8774 1477(55) 1274.7715 108.0027
2954 9.8804 1171(49) 1026.7153 107.9230
2955 9.8834 864(42) 802.9901 107.8433
2956 9.8864 621(36) 634.4474 107.7636
2957 9.8894 520(33) 523.0029 107.6839
2958 9.8924 540(33) 452.5015 107.6042
2959 9.8954 411(29) 405.9024 107.5245
2960 9.8984 383(28) 373.8318 107.4448
2961 9.9014 297(25) 351.5789 107.3651
2962 9.9044 331(26) 334.8026 107.2853
2963 9.9074 315(25) 320.9838 107.2056
2964 9.9104 372(28) 316.6016 107.1259
2965 9.9134 356(27) 319.2476 107.0462
2966 9.9164 368(27) 324.3795 106.9665
2967 9.9194 443(30) 326.7954 106.8868
2968 9.9224 469(31) 318.8830 106.8071
2969 9.9254 515(32) 301.0945 106.7274
2970 9.9284 423(29) 277.0226 106.6477
2971 9.9314 370(27) 256.8566 106.5680
2972 9.9344 320(26) 249.0757 106.4883
2973 9.9374 284(24) 257.0492 106.4086
2974 9.9404 288(24) 278.1597 106.3289
2975 9.9434 326(26) 305.9422 106.2491
2976 9.9464 315(25) 330.5635 106.1695
2977 9.9494 382(28) 340.4724 106.0897
2978 9.9524 331(26) 329.2256 106.0100
2979 9.9554 305(25) 301.0050 105.9303
2980 9.9584 290(24) 265.1310 105.8506
2981 9.9614 230(22) 229.7438 105.7709
2982 9.9644 202(20) 198.2986 105.6912
2983 9.9674 171(19) 177.4678 105.6115
2984 9.9704 148(17) 162.1707 105.5318
2985 9.9734 181(19) 154.8360 105.4521
2986 9.9764 182(19) 150.2487 105.3724
2987 9.9794 165(18) 147.5698 105.2927
2988 9.9824 125(16) 146.7482 105.2130
2989 9.9854 138(17) 148.0872 105.1333
2990 9.9884 138(17) 151.5184 105.0535
2991 9.9914 110(15) 157.5318 104.9738
2992 9.9944 142(18) 165.8904 104.8941
2993 9.9974 150(18) 176.4112 104.8144
2994 10.0004 113(15) 187.8093 104.7347
2995 10.0034 127(16) 198.7769 104.6550
2996 10.0064 149(17) 206.5610 104.5753
2997 10.0094 116(15) 208.9938 104.4956
2998 10.0124 128(16) 205.4148 104.5008
2999 10.0154 150(18) 198.4105 104.7851
3000 10.0184 142(17) 190.4138 105.0694
3001 10.0214 140(17) 183.1934 105.3537
3002 10.0244 145(17) 178.1352 105.6379
3003 10.0274 131(16) 175.2345 105.9222
3004 10.0304 98(14) 173.6931 106.2065
3005 10.0334 133(17) 171.7590 106.4907
3006 10.0364 113(15) 168.5048 106.7750
3007 10.0394 137(17) 165.8570 107.0593
3008 10.0424 147(17) 166.1591 107.3436
3009 10.0454 131(16) 170.3419 107.6278
3010 10.0484 139(17) 176.7415 107.9121
3011 10.0514 135(17) 183.1184 108.1964
3012 10.0544 130(16) 186.1779 108.4807
3013 10.0574 142(17) 184.1121 108.7649
3014 10.0604 141(17) 177.1720 109.0491
3015 10.0634 153(18) 166.9028 109.3334
3016 10.0664 162(18) 157.2820 109.6176
3017 10.0694 171(19) 151.1634 109.9019
3018 10.0724 184(19) 149.0662 110.1862
3019 10.0754 148(17) 149.7788 110.4705
3020 10.0784 194(20) 150.7211 110.7547
3021 10.0814 172(19) 149.0854 111.0390
3022 10.0844 157(18) 144.2144 111.3233
3023 10.0874 142(17) 137.5901 111.6076
3024 10.0904 172(19) 131.1378 111.8918
3025 10.0934 158(18) 125.9583 112.1761
3026 10.0964 139(17) 122.4350 112.4604
3027 10.0994 143(17) 120.3927 112.7446
3028 10.1024 138(17) 119.5187 113.0289
3029 10.1054 180(19) 119.3961 113.3132
3030 10.1084 128(16) 119.4686 113.5975
3031 10.1114 143(17) 119.8224 113.8817
3032 10.1144 139(17) 120.4046 114.1659
3033 10.1174 105(15) 121.0971 114.4502
3034 10.1204 126(16) 121.9850 114.7345
3035 10.1234 154(18) 123.2609 115.0187
3036 10.1264 146(17) 124.9130 115.3030
3037 10.1294 171(19) 127.1494 115.5873
3038 10.1324 175(19) 130.3379 115.8715
3039 10.1354 162(18) 135.3800 116.1558
3040 10.1384 184(19) 143.5222 116.4401
3041 10.1414 170(19) 156.9255 116.7244
3042 10.1444 204(20) 178.0964 117.0086
3043 10.1474 185(19) 208.9383 117.2929
3044 10.1504 249(23) 249.1915 117.5772
3045 10.1534 245(22) 294.8195 117.8615
3046 10.1564 253(23) 337.1616 118.1457
3047 10.1594 340(26) 366.3439 118.4300
3048 10.1624 403(29) 376.7805 118.7143
3049 10.1654 415(29) 366.8866 118.9985
3050 10.1684 418(29) 339.0119 119.2828
3051 10.1714 388(28) 300.1243 119.5670
3052 10.1744 341(26) 259.1230 119.8513
3053 10.1774 260(23) 223.0110 120.1355
3054 10.1804 210(21) 195.9409 120.4198
3055 10.1834 164(18) 180.0308 120.7041
3056 10.1864 168(19) 175.5578 120.9884
3057 10.1894 206(21) 181.8419 121.2726
3058 10.1924 143(17) 197.1727 121.5569
3059 10.1954 202(20) 218.5294 121.8412
3060 10.1984 242(22) 240.8267 122.1254
3061 10.2014 202(20) 257.4506 122.4097
3062 10.2044 230(22) 262.7513 122.6940
3063 10.2074 194(20) 256.1802 122.9783
3064 10.2104 200(20) 242.5281 123.2625
3065 10.2134 207(21) 227.7659 123.5468
3066 10.2164 194(20) 215.9049 123.8311
3067 10.2194 138(17) 208.3603 124.1154
3068 10.2224 146(17) 204.8590 124.3996
3069 10.2254 144(17) 204.7071 124.6839
3070 10.2284 177(19) 206.1465 124.9681
3071 10.2314 210(21) 208.3749 125.2523
3072 10.2344 241(22) 210.3266 125.5366
3073 10.2374 277(24) 211.8289 125.8209
3074 10.2404 265(23) 212.1309 126.1052
3075 10.2434 255(23) 210.1485 126.3894
3076 10.2464 282(24) 206.2592 126.6737
3077 10.2494 182(19) 200.3385 126.9580
3078 10.2524 228(22) 194.4102 127.2423
3079 10.2554 156(18) 189.2838 127.5265
3080 10.2584 174(19) 186.9412 127.6411
3081 10.2614 167(18) 186.6041 127.6708
3082 10.2644 125(16) 187.9924 127.7005
3083 10.2674 137(17) 189.0419 127.7302
3084 10.2704 154(18) 189.8961 127.7599
3085 10.2734 176(19) 190.4263 127.7896
3086 10.2764 169(18) 190.2438 127.8193
3087 10.2794 143(17) 190.2791 127.8490
3088 10.2824 162(18) 191.1355 127.8787
3089 10.2854 163(18) 193.2944 127.9084
3090 10.2884 157(18) 196.7693 127.9381
3091 10.2914 168(19) 201.0909 127.9678
3092 10.2944 151(18) 205.8713 127.9975
3093 10.2974 168(19) 210.7198 128.0272
3094 10.3004 173(19) 215.1211 128.0569
3095 10.3034 140(17) 220.1991 128.0866
3096 10.3064 186(19) 227.4539 128.1163
3097 10.3094 172(19) 239.6910 128.1460
3098 10.3124 240(22) 258.4158 128.1757
3099 10.3154 317(25) 282.4464 128.2054
3100 10.3184 368(27) 307.6322 128.2352
3101 10.3214 344(27) 327.6083 128.2648
3102 10.3244 358(27) 337.6236 128.2946
3103 10.3274 380(28) 339.0022 128.3242
3104 10.3304 360(27) 339.5305 128.3540
3105 10.3334 349(27) 347.9366 128.3837
3106 10.3364 403(29) 369.8926 128.4134
3107 10.3394 425(29) 405.9332 128.4431
3108 10.3424 465(31) 448.2996 128.4728
3109 10.3454 488(32) 482.2988 128.5025
3110 10.3484 695(37) 495.7262 128.5322
3111 10.3514 635(36) 487.3543 128.5619
3112 10.3544 634(36) 464.3936 128.5916
3113 10.3574 647(36) 437.7107 128.6213
3114 10.3604 595(35) 416.6403 128.6510
3115 10.3634 524(33) 407.3981 128.6807
3116 10.3664 451(30) 408.5885 128.7104
3117 10.3694 488(32) 412.1820 128.7401
3118 10.3724 415(29) 408.2726 128.7698
3119 10.3754 411(29) 391.5063 128.7995
3120 10.3784 351(27) 366.5469 128.8292
3121 10.3814 331(26) 344.8854 128.8589
3122 10.3844 384(28) 337.2773 128.8886
3123 10.3874 416(29) 348.8034 128.9183
3124 10.3904 412(29) 377.1133 128.9480
3125 10.3934 529(33) 412.3779 128.9777
3126 10.3964 583(34) 440.7879 129.0074
3127 10.3994 562(34) 451.9359 129.0371
3128 10.4024 556(34) 444.5453 129.0668
3129 10.4054 515(32) 424.9418 129.0965
3130 10.4084 472(31) 402.9932 129.1262
3131 10.4114 376(28) 387.4568 129.1559
3132 10.4144 382(28) 382.6454 129.1856
3133 10.4174 369(28) 387.5265 129.2153
3134 10.4204 414(29) 397.5582 129.2450
3135 10.4234 506(32) 404.6342 129.2747
3136 10.4264 486(31) 402.5202 129.3044
3137 10.4294 515(32) 392.1620 129.3341
3138 10.4324 428(29) 380.3385 129.3638
3139 10.4354 464(31) 374.2504 129.3935
3140 10.4384 433(30) 374.8635 129.4232
3141 10.4414 441(30) 377.1485 129.4529
3142 10.4444 414(29) 376.1418 129.4826
3143 10.4474 404(29) 370.2370 129.5123
3144 10.4504 360(27) 359.7115 129.5421
3145 10.4534 372(28) 341.8166 129.5717
3146 10.4564 384(28) 316.5745 129.6015
3147 10.4594 351(27) 286.6172 129.6312
3148 10.4624 275(24) 257.6232 129.6609
3149 10.4654 234(22) 233.7651 129.6906
3150 10.4684 229(22) 216.8107 129.7203
3151 10.4714 181(19) 205.5340 129.7500
3152 10.4744 175(19) 198.1981 129.7797
3153 10.4774 192(20) 192.5885 129.8094
3154 10.4804 177(19) 188.8325 129.8391
3155 10.4834 165(18) 186.1340 129.8688
3156 10.4864 156(18) 184.4352 129.8985
3157 10.4894 206(21) 183.7493 129.9282
3158 10.4924 223(21) 185.7826 129.9579
3159 10.4954 213(21) 192.2919 129.9876
3160 10.4984 240(22) 203.5484 130.0173
3161 10.5014 264(23) 218.2612 130.0470
3162 10.5044 280(24) 232.5902 130.0767
3163 10.5074 248(23) 240.7751 130.1064
3164 10.5104 275(24) 239.6726 130.1361
3165 10.5134 246(22) 230.7876 130.1658
3166 10.5164 246(22) 219.6134 130.1955
3167 10.5194 175(19) 211.7199 130.2252
3168 10.5224 186(20) 209.6786 130.2549
3169 10.5254 132(17) 213.1699 130.2846
3170 10.5284 145(17) 220.9344 130.3143
3171 10.5314 165(18) 230.2316 130.3440
3172 10.5344 141(17) 239.5623 130.4732
3173 10.5374 179(19) 247.0463 130.6601
3174 10.5404 142(17) 249.4750 130.8469
3175 10.5434 198(20) 245.4734 131.0338
3176 10.5464 149(17) 236.9899 131.2207
3177 10.5494 149(18) 226.9037 131.4076
3178 10.5524 132(16) 218.7991 131.5944
3179 10.5554 138(17) 214.4022 131.7813
3180 10.5584 137(17) 214.2845 131.9682
3181 10.5614 149(18) 217.3106 132.1551
3182 10.5644 165(18) 221.8683 132.3419
3183 10.5674 150(18) 226.1322 132.5288
3184 10.5704 199(20) 228.5690 132.7156
3185 10.5734 272(24) 228.4820 132.9025
3186 10.5764 190(20) 226.3478 133.0893
3187 10.5794 242(22) 223.3666 133.2762
3188 10.5824 192(20) 220.2564 133.4631
3189 10.5854 164(18) 216.7213 133.6499
3190 10.5884 228(22) 210.3751 133.8368
3191 10.5914 187(20) 200.2318 134.0237
3192 10.5944 213(21) 187.9154 134.2106
3193 10.5974 214(21) 175.7926 134.3974
3194 10.6004 272(23) 165.6516 134.5843
3195 10.6034 264(23) 158.5420 134.7712
3196 10.6064 270(24) 154.3462 134.9580
3197 10.6094 225(22) 153.0195 135.1449
3198 10.6124 241(22) 154.2282 135.3318
3199 10.6154 226(22) 159.1333 135.5186
3200 10.6184 211(21) 168.4283 135.7055
3201 10.6214 236(22) 183.9082 135.8923
3202 10.6244 222(21) 206.7641 136.0792
3203 10.6274 292(24) 236.9598 136.2661
3204 10.6304 332(26) 271.5414 136.4529
3205 10.6334 392(28) 304.5583 136.6398
3206 10.6364 407(29) 327.6905 136.8267
3207 10.6394 444(30) 333.5563 137.0135
3208 10.6424 573(34) 319.5490 137.2004
3209 10.6454 360(27) 291.2972 137.3873
3210 10.6484 325(26) 258.0374 137.5742
3211 10.6514 273(24) 226.9845 137.7610
3212 10.6544 237(22) 202.0586 137.9479
3213 10.6574 230(22) 184.7101 138.1347
3214 10.6604 205(20) 174.4094 138.3216
3215 10.6634 180(19) 170.2914 138.5085
3216 10.6664 262(23) 171.5762 138.6953
3217 10.6694 172(19) 178.4494 138.8822
3218 10.6724 248(22) 192.0329 139.0690
3219 10.6754 293(24) 213.5017 139.2559
3220 10.6784 353(27) 243.6575 139.4428
3221 10.6814 316(25) 281.3923 139.6297
3222 10.6844 343(26) 323.4396 139.8165
3223 10.6874 340(26) 364.4349 140.0034
3224 10.6904 444(30) 399.3152 140.1903
3225 10.6934 358(27) 425.8501 140.3772
3226 10.6964 477(31) 443.8078 140.5640
3227 10.6994 391(28) 452.3605 140.7509
3228 10.7024 432(30) 451.5681 140.9377
3229 10.7054 438(30) 442.8441 141.1246
3230 10.7084 362(27) 428.4013 141.3114
3231 10.7114 277(24) 410.8741 141.4983
3232 10.7144 294(25) 392.6078 141.6852
3233 10.7174 338(26) 374.9606 141.8720
3234 10.7204 269(23) 358.1755 142.0589
3235 10.7234 312(25) 341.9837 142.2458
3236 10.7264 310(25) 328.1866 142.4327
3237 10.7294 282(24) 315.9619 142.6195
3238 10.7324 273(23) 306.8004 142.8064
3239 10.7354 252(23) 301.9696 142.9933
3240 10.7384 245(22) 301.8774 143.1801
3241 10.7414 220(21) 305.1492 143.3670
3242 10.7444 245(22) 310.2692 143.5538
3243 10.7474 314(25) 316.1313 143.7407
3244 10.7504 265(23) 319.4795 143.9276
3245 10.7534 282(24) 318.2778 144.1144
3246 10.7564 237(22) 312.6003 144.3013
3247 10.7594 232(22) 303.3032 144.4882
3248 10.7624 204(20) 292.7841 144.6750
3249 10.7654 199(20) 282.2262 144.8619
3250 10.7684 207(21) 272.0341 145.0488
3251 10.7714 210(21) 261.7878 145.2357
3252 10.7744 172(19) 253.8860 145.4225
3253 10.7774 184(19) 250.2366 145.6378
3254 10.7804 185(19) 252.9488 146.2502
3255 10.7834 200(20) 261.5279 146.8625
3256 10.7864 172(19) 274.4578 147.4749
3257 10.7894 189(20) 288.8824 148.0873
3258 10.7924 197(20) 300.8862 148.6998
3259 10.7954 181(19) 307.7245 149.3120
3260 10.7984 212(21) 308.1949 149.9245
3261 10.8014 282(24) 304.8322 150.5369
3262 10.8044 340(26) 302.4174 151.1493
3263 10.8074 372(28) 308.6034 151.7616
3264 10.8104 455(30) 330.5112 152.3740
3265 10.8134 478(31) 374.5061 152.9865
3266 10.8164 546(33) 444.5719 153.5987
3267 10.8194 612(35) 539.3530 154.2111
3268 10.8224 725(38) 651.1503 154.8236
3269 10.8254 816(41) 765.4084 155.4360
3270 10.8284 922(43) 864.0445 156.0483
3271 10.8314 1021(46) 931.5287 156.6607
3272 10.8344 1112(48) 962.4877 157.2731
3273 10.8374 1114(48) 961.6815 157.8856
3274 10.8404 1139(48) 934.0989 158.4978
3275 10.8434 1141(48) 879.6218 159.1103
3276 10.8464 1123(48) 801.2298 159.7227
3277 10.8494 1072(47) 711.9195 160.3349
3278 10.8524 861(42) 628.8970 160.9474
3279 10.8554 850(42) 563.6606 161.5598
3280 10.8584 708(38) 518.6598 162.1723
3281 10.8614 558(34) 489.3245 162.7845
3282 10.8644 470(31) 471.1775 163.3969
3283 10.8674 469(31) 461.8190 164.0094
3284 10.8704 477(31) 457.4110 164.6218
3285 10.8734 485(31) 450.1822 165.2341
3286 10.8764 499(32) 432.7600 165.8465
3287 10.8794 475(31) 402.3989 166.4590
3288 10.8824 416(29) 361.7932 167.0712
3289 10.8854 348(27) 318.0508 167.6836
3290 10.8884 330(26) 278.3260 168.2961
3291 10.8914 243(22) 246.4653 168.9085
3292 10.8944 234(22) 223.6795 169.5208
3293 10.8974 216(21) 208.7946 170.1332
3294 10.9004 212(21) 199.7320 170.7456
3295 10.9034 187(20) 194.8159 171.3581
3296 10.9064 214(21) 192.3114 171.9703
3297 10.9094 289(24) 191.5208 172.5828
3298 10.9124 322(26) 192.1004 173.1952
3299 10.9154 355(27) 194.0048 173.8074
3300 10.9184 318(25) 197.4584 174.4199
3301 10.9214 384(28) 202.5829 175.0323
3302 10.9244 323(26) 209.0838 175.6448
3303 10.9274 278(24) 216.4400 176.2570
3304 10.9304 250(23) 223.7533 176.8694
3305 10.9334 226(21) 229.7946 177.4819
3306 10.9364 248(19) 233.5966 178.0943
3307 10.9394 244(22) 234.9325 178.7066
3308 10.9424 273(24) 233.8317 179.3190
3309 10.9454 304(25) 230.5703 179.9314
3310 10.9484 278(24) 225.7796 180.5437
3311 10.9514 310(25) 220.3904 181.1561
3312 10.9544 252(23) 216.1464 181.7686
3313 10.9574 247(23) 213.6502 182.3810
3314 10.9604 254(23) 212.7398 182.9933
3315 10.9634 212(21) 213.4421 183.6057
3316 10.9664 255(23) 215.3394 184.2181
3317 10.9694 201(20) 218.2283 184.8306
3318 10.9724 220(21) 222.2377 185.4428
3319 10.9754 193(20) 227.2048 186.0553
3320 10.9784 250(23) 233.6032 186.6677
3321 10.9814 212(21) 241.4198 187.2799
3322 10.9844 270(23) 250.8744 187.8924
3323 10.9874 286(24) 260.4018 188.5048
3324 10.9904 270(24) 269.6718 189.1172
3325 10.9934 244(22) 277.4242 189.7295
3326 10.9964 194(20) 282.3344 190.3419
3327 10.9994 218(21) 285.9389 190.9544
3328 11.0024 222(21) 283.6208 191.5668
3329 11.0054 172(19) 280.2332 191.4621
3330 11.0084 188(20) 275.3163 191.1391
3331 11.0114 173(19) 271.6636 190.8161
3332 11.0144 194(20) 268.9529 190.4931
3333 11.0174 181(19) 265.7542 190.1701
3334 11.0204 175(19) 264.2883 189.8471
3335 11.0234 234(22) 266.9931 189.5241
3336 11.0264 209(21) 268.0357 189.2011
3337 11.0294 227(22) 269.8373 188.8781
3338 11.0324 221(21) 273.0717 188.5551
3339 11.0354 242(22) 278.4259 188.2320
3340 11.0384 215(21) 285.6864 187.9091
3341 11.0414 197(20) 295.3959 187.5861
3342 11.0444 218(21) 302.2883 187.2631
3343 11.0474 209(21) 308.0155 186.9401
3344 11.0504 232(22) 307.5872 186.6171
3345 11.0534 227(22) 303.6010 186.2941
3346 11.0564 221(21) 297.4808 185.9710
3347 11.0594 252(23) 292.9142 185.6481
3348 11.0624 235(22) 288.1981 185.3251
3349 11.0654 255(23) 287.5680 185.0020
3350 11.0684 277(24) 292.3401 184.6790
3351 11.0714 315(25) 296.8285 184.3561
3352 11.0744 356(27) 305.2452 184.0331
3353 11.0774 422(29) 319.3614 183.7100
3354 11.0804 404(29) 342.8444 183.3870
3355 11.0834 520(33) 382.6180 183.0641
3356 11.0864 602(35) 450.5511 182.7410
3357 11.0894 714(38) 564.4346 182.4180
3358 11.0924 801(40) 746.4908 182.0951
3359 11.0954 988(45) 1019.0033 181.7721
3360 11.0984 1573(57) 1396.1696 181.4490
3361 11.1014 2243(68) 1872.9377 181.1260
3362 11.1044 3022(78) 2414.7305 180.8031
3363 11.1074 3678(87) 2956.8660 180.4800
3364 11.1104 4322(94) 3424.3782 180.1570
3365 11.1134 4726(99) 3759.4646 179.8340
3366 11.1164 5242(104) 3926.8328 179.5110
3367 11.1194 5064(102) 3907.9409 179.1880
3368 11.1224 4857(100) 3706.4824 178.8650
3369 11.1254 3986(91) 3369.2646 178.5421
3370 11.1284 3633(86) 2968.0295 178.2190
3371 11.1314 3266(82) 2557.6895 177.8960
3372 11.1344 2899(77) 2182.3889 177.5730
3373 11.1374 2457(71) 1892.5111 177.2500
3374 11.1404 2087(65) 1723.8066 176.9270
3375 11.1434 1942(63) 1678.8402 176.6040
3376 11.1464 2021(64) 1727.7230 176.2810
3377 11.1494 2163(67) 1820.8864 175.9580
3378 11.1524 2320(69) 1915.0342 175.6350
3379 11.1554 2547(72) 1993.9402 175.3120
3380 11.1584 2585(73) 2071.3792 174.9890
3381 11.1614 2653(74) 2179.0601 174.6660
3382 11.1644 2395(70) 2333.9441 174.3430
3383 11.1674 2691(74) 2511.9231 174.0199
3384 11.1704 2816(76) 2652.8262 173.6970
3385 11.1734 3168(81) 2684.8845 173.3740
3386 11.1764 3010(78) 2549.1785 173.0510
3387 11.1794 2574(73) 2246.3003 172.7279
3388 11.1824 2123(66) 1847.8047 172.4050
3389 11.1854 1656(58) 1441.0425 172.0820
3390 11.1884 1114(48) 1087.9261 171.7589
3391 11.1914 836(41) 816.4120 171.4360
3392 11.1944 586(35) 628.2806 171.1130
3393 11.1974 529(33) 508.5776 170.7899
3394 11.2004 520(33) 437.1186 170.4669
3395 11.2034 562(34) 395.9498 170.1440
3396 11.2064 702(38) 372.4286 169.8210
3397 11.2094 753(39) 359.5921 169.4979
3398 11.2124 790(40) 354.9317 169.1749
3399 11.2154 783(40) 357.6043 168.8520
3400 11.2184 728(39) 364.1431 168.5289
3401 11.2214 575(34) 374.0801 168.2059
3402 11.2244 522(33) 383.2720 167.8830
3403 11.2274 429(30) 389.3547 167.5600
3404 11.2304 333(26) 383.2758 167.2369
3405 11.2334 271(24) 374.8716 166.9139
3406 11.2364 248(22) 361.0493 166.5910
3407 11.2394 242(22) 344.0386 166.2679
3408 11.2424 275(24) 323.8880 165.9449
3409 11.2454 204(20) 307.5562 165.6219
3410 11.2484 203(20) 294.1752 165.2990
3411 11.2514 234(22) 284.9283 164.9759
3412 11.2544 184(19) 280.1411 164.6529
3413 11.2574 208(21) 279.3075 164.3300
3414 11.2604 243(22) 280.0670 164.0069
3415 11.2634 285(24) 285.3242 163.6839
3416 11.2664 275(24) 291.7040 163.3609
3417 11.2694 302(25) 303.4422 163.0379
3418 11.2724 365(27) 318.5790 162.7149
3419 11.2754 350(27) 336.8467 162.3919
3420 11.2784 380(28) 355.9642 162.0689
3421 11.2814 435(30) 379.1495 161.7459
3422 11.2844 449(30) 403.4480 161.4229
3423 11.2874 507(32) 427.6728 161.0999
3424 11.2904 461(31) 454.5663 160.7769
3425 11.2934 487(32) 475.3376 160.4539
3426 11.2964 450(30) 485.3836 160.1309
3427 11.2994 455(30) 482.4734 159.8079
3428 11.3024 414(29) 466.1263 159.4849
3429 11.3054 376(28) 437.6513 159.1619
3430 11.3084 343(26) 401.3049 158.8389
3431 11.3114 304(25) 363.6788 158.5158
3432 11.3144 302(25) 330.7225 158.1929
3433 11.3174 282(24) 305.4785 157.8699
3434 11.3204 270(23) 288.1600 157.5468
3435 11.3234 297(25) 277.0403 157.2239
3436 11.3264 281(24) 270.4662 156.9009
3437 11.3294 285(24) 268.2939 156.5779
3438 11.3324 277(24) 271.0248 156.2548
3439 11.3354 287(24) 278.4856 155.9319
3440 11.3384 330(26) 289.8184 155.6089
3441 11.3414 308(25) 302.5722 155.2858
3442 11.3444 372(28) 313.2443 154.9628
3443 11.3474 457(31) 317.6570 154.6399
3444 11.3504 405(29) 313.9957 154.3169
3445 11.3534 419(29) 304.5881 153.9938
3446 11.3564 403(29) 293.6254 153.6709
3447 11.3594 348(27) 284.8121 153.3479
3448 11.3624 317(25) 279.8170 153.0248
3449 11.3654 309(25) 278.7939 152.7018
3450 11.3684 335(26) 280.8971 152.3789
3451 11.3714 330(26) 284.5995 152.0558
3452 11.3744 291(24) 287.4438 151.7328
3453 11.3774 290(24) 287.1971 151.4098
3454 11.3804 299(25) 282.8874 151.0869
3455 11.3834 281(24) 275.8469 150.7638
3456 11.3864 272(24) 268.6824 150.4408
3457 11.3894 269(24) 263.4227 150.1179
3458 11.3924 286(24) 261.3565 149.7948
3459 11.3954 273(24) 262.3016 149.4718
3460 11.3984 281(24) 265.5692 149.1488
3461 11.4014 258(23) 269.7802 148.8259
3462 11.4044 236(22) 273.8024 148.5028
3463 11.4074 206(21) 277.9548 148.1798
3464 11.4104 200(20) 281.6113 147.8568
3465 11.4134 275(24) 284.2067 147.5338
3466 11.4164 205(20) 284.8959 147.2108
3467 11.4194 224(21) 283.6398 146.8878
3468 11.4224 233(22) 280.1408 146.5648
3469 11.4254 181(19) 274.6499 146.2418
3470 11.4284 213(21) 268.1547 145.9188
3471 11.4314 172(19) 261.3330 145.5958
3472 11.4344 163(18) 254.4181 145.2728
3473 11.4374 167(19) 247.8378 144.9498
3474 11.4404 117(15) 242.0152 144.6268
3475 11.4434 142(17) 237.7200 144.3037
3476 11.4464 130(16) 235.3741 143.9808
3477 11.4494 176(19) 234.8172 143.6578
3478 11.4524 140(17) 235.6197 143.3347
3479 11.4554 181(19) 237.1265 143.0117
3480 11.4584 177(19) 238.7248 142.6888
3481 11.4614 167(19) 241.0475 142.3658
3482 11.4644 147(17) 243.3503 142.0427
3483 11.4674 190(20) 244.8665 141.7198
3484 11.4704 161(18) 243.6837 141.3968
3485 11.4734 145(17) 239.2764 141.0737
3486 11.4764 148(17) 231.5941 140.7507
3487 11.4794 158(18) 222.2828 140.4278
3488 11.4824 151(18) 211.0193 140.3522
3489 11.4854 146(17) 200.7836 140.3385
3490 11.4884 151(17) 192.8013 140.3248
3491 11.4914 176(19) 188.1694 140.3110
3492 11.4944 162(18) 186.3934 140.2973
3493 11.4974 182(19) 186.1194 140.2836
3494 11.5004 162(18) 185.6177 140.2698
3495 11.5034 167(19) 183.3609 140.2561
3496 11.5064 158(18) 179.0908 140.2424
3497 11.5094 189(20) 173.6076 140.2286
3498 11.5124 185(19) 168.0293 140.2149
3499 11.5154 173(19) 163.5204 140.2012
3500 11.5184 167(18) 160.5937 140.1874
3501 11.5214 193(20) 159.3958 140.1737
3502 11.5244 183(19) 159.7406 140.1600
3503 11.5274 158(18) 161.4533 140.1463
3504 11.5304 182(19) 164.3498 140.1325
3505 11.5334 202(20) 167.8743 140.1188
3506 11.5364 212(21) 172.5230 140.1051
3507 11.5394 201(20) 179.0302 140.0913
3508 11.5424 220(21) 188.4075 140.0776
3509 11.5454 259(23) 201.2587 140.0639
3510 11.5484 281(24) 217.1384 140.0501
3511 11.5514 326(26) 234.4787 140.0364
3512 11.5544 340(26) 250.2724 140.0227
3513 11.5574 379(28) 261.7592 140.0089
3514 11.5604 394(28) 268.2650 139.9952
3515 11.5634 473(31) 273.2519 139.9815
3516 11.5664 401(29) 282.8544 139.9677
3517 11.5694 461(31) 302.8188 139.9540
3518 11.5724 438(30) 337.7728 139.9403
3519 11.5754 488(32) 388.9787 139.9265
3520 11.5784 507(32) 454.7036 139.9128
3521 11.5814 594(35) 528.9915 139.8991
3522 11.5844 718(38) 603.4990 139.8854
3523 11.5874 754(39) 667.5073 139.8716
3524 11.5904 795(40) 707.5352 139.8579
3525 11.5934 916(43) 713.1785 139.8442
3526 11.5964 901(43) 685.9548 139.8304
3527 11.5994 941(44) 638.3420 139.8167
3528 11.6024 867(42) 584.8023 139.8030
3529 11.6054 712(38) 534.8746 139.7892
3530 11.6084 648(36) 493.0938 139.7755
3531 11.6114 593(35) 459.4496 139.7618
3532 11.6144 493(32) 432.8148 139.7480
3533 11.6174 432(30) 410.1395 139.7343
3534 11.6204 384(28) 389.1303 139.7206
3535 11.6234 328(26) 368.4071 139.7068
3536 11.6264 291(24) 350.0293 139.6931
3537 11.6294 264(23) 334.9354 139.6794
3538 11.6324 243(22) 325.6897 139.6657
3539 11.6354 234(22) 321.9327 139.6519
3540 11.6384 262(23) 321.5527 139.6382
3541 11.6414 343(27) 319.9717 139.6245
3542 11.6444 358(27) 313.6370 139.6107
3543 11.6474 403(29) 302.9518 139.5970
3544 11.6504 354(27) 289.6038 139.5833
3545 11.6534 339(26) 276.3412 139.5695
3546 11.6564 372(28) 267.9945 139.5558
3547 11.6594 327(26) 266.1586 139.5421
3548 11.6624 355(27) 269.7707 139.5283
3549 11.6654 362(27) 278.7830 139.5146
3550 11.6684 302(25) 289.2957 139.5009
3551 11.6714 332(26) 299.3079 139.4872
3552 11.6744 351(27) 308.0369 139.4734
3553 11.6774 314(25) 315.6696 139.4597
3554 11.6804 369(27) 322.0226 139.4460
3555 11.6834 377(28) 326.8464 139.4322
3556 11.6864 338(26) 329.0317 139.4185
3557 11.6894 319(26) 327.8656 139.4048
3558 11.6924 323(26) 325.0826 139.3910
3559 11.6954 310(25) 320.9365 139.3773
3560 11.6984 296(25) 320.6025 139.3636
3561 11.7014 342(27) 326.9250 139.3498
3562 11.7044 396(28) 343.9738 139.3361
3563 11.7074 429(30) 374.4838 139.3224
3564 11.7104 533(33) 423.2592 139.3086
3565 11.7134 519(33) 491.4060 139.2949
3566 11.7164 682(37) 580.4867 139.2812
3567 11.7194 846(42) 688.3468 139.2675
3568 11.7224 993(45) 809.0214 139.2537
3569 11.7254 1087(47) 932.3233 139.2400
3570 11.7284 1355(52) 1046.7703 139.2263
3571 11.7314 1359(53) 1138.9702 139.2125
3572 11.7344 1506(56) 1203.1978 139.1988
3573 11.7374 1530(56) 1244.9104 139.1851
3574 11.7404 1569(56) 1278.1995 139.1713
3575 11.7434 1575(57) 1316.9025 139.1576
3576 11.7464 1641(58) 1369.4340 139.1439
3577 11.7494 1895(62) 1435.3839 139.1301
3578 11.7524 2002(64) 1510.2191 139.1164
3579 11.7554 2090(65) 1588.5696 139.1027
3580 11.7584 2110(66) 1663.3610 139.0889
3581 11.7614 2154(67) 1724.7742 139.0752
3582 11.7644 2199(67) 1760.8264 139.0615
3583 11.7674 2113(66) 1764.9939 139.0477
3584 11.7704 2015(64) 1739.4930 139.0340
3585 11.7734 2083(65) 1688.9509 139.0203
3586 11.7764 2048(65) 1614.5892 139.0066
3587 11.7794 1928(63) 1516.2012 138.9928
3588 11.7824 1823(61) 1399.3431 138.9791
3589 11.7854 1717(59) 1281.7596 138.9654
3590 11.7884 1544(56) 1190.9778 138.9516
3591 11.7914 1414(54) 1153.9559 138.9379
3592 11.7944 1298(52) 1185.8105 138.9242
3593 11.7974 1548(56) 1283.0078 138.9104
3594 11.8004 1559(56) 1422.7554 138.8967
3595 11.8034 1761(60) 1566.1781 138.8830
3596 11.8064 1758(60) 1667.0367 138.8692
3597 11.8094 1896(62) 1684.8782 138.8555
3598 11.8124 1739(60) 1604.5959 138.8418
3599 11.8154 1658(58) 1442.8424 138.8280
3600 11.8184 1471(55) 1238.2795 138.8143
3601 11.8214 1276(51) 1034.9512 138.8006
3602 11.8244 1187(49) 868.0048 138.7868
3603 11.8274 918(43) 757.0803 138.7731
3604 11.8304 775(40) 705.2141 138.7594
3605 11.8334 722(38) 701.2771 138.7457
3606 11.8364 725(38) 725.6685 138.7319
3607 11.8394 761(39) 756.5548 138.7182
3608 11.8424 842(42) 775.9287 138.7045
3609 11.8454 818(41) 769.7570 138.6907
3610 11.8484 781(40) 733.8259 138.6770
3611 11.8514 762(39) 673.7928 138.6633
3612 11.8544 678(37) 599.4277 138.6496
3613 11.8574 616(35) 518.2370 138.6358
3614 11.8604 523(33) 439.7527 138.6221
3615 11.8634 413(29) 370.3926 138.6084
3616 11.8664 355(27) 314.5869 138.5946
3617 11.8694 313(25) 273.0854 138.5809
3618 11.8724 258(23) 245.4519 138.5672
3619 11.8754 217(21) 229.5808 138.5534
3620 11.8784 239(22) 222.5548 138.5397
3621 11.8814 213(21) 221.3157 138.5260
3622 11.8844 193(20) 225.2047 138.5122
3623 11.8874 203(20) 230.6238 138.4985
3624 11.8904 190(20) 235.3583 138.4848
3625 11.8934 179(19) 238.8564 138.4710
3626 11.8964 194(20) 239.1292 138.4573
3627 11.8994 178(19) 237.3984 138.4436
3628 11.9024 209(21) 235.1046 138.4298
3629 11.9054 181(19) 231.8000 138.4161
3630 11.9084 236(22) 228.1785 138.4024
3631 11.9114 230(22) 224.1594 138.3887
3632 11.9144 171(19) 219.6571 138.3749
3633 11.9174 203(20) 215.2558 138.3612
3634 11.9204 172(19) 211.3213 138.3475
3635 11.9234 173(19) 208.2205 138.3337
3636 11.9264 200(20) 204.6518 138.3200
3637 11.9294 199(20) 203.7053 138.3063
3638 11.9324 159(18) 204.2857 138.2925
3639 11.9354 162(18) 206.4429 138.2788
3640 11.9384 158(18) 209.8837 138.2651
3641 11.9414 128(16) 213.8644 138.2513
3642 11.9444 170(19) 218.0603 138.2376
3643 11.9474 181(19) 222.0973 138.4623
3644 11.9504 153(18) 225.7852 139.2433
3645 11.9534 195(20) 227.8549 140.0241
3646 11.9564 176(19) 228.7789 140.8050
3647 11.9594 173(19) 227.7983 141.5860
3648 11.9624 166(18) 224.4454 142.3670
3649 11.9654 153(18) 220.0217 143.1478
3650 11.9684 163(18) 214.0373 143.9287
3651 11.9714 182(19) 206.2258 144.7097
3652 11.9744 189(20) 197.6172 145.4904
3653 11.9774 176(19) 188.4807 146.2714
3654 11.9804 169(19) 179.7115 147.0524
3655 11.9834 186(19) 172.1896 147.8334
3656 11.9864 198(20) 166.3254 148.6141
3657 11.9894 170(19) 162.1300 149.3951
3658 11.9924 217(21) 159.4597 150.1761
3659 11.9954 152(18) 158.0381 150.9571
3660 11.9984 188(20) 157.4165 151.7378
3661 12.0014 205(21) 157.3831 152.5188
3662 12.0044 185(19) 157.6638 153.2998
3663 12.0074 224(21) 158.1496 154.0805
3664 12.0104 190(20) 158.7564 154.8615
3665 12.0134 217(21) 159.4696 155.6425
3666 12.0164 242(22) 160.3581 156.4235
3667 12.0194 231(22) 161.2860 157.2042
3668 12.0224 215(21) 162.3970 157.9852
3669 12.0254 167(19) 163.7972 158.7662
3670 12.0284 171(19) 165.5435 159.5471
3671 12.0314 186(19) 167.8271 160.3279
3672 12.0344 134(17) 170.8853 161.1089
3673 12.0374 157(18) 174.8197 161.8899
3674 12.0404 155(18) 179.6883 162.6706
3675 12.0434 173(19) 184.8776 162.8318
3676 12.0464 169(19) 190.1841 162.5186
3677 12.0494 172(19) 195.9261 162.2053
3678 12.0524 161(18) 201.7513 161.8922
3679 12.0554 128(16) 207.6908 161.5790
3680 12.0584 178(19) 213.6203 161.2658
3681 12.0614 222(21) 219.3574 160.9526
3682 12.0644 190(20) 224.7495 160.6394
3683 12.0674 256(23) 229.6395 160.3262
3684 12.0704 261(23) 234.1091 160.0130
3685 12.0734 279(24) 237.6330 159.6999
3686 12.0764 240(22) 239.9883 159.3867
3687 12.0794 244(22) 240.8822 159.0734
3688 12.0824 262(23) 240.1896 158.7602
3689 12.0854 238(22) 238.0781 158.4471
3690 12.0884 212(21) 235.4601 158.1339
3691 12.0914 245(22) 233.2523 157.8207
3692 12.0944 204(20) 232.0901 157.5074
3693 12.0974 178(19) 231.8166 157.1943
3694 12.1004 179(19) 232.1537 156.8811
3695 12.1034 198(20) 232.4201 156.5679
3696 12.1064 185(19) 232.6049 156.2548
3697 12.1094 193(20) 232.8354 155.9415
3698 12.1124 189(20) 233.4837 155.6283
3699 12.1154 209(21) 234.7227 155.3151
3700 12.1184 236(22) 236.7061 155.0020
3701 12.1214 226(22) 239.6349 154.6888
3702 12.1244 200(20) 242.9655 154.3755
3703 12.1274 204(20) 246.2612 154.0623
3704 12.1304 218(21) 248.7985 153.7492
3705 12.1334 221(21) 250.0365 153.4360
3706 12.1364 245(22) 249.7433 153.1228
3707 12.1394 269(23) 248.2404 152.8096
3708 12.1424 256(23) 246.3254 152.4964
3709 12.1454 302(25) 245.1459 152.1832
3710 12.1484 249(22) 245.7372 151.8700
3711 12.1514 253(23) 248.7527 151.5569
3712 12.1544 279(24) 254.0507 151.2436
3713 12.1574 244(22) 260.7464 150.9304
3714 12.1604 252(23) 267.7587 150.6172
3715 12.1634 309(25) 274.2894 150.3041
3716 12.1664 308(25) 280.6128 149.9909
3717 12.1694 269(23) 287.7831 149.6776
3718 12.1724 281(24) 297.0493 149.3645
3719 12.1754 292(24) 309.4038 149.0513
3720 12.1784 334(26) 324.4410 148.7381
3721 12.1814 274(24) 339.8530 148.4249
3722 12.1844 295(25) 352.2403 148.1117
3723 12.1874 301(25) 358.4165 147.7985
3724 12.1904 329(26) 357.3120 147.4853
3725 12.1934 370(28) 350.3310 147.1721
3726 12.1964 410(29) 339.8786 146.8590
3727 12.1994 364(27) 328.1229 146.5457
3728 12.2024 370(27) 316.8743 146.2325
3729 12.2054 421(29) 307.5748 145.9193
3730 12.2084 479(31) 300.8563 145.6062
3731 12.2114 399(29) 296.3630 145.2930
3732 12.2144 411(29) 293.4268 144.9797
3733 12.2174 432(30) 291.0502 144.6666
3734 12.2204 418(29) 288.5487 144.3534
3735 12.2234 424(29) 285.7368 144.0402
3736 12.2264 418(29) 283.2576 143.7270
3737 12.2294 378(28) 281.8076 143.4138
3738 12.2324 384(28) 281.2660 143.1006
3739 12.2354 362(27) 280.6409 142.7874
3740 12.2384 324(26) 278.4869 142.4742
3741 12.2414 349(27) 273.5894 142.1611
3742 12.2444 356(27) 265.6266 141.8478
3743 12.2474 280(24) 255.5942 141.5346
3744 12.2504 278(24) 245.6046 141.2215
3745 12.2534 300(25) 237.3035 140.9083
3746 12.2564 230(22) 231.6079 140.5951
3747 12.2594 252(23) 228.9619 140.2818
3748 12.2624 250(23) 229.3041 139.9687
3749 12.2654 260(23) 232.5365 139.6555
3750 12.2684 271(23) 238.5637 139.3423
3751 12.2714 262(23) 247.0972 139.0291
3752 12.2744 298(25) 257.5612 138.7159
3753 12.2774 265(23) 268.9727 138.4027
3754 12.2804 258(23) 279.9342 138.0895
3755 12.2834 260(23) 289.0849 137.7764
3756 12.2864 247(22) 295.5555 137.4632
3757 12.2894 234(22) 298.3129 137.1499
3758 12.2924 192(20) 296.6290 136.8367
3759 12.2954 195(20) 290.3213 136.5236
3760 12.2984 152(18) 280.1614 136.2104
3761 12.3014 187(20) 267.7247 135.8972
3762 12.3044 212(21) 254.8055 135.5839
3763 12.3074 224(21) 242.9513 135.2708
3764 12.3104 207(21) 232.8848 134.9576
3765 12.3134 223(21) 225.0680 134.6444
3766 12.3164 181(19) 219.1604 134.3313
3767 12.3194 200(20) 214.8326 134.0180
3768 12.3224 205(21) 212.3491 133.7048
3769 12.3254 159(18) 212.3981 133.3916
3770 12.3284 161(18) 214.9666 133.0785
3771 12.3314 157(18) 219.8184 132.7653
3772 12.3344 194(20) 225.6253 132.4520
3773 12.3374 148(17) 230.3594 132.1388
3774 12.3404 158(18) 232.6846 131.8257
3775 12.3434 174(19) 231.5883 131.5125
3776 12.3464 155(18) 227.5542 131.1992
3777 12.3494 171(19) 221.7617 130.8861
3778 12.3524 135(17) 215.0331 130.5729
3779 12.3554 160(18) 207.7827 130.2597
3780 12.3584 190(20) 200.1107 129.7416
3781 12.3614 206(21) 192.3122 129.1052
3782 12.3644 250(23) 184.5282 128.4686
3783 12.3674 200(20) 177.1566 127.8320
3784 12.3704 194(20) 170.0719 127.1954
3785 12.3734 186(20) 163.3996 126.5590
3786 12.3764 156(18) 157.4552 125.9224
3787 12.3794 171(19) 152.5791 125.2858
3788 12.3824 154(18) 148.9164 124.6494
3789 12.3854 159(18) 146.5979 124.0128
3790 12.3884 160(18) 145.4874 123.3762
3791 12.3914 135(17) 145.4949 122.7396
3792 12.3944 155(18) 146.4862 122.1032
3793 12.3974 153(18) 148.2926 121.4666
3794 12.4004 160(18) 150.2739 120.8300
3795 12.4034 156(18) 151.6810 120.1934
3796 12.4064 159(18) 152.0547 119.5570
3797 12.4094 157(18) 151.0702 118.9204
3798 12.4124 159(18) 149.0802 118.2838
3799 12.4154 184(19) 147.0441 117.6474
3800 12.4184 191(20) 145.8528 117.0108
3801 12.4214 272(24) 146.1638 116.3742
3802 12.4244 229(22) 148.5472 115.7376
3803 12.4274 227(22) 152.9842 115.1012
3804 12.4304 197(20) 159.6464 114.4647
3805 12.4334 212(21) 168.4603 113.8280
3806 12.4364 173(19) 179.4120 113.1915
3807 12.4394 201(20) 192.2234 112.5551
3808 12.4424 263(23) 206.7320 111.9185
3809 12.4454 246(22) 222.7174 111.2819
3810 12.4484 232(22) 239.8284 110.6455
3811 12.4514 296(25) 257.2134 110.0089
3812 12.4544 251(23) 273.4113 109.3723
3813 12.4574 306(25) 286.3463 108.7357
3814 12.4604 307(25) 293.6176 108.0993
3815 12.4634 270(24) 293.4136 107.4627
3816 12.4664 338(26) 285.3319 106.8261
3817 12.4694 281(24) 270.8805 106.1895
3818 12.4724 238(22) 253.0400 105.5531
3819 12.4754 231(22) 235.1197 104.9165
3820 12.4784 158(18) 219.8367 104.2799
3821 12.4814 220(21) 208.7871 103.6435
3822 12.4844 175(19) 202.4317 103.0069
3823 12.4874 162(18) 199.0769 102.3703
3824 12.4904 183(19) 197.2340 101.7337
3825 12.4934 172(19) 195.7077 101.0973
3826 12.4964 196(20) 193.6778 100.4607
3827 12.4994 149(18) 191.7036 99.8241
3828 12.5024 174(19) 190.6227 99.1875
3829 12.5054 187(20) 191.2000 98.5511
3830 12.5084 160(18) 193.8031 97.9145
3831 12.5114 216(21) 198.3456 97.2779
3832 12.5144 163(18) 203.6764 96.6415
3833 12.5174 182(19) 208.2882 96.0049
3834 12.5204 156(18) 210.3539 95.3683
3835 12.5234 140(17) 208.8811 94.7317
3836 12.5264 133(16) 204.2645 94.0953
3837 12.5294 133(17) 197.7521 93.4587
3838 12.5324 146(17) 190.8527 92.8907
3839 12.5354 157(18) 185.6606 93.2813
3840 12.5384 162(18) 182.0760 93.6717
3841 12.5414 155(18) 180.5469 94.0623
3842 12.5444 164(18) 180.9493 94.4529
3843 12.5474 176(19) 182.6876 94.8434
3844 12.5504 137(17) 185.0584 95.2340
3845 12.5534 143(17) 187.4484 95.6246
3846 12.5564 164(18) 189.4826 96.0151
3847 12.5594 175(19) 191.0297 96.4056
3848 12.5624 147(17) 192.3188 96.7962
3849 12.5654 168(19) 193.8604 97.1868
3850 12.5684 177(19) 196.0253 97.5774
3851 12.5714 235(22) 198.6052 97.9678
3852 12.5744 202(20) 201.1053 98.3584
3853 12.5774 193(20) 203.0432 98.7490
3854 12.5804 239(21) 204.5838 99.1396
3855 12.5834 206(20) 206.6901 99.5301
3856 12.5864 251(23) 210.5243 99.9207
3857 12.5894 223(21) 217.8045 100.3113
3858 12.5924 224(21) 230.0626 100.7017
3859 12.5954 258(23) 248.0602 101.0923
3860 12.5984 270(23) 271.7727 101.4829
3861 12.6014 249(23) 299.2987 101.8735
3862 12.6044 274(24) 326.6049 102.2640
3863 12.6074 299(25) 348.1859 102.6546
3864 12.6104 313(25) 358.7906 103.0451
3865 12.6134 344(27) 356.0434 103.4357
3866 12.6164 345(26) 341.7553 103.8262
3867 12.6194 356(27) 320.1841 104.2168
3868 12.6224 322(26) 296.3377 104.6074
3869 12.6254 385(28) 274.0152 104.9978
3870 12.6284 307(25) 254.9288 105.3884
3871 12.6314 276(24) 238.9708 105.7790
3872 12.6344 280(24) 225.0277 106.1696
3873 12.6374 234(22) 211.9740 106.5601
3874 12.6404 252(23) 199.2845 106.9507
3875 12.6434 220(21) 187.1080 107.3413
3876 12.6464 214(21) 175.6744 107.7318
3877 12.6494 229(22) 165.1959 108.1223
3878 12.6524 240(22) 155.7975 108.5129
3879 12.6554 207(21) 147.9185 108.9035
3880 12.6584 185(19) 142.0828 109.2940
3881 12.6614 181(19) 138.6434 109.6845
3882 12.6644 161(18) 137.8609 110.0751
3883 12.6674 152(18) 139.7265 110.4657
3884 12.6704 160(18) 144.0592 110.8562
3885 12.6734 170(19) 150.3776 111.2468
3886 12.6764 154(18) 158.0326 111.6374
3887 12.6794 164(18) 165.8928 112.0280
3888 12.6824 135(17) 172.8921 112.4184
3889 12.6854 200(20) 178.1479 112.8090
3890 12.6884 149(17) 181.6014 113.1996
3891 12.6914 153(18) 183.3285 113.5901
3892 12.6944 197(20) 183.6829 113.9807
3893 12.6974 144(17) 182.9595 114.3713
3894 12.7004 179(19) 182.9969 114.7618
3895 12.7034 162(18) 181.7973 115.1523
3896 12.7064 189(20) 181.3413 115.5429
3897 12.7094 180(19) 182.2424 115.9335
3898 12.7124 151(18) 184.9022 116.3241
3899 12.7154 162(18) 189.3044 116.6938
3900 12.7184 136(17) 194.9037 116.7719
3901 12.7214 167(19) 201.2434 116.8500
3902 12.7244 144(17) 207.5608 116.9280
3903 12.7274 150(18) 213.2447 117.0061
3904 12.7304 159(18) 217.8866 117.0842
3905 12.7334 204(20) 222.3900 117.1623
3906 12.7364 154(18) 225.3494 117.2403
3907 12.7394 156(18) 228.6384 117.3184
3908 12.7424 169(19) 233.9576 117.3965
3909 12.7454 147(17) 240.3409 117.4746
3910 12.7484 203(20) 249.9335 117.5526
3911 12.7514 171(19) 261.6479 117.6307
3912 12.7544 186(20) 272.5502 117.7088
3913 12.7574 214(21) 282.2343 117.7868
3914 12.7604 191(20) 288.5519 117.8649
3915 12.7634 234(22) 289.8761 117.9430
3916 12.7664 211(21) 285.4020 118.0211
3917 12.7694 201(20) 275.9476 118.0991
3918 12.7724 178(19) 263.4666 118.1772
3919 12.7754 205(20) 250.2050 118.2553
3920 12.7784 188(20) 238.3711 118.3334
3921 12.7814 171(19) 229.2122 118.4114
3922 12.7844 177(19) 222.9303 118.4895
3923 12.7874 166(18) 218.9443 118.5676
3924 12.7904 187(20) 216.7073 118.6457
3925 12.7934 197(20) 216.0832 118.7237
3926 12.7964 220(21) 218.5659 118.8018
3927 12.7994 219(21) 226.8574 118.8799
3928 12.8024 199(20) 245.5015 118.9580
3929 12.8054 229(22) 276.7143 119.0360
3930 12.8084 283(24) 324.3105 119.1141
3931 12.8114 465(31) 389.2736 119.1922
3932 12.8144 511(32) 468.9388 119.2703
3933 12.8174 731(39) 556.3073 119.3483
3934 12.8204 895(43) 639.8789 119.4264
3935 12.8234 912(43) 704.1840 119.5045
3936 12.8264 961(44) 733.7684 119.5826
3937 12.8294 1000(45) 721.4363 119.6606
3938 12.8324 899(43) 675.1765 119.7387
3939 12.8354 707(38) 614.0710 119.8168
3940 12.8384 706(38) 559.1029 119.8949
3941 12.8414 663(37) 527.8014 119.9729
3942 12.8444 658(36) 532.0785 120.0510
3943 12.8474 657(37) 577.8172 120.1291
3944 12.8504 623(36) 664.8000 120.2072
3945 12.8534 756(39) 786.8008 120.2852
3946 12.8564 993(45) 932.2031 120.3633
3947 12.8594 1183(49) 1086.6118 120.4414
3948 12.8624 1401(53) 1236.0564 120.5195
3949 12.8654 1759(60) 1368.2404 120.5975
3950 12.8684 1727(59) 1469.9946 120.6756
3951 12.8714 1851(62) 1526.7427 120.7537
3952 12.8744 1762(60) 1524.4226 120.8318
3953 12.8774 1605(57) 1452.8854 120.9098
3954 12.8804 1514(55) 1315.8955 120.9879
3955 12.8834 1212(50) 1135.0365 121.0660
3956 12.8864 1052(46) 940.3736 121.1441
3957 12.8894 848(42) 758.3072 121.2221
3958 12.8924 671(37) 605.7958 121.3002
3959 12.8954 652(37) 490.8402 121.3783
3960 12.8984 512(32) 414.4746 121.4564
3961 12.9014 462(31) 372.8363 121.5344
3962 12.9044 450(30) 359.9757 121.6125
3963 12.9074 501(32) 369.9649 121.6906
3964 12.9104 484(31) 397.7273 121.7687
3965 12.9134 489(32) 438.3836 121.8467
3966 12.9164 501(32) 486.4247 121.9248
3967 12.9194 457(31) 535.5354 122.0029
3968 12.9224 526(33) 577.8937 122.0809
3969 12.9254 541(33) 604.2770 122.1590
3970 12.9284 566(34) 606.0032 122.2371
3971 12.9314 614(35) 579.8354 122.3152
3972 12.9344 535(33) 531.3877 122.3932
3973 12.9374 443(30) 471.4888 122.4713
3974 12.9404 475(31) 410.4357 122.5494
3975 12.9434 362(27) 356.2097 122.6275
3976 12.9464 329(26) 313.4094 122.7056
3977 12.9494 298(26) 283.5493 122.7836
3978 12.9524 317(25) 266.3848 122.8617
3979 12.9554 313(25) 259.4591 122.9398
3980 12.9584 279(24) 263.3372 123.0179
3981 12.9614 356(27) 274.3217 123.0959
3982 12.9644 307(25) 289.4890 123.1740
3983 12.9674 377(28) 305.6299 123.2521
3984 12.9704 356(27) 319.7431 123.3302
3985 12.9734 374(28) 329.6901 123.4082
3986 12.9764 337(26) 334.3965 123.4863
3987 12.9794 360(27) 333.9650 123.5644
3988 12.9824 342(26) 330.0363 123.6425
3989 12.9854 366(27) 326.2306 123.7205
3990 12.9884 396(28) 325.7914 123.7986
3991 12.9914 469(31) 333.6622 123.8767
3992 12.9944 465(31) 350.2993 123.9548
3993 12.9974 471(31) 374.3151 124.0328
3994 13.0004 428(30) 405.2999 124.1109
3995 13.0034 428(30) 438.9874 124.1890
3996 13.0064 523(33) 470.1945 124.2671
3997 13.0094 560(34) 501.2426 124.3451
3998 13.0124 598(35) 528.3732 124.4232
3999 13.0154 571(34) 550.1254 124.5013
4000 13.0184 692(38) 564.4906 124.5794
4001 13.0214 734(39) 569.5434 124.6574
4002 13.0244 742(39) 564.2648 124.7355
4003 13.0274 688(37) 548.4660 124.8136
4004 13.0304 640(36) 522.7962 124.8917
4005 13.0334 583(35) 488.9300 124.9697
4006 13.0364 535(33) 450.1029 125.0478
4007 13.0394 438(30) 410.1481 125.1259
4008 13.0424 415(29) 372.8264 125.2040
4009 13.0454 342(27) 341.3609 125.2820
4010 13.0484 306(25) 318.3817 125.3601
4011 13.0514 318(26) 305.1655 125.4382
4012 13.0544 278(24) 301.5342 125.5163
4013 13.0574 304(25) 305.0573 125.5943
4014 13.0604 292(24) 314.9436 125.6724
4015 13.0634 326(26) 327.1439 125.7505
4016 13.0664 312(25) 338.3338 125.8285
4017 13.0694 391(28) 345.7716 125.9066
4018 13.0724 396(28) 347.7023 125.9847
4019 13.0754 405(29) 342.9619 126.0628
4020 13.0784 337(26) 331.1882 126.1408
4021 13.0814 276(24) 313.1774 126.2189
4022 13.0844 316(25) 290.7788 126.2970
4023 13.0874 253(23) 266.5563 126.3751
4024 13.0904 264(23) 243.1289 126.4531
4025 13.0934 248(23) 222.7762 126.5312
4026 13.0964 207(21) 206.8157 126.6093
4027 13.0994 196(20) 195.6476 126.6874
4028 13.1024 187(20) 189.0270 126.7654
4029 13.1054 187(20) 186.1491 126.8435
4030 13.1084 206(21) 186.0764 126.9216
4031 13.1114 227(22) 188.1284 126.9997
4032 13.1144 227(22) 192.1136 127.0777
4033 13.1174 240(22) 197.7741 127.1558
4034 13.1204 279(24) 204.6987 127.2339
4035 13.1234 225(21) 212.0602 127.3120
4036 13.1264 200(20) 218.5022 127.3900
4037 13.1294 278(24) 222.8181 127.4681
4038 13.1324 230(22) 224.4923 127.5462
4039 13.1354 222(21) 224.2678 127.6243
4040 13.1384 227(22) 223.1066 127.7023
4041 13.1414 179(19) 222.2027 127.7804
4042 13.1444 160(18) 221.8755 127.8585
4043 13.1474 184(19) 222.3660 127.9366
4044 13.1504 195(20) 223.4974 128.0146
4045 13.1534 169(19) 225.1712 128.0927
4046 13.1564 119(16) 226.9545 128.1708
4047 13.1594 147(17) 228.0409 128.2489
4048 13.1624 148(17) 228.2360 128.3270
4049 13.1654 165(18) 227.1085 128.4050
4050 13.1684 140(17) 224.2953 128.4831
4051 13.1714 146(17) 220.2795 128.5612
4052 13.1744 144(17) 215.6058 128.6393
4053 13.1774 166(18) 211.0226 128.7634
4054 13.1804 161(18) 207.1840 128.9800
4055 13.1834 145(17) 204.3856 129.1966
4056 13.1864 154(18) 202.7403 129.4131
4057 13.1894 191(20) 201.9751 129.6296
4058 13.1924 158(18) 201.7124 129.8462
4059 13.1954 137(17) 201.6515 130.0628
4060 13.1984 137(17) 201.3566 130.2793
4061 13.2014 179(19) 200.8521 130.4958
4062 13.2044 175(19) 199.6555 130.7124
4063 13.2074 177(19) 197.6962 130.9290
4064 13.2104 192(20) 195.1692 131.1454
4065 13.2134 159(18) 192.2536 131.3620
4066 13.2164 173(19) 189.3573 131.5786
4067 13.2194 189(20) 186.5623 131.7951
4068 13.2224 201(20) 183.9308 132.0116
4069 13.2254 204(20) 181.4175 132.2282
4070 13.2284 196(20) 178.9727 132.4448
4071 13.2314 210(21) 176.6154 132.6613
4072 13.2344 205(20) 174.6046 132.8778
4073 13.2374 176(19) 173.1712 133.0944
4074 13.2404 190(20) 172.4402 133.3110
4075 13.2434 237(22) 172.5577 133.5275
4076 13.2464 176(19) 173.5520 133.7440
4077 13.2494 206(21) 175.5722 133.9606
4078 13.2524 195(20) 178.8028 134.1771
4079 13.2554 184(19) 183.2703 134.3936
4080 13.2584 215(21) 188.7749 134.6102
4081 13.2614 227(22) 195.1433 134.8268
4082 13.2644 224(21) 201.9078 135.0433
4083 13.2674 245(22) 208.3143 135.2598
4084 13.2704 230(22) 213.6324 135.4764
4085 13.2734 241(22) 217.1778 135.6929
4086 13.2764 229(22) 218.6514 135.9095
4087 13.2794 233(22) 218.5748 136.1260
4088 13.2824 200(20) 217.8744 136.3426
4089 13.2854 193(20) 218.1644 136.5591
4090 13.2884 246(22) 220.2939 136.7756
4091 13.2914 173(19) 225.1542 136.9922
4092 13.2944 225(21) 232.4955 137.2088
4093 13.2974 174(19) 241.6576 137.4253
4094 13.3004 198(20) 251.1316 137.6418
4095 13.3034 181(19) 259.5404 137.8584
4096 13.3064 197(20) 265.9977 138.0750
4097 13.3094 229(22) 268.7335 138.2915
4098 13.3124 219(21) 268.2610 138.5080
4099 13.3154 203(20) 264.8250 138.7246
4100 13.3184 222(21) 258.4702 138.9411
4101 13.3214 215(21) 250.0389 139.1576
4102 13.3244 200(20) 240.9790 139.3742
4103 13.3274 179(19) 231.3080 139.5908
4104 13.3304 196(20) 222.3120 139.8073
4105 13.3334 164(18) 214.7554 140.0238
4106 13.3364 152(18) 209.4630 140.2404
4107 13.3394 161(18) 205.9420 140.4570
4108 13.3424 183(19) 204.6714 140.6735
4109 13.3454 180(19) 205.2613 140.8900
4110 13.3484 188(20) 207.7797 141.1066
4111 13.3514 168(19) 211.3627 141.3232
4112 13.3544 186(19) 215.8251 141.5396
4113 13.3574 195(20) 220.6543 141.7562
4114 13.3604 206(20) 226.1232 141.9728
4115 13.3634 200(20) 232.4492 142.1893
4116 13.3664 209(21) 240.0354 142.4058
4117 13.3694 203(20) 249.4873 142.6224
4118 13.3724 244(22) 261.9891 142.8390
4119 13.3754 255(23) 279.0277 143.0555
4120 13.3784 286(24) 301.9772 143.2720
4121 13.3814 332(26) 331.3385 143.4886
4122 13.3844 364(27) 365.9333 143.7052
4123 13.3874 366(27) 403.1169 143.9216
4124 13.3904 468(31) 439.9987 144.1382
4125 13.3934 504(32) 473.2775 144.3548
4126 13.3964 546(33) 500.6706 144.5713
4127 13.3994 584(35) 522.1143 144.7878
4128 13.4024 657(37) 539.8473 145.0044
4129 13.4054 604(35) 557.3895 145.2210
4130 13.4084 668(37) 578.0554 145.4375
4131 13.4114 757(39) 603.7367 145.6540
4132 13.4144 791(40) 634.0912 145.8706
4133 13.4174 842(42) 666.3876 146.0872
4134 13.4204 962(44) 696.8333 146.3036
4135 13.4234 1136(48) 722.2771 146.5202
4136 13.4264 976(45) 741.4139 146.7368
4137 13.4294 1014(46) 755.2397 146.9533
4138 13.4324 965(44) 766.3206 147.1698
4139 13.4354 888(43) 777.3223 147.3864
4140 13.4384 1106(48) 789.2280 147.6030
4141 13.4414 1144(48) 801.1593 147.8195
4142 13.4444 1229(50) 812.4125 148.0360
4143 13.4474 1136(48) 822.7485 148.2526
4144 13.4504 1213(50) 832.3348 148.4692
4145 13.4534 1119(48) 840.8006 148.6857
4146 13.4564 1121(48) 846.4448 148.9022
4147 13.4594 1099(47) 846.6160 149.1188
4148 13.4624 1107(48) 839.7990 149.3353
4149 13.4654 1233(50) 826.5385 149.5518
4150 13.4684 973(44) 807.3804 149.7684
4151 13.4714 957(44) 782.3768 149.9850
4152 13.4744 842(41) 751.6654 150.2015
4153 13.4774 838(41) 715.6422 150.4180
4154 13.4804 723(38) 674.3500 150.6346
4155 13.4834 737(39) 627.4872 150.8512
4156 13.4864 634(36) 575.5187 151.0677
4157 13.4894 512(32) 521.3769 151.2842
4158 13.4924 526(33) 470.0385 151.5008
4159 13.4954 408(29) 426.8210 151.7173
4160 13.4984 387(28) 395.7188 151.9338
4161 13.5014 329(26) 378.3481 152.1504
4162 13.5044 337(26) 373.9879 152.3670
4163 13.5074 335(26) 379.2935 152.5835
4164 13.5104 368(27) 389.2516 152.8000
4165 13.5134 373(28) 397.2275 153.0166
4166 13.5164 381(28) 397.4222 153.2332
4167 13.5194 390(28) 386.5366 153.4497
4168 13.5224 327(26) 365.3307 153.6662
4169 13.5254 312(25) 337.4197 153.8828
4170 13.5284 298(25) 307.2643 154.0993
4171 13.5314 248(23) 278.4301 154.3159
4172 13.5344 244(22) 254.0468 154.5324
4173 13.5374 204(20) 234.9714 154.7490
4174 13.5404 208(21) 221.3526 154.9655
4175 13.5434 181(19) 212.5154 155.1820
4176 13.5464 201(20) 206.8959 155.3986
4177 13.5494 178(19) 203.3723 155.6152
4178 13.5524 205(20) 200.6068 155.8317
4179 13.5554 181(19) 197.9133 156.0482
4180 13.5584 197(20) 195.2088 156.2648
4181 13.5614 214(21) 192.5476 156.4814
4182 13.5644 184(19) 190.0897 156.6978
4183 13.5674 185(19) 188.3632 156.9144
4184 13.5704 209(21) 187.3046 157.1310
4185 13.5734 163(18) 186.5806 157.3475
4186 13.5764 175(19) 185.7864 157.5640
4187 13.5794 143(17) 185.3654 157.6951
4188 13.5824 180(19) 184.9355 157.2715
4189 13.5854 153(18) 184.8026 156.8480
4190 13.5884 174(19) 185.6900 156.4244
4191 13.5914 163(18) 187.4248 156.0008
4192 13.5944 131(16) 189.3670 155.5771
4193 13.5974 172(19) 192.3361 155.1537
4194 13.6004 192(20) 195.6720 154.7300
4195 13.6034 191(20) 198.7462 154.3064
4196 13.6064 204(20) 201.9325 153.8829
4197 13.6094 189(20) 204.9635 153.4593
4198 13.6124 249(23) 208.0141 153.0357
4199 13.6154 247(22) 210.7719 152.6120
4200 13.6184 250(23) 212.8296 152.1885
4201 13.6214 257(23) 214.7421 151.7649
4202 13.6244 252(23) 216.7573 151.3413
4203 13.6274 252(23) 220.0378 150.9177
4204 13.6304 274(24) 225.1754 150.4942
4205 13.6334 298(25) 232.5020 150.0705
4206 13.6364 270(23) 241.4763 149.6469
4207 13.6394 270(24) 251.0781 149.2234
4208 13.6424 266(23) 259.8511 148.7998
4209 13.6454 317(26) 266.2989 148.3762
4210 13.6484 337(26) 269.7203 147.9526
4211 13.6514 268(23) 270.4813 147.5291
4212 13.6544 318(25) 269.8132 147.1054
4213 13.6574 307(25) 269.1916 146.6818
4214 13.6604 259(23) 269.2172 146.2582
4215 13.6634 273(24) 270.3440 145.8347
4216 13.6664 237(22) 272.3379 145.4111
4217 13.6694 237(22) 274.4551 144.9874
4218 13.6724 224(21) 275.6863 144.5639
4219 13.6754 228(22) 275.3257 144.1403
4220 13.6784 257(23) 273.4177 143.7167
4221 13.6814 298(25) 269.8799 143.2931
4222 13.6844 315(25) 265.9658 142.8696
4223 13.6874 266(23) 263.0316 142.4460
4224 13.6904 251(23) 262.2390 142.0223
4225 13.6934 250(23) 264.1477 141.5987
4226 13.6964 255(23) 268.4118 141.1752
4227 13.6994 264(23) 274.0012 140.7516
4228 13.7024 261(23) 279.2251 140.3280
4229 13.7054 267(23) 282.3678 139.9043
4230 13.7084 246(22) 282.0238 139.4809
4231 13.7114 234(22) 278.1983 139.0572
4232 13.7144 207(21) 271.2361 138.6336
4233 13.7174 234(22) 262.5086 138.2101
4234 13.7204 242(22) 253.4019 137.7865
4235 13.7234 246(22) 245.2064 137.3629
4236 13.7264 222(21) 238.8151 136.9392
4237 13.7294 211(21) 234.6994 136.5157
4238 13.7324 239(22) 232.9119 136.0921
4239 13.7354 262(23) 233.3594 135.6685
4240 13.7384 249(23) 235.9882 135.2449
4241 13.7414 269(24) 240.6378 134.8214
4242 13.7444 265(23) 247.1170 134.3977
4243 13.7474 255(23) 255.1434 133.9741
4244 13.7504 238(22) 264.1892 133.5506
4245 13.7534 248(23) 273.7215 133.1270
4246 13.7564 226(21) 283.1425 132.7034
4247 13.7594 229(22) 292.1930 132.2798
4248 13.7624 217(21) 300.3835 131.8563
4249 13.7654 261(23) 307.2899 131.4326
4250 13.7684 249(22) 312.3927 131.0090
4251 13.7714 227(22) 315.4295 130.5854
4252 13.7744 247(22) 316.4916 130.1619
4253 13.7774 252(23) 315.8203 129.7383
4254 13.7804 312(25) 313.6509 129.3146
4255 13.7834 286(24) 310.1929 128.8911
4256 13.7864 298(25) 306.4996 128.4675
4257 13.7894 319(26) 303.6937 128.0439
4258 13.7924 326(26) 303.1400 127.6203
4259 13.7954 344(26) 305.6366 127.1968
4260 13.7984 323(26) 311.3816 126.7732
4261 13.8014 320(26) 319.7975 126.3495
4262 13.8044 355(27) 329.6423 125.9259
4263 13.8074 295(25) 339.3431 125.5024
4264 13.8104 358(27) 346.7586 125.0788
4265 13.8134 291(24) 350.1684 124.6552
4266 13.8164 317(25) 348.8272 124.2317
4267 13.8194 301(25) 344.2693 123.8080
4268 13.8224 261(23) 339.9091 123.3844
4269 13.8254 346(27) 338.9464 122.9608
4270 13.8284 385(28) 343.2790 122.5373
4271 13.8314 417(29) 352.8521 122.1137
4272 13.8344 426(29) 365.7388 121.6900
4273 13.8374 460(31) 378.5697 121.2664
4274 13.8404 467(31) 387.2992 120.8429
4275 13.8434 511(32) 388.1172 120.4193
4276 13.8464 448(30) 378.9346 119.9957
4277 13.8494 430(30) 359.4385 119.5722
4278 13.8524 357(27) 332.0937 119.1486
4279 13.8554 340(26) 301.0540 118.7249
4280 13.8584 264(23) 270.3347 118.3013
4281 13.8614 270(24) 243.3300 117.8778
4282 13.8644 245(22) 221.5674 117.4542
4283 13.8674 240(22) 205.8118 117.0306
4284 13.8704 199(20) 195.7359 116.6069
4285 13.8734 213(21) 190.3266 116.1835
4286 13.8764 196(20) 188.2683 115.7598
4287 13.8794 221(21) 188.2473 115.3362
4288 13.8824 183(19) 189.0155 114.9127
4289 13.8854 165(18) 190.0181 114.4891
4290 13.8884 180(19) 190.8122 114.0655
4291 13.8914 177(19) 191.4351 113.6418
4292 13.8944 187(20) 192.0577 113.2183
4293 13.8974 140(17) 192.8195 112.7947
4294 13.9004 178(19) 193.9528 112.3711
4295 13.9034 150(18) 195.3074 111.9475
4296 13.9064 145(17) 196.6788 111.5240
4297 13.9094 168(19) 198.5745 111.4311
4298 13.9124 149(17) 201.2035 111.9992
4299 13.9154 142(17) 204.0470 112.5672
4300 13.9184 158(18) 206.8047 113.1354
4301 13.9214 205(21) 209.8459 113.7036
4302 13.9244 179(19) 213.1047 114.2718
4303 13.9274 154(18) 216.5818 114.8397
4304 13.9304 159(18) 219.7263 115.4079
4305 13.9334 154(18) 222.1516 115.9761
4306 13.9364 183(19) 223.5725 116.5443
4307 13.9394 128(16) 223.5531 117.1123
4308 13.9424 133(16) 222.5347 117.6804
4309 13.9454 189(20) 219.7769 118.2486
4310 13.9484 183(19) 215.5815 118.8166
4311 13.9514 201(20) 210.0951 119.3848
4312 13.9544 156(18) 203.6016 119.9530
4313 13.9574 161(18) 197.2790 120.5211
4314 13.9604 164(18) 191.7621 121.0891
4315 13.9634 195(20) 188.0045 121.6573
4316 13.9664 217(21) 186.9882 122.2255
4317 13.9694 174(19) 189.4510 122.7937
4318 13.9724 198(20) 195.8707 123.3616
4319 13.9754 253(23) 206.3217 123.9298
4320 13.9784 219(21) 220.3439 124.4980
4321 13.9814 235(22) 237.3138 125.0660
4322 13.9844 308(25) 256.0505 125.6342
4323 13.9874 296(25) 275.7057 126.2023
4324 13.9904 394(28) 296.0107 126.7705
4325 13.9934 416(29) 316.1946 127.3385
4326 13.9964 475(31) 336.2997 127.9067
4327 13.9994 450(30) 356.3649 128.4749
4328 14.0024 498(32) 377.0240 129.0430
4329 14.0054 497(32) 398.9559 129.6110
4330 14.0084 450(30) 422.4205 130.1792
4331 14.0114 524(33) 446.3815 130.7474
4332 14.0144 521(33) 468.3670 131.3154
4333 14.0174 517(33) 485.2739 131.8836
4334 14.0204 516(32) 494.6132 132.4517
4335 14.0234 596(35) 495.4417 133.0199
4336 14.0264 540(33) 489.2902 133.5879
4337 14.0294 562(34) 479.4523 134.1561
4338 14.0324 526(33) 469.4880 134.7242
4339 14.0354 540(33) 461.8903 135.2924
4340 14.0384 458(31) 457.3556 135.8604
4341 14.0414 426(30) 454.9738 136.4286
4342 14.0444 435(30) 453.1110 136.9968
4343 14.0474 424(29) 450.3783 137.5648
4344 14.0504 395(28) 445.7905 138.1329
4345 14.0534 461(31) 439.0882 138.7011
4346 14.0564 485(31) 430.9239 139.2693
4347 14.0594 525(33) 422.7206 139.8373
4348 14.0624 487(32) 416.1414 140.4055
4349 14.0654 542(33) 412.3251 140.9736
4350 14.0684 566(34) 411.4215 141.5418
4351 14.0714 548(33) 412.4767 142.1098
4352 14.0744 575(34) 413.8030 142.6780
4353 14.0774 480(31) 413.0236 143.2462
4354 14.0804 422(29) 407.6372 143.8143
4355 14.0834 433(30) 396.0186 144.3823
4356 14.0864 388(27) 378.1938 144.9505
4357 14.0894 392(28) 356.3132 145.5187
4358 14.0924 301(25) 333.6308 146.0867
4359 14.0954 312(25) 313.2645 146.6548
4360 14.0984 299(25) 297.7523 147.2230
4361 14.1014 346(27) 288.6307 147.7912
4362 14.1044 263(23) 286.5836 148.3592
4363 14.1074 307(25) 291.4772 148.9274
4364 14.1104 262(23) 302.4570 149.4955
4365 14.1134 284(24) 318.1629 150.0637
4366 14.1164 341(26) 336.8725 150.6317
4367 14.1194 327(26) 356.7343 151.1999
4368 14.1224 345(27) 375.7957 151.7681
4369 14.1254 346(27) 391.9879 152.3361
4370 14.1284 372(27) 403.3117 152.9042
4371 14.1314 389(28) 407.6501 153.4724
4372 14.1344 438(30) 403.8051 154.0406
4373 14.1374 381(28) 391.8518 154.6086
4374 14.1404 416(29) 373.4993 155.1768
4375 14.1434 370(28) 351.1701 155.7449
4376 14.1464 373(28) 327.5726 156.3131
4377 14.1494 331(26) 304.8674 156.8811
4378 14.1524 367(27) 284.7559 157.4493
4379 14.1554 269(23) 268.1443 158.0175
4380 14.1584 328(26) 255.6404 158.5854
4381 14.1614 258(23) 246.8805 159.1536
4382 14.1644 245(22) 241.8893 159.7218
4383 14.1674 243(22) 240.3207 160.2900
4384 14.1704 258(23) 241.8972 160.8580
4385 14.1734 255(23) 245.9787 161.4261
4386 14.1764 254(23) 251.6974 161.9943
4387 14.1794 252(23) 257.8918 162.5625
4388 14.1824 256(23) 263.3495 163.1305
4389 14.1854 304(25) 267.3625 163.6987
4390 14.1884 262(23) 269.7967 164.2668
4391 14.1914 254(23) 270.6591 164.8348
4392 14.1944 226(21) 270.7035 165.4030
4393 14.1974 223(21) 270.3899 165.9712
4394 14.2004 268(23) 270.4296 166.5394
4395 14.2034 254(23) 270.7668 167.1074
4396 14.2064 318(26) 271.2040 167.6755
4397 14.2094 287(24) 271.1151 168.2437
4398 14.2124 242(22) 269.9934 168.8119
4399 14.2154 266(23) 267.0859 169.3799
4400 14.2184 235(22) 261.9432 169.9480
4401 14.2214 313(25) 254.8141 170.5162
4402 14.2244 269(23) 246.4530 171.0842
4403 14.2274 264(23) 237.0147 171.6524
4404 14.2304 232(22) 228.5247 172.2206
4405 14.2334 209(21) 221.1310 172.7887
4406 14.2364 255(23) 215.5472 173.3567
4407 14.2394 211(21) 212.1256 173.9249
4408 14.2424 207(21) 210.3203 174.4931
4409 14.2454 207(21) 210.2634 175.0613
4410 14.2484 183(19) 211.5453 175.6293
4411 14.2514 220(21) 214.0590 176.1974
4412 14.2544 173(19) 216.6782 176.7656
4413 14.2574 164(18) 219.6028 177.3336
4414 14.2604 183(19) 222.6530 177.9018
4415 14.2634 161(18) 225.4606 178.4700
4416 14.2664 219(21) 227.2541 179.0381
4417 14.2694 206(21) 228.0871 179.6061
4418 14.2724 194(20) 228.0496 180.1743
4419 14.2754 198(20) 227.3421 180.7425
4420 14.2784 167(18) 226.5099 181.3107
4421 14.2814 220(21) 225.7863 181.8786
4422 14.2844 178(19) 224.8430 181.6996
4423 14.2874 224(21) 224.3180 181.4055
4424 14.2904 184(19) 224.3522 181.1115
4425 14.2934 229(22) 225.1864 180.8173
4426 14.2964 176(19) 226.0158 180.5232
4427 14.2994 168(19) 227.0100 180.2290
4428 14.3024 174(19) 227.6620 179.9350
4429 14.3054 156(18) 227.7826 179.6409
4430 14.3084 199(20) 227.3343 179.3467
4431 14.3114 187(20) 226.2658 179.0526
4432 14.3144 186(20) 224.6906 178.7585
4433 14.3174 205(21) 222.7505 178.4644
4434 14.3204 226(21) 220.5774 178.1703
4435 14.3234 263(23) 218.4253 177.8762
4436 14.3264 264(23) 216.7501 177.5821
4437 14.3294 221(21) 215.7426 177.2879
4438 14.3324 293(24) 216.0116 176.9938
4439 14.3354 289(24) 218.2062 176.6998
4440 14.3384 282(24) 223.3114 176.4056
4441 14.3414 258(23) 232.4818 176.1115
4442 14.3444 339(26) 246.9892 175.8173
4443 14.3474 358(27) 268.3439 175.5233
4444 14.3504 393(28) 297.7038 175.2292
4445 14.3534 373(28) 335.6063 174.9350
4446 14.3564 528(33) 381.7361 174.6410
4447 14.3594 559(34) 434.6927 174.3468
4448 14.3624 629(36) 492.1456 174.0527
4449 14.3654 732(39) 551.1711 173.7586
4450 14.3684 711(38) 608.9111 173.4645
4451 14.3714 773(40) 664.0332 173.1704
4452 14.3744 830(41) 717.2332 172.8762
4453 14.3774 832(41) 770.5151 172.5821
4454 14.3804 854(42) 825.4258 172.2881
4455 14.3834 942(44) 881.5143 171.9939
4456 14.3864 1025(46) 935.7473 171.6998
4457 14.3894 1046(46) 982.7874 171.4057
4458 14.3924 1259(51) 1015.7799 171.1116
4459 14.3954 1390(53) 1028.7235 170.8175
4460 14.3984 1352(53) 1018.5948 170.5233
4461 14.4014 1273(51) 985.8812 170.2293
4462 14.4044 1278(51) 933.1309 169.9351
4463 14.4074 1096(47) 864.6880 169.6410
4464 14.4104 810(41) 786.7242 169.3469
4465 14.4134 649(37) 707.3503 169.0528
4466 14.4164 556(34) 634.6726 168.7587
4467 14.4194 562(34) 575.0635 168.4645
4468 14.4224 424(29) 531.8111 168.1705
4469 14.4254 442(30) 505.2487 167.8764
4470 14.4284 387(28) 492.6553 167.5822
4471 14.4314 425(29) 489.3329 167.2881
4472 14.4344 397(28) 489.3193 166.9940
4473 14.4374 436(30) 487.0076 166.6999
4474 14.4404 421(29) 478.7168 166.4058
4475 14.4434 382(28) 463.4910 166.1116
4476 14.4464 363(27) 442.8807 165.8176
4477 14.4494 357(27) 419.5588 165.5234
4478 14.4524 325(26) 396.5097 165.2293
4479 14.4554 318(26) 376.1360 164.9352
4480 14.4584 261(24) 359.6407 164.6411
4481 14.4614 268(24) 347.3420 164.3470
4482 14.4644 251(22) 338.8487 164.0528
4483 14.4674 252(23) 333.2523 163.7588
4484 14.4704 222(21) 329.7023 163.4647
4485 14.4734 267(23) 327.3653 163.1705
4486 14.4764 253(23) 325.5191 162.8764
4487 14.4794 299(25) 323.5576 162.5823
4488 14.4824 342(26) 320.7675 162.2882
4489 14.4854 285(24) 316.4922 161.9941
4490 14.4884 269(23) 310.6132 161.6999
4491 14.4914 332(26) 303.5978 161.4059
4492 14.4944 263(23) 296.2470 161.1117
4493 14.4974 298(25) 289.3682 160.8176
4494 14.5004 252(23) 283.7903 160.5236
4495 14.5034 303(25) 280.3239 160.2294
4496 14.5064 279(24) 279.7307 159.9353
4497 14.5094 298(25) 282.4980 159.6411
4498 14.5124 320(25) 288.6988 159.3471
4499 14.5154 423(29) 297.7581 159.0530
4500 14.5184 359(27) 309.7755 158.7588
4501 14.5214 286(24) 323.3224 158.4647
4502 14.5244 356(27) 337.7047 158.1706
4503 14.5274 358(27) 351.4774 157.8765
4504 14.5304 341(26) 363.2267 157.5824
4505 14.5334 338(26) 371.9951 157.2883
4506 14.5364 364(27) 376.9841 156.9942
4507 14.5394 374(28) 376.9145 156.7000
4508 14.5424 370(28) 372.4878 156.4059
4509 14.5454 303(25) 364.0718 156.1119
4510 14.5484 330(26) 352.3938 155.8177
4511 14.5514 332(26) 338.9784 155.5236
4512 14.5544 316(25) 325.8937 155.2294
4513 14.5574 332(26) 315.2589 154.9354
4514 14.5604 275(24) 308.0858 154.6413
4515 14.5634 311(25) 304.4680 154.3471
4516 14.5664 347(27) 303.7114 154.0531
4517 14.5694 365(27) 304.7338 153.7589
4518 14.5724 400(29) 306.2526 153.4648
4519 14.5754 399(29) 307.3320 153.1707
4520 14.5784 413(29) 307.9423 152.8766
4521 14.5814 377(28) 308.6248 152.5825
4522 14.5844 357(27) 309.7718 152.2883
4523 14.5874 363(27) 312.3763 151.9942
4524 14.5904 378(28) 316.0266 151.7002
4525 14.5934 387(28) 320.4335 151.4060
4526 14.5964 344(26) 324.6603 151.1119
4527 14.5994 338(26) 327.9082 150.8178
4528 14.6024 362(27) 329.6685 150.5237
4529 14.6054 316(25) 329.4777 150.2296
4530 14.6084 279(24) 327.3559 149.9354
4531 14.6114 354(27) 323.2920 149.6414
4532 14.6144 333(26) 317.2573 149.3472
4533 14.6174 314(25) 309.0573 149.0531
4534 14.6204 282(24) 298.9281 148.7590
4535 14.6234 267(23) 287.0383 148.4649
4536 14.6264 257(23) 274.0273 148.1708
4537 14.6294 244(22) 260.5867 147.8766
4538 14.6324 219(21) 247.2886 147.5826
4539 14.6354 224(21) 234.6544 147.2885
4540 14.6384 190(20) 222.8498 146.9943
4541 14.6414 185(20) 212.1035 146.7002
4542 14.6444 154(18) 202.5572 146.4061
4543 14.6474 154(18) 194.4315 146.1120
4544 14.6504 165(18) 187.8402 145.8179
4545 14.6534 151(18) 182.9033 145.5237
4546 14.6564 162(18) 179.6045 145.2297
4547 14.6594 148(17) 177.8216 144.9355
4548 14.6624 150(18) 177.5068 144.6414
4549 14.6654 143(17) 178.3873 144.3474
4550 14.6684 152(18) 180.1696 144.0532
4551 14.6714 155(18) 182.5975 143.7591
4552 14.6744 164(18) 185.2868 143.4650
4553 14.6774 168(19) 187.9779 143.1709
4554 14.6804 171(19) 190.2358 142.8768
4555 14.6834 187(20) 191.9222 142.5826
4556 14.6864 185(19) 193.0202 142.2885
4557 14.6894 171(19) 193.7082 141.9944
4558 14.6924 146(17) 194.1400 141.7003
4559 14.6954 192(20) 194.6701 141.4062
4560 14.6984 146(17) 195.3577 141.1121
4561 14.7014 186(20) 196.4884 141.1012
4562 14.7044 200(20) 197.8932 141.1765
4563 14.7074 150(17) 199.3946 141.2518
4564 14.7104 165(18) 200.8017 141.3270
4565 14.7134 153(18) 201.8596 141.4023
4566 14.7164 147(17) 202.2896 141.4776
4567 14.7194 153(18) 201.7407 141.5529
4568 14.7224 156(18) 200.3189 141.6281
4569 14.7254 172(19) 198.5809 141.7034
4570 14.7284 180(19) 197.1720 141.7787
4571 14.7314 170(19) 196.9081 141.8540
4572 14.7344 191(20) 198.1508 141.9292
4573 14.7374 212(21) 201.6077 142.0045
4574 14.7404 209(21) 207.1841 142.0798
4575 14.7434 186(20) 214.6381 142.1551
4576 14.7464 251(23) 223.3663 142.2303
4577 14.7494 267(23) 232.3779 142.3056
4578 14.7524 278(24) 241.1066 142.3809
4579 14.7554 277(24) 248.5315 142.4562
4580 14.7584 264(23) 254.3449 142.5314
4581 14.7614 252(23) 258.2244 142.6067
4582 14.7644 282(24) 259.8427 142.6820
4583 14.7674 313(25) 258.6815 142.7573
4584 14.7704 304(25) 254.8860 142.8326
4585 14.7734 300(25) 248.8580 142.9078
4586 14.7764 278(24) 241.4419 142.9831
4587 14.7794 259(23) 233.5941 143.0584
4588 14.7824 279(24) 226.3158 143.1337
4589 14.7854 245(22) 220.3327 143.2089
4590 14.7884 249(22) 216.0505 143.2842
4591 14.7914 277(24) 213.7409 143.3595
4592 14.7944 278(24) 213.3226 143.4347
4593 14.7974 261(23) 214.8229 143.5100
4594 14.8004 250(23) 218.0139 143.5853
4595 14.8034 233(22) 222.6681 143.6606
4596 14.8064 240(22) 228.6797 143.7358
4597 14.8094 206(21) 235.7483 143.8111
4598 14.8124 225(21) 243.7868 143.8864
4599 14.8154 232(22) 252.7613 143.9617
4600 14.8184 259(23) 262.8593 144.0369
4601 14.8214 294(25) 274.1227 144.1122
4602 14.8244 276(24) 286.8683 144.1875
4603 14.8274 310(25) 300.8868 144.2628
4604 14.8304 353(27) 315.9314 144.3380
4605 14.8334 353(27) 331.4345 144.4133
4606 14.8364 353(27) 346.8146 144.4886
4607 14.8394 377(28) 361.5961 144.5639
4608 14.8424 402(29) 375.7395 144.6391
4609 14.8454 444(30) 389.8738 144.7144
4610 14.8484 420(29) 405.3440 144.7897
4611 14.8514 453(30) 424.0881 144.8650
4612 14.8544 419(29) 448.0960 144.9402
4613 14.8574 434(30) 479.0237 145.0155
4614 14.8604 494(32) 517.6531 145.0908
4615 14.8634 599(35) 563.5896 145.1661
4616 14.8664 653(37) 614.9373 145.2413
4617 14.8694 707(38) 668.6747 145.3166
4618 14.8724 854(42) 720.8268 145.3919
4619 14.8754 950(44) 767.1732 145.4671
4620 14.8784 995(45) 803.6805 145.5424
4621 14.8814 959(44) 827.4166 145.6177
4622 14.8844 1054(46) 837.1097 145.6930
4623 14.8874 1162(49) 832.8586 145.7682
4624 14.8904 994(45) 815.6760 145.8435
4625 14.8934 916(43) 786.9387 145.9188
4626 14.8964 847(42) 748.3710 145.9941
4627 14.8994 794(40) 701.6353 146.0694
4628 14.9024 833(41) 648.4534 146.1446
4629 14.9054 661(37) 590.9487 146.2199
4630 14.9084 535(33) 531.6766 146.2952
4631 14.9114 556(34) 473.6869 146.3705
4632 14.9144 454(30) 419.9845 146.4457
4633 14.9174 454(30) 373.0200 146.5210
4634 14.9204 354(27) 334.5629 146.5963
4635 14.9234 310(25) 305.5357 146.6716
4636 14.9264 298(25) 285.9550 146.7468
4637 14.9294 240(22) 275.2060 146.8221
4638 14.9324 263(23) 272.0861 146.8974
4639 14.9354 283(24) 274.9858 146.9727
4640 14.9384 267(23) 281.9820 147.0479
4641 14.9414 271(23) 291.0561 147.1232
4642 14.9444 296(24) 300.3967 147.1985
4643 14.9474 335(26) 308.4535 147.2737
4644 14.9504 368(27) 314.3682 147.3490
4645 14.9534 313(25) 318.0297 147.4243
4646 14.9564 306(25) 319.8483 147.4996
4647 14.9594 287(24) 320.4397 147.5748
4648 14.9624 249(23) 320.1839 147.6501
4649 14.9654 303(25) 319.1061 147.7254
4650 14.9684 285(24) 316.9080 147.8007
4651 14.9714 244(22) 313.0073 147.8759
4652 14.9744 247(22) 306.8824 147.9512
4653 14.9774 232(22) 298.4246 148.0265
4654 14.9804 237(22) 287.9386 148.1018
4655 14.9834 257(23) 276.1503 148.1770
4656 14.9864 209(21) 264.2493 148.2523
4657 14.9894 205(20) 253.1292 148.3276
4658 14.9924 210(21) 243.5713 148.4029
4659 14.9954 177(19) 236.0387 148.4781
4660 14.9984 156(18) 230.5948 148.5534
4661 15.0014 173(19) 226.9178 148.6287
4662 15.0044 170(19) 224.4632 148.7040
4663 15.0074 145(17) 222.9001 148.7792
4664 15.0104 167(19) 221.8558 148.8545
4665 15.0134 205(21) 221.1018 148.9298
4666 15.0164 214(21) 220.6738 149.0051
4667 15.0194 200(20) 220.4729 149.0803
4668 15.0224 194(20) 220.5586 149.1556
4669 15.0254 195(20) 220.7320 149.2309
4670 15.0284 217(21) 220.8060 149.3062
4671 15.0314 211(21) 220.3532 149.3814
4672 15.0344 206(20) 219.5424 149.4567
4673 15.0374 198(20) 217.8345 149.5320
4674 15.0404 170(19) 215.1806 149.6073
4675 15.0434 187(20) 211.5856 149.6825
4676 15.0464 183(19) 207.4408 149.7578
4677 15.0494 175(19) 203.3541 149.8331
4678 15.0524 176(19) 199.9628 149.9084
4679 15.0554 172(19) 197.5068 149.9836
4680 15.0584 146(17) 196.7380 150.0589
4681 15.0614 170(19) 197.4122 150.1342
4682 15.0644 112(15) 199.5279 150.2095
4683 15.0674 209(21) 202.5317 150.2847
4684 15.0704 216(21) 205.8902 150.3600
4685 15.0734 167(19) 208.8643 150.4353
4686 15.0764 219(21) 210.9167 150.5106
4687 15.0794 217(21) 211.7167 150.5858
4688 15.0824 223(21) 211.2099 150.6611
4689 15.0854 236(22) 209.6338 150.7364
4690 15.0884 245(22) 207.3145 150.8117
4691 15.0914 247(23) 204.5492 150.8869
4692 15.0944 222(21) 201.4885 150.9622
4693 15.0974 209(21) 198.3496 151.0375
4694 15.1004 168(19) 194.9937 151.1128
4695 15.1034 230(22) 191.6777 151.1880
4696 15.1064 228(22) 188.5550 151.2633
4697 15.1094 237(22) 185.7679 151.3386
4698 15.1124 212(21) 183.6238 151.4138
4699 15.1154 267(23) 182.2497 151.4891
4700 15.1184 254(23) 181.7543 151.5644
4701 15.1214 235(22) 182.0260 151.6397
4702 15.1244 234(22) 183.0277 151.7150
4703 15.1274 217(21) 184.4718 151.7902
4704 15.1304 223(21) 186.0199 151.8655
4705 15.1334 242(22) 187.5075 151.9408
4706 15.1364 257(23) 188.7167 152.0161
4707 15.1394 215(21) 189.5816 152.0913
4708 15.1424 223(21) 190.1420 152.1666
4709 15.1454 238(22) 190.6263 152.2419
4710 15.1484 165(18) 191.3567 152.3539
4711 15.1514 183(19) 192.5417 152.4685
4712 15.1544 153(18) 194.2892 152.5831
4713 15.1574 176(19) 196.6767 152.6977
4714 15.1604 169(19) 199.6121 152.8123
4715 15.1634 166(18) 202.9341 152.9269
4716 15.1664 143(17) 206.5175 153.0415
4717 15.1694 145(17) 210.2849 153.1561
4718 15.1724 165(18) 214.2023 153.2707
4719 15.1754 166(18) 218.2381 153.3853
4720 15.1784 181(19) 222.3544 153.5000
4721 15.1814 208(21) 226.5113 153.6146
4722 15.1844 219(21) 230.6213 153.7292
4723 15.1874 175(19) 234.6019 153.8438
4724 15.1904 187(20) 238.4452 153.9584
4725 15.1934 243(22) 242.2250 154.0730
4726 15.1964 218(21) 246.0077 154.1876
4727 15.1994 216(21) 249.8565 154.3022
4728 15.2024 238(22) 253.6829 154.4169
4729 15.2054 269(24) 257.3672 154.5315
4730 15.2084 261(23) 260.7971 154.6461
4731 15.2114 266(23) 263.8914 154.7607
4732 15.2144 263(23) 266.6104 154.8753
4733 15.2174 269(24) 268.8735 154.9899
4734 15.2204 319(25) 270.5443 155.1045
4735 15.2234 287(24) 271.5551 155.2191
4736 15.2264 322(26) 271.9183 155.3338
4737 15.2294 294(25) 271.7186 155.4483
4738 15.2324 349(27) 271.2030 155.5630
4739 15.2354 288(24) 270.3644 155.6776
4740 15.2384 275(24) 269.2293 155.7922
4741 15.2414 253(23) 267.7888 155.9068
4742 15.2444 256(23) 266.2163 156.0214
4743 15.2474 250(23) 264.7440 156.1360
4744 15.2504 238(22) 263.6125 156.2506
4745 15.2534 222(21) 262.9567 156.3652
4746 15.2564 177(19) 262.6940 156.4799
4747 15.2594 239(22) 262.4677 156.5945
4748 15.2624 238(22) 261.8456 156.7091
4749 15.2654 234(22) 260.4851 156.8237
4750 15.2684 234(22) 258.3096 156.9383
4751 15.2714 290(24) 255.5140 157.0529
4752 15.2744 228(22) 252.4356 157.1675
4753 15.2774 217(21) 249.3527 157.2821
4754 15.2804 219(21) 246.5523 157.3968
4755 15.2834 269(23) 244.2495 157.5113
4756 15.2864 289(24) 242.4725 157.6260
4757 15.2894 280(24) 241.2041 157.7406
4758 15.2924 228(22) 240.2906 157.8552
4759 15.2954 234(22) 239.4904 157.9698
4760 15.2984 233(22) 238.6269 158.0844
4761 15.3014 257(23) 237.6179 158.1990
4762 15.3044 239(22) 236.5027 158.3136
4763 15.3074 229(22) 235.3096 158.4282
4764 15.3104 231(22) 234.2933 158.5428
4765 15.3134 245(22) 233.6200 158.6575
4766 15.3164 232(22) 233.7079 158.7721
4767 15.3194 194(20) 234.7006 158.8867
4768 15.3224 269(23) 236.6598 159.0013
4769 15.3254 255(23) 239.3855 159.1159
4770 15.3284 227(21) 242.4471 159.2305
4771 15.3314 252(23) 245.3003 159.3451
4772 15.3344 243(22) 247.4622 159.4597
4773 15.3374 233(22) 248.5456 159.5744
4774 15.3404 247(22) 248.4556 159.6889
4775 15.3434 239(22) 247.3067 159.8036
4776 15.3464 228(22) 245.4131 159.9182
4777 15.3494 200(20) 243.0554 160.0328
4778 15.3524 183(19) 240.5671 160.1474
4779 15.3554 194(20) 238.0735 160.2620
4780 15.3584 189(20) 235.7137 160.3766
4781 15.3614 206(21) 233.6335 160.4912
4782 15.3644 205(20) 231.7010 160.6059
4783 15.3674 196(20) 230.0020 160.7205
4784 15.3704 221(21) 228.3719 160.8351
4785 15.3734 224(21) 226.6631 160.9497
4786 15.3764 209(21) 224.6523 161.0643
4787 15.3794 265(23) 222.1990 161.1789
4788 15.3824 196(20) 219.4311 161.2935
4789 15.3854 200(20) 216.5924 161.4081
4790 15.3884 231(22) 213.9621 161.5227
4791 15.3914 257(23) 211.7725 161.6374
4792 15.3944 222(21) 210.2166 161.7520
4793 15.3974 249(23) 209.4633 161.8666
4794 15.4004 196(20) 209.1010 161.9812
4795 15.4034 261(23) 209.1604 162.0958
4796 15.4064 242(22) 209.4958 162.2104
4797 15.4094 233(22) 210.0114 162.3250
4798 15.4124 248(22) 210.7587 162.4396
4799 15.4154 250(23) 211.9819 162.5542
4800 15.4184 206(21) 213.9793 162.6688
4801 15.4214 262(23) 217.0165 162.7835
4802 15.4244 222(21) 221.2649 162.8981
4803 15.4274 274(24) 226.6196 163.0127
4804 15.4304 282(24) 232.8413 163.1273
4805 15.4334 232(22) 239.5067 163.2419
4806 15.4364 281(24) 246.2036 163.3565
4807 15.4394 244(22) 252.4509 163.4711
4808 15.4424 314(25) 257.9586 163.5857
4809 15.4454 310(25) 262.7175 163.7003
4810 15.4484 320(25) 266.8029 163.8149
4811 15.4514 321(26) 270.3617 163.9296
4812 15.4544 306(25) 273.3795 164.0442
4813 15.4574 279(24) 276.0429 164.1588
4814 15.4604 274(24) 278.2632 164.2734
4815 15.4634 236(22) 279.8015 164.3880
4816 15.4664 269(23) 280.4398 164.5026
4817 15.4694 196(20) 280.0250 164.6172
4818 15.4724 223(21) 278.5619 164.7318
4819 15.4754 245(22) 276.4259 164.8465
4820 15.4784 243(22) 274.0485 164.9611
4821 15.4814 198(20) 271.8877 165.0757
4822 15.4844 249(22) 270.3129 165.1903
4823 15.4874 249(23) 269.6041 165.3049
4824 15.4904 254(23) 269.8972 165.4195
4825 15.4934 254(23) 271.1849 165.5341
4826 15.4964 245(22) 273.4698 165.6487
4827 15.4994 260(23) 276.6898 165.7634
4828 15.5024 255(22) 280.8710 165.8780
4829 15.5054 243(22) 286.1127 165.9926
4830 15.5084 281(24) 292.7123 166.1072
4831 15.5114 242(22) 300.9224 166.2218
4832 15.5144 345(27) 310.9041 166.3364
4833 15.5174 307(25) 322.6066 166.4510
4834 15.5204 321(26) 335.7928 166.5656
4835 15.5234 436(30) 350.0771 166.6802
4836 15.5264 436(30) 364.8263 166.7948
4837 15.5294 403(29) 379.3669 166.9095
4838 15.5324 514(32) 393.0578 167.0241
4839 15.5354 468(31) 405.6010 167.1387
4840 15.5384 508(32) 417.0040 167.2533
4841 15.5414 474(31) 427.2556 167.3679
4842 15.5444 441(30) 435.9792 167.4825
4843 15.5474 378(28) 442.3426 167.5971
4844 15.5504 433(30) 445.1230 167.7117
4845 15.5534 459(31) 443.1179 167.8263
4846 15.5564 414(29) 435.7025 167.9410
4847 15.5594 428(30) 423.1931 168.0555
4848 15.5624 375(28) 406.6310 168.1702
4849 15.5654 328(26) 387.5285 168.2848
4850 15.5684 387(28) 367.5878 168.3994
4851 15.5714 355(27) 348.8950 168.5140
4852 15.5744 429(30) 332.8741 168.6286
4853 15.5774 365(27) 321.3785 168.7432
4854 15.5804 395(28) 315.6130 168.8578
4855 15.5834 405(29) 316.1941 168.9724
4856 15.5864 404(29) 323.0037 169.0871
4857 15.5894 389(28) 335.1287 169.2017
4858 15.5924 394(28) 351.2639 169.3163
4859 15.5954 432(30) 368.6216 169.4309
4860 15.5984 409(29) 384.9607 169.5455
4861 15.6014 467(31) 397.9524 169.6601
4862 15.6044 495(32) 405.4803 169.7747
4863 15.6074 428(30) 406.2929 169.8893
4864 15.6104 410(29) 400.4090 170.0040
4865 15.6134 380(28) 389.0454 170.1186
4866 15.6164 393(28) 374.1725 170.2332
4867 15.6194 309(25) 357.8134 170.3478
4868 15.6224 317(25) 341.6425 170.4624
4869 15.6254 313(25) 326.5523 170.5770
4870 15.6284 272(24) 312.9814 170.6916
4871 15.6314 266(23) 300.7430 170.8062
4872 15.6344 304(25) 289.6115 170.9209
4873 15.6374 236(22) 279.2759 171.0354
4874 15.6404 221(21) 269.6320 171.1501
4875 15.6434 271(24) 260.6700 171.2647
4876 15.6464 213(21) 252.4625 171.3793
4877 15.6494 209(21) 245.0672 171.4939
4878 15.6524 214(21) 238.5627 171.6085
4879 15.6554 226(22) 233.0363 171.7231
4880 15.6584 208(21) 228.6967 171.8377
4881 15.6614 231(22) 225.3133 171.9523
4882 15.6644 242(22) 223.1093 172.0670
4883 15.6674 215(21) 222.1322 172.1816
4884 15.6704 196(20) 222.0111 172.2962
4885 15.6734 190(20) 222.7041 172.4108
4886 15.6764 228(21) 223.9484 172.5254
4887 15.6794 240(22) 225.5979 172.6400
4888 15.6824 251(23) 227.3687 172.7546
4889 15.6854 255(23) 229.0788 172.8692
4890 15.6884 225(21) 230.6709 172.9838
4891 15.6914 191(20) 232.2467 173.0984
4892 15.6944 221(21) 234.0907 173.2130
4893 15.6974 226(22) 236.4993 173.3277
4894 15.7004 192(20) 239.9421 173.4423
4895 15.7034 207(21) 244.9498 173.5569
4896 15.7064 211(21) 252.1940 173.6715
4897 15.7094 197(20) 262.0436 173.7861
4898 15.7124 224(21) 274.5044 173.9007
4899 15.7154 233(22) 289.5446 174.0153
4900 15.7184 253(23) 306.3968 174.1299
4901 15.7214 276(24) 324.0241 174.2446
4902 15.7244 350(27) 341.0841 174.3591
4903 15.7274 379(28) 356.4182 174.4738
4904 15.7304 422(29) 369.1013 174.5884
4905 15.7334 439(30) 378.8368 174.7030
4906 15.7364 405(29) 386.1004 174.8176
4907 15.7394 386(28) 391.4694 174.9322
4908 15.7424 406(29) 395.0886 175.0468
4909 15.7454 426(30) 396.2889 175.1615
4910 15.7484 489(32) 393.8716 175.2760
4911 15.7514 472(31) 386.3322 175.3907
4912 15.7544 424(29) 373.0147 175.5053
4913 15.7574 396(29) 354.5383 175.6199
4914 15.7604 334(26) 332.5687 175.7345
4915 15.7634 328(26) 308.9894 175.8491
4916 15.7664 303(25) 285.8782 175.9637
4917 15.7694 269(24) 264.5623 176.0783
4918 15.7724 294(24) 246.4095 176.1929
4919 15.7754 245(22) 231.8116 176.3076
4920 15.7784 239(22) 220.9533 176.4222
4921 15.7814 231(22) 213.7131 176.5368
4922 15.7844 221(21) 209.8468 176.6514
4923 15.7874 195(20) 209.1439 176.7660
4924 15.7904 198(20) 211.5031 176.8806
4925 15.7934 195(20) 216.9431 176.9952
4926 15.7964 233(22) 225.5856 177.1098
4927 15.7994 240(22) 237.5391 177.2245
4928 15.8024 208(21) 252.6661 177.3390
4929 15.8054 254(23) 270.6072 177.4537
4930 15.8084 250(23) 290.6009 177.5683
4931 15.8114 276(24) 311.3778 177.6829
4932 15.8144 307(25) 331.3182 177.7975
4933 15.8174 291(24) 348.6062 177.9121
4934 15.8204 334(26) 361.5288 178.0267
4935 15.8234 372(28) 368.8470 178.1413
4936 15.8264 415(29) 370.1078 178.2559
4937 15.8294 421(29) 365.5983 178.3705
4938 15.8324 360(27) 356.3896 178.4852
4939 15.8354 393(28) 344.1972 178.5998
4940 15.8384 359(27) 330.9749 178.7144
4941 15.8414 319(26) 318.4393 178.8290
4942 15.8444 294(24) 308.0444 178.9436
4943 15.8474 306(25) 300.7119 179.0582
4944 15.8504 223(21) 296.8969 179.1728
4945 15.8534 253(23) 296.5591 179.2874
4946 15.8564 241(22) 299.1810 179.4020
4947 15.8594 236(22) 303.8986 179.5166
4948 15.8624 253(23) 309.5901 179.6313
4949 15.8654 244(22) 315.0754 179.7459
4950 15.8684 274(24) 319.3284 179.8605
4951 15.8714 309(25) 321.6277 179.9751
4952 15.8744 289(24) 321.7416 180.0897
4953 15.8774 271(24) 319.9596 180.2043
4954 15.8804 262(23) 317.0023 180.3189
4955 15.8834 256(23) 313.8521 180.4335
4956 15.8864 290(24) 311.4576 180.5482
4957 15.8894 284(24) 310.6413 180.6628
4958 15.8924 332(26) 311.5117 180.7774
4959 15.8954 315(25) 314.5964 180.8920
4960 15.8984 339(26) 319.3516 181.0066
4961 15.9014 293(25) 325.2050 181.1212
4962 15.9044 288(24) 331.3231 181.2358
4963 15.9074 300(25) 336.9924 181.3504
4964 15.9104 278(24) 341.6398 181.4651
4965 15.9134 342(26) 344.6789 181.5796
4966 15.9164 302(25) 346.6362 181.6943
4967 15.9194 288(24) 347.3324 181.8089
4968 15.9224 257(23) 346.5181 181.9235
4969 15.9254 350(27) 344.2821 182.0381
4970 15.9284 354(27) 340.8239 182.1527
4971 15.9314 348(27) 336.4845 182.2673
4972 15.9344 348(27) 331.8813 182.3819
4973 15.9374 347(27) 327.5326 182.4965
4974 15.9404 383(28) 323.9279 182.6112
4975 15.9434 359(27) 321.1086 182.7258
4976 15.9464 356(27) 318.9339 182.8404
4977 15.9494 304(26) 317.0815 182.9550
4978 15.9524 374(28) 314.9458 183.0696
4979 15.9554 388(28) 312.0496 183.1842
4980 15.9584 373(28) 308.1347 183.2988
4981 15.9614 323(26) 303.0992 183.4134
4982 15.9644 289(24) 297.1804 183.5280
4983 15.9674 289(24) 290.8177 183.6426
4984 15.9704 249(23) 284.4648 183.7573
4985 15.9734 238(22) 278.5233 183.8719
4986 15.9764 172(19) 273.3202 183.9865
4987 15.9794 241(22) 268.9954 184.1011
4988 15.9824 173(19) 265.4365 184.2157
4989 15.9854 201(20) 262.8357 184.3303
4990 15.9884 222(21) 260.8777 184.4449
4991 15.9914 202(20) 259.2098 184.5595
4992 15.9944 139(17) 257.8773 184.6741
4993 15.9974 189(20) 256.4997 184.7888
4994 16.0004 219(21) 254.8788 184.9034
4995 16.0034 200(20) 253.0082 185.0180
4996 16.0064 202(20) 250.8840 185.1326
4997 16.0094 230(22) 248.6734 185.2472
4998 16.0124 202(20) 246.4540 185.3618
4999 16.0154 198(20) 244.4147 185.4764
5000 16.0184 199(20) 242.3853 185.4153
5001 16.0214 244(22) 240.5726 185.2003
5002 16.0244 224(21) 239.3173 184.9853
5003 16.0274 246(22) 238.7825 184.7705
5004 16.0304 220(21) 239.2055 184.5555
5005 16.0334 188(20) 240.8273 184.3406
5006 16.0364 243(22) 243.7589 184.1256
5007 16.0394 226(21) 247.9998 183.9106
5008 16.0424 234(22) 253.3522 183.6957
5009 16.0454 216(21) 259.5800 183.4807
5010 16.0484 232(22) 266.1270 183.2657
5011 16.0514 244(22) 272.7449 183.0509
5012 16.0544 269(23) 279.2735 182.8360
5013 16.0574 232(22) 285.5730 182.6210
5014 16.0604 226(21) 292.2162 182.4060
5015 16.0634 280(24) 299.7290 182.1911
5016 16.0664 287(24) 308.7039 181.9761
5017 16.0694 302(25) 319.4971 181.7612
5018 16.0724 314(25) 332.1520 181.5463
5019 16.0754 404(29) 346.5048 181.3314
5020 16.0784 364(27) 361.5633 181.1164
5021 16.0814 385(28) 376.1238 180.9014
5022 16.0844 413(29) 389.0126 180.6865
5023 16.0874 480(31) 398.9523 180.4715
5024 16.0904 504(32) 405.1649 180.2565
5025 16.0934 463(31) 407.6353 180.0417
5026 16.0964 547(33) 406.5592 179.8268
5027 16.0994 491(32) 402.7044 179.6118
5028 16.1024 509(32) 396.8826 179.3968
5029 16.1054 532(33) 390.0743 179.1819
5030 16.1084 503(32) 383.1767 178.9669
5031 16.1114 427(30) 376.5691 178.7519
5032 16.1144 438(30) 370.6227 178.5370
5033 16.1174 385(28) 365.1320 178.3221
5034 16.1204 456(30) 360.3199 178.1072
5035 16.1234 392(28) 356.3000 177.8922
5036 16.1264 289(24) 352.8230 177.6772
5037 16.1294 337(26) 349.7725 177.4623
5038 16.1324 336(26) 346.6553 177.2473
5039 16.1354 325(26) 342.9478 177.0324
5040 16.1384 305(25) 338.4746 176.8175
5041 16.1414 309(25) 333.2052 176.6026
5042 16.1444 332(26) 327.4111 176.3876
5043 16.1474 368(27) 321.5859 176.1727
5044 16.1504 328(26) 316.3852 175.9577
5045 16.1534 294(25) 312.4113 175.7427
5046 16.1564 327(26) 310.1427 175.5278
5047 16.1594 332(26) 309.8513 175.3128
5048 16.1624 312(25) 311.6923 175.0980
5049 16.1654 310(25) 315.6143 174.8830
5050 16.1684 300(25) 321.5531 174.6680
5051 16.1714 400(29) 329.3636 174.4531
5052 16.1744 335(26) 338.9578 174.2381
5053 16.1774 368(28) 350.1368 174.0231
5054 16.1804 357(27) 362.9697 173.8082
5055 16.1834 383(28) 377.5555 173.5934
5056 16.1864 414(29) 394.1292 173.3784
5057 16.1894 456(31) 412.8173 173.1634
5058 16.1924 417(29) 433.5359 172.9485
5059 16.1954 493(32) 455.8946 172.7335
5060 16.1984 509(32) 479.1547 172.5185
5061 16.2014 539(33) 502.2189 172.3036
5062 16.2044 613(35) 523.7351 172.0888
5063 16.2074 633(36) 542.2884 171.8738
5064 16.2104 680(37) 556.5396 171.6588
5065 16.2134 697(38) 565.4658 171.4439
5066 16.2164 723(38) 568.5597 171.2289
5067 16.2194 624(36) 566.1546 171.0139
5068 16.2224 688(38) 559.8448 170.7990
5069 16.2254 678(37) 551.9192 170.5840
5070 16.2284 649(36) 545.1560 170.3692
5071 16.2314 588(35) 542.1385 170.1542
5072 16.2344 619(36) 544.9086 169.9393
5073 16.2374 665(37) 554.5863 169.7243
5074 16.2404 722(38) 571.2038 169.5093
5075 16.2434 751(39) 593.6687 169.2944
5076 16.2464 757(39) 619.8683 169.0794
5077 16.2494 827(41) 646.6120 168.8646
5078 16.2524 911(43) 670.9337 168.6496
5079 16.2554 934(44) 689.8926 168.4346
5080 16.2584 868(42) 701.3018 168.2197
5081 16.2614 947(44) 703.9404 168.0047
5082 16.2644 912(43) 697.6544 167.7898
5083 16.2674 842(41) 683.2991 167.5748
5084 16.2704 798(40) 663.0260 167.3600
5085 16.2734 810(41) 639.6149 167.1450
5086 16.2764 789(40) 615.4218 166.9300
5087 16.2794 691(37) 591.8831 166.7151
5088 16.2824 700(38) 569.6327 166.5001
5089 16.2854 729(39) 548.3713 166.2852
5090 16.2884 619(35) 527.2739 166.0702
5091 16.2914 706(38) 505.4131 165.8552
5092 16.2944 651(36) 482.0195 165.6404
5093 16.2974 559(34) 456.6981 165.4254
5094 16.3004 500(32) 429.7678 165.2105
5095 16.3034 505(32) 402.1230 164.9955
5096 16.3064 384(28) 375.0037 164.7805
5097 16.3094 310(25) 349.7482 164.5656
5098 16.3124 300(25) 327.5414 164.3506
5099 16.3154 265(23) 309.0739 164.1358
5100 16.3184 269(23) 294.7374 163.9208
5101 16.3214 246(22) 284.4298 163.7059
5102 16.3244 263(23) 277.6556 163.4909
5103 16.3274 277(24) 273.6497 163.2759
5104 16.3304 259(23) 271.4675 163.0610
5105 16.3334 251(23) 270.0401 162.8460
5106 16.3364 249(22) 268.5491 162.6312
5107 16.3394 259(23) 266.3936 162.4162
5108 16.3424 273(24) 263.2801 162.2013
5109 16.3454 255(23) 259.2682 161.9863
5110 16.3484 276(24) 254.8120 161.7713
5111 16.3514 209(21) 250.3406 161.5564
5112 16.3544 182(19) 246.3455 161.3414
5113 16.3574 213(21) 243.0691 161.1264
5114 16.3604 192(20) 240.6644 160.9116
5115 16.3634 192(20) 239.0298 160.6967
5116 16.3664 195(20) 237.9500 160.4817
5117 16.3694 207(21) 237.1409 160.2667
5118 16.3724 177(19) 236.1700 160.0518
5119 16.3754 144(17) 235.0611 159.8368
5120 16.3784 156(18) 233.7281 159.6218
5121 16.3814 200(20) 232.4639 159.4070
5122 16.3844 207(21) 231.6862 159.5660
5123 16.3874 190(20) 232.0276 160.0522
5124 16.3904 175(19) 233.6622 160.5384
5125 16.3934 217(21) 236.8413 161.0246
5126 16.3964 202(20) 241.8365 161.5108
5127 16.3994 214(21) 248.5628 161.9970
5128 16.4024 253(23) 256.7924 162.4829
5129 16.4054 216(21) 265.7740 162.9691
5130 16.4084 222(21) 274.7188 163.4553
5131 16.4114 280(24) 282.9439 163.9415
5132 16.4144 229(22) 289.5699 164.4277
5133 16.4174 284(24) 293.9974 164.9139
5134 16.4204 269(23) 296.2274 165.4001
5135 16.4234 313(25) 296.6143 165.8863
5136 16.4264 304(25) 295.2882 166.3722
5137 16.4294 309(25) 292.6123 166.8584
5138 16.4324 322(26) 288.8428 167.3446
5139 16.4354 319(26) 284.4694 167.8308
5140 16.4384 251(23) 279.8018 168.3170
5141 16.4414 272(24) 274.9216 168.8032
5142 16.4444 216(21) 270.1248 169.2894
5143 16.4474 259(23) 265.5202 169.7753
5144 16.4504 252(23) 261.6009 170.2615
5145 16.4534 218(21) 258.3592 170.7477
5146 16.4564 246(22) 256.1287 171.2339
5147 16.4594 230(22) 254.9990 171.7201
5148 16.4624 207(21) 255.1936 172.2063
5149 16.4654 233(22) 256.8524 172.6925
5150 16.4684 189(20) 260.2077 173.1784
5151 16.4714 237(22) 265.3259 173.6646
5152 16.4744 264(23) 272.1470 174.1508
5153 16.4774 236(22) 280.4395 174.6370
5154 16.4804 296(24) 289.7985 175.1232
5155 16.4834 271(24) 299.5632 175.6094
5156 16.4864 287(24) 308.9987 176.0956
5157 16.4894 266(23) 317.2611 176.5818
5158 16.4924 308(25) 323.6528 177.0677
5159 16.4954 316(25) 327.7497 177.5539
5160 16.4984 275(24) 329.4844 178.0401
5161 16.5014 366(27) 329.2410 178.5263
5162 16.5044 319(25) 327.6848 179.0125
5163 16.5074 283(24) 325.5159 179.4987
5164 16.5104 273(24) 323.3775 179.9849
5165 16.5134 284(24) 321.5419 180.4708
5166 16.5164 325(26) 320.0063 180.9570
5167 16.5194 336(26) 318.5952 181.4432
5168 16.5224 339(26) 317.0277 181.9294
5169 16.5254 281(24) 315.1049 182.4156
5170 16.5284 328(26) 312.7825 182.9018
5171 16.5314 361(27) 310.1060 183.3880
5172 16.5344 270(24) 307.2212 183.8742
5173 16.5374 297(25) 304.3286 184.3601
5174 16.5404 282(24) 301.7274 184.8463
5175 16.5434 295(25) 299.7694 185.3325
5176 16.5464 266(23) 298.8709 185.8187
5177 16.5494 272(24) 299.3333 186.3049
5178 16.5524 289(24) 301.3721 186.7911
5179 16.5554 305(25) 304.9429 187.2773
5180 16.5584 340(26) 309.8689 187.7632
5181 16.5614 302(25) 315.6659 188.2494
5182 16.5644 287(24) 321.9513 188.7356
5183 16.5674 329(26) 328.1158 189.2218
5184 16.5704 285(24) 333.7455 189.7080
5185 16.5734 340(26) 338.6051 190.1942
5186 16.5764 363(27) 342.6655 190.6804
5187 16.5794 317(25) 346.0257 191.1663
5188 16.5824 358(27) 348.6966 191.6525
5189 16.5854 385(28) 350.8688 192.1387
5190 16.5884 430(30) 352.4686 192.6249
5191 16.5914 373(28) 353.3355 193.1111
5192 16.5944 326(26) 353.1616 193.5973
5193 16.5974 369(28) 351.5273 194.0835
5194 16.6004 357(27) 348.1138 194.5697
5195 16.6034 376(28) 342.7129 195.0556
5196 16.6064 354(27) 335.3517 195.5418
5197 16.6094 340(26) 326.2386 196.0280
5198 16.6124 329(26) 315.7029 196.5142
5199 16.6154 303(25) 304.3072 197.0004
5200 16.6184 296(25) 292.6761 197.4866
5201 16.6214 279(24) 281.4770 197.9728
5202 16.6244 239(22) 271.4047 198.4587
5203 16.6274 277(24) 262.9383 198.9449
5204 16.6304 242(22) 256.4500 199.4311
5205 16.6334 229(22) 252.1184 199.9173
5206 16.6364 208(21) 249.8365 200.4035
5207 16.6394 223(21) 249.3984 200.8897
5208 16.6424 184(19) 250.3658 201.3759
5209 16.6454 201(20) 252.3073 201.8618
5210 16.6484 241(22) 254.5280 202.3480
5211 16.6514 200(20) 256.6565 202.8342
5212 16.6544 220(21) 258.2665 203.2221
5213 16.6574 231(22) 258.9647 203.2868
5214 16.6604 197(20) 259.0461 203.3515
5215 16.6634 178(19) 258.6827 203.4162
5216 16.6664 210(21) 258.2105 203.4809
5217 16.6694 229(22) 257.8681 203.5455
5218 16.6724 198(20) 258.0641 203.6102
5219 16.6754 216(21) 258.9713 203.6750
5220 16.6784 224(21) 260.8268 203.7397
5221 16.6814 198(20) 263.6606 203.8044
5222 16.6844 254(23) 267.4250 203.8690
5223 16.6874 297(25) 271.9847 203.9337
5224 16.6904 252(23) 277.1091 203.9984
5225 16.6934 298(25) 282.5174 204.0631
5226 16.6964 341(26) 288.1282 204.1278
5227 16.6994 270(24) 293.8917 204.1925
5228 16.7024 281(24) 300.0889 204.2572
5229 16.7054 331(26) 307.0135 204.3219
5230 16.7084 315(25) 315.2077 204.3866
5231 16.7114 329(26) 324.9904 204.4513
5232 16.7144 340(26) 336.4501 204.5160
5233 16.7174 332(26) 349.3376 204.5807
5234 16.7204 312(25) 363.0553 204.6454
5235 16.7234 352(27) 376.6603 204.7101
5236 16.7264 363(27) 389.0461 204.7748
5237 16.7294 433(30) 398.9870 204.8395
5238 16.7324 429(30) 405.5544 204.9042
5239 16.7354 497(32) 408.1091 204.9688
5240 16.7384 427(30) 406.7057 205.0335
5241 16.7414 503(32) 401.7559 205.0982
5242 16.7444 532(33) 394.2870 205.1629
5243 16.7474 487(32) 385.6853 205.2276
5244 16.7504 462(31) 377.0706 205.2923
5245 16.7534 431(30) 369.3938 205.3570
5246 16.7564 387(28) 363.2802 205.4217
5247 16.7594 414(29) 358.9828 205.4864
5248 16.7624 370(27) 356.3853 205.5511
5249 16.7654 296(25) 355.1607 205.6158
5250 16.7684 391(28) 354.6946 205.6805
5251 16.7714 395(28) 354.5779 205.7452
5252 16.7744 394(28) 354.3051 205.8099
5253 16.7774 368(27) 353.7429 205.8745
5254 16.7804 345(26) 353.1271 205.9392
5255 16.7834 347(27) 352.8020 206.0039
5256 16.7864 372(28) 353.4206 206.0686
5257 16.7894 322(26) 355.6310 206.1333
5258 16.7924 360(27) 359.9867 206.1980
5259 16.7954 328(26) 366.9027 206.2627
5260 16.7984 376(28) 376.4106 206.3274
5261 16.8014 423(29) 388.2033 206.3921
5262 16.8044 430(30) 401.6465 206.4568
5263 16.8074 544(33) 415.7971 206.5215
5264 16.8104 528(33) 429.5829 206.5862
5265 16.8134 591(35) 442.0030 206.6509
5266 16.8164 548(33) 452.3134 206.7156
5267 16.8194 566(34) 460.1737 206.7803
5268 16.8224 614(35) 465.6084 206.8449
5269 16.8254 582(35) 468.7130 206.9096
5270 16.8284 571(34) 469.4896 206.9743
5271 16.8314 559(34) 468.0497 207.0390
5272 16.8344 556(34) 464.4567 207.1037
5273 16.8374 451(30) 458.6364 207.1684
5274 16.8404 484(31) 450.8188 207.2331
5275 16.8434 452(30) 441.3860 207.2978
5276 16.8464 373(28) 430.9591 207.3625
5277 16.8494 434(30) 420.3020 207.4272
5278 16.8524 411(29) 410.1206 207.4919
5279 16.8554 421(29) 401.1543 207.5566
5280 16.8584 384(28) 393.8710 207.6213
5281 16.8614 368(27) 388.4020 207.6860
5282 16.8644 296(25) 384.6942 207.7507
5283 16.8674 360(27) 382.2496 207.8154
5284 16.8704 451(30) 380.3275 207.8801
5285 16.8734 359(27) 378.6652 207.9447
5286 16.8764 373(28) 377.0208 208.0094
5287 16.8794 424(29) 375.2378 208.0741
5288 16.8824 392(28) 373.4455 208.1388
5289 16.8854 412(29) 371.9555 208.2036
5290 16.8884 383(28) 371.0873 208.2682
5291 16.8914 374(28) 371.1176 208.3329
5292 16.8944 393(28) 372.0803 208.3976
5293 16.8974 282(24) 373.6273 208.4623
5294 16.9004 365(27) 375.2847 208.5270
5295 16.9034 361(27) 376.2243 208.5917
5296 16.9064 293(24) 375.7135 208.6564
5297 16.9094 368(28) 372.9597 208.7211
5298 16.9124 354(27) 367.6865 208.7858
5299 16.9154 336(26) 359.9140 208.8505
5300 16.9184 366(27) 350.0216 208.9152
5301 16.9214 302(25) 338.6210 208.9799
5302 16.9244 239(22) 326.4532 209.0446
5303 16.9274 223(21) 314.2942 209.1093
5304 16.9304 208(21) 302.7220 209.1740
5305 16.9334 232(22) 292.2489 209.2386
5306 16.9364 215(21) 283.1692 209.3033
5307 16.9394 239(22) 275.6674 209.3505
5308 16.9424 191(20) 269.4849 209.1528
5309 16.9454 190(20) 264.8994 208.9551
5310 16.9484 198(20) 261.7920 208.7574
5311 16.9514 225(21) 260.0635 208.5598
5312 16.9544 168(19) 259.7521 208.3622
5313 16.9574 211(21) 260.9310 208.1645
5314 16.9604 206(20) 263.7216 207.9668
5315 16.9634 183(19) 268.3198 207.7691
5316 16.9664 185(19) 274.9449 207.5715
5317 16.9694 217(21) 283.8286 207.3738
5318 16.9724 212(21) 295.1913 207.1761
5319 16.9754 211(21) 309.0884 206.9784
5320 16.9784 257(23) 325.4978 206.7809
5321 16.9814 255(23) 344.1892 206.5832
5322 16.9844 278(24) 364.7700 206.3855
5323 16.9874 380(28) 386.6303 206.1878
5324 16.9904 387(28) 408.8851 205.9901
5325 16.9934 456(31) 430.6159 205.7924
5326 16.9964 515(32) 450.7260 205.5948
5327 16.9994 542(33) 468.3029 205.3972
5328 17.0024 574(34) 482.7964 205.1995
5329 17.0054 587(35) 494.0605 205.0018
5330 17.0084 589(35) 502.0714 204.8042
5331 17.0114 585(35) 507.0926 204.6065
5332 17.0144 530(33) 509.9985 204.4088
5333 17.0174 578(34) 511.5472 204.2111
5334 17.0204 596(35) 512.7264 204.0135
5335 17.0234 567(34) 514.2516 203.8159
5336 17.0264 612(35) 516.4156 203.6182
5337 17.0294 582(35) 518.9602 203.4205
5338 17.0324 584(34) 520.8948 203.2228
5339 17.0354 572(34) 520.9510 203.0251
5340 17.0384 550(33) 517.6285 202.8275
5341 17.0414 600(35) 509.9507 202.6298
5342 17.0444 641(36) 497.8884 202.4322
5343 17.0474 644(36) 482.2640 202.2345
5344 17.0504 641(35) 464.8092 202.0368
5345 17.0534 585(35) 447.2937 201.8392
5346 17.0564 472(31) 431.3232 201.6415
5347 17.0594 524(33) 418.0335 201.4438
5348 17.0624 465(31) 408.0737 201.2461
5349 17.0654 492(32) 401.3789 201.0486
5350 17.0684 441(30) 397.4166 200.8509
5351 17.0714 439(30) 395.3651 200.6532
5352 17.0744 485(31) 394.2506 200.4555
5353 17.0774 463(31) 393.3220 200.2578
5354 17.0804 438(30) 392.0883 200.0601
5355 17.0834 421(29) 390.4416 199.8625
5356 17.0864 458(31) 388.3385 199.6649
5357 17.0894 425(30) 386.2032 199.4672
5358 17.0924 431(30) 384.3752 199.2695
5359 17.0954 387(28) 383.3831 199.0718
5360 17.0984 407(29) 383.7739 198.8742
5361 17.1014 391(28) 385.9440 198.6765
5362 17.1044 365(27) 389.8949 198.4788
5363 17.1074 383(28) 395.2559 198.2811
5364 17.1104 388(28) 401.2408 198.0836
5365 17.1134 432(30) 406.8430 197.8859
5366 17.1164 406(29) 410.9619 197.6882
5367 17.1194 409(29) 412.6218 197.4905
5368 17.1224 455(30) 411.1727 197.2928
5369 17.1254 441(30) 406.4775 197.0951
5370 17.1284 457(30) 398.9551 196.8975
5371 17.1314 441(30) 389.4215 196.6999
5372 17.1344 424(29) 378.8651 196.5022
5373 17.1374 417(29) 368.2285 196.3045
5374 17.1404 422(29) 358.1808 196.1068
5375 17.1434 393(28) 349.1563 195.9092
5376 17.1464 398(29) 341.2706 195.7115
5377 17.1494 363(27) 334.4664 195.5138
5378 17.1524 401(29) 328.6724 195.3162
5379 17.1554 381(28) 323.8023 195.1186
5380 17.1584 329(26) 319.9984 194.9209
5381 17.1614 316(26) 317.4474 194.7232
5382 17.1644 298(25) 316.3326 194.5255
5383 17.1674 321(26) 316.8730 194.3278
5384 17.1704 266(23) 319.0043 194.1301
5385 17.1734 304(25) 322.8606 193.9325
5386 17.1764 333(26) 327.9774 193.7349
5387 17.1794 329(26) 333.9508 193.5372
5388 17.1824 327(26) 340.0680 193.3395
5389 17.1854 359(27) 345.5191 193.1418
5390 17.1884 350(27) 349.6173 192.9442
5391 17.1914 350(27) 351.9249 192.7465
5392 17.1944 341(26) 352.0259 192.5488
5393 17.1974 304(25) 349.8655 192.3512
5394 17.2004 366(27) 345.6902 192.1536
5395 17.2034 319(26) 339.9924 191.9559
5396 17.2064 308(25) 333.2612 191.7582
5397 17.2094 313(25) 326.1626 191.5605
5398 17.2124 292(24) 319.3555 191.3628
5399 17.2154 311(25) 313.2731 191.1651
5400 17.2184 288(24) 308.3374 190.9676
5401 17.2214 285(24) 304.8754 190.7699
5402 17.2244 279(24) 302.5688 190.5722
5403 17.2274 260(23) 301.0643 190.3745
5404 17.2304 312(25) 299.9338 190.1768
5405 17.2334 279(24) 298.7585 189.9792
5406 17.2364 308(25) 297.2024 189.7815
5407 17.2394 292(24) 295.0811 189.5838
5408 17.2424 289(24) 292.3572 189.3862
5409 17.2454 270(24) 288.9876 189.1886
5410 17.2484 227(21) 285.1116 188.9909
5411 17.2514 274(24) 280.8235 188.7932
5412 17.2544 265(23) 276.2707 188.5955
5413 17.2574 209(21) 271.6514 188.3978
5414 17.2604 261(23) 267.0350 188.2001
5415 17.2634 235(22) 262.4878 188.0026
5416 17.2664 188(20) 258.1058 187.8049
5417 17.2694 240(22) 253.7491 187.6072
5418 17.2724 209(21) 249.5645 187.4095
5419 17.2754 197(20) 245.5484 187.2119
5420 17.2784 212(21) 241.9031 187.0142
5421 17.2814 192(20) 238.7205 186.8165
5422 17.2844 183(19) 236.2964 186.6188
5423 17.2874 186(20) 234.7296 186.4212
5424 17.2904 158(18) 234.2524 186.2236
5425 17.2934 168(19) 235.0047 186.0259
5426 17.2964 149(17) 236.8903 185.8282
5427 17.2994 192(20) 239.8192 185.6305
5428 17.3024 264(23) 243.7498 185.4328
5429 17.3054 180(19) 248.5269 185.2352
5430 17.3084 179(19) 253.7489 185.0376
5431 17.3114 240(22) 259.3008 184.8399
5432 17.3144 216(21) 265.0788 184.6422
5433 17.3174 197(20) 271.1263 184.4445
5434 17.3204 240(22) 277.5175 184.2469
5435 17.3234 247(23) 284.4417 184.0492
5436 17.3264 250(23) 292.1212 183.8515
5437 17.3294 254(23) 300.6409 183.6539
5438 17.3324 277(24) 309.9526 183.4563
5439 17.3354 294(24) 319.8458 183.2586
5440 17.3384 303(25) 329.8805 183.0609
5441 17.3414 332(26) 339.4437 182.8632
5442 17.3444 362(27) 347.8529 182.6655
5443 17.3474 366(27) 354.3752 182.4678
5444 17.3504 405(29) 358.4138 182.2701
5445 17.3534 461(31) 359.5447 182.0726
5446 17.3564 422(29) 357.7143 181.8749
5447 17.3594 390(28) 353.1553 181.6772
5448 17.3624 436(30) 346.5280 181.4795
5449 17.3654 452(30) 338.6044 181.2819
5450 17.3684 354(27) 329.9411 181.0842
5451 17.3714 264(23) 321.1342 180.8865
5452 17.3744 291(24) 312.6239 180.6889
5453 17.3774 310(25) 304.7234 180.4913
5454 17.3804 286(24) 297.6432 180.2936
5455 17.3834 230(22) 291.5211 180.0959
5456 17.3864 264(23) 286.5833 179.8982
5457 17.3894 259(23) 282.8929 179.7005
5458 17.3924 224(21) 280.4637 179.5028
5459 17.3954 217(21) 279.2909 179.3053
5460 17.3984 237(22) 279.1672 179.1076
5461 17.4014 233(22) 279.8726 178.9099
5462 17.4044 247(22) 281.1203 178.7122
5463 17.4074 285(25) 282.5783 178.5145
5464 17.4104 271(24) 283.9525 178.3169
5465 17.4134 284(24) 285.1880 178.1192
5466 17.4164 305(25) 286.3046 177.9215
5467 17.4194 294(25) 287.6396 177.7239
5468 17.4224 255(23) 289.7454 177.5262
5469 17.4254 266(23) 293.3468 177.3286
5470 17.4284 253(23) 299.2682 177.1309
5471 17.4314 358(27) 308.2571 176.9332
5472 17.4344 310(25) 320.8794 176.7355
5473 17.4374 349(27) 337.3475 176.5378
5474 17.4404 357(27) 357.5355 176.3403
5475 17.4434 380(28) 380.9181 176.1426
5476 17.4464 477(31) 406.5487 175.9449
5477 17.4494 473(31) 433.1726 175.7472
5478 17.4524 587(34) 459.3474 175.5495
5479 17.4554 584(35) 483.5049 175.3519
5480 17.4584 691(38) 504.1626 175.1542
5481 17.4614 669(37) 520.1281 174.9566
5482 17.4644 713(38) 530.8036 174.7589
5483 17.4674 603(35) 536.2343 174.5612
5484 17.4704 719(38) 537.1246 174.3636
5485 17.4734 678(37) 534.5685 174.1659
5486 17.4764 603(35) 529.7264 173.9682
5487 17.4794 604(35) 523.5952 173.7705
5488 17.4824 651(36) 516.7998 173.5728
5489 17.4854 646(36) 509.6013 173.3753
5490 17.4884 620(35) 502.0007 173.1776
5491 17.4914 648(36) 493.8787 172.9799
5492 17.4944 591(35) 485.0022 172.7822
5493 17.4974 580(34) 475.1395 172.5845
5494 17.5004 615(35) 464.0358 172.3869
5495 17.5034 537(33) 451.6082 172.1892
5496 17.5064 533(33) 438.0202 171.9916
5497 17.5094 507(32) 423.7292 171.7939
5498 17.5124 458(30) 409.4634 171.5963
5499 17.5154 489(32) 396.1221 171.3986
5500 17.5184 479(31) 384.5148 171.2009
5501 17.5214 390(28) 375.2829 171.0032
5502 17.5244 417(29) 368.7806 170.8055
5503 17.5274 419(29) 364.9207 170.6080
5504 17.5304 410(29) 363.1862 170.4103
5505 17.5334 406(29) 362.7902 170.2126
5506 17.5364 399(29) 362.8638 170.0149
5507 17.5394 389(28) 362.4507 169.8172
5508 17.5424 443(30) 360.8776 169.6196
5509 17.5454 441(30) 357.6407 169.4219
5510 17.5484 456(30) 352.5449 169.2242
5511 17.5514 427(30) 345.6378 169.0266
5512 17.5544 339(26) 337.3267 168.8289
5513 17.5574 396(29) 328.0534 168.6313
5514 17.5604 338(26) 318.2760 168.4336
5515 17.5634 327(26) 308.3555 168.2359
5516 17.5664 318(26) 298.4612 168.0382
5517 17.5694 277(24) 288.6877 167.8405
5518 17.5724 247(22) 279.0413 167.6430
5519 17.5754 271(24) 269.5063 167.4453
5520 17.5784 267(23) 260.1679 167.2476
5521 17.5814 214(21) 251.2289 167.0499
5522 17.5844 183(19) 242.8867 166.8522
5523 17.5874 194(20) 235.4204 166.6546
5524 17.5904 198(20) 229.0591 166.4569
5525 17.5934 166(19) 223.9224 166.2593
5526 17.5964 200(20) 219.9859 166.0616
5527 17.5994 166(18) 217.1713 165.8640
5528 17.6024 180(19) 215.2389 165.6663
5529 17.6054 166(18) 213.9433 165.4686
5530 17.6084 160(18) 212.9410 165.2709
5531 17.6114 192(20) 211.9361 165.0732
5532 17.6144 156(18) 210.6940 164.8755
5533 17.6174 146(17) 209.0920 164.6780
5534 17.6204 163(18) 207.1200 164.4803
5535 17.6234 175(19) 204.8930 164.2826
5536 17.6264 147(17) 202.5093 164.0849
5537 17.6294 189(20) 200.7258 164.3084
5538 17.6324 149(17) 199.3793 164.7125
5539 17.6354 168(19) 198.4712 165.1165
5540 17.6384 184(19) 198.1015 165.5203
5541 17.6414 184(19) 198.2272 165.9243
5542 17.6444 196(20) 198.9038 166.3284
5543 17.6474 186(20) 200.1014 166.7324
5544 17.6504 205(20) 201.6460 167.1365
5545 17.6534 221(21) 203.4544 167.5405
5546 17.6564 211(21) 205.3524 167.9446
5547 17.6594 207(21) 207.2937 168.3486
5548 17.6624 234(22) 209.1894 168.7524
5549 17.6654 184(19) 210.9797 169.1565
5550 17.6684 185(19) 212.6456 169.5605
5551 17.6714 195(20) 214.3233 169.9646
5552 17.6744 170(19) 215.9674 170.3686
5553 17.6774 182(19) 217.5633 170.7727
5554 17.6804 201(20) 219.2542 171.1767
5555 17.6834 193(20) 221.1086 171.5805
5556 17.6864 175(19) 223.2298 171.9845
5557 17.6894 221(21) 225.6686 172.3886
5558 17.6924 227(21) 228.5203 172.7926
5559 17.6954 257(23) 231.7247 173.1967
5560 17.6984 213(21) 235.2262 173.6007
5561 17.7014 222(21) 238.8831 174.0048
5562 17.7044 240(22) 242.6061 174.4086
5563 17.7074 240(22) 246.2485 174.8126
5564 17.7104 274(24) 249.7711 175.2167
5565 17.7134 276(24) 253.1667 175.6207
5566 17.7164 299(25) 256.5324 176.0248
5567 17.7194 259(23) 259.9631 176.4288
5568 17.7224 265(23) 263.6432 176.8329
5569 17.7254 240(22) 267.5580 177.2369
5570 17.7284 248(22) 271.6563 177.6407
5571 17.7314 273(24) 275.9525 178.0447
5572 17.7344 270(23) 280.2189 178.4488
5573 17.7374 266(23) 284.3667 178.8528
5574 17.7404 333(26) 288.1391 179.2569
5575 17.7434 290(24) 291.3126 179.6609
5576 17.7464 306(25) 293.6761 180.0650
5577 17.7494 316(25) 295.0244 180.4688
5578 17.7524 333(26) 295.1405 180.8728
5579 17.7554 329(26) 294.0235 181.2769
5580 17.7584 338(26) 291.6315 181.6809
5581 17.7614 366(27) 288.1626 182.0850
5582 17.7644 333(26) 283.7960 182.4890
5583 17.7674 330(26) 278.8231 182.8931
5584 17.7704 318(26) 273.6133 183.2968
5585 17.7734 305(25) 268.5554 183.7009
5586 17.7764 294(24) 264.0442 184.1049
5587 17.7794 300(25) 260.3473 184.5090
5588 17.7824 300(25) 257.6848 184.9130
5589 17.7854 343(27) 256.2432 185.3171
5590 17.7884 294(24) 256.0779 185.7211
5591 17.7914 337(26) 257.2090 186.1252
5592 17.7944 283(24) 259.5309 186.5290
5593 17.7974 303(25) 262.8599 186.9330
5594 17.8004 354(27) 266.9507 187.3371
5595 17.8034 314(25) 271.4724 187.7411
5596 17.8064 305(25) 276.0463 188.1452
5597 17.8094 314(25) 280.3223 188.5492
5598 17.8124 340(26) 283.9540 188.9532
5599 17.8154 325(26) 286.7087 189.3570
5600 17.8184 296(25) 288.4717 189.7611
5601 17.8214 340(26) 289.2047 190.1651
5602 17.8244 317(25) 288.9724 190.5692
5603 17.8274 302(25) 287.9196 190.9732
5604 17.8304 330(26) 286.2275 191.3773
5605 17.8334 280(24) 284.0670 191.7813
5606 17.8364 299(25) 281.6012 192.1851
5607 17.8394 245(22) 278.9904 192.5892
5608 17.8424 285(24) 276.3648 192.9932
5609 17.8454 211(21) 273.7900 193.3973
5610 17.8484 221(21) 271.3182 193.8013
5611 17.8514 231(22) 268.9614 194.2054
5612 17.8544 208(21) 266.7402 194.6094
5613 17.8574 240(22) 264.6683 195.0135
5614 17.8604 234(22) 262.8403 195.4172
5615 17.8634 252(23) 261.3014 195.8213
5616 17.8664 209(21) 260.1099 196.2253
5617 17.8694 231(22) 259.2565 196.6294
5618 17.8724 215(21) 258.7354 197.0334
5619 17.8754 191(20) 258.4567 197.4375
5620 17.8784 239(22) 257.7738 197.1804
5621 17.8814 225(21) 256.9857 196.6836
5622 17.8844 191(20) 256.3055 196.1865
5623 17.8874 200(20) 255.6450 195.6894
5624 17.8904 213(21) 255.0026 195.1923
5625 17.8934 194(20) 254.3724 194.6951
5626 17.8964 199(20) 253.7562 194.1980
5627 17.8994 261(23) 253.2633 193.7009
5628 17.9024 207(21) 252.9789 193.2041
5629 17.9054 219(21) 253.0186 192.7070
5630 17.9084 285(24) 253.4872 192.2099
5631 17.9114 194(20) 254.5194 191.7128
5632 17.9144 230(22) 256.2124 191.2157
5633 17.9174 231(22) 258.6746 190.7185
5634 17.9204 261(23) 261.9413 190.2214
5635 17.9234 221(21) 266.0388 189.7243
5636 17.9264 227(22) 270.8697 189.2275
5637 17.9294 203(20) 276.3352 188.7304
5638 17.9324 244(22) 282.2059 188.2333
5639 17.9354 271(24) 288.1870 187.7362
5640 17.9384 248(23) 293.9886 187.2390
5641 17.9414 256(23) 299.2284 186.7419
5642 17.9444 291(24) 303.5403 186.2448
5643 17.9474 294(25) 306.5988 185.7480
5644 17.9504 280(24) 308.1060 185.2509
5645 17.9534 347(27) 307.9851 184.7538
5646 17.9564 331(26) 306.2720 184.2567
5647 17.9594 323(26) 303.1478 183.7596
5648 17.9624 337(26) 298.8807 183.2624
5649 17.9654 309(25) 293.8137 182.7653
5650 17.9684 397(28) 288.3538 182.2685
5651 17.9714 366(27) 282.8783 181.7714
5652 17.9744 342(26) 277.7689 181.2743
5653 17.9774 264(23) 273.3277 180.7772
5654 17.9804 326(26) 269.8136 180.2801
5655 17.9834 278(24) 267.3994 179.7829
5656 17.9864 301(25) 266.1313 179.2858
5657 17.9894 274(24) 265.9817 178.7887
5658 17.9924 274(24) 266.7707 178.2919
5659 17.9954 298(25) 268.2943 177.7948
5660 17.9984 276(24) 270.2570 177.2977
5661 18.0014 244(22) 272.4671 176.8006
5662 18.0044 249(22) 274.7304 176.3035
5663 18.0074 288(24) 276.9326 175.8063
5664 18.0104 243(22) 279.1402 175.3092
5665 18.0134 255(23) 281.4036 174.8124
5666 18.0164 234(22) 283.8258 174.3153
5667 18.0194 228(22) 286.4890 173.8182
5668 18.0224 257(23) 289.4134 173.3211
5669 18.0254 202(20) 292.5552 172.8240
5670 18.0284 235(22) 295.8245 172.3268
5671 18.0314 238(22) 299.1444 171.8297
5672 18.0344 254(23) 302.4020 171.3326
5673 18.0374 266(23) 305.5407 170.8358
5674 18.0404 312(25) 308.5233 170.3387
5675 18.0434 304(25) 311.2628 169.8416
5676 18.0464 297(25) 313.6836 169.3445
5677 18.0494 350(27) 315.6372 168.8474
5678 18.0524 307(25) 316.8905 168.3502
5679 18.0554 304(25) 317.1699 167.8531
5680 18.0584 290(24) 316.2495 167.3563
5681 18.0614 338(26) 313.8681 166.8592
5682 18.0644 235(22) 310.0021 166.3621
5683 18.0674 331(26) 304.7269 165.8650
5684 18.0704 292(24) 298.1782 165.3679
5685 18.0734 281(24) 290.6564 164.8707
5686 18.0764 278(24) 282.4685 164.3736
5687 18.0794 261(23) 273.9752 163.8768
5688 18.0824 256(23) 265.4886 163.3797
5689 18.0854 269(24) 257.3250 162.8826
5690 18.0884 270(23) 249.7397 162.3855
5691 18.0914 255(23) 242.9341 161.8884
5692 18.0944 267(23) 236.9905 161.3913
5693 18.0974 245(22) 231.9203 160.8941
5694 18.1004 245(22) 227.7015 160.3970
5695 18.1034 222(21) 224.2412 159.9002
5696 18.1064 244(22) 221.4398 159.4031
5697 18.1094 236(22) 219.1903 158.9060
5698 18.1124 238(22) 217.3682 158.4089
5699 18.1154 223(21) 215.8272 157.9118
5700 18.1184 235(22) 214.4657 157.4146
5701 18.1214 193(20) 213.1791 156.9175
5702 18.1244 215(21) 211.9145 156.4207
5703 18.1274 187(20) 210.5886 155.9236
5704 18.1304 202(20) 209.1557 155.4265
5705 18.1334 221(21) 207.5531 154.9294
5706 18.1364 235(22) 205.8021 154.4323
5707 18.1394 217(21) 203.9463 153.9352
5708 18.1424 225(21) 202.0586 153.4380
5709 18.1454 182(19) 200.2359 152.9412
5710 18.1484 210(21) 198.5083 152.4441
5711 18.1514 193(20) 196.9986 151.9470
5712 18.1544 188(20) 195.5879 151.4499
5713 18.1574 178(19) 194.2458 150.9528
5714 18.1604 177(19) 192.8913 150.4557
5715 18.1634 185(19) 191.4363 149.9585
5716 18.1664 157(18) 189.8743 149.4614
5717 18.1694 184(19) 188.2036 148.9646
5718 18.1724 174(19) 186.4578 148.4675
5719 18.1754 172(19) 184.7441 147.9704
5720 18.1784 178(19) 183.5484 147.8719
5721 18.1814 179(19) 182.8086 147.9725
5722 18.1844 163(18) 182.3816 148.0732
5723 18.1874 173(19) 182.3736 148.1738
5724 18.1904 175(19) 182.8524 148.2744
5725 18.1934 181(19) 183.8470 148.3750
5726 18.1964 213(21) 185.4432 148.4756
5727 18.1994 189(20) 187.6390 148.5762
5728 18.2024 193(20) 190.4572 148.6769
5729 18.2054 226(22) 193.8765 148.7775
5730 18.2084 174(19) 197.8556 148.8781
5731 18.2114 200(20) 202.3553 148.9787
5732 18.2144 234(22) 207.2599 149.0793
5733 18.2174 204(20) 212.4653 149.1800
5734 18.2204 230(22) 217.7874 149.2806
5735 18.2234 201(20) 223.0044 149.3812
5736 18.2264 196(20) 227.9162 149.4819
5737 18.2294 203(20) 232.2333 149.5825
5738 18.2324 240(22) 235.7946 149.6831
5739 18.2354 241(22) 238.4436 149.7837
5740 18.2384 183(19) 240.0800 149.8843
5741 18.2414 247(23) 240.6001 149.9850
5742 18.2444 216(21) 239.9288 150.0856
5743 18.2474 228(22) 238.0338 150.1862
5744 18.2504 267(23) 235.0483 150.2868
5745 18.2534 203(20) 231.0972 150.3875
5746 18.2564 250(23) 226.5029 150.4880
5747 18.2594 197(20) 221.5897 150.5887
5748 18.2624 190(20) 216.7353 150.6893
5749 18.2654 223(21) 212.2314 150.7899
5750 18.2684 187(20) 208.3586 150.8906
5751 18.2714 219(21) 205.3225 150.9912
5752 18.2744 202(20) 203.1961 151.0918
5753 18.2774 199(20) 201.9884 151.1924
5754 18.2804 177(19) 201.6050 151.2930
5755 18.2834 190(20) 201.9342 151.3936
5756 18.2864 201(20) 202.8091 151.4943
5757 18.2894 170(19) 204.1162 151.5949
5758 18.2924 220(21) 205.7667 151.6955
5759 18.2954 168(19) 207.7322 151.7962
5760 18.2984 220(21) 210.0394 151.8968
5761 18.3014 217(21) 212.7237 151.9974
5762 18.3044 188(20) 215.8595 152.0980
5763 18.3074 168(19) 219.5058 152.1986
5764 18.3104 169(19) 223.6943 152.2993
5765 18.3134 206(21) 228.4266 152.3999
5766 18.3164 207(20) 233.6204 152.5005
5767 18.3194 262(23) 239.1526 152.6012
5768 18.3224 227(22) 244.7406 152.7017
5769 18.3254 273(24) 250.1292 152.8024
5770 18.3284 242(22) 255.0422 152.9030
5771 18.3314 264(23) 259.1405 153.0036
5772 18.3344 273(24) 262.1397 153.1042
5773 18.3374 298(25) 263.7960 153.2049
5774 18.3404 268(23) 263.9945 153.3055
5775 18.3434 290(24) 262.7483 153.4061
5776 18.3464 282(24) 260.3153 153.5067
5777 18.3494 248(23) 257.0151 153.6073
5778 18.3524 232(22) 253.2890 153.7080
5779 18.3554 221(21) 249.5584 153.8086
5780 18.3584 248(23) 246.1395 153.9092
5781 18.3614 251(23) 243.2926 154.0099
5782 18.3644 270(23) 241.1322 154.1105
5783 18.3674 237(22) 239.6986 154.2110
5784 18.3704 273(24) 238.9360 154.3117
5785 18.3734 210(21) 238.7649 154.4123
5786 18.3764 273(24) 239.0476 154.5129
5787 18.3794 208(21) 239.6806 154.6136
5788 18.3824 232(22) 240.5863 154.7142
5789 18.3854 251(23) 241.7207 154.8148
5790 18.3884 255(23) 243.0569 154.9154
5791 18.3914 268(23) 244.5623 155.0160
5792 18.3944 211(21) 246.2039 155.1167
5793 18.3974 241(22) 247.9047 155.2173
5794 18.4004 232(22) 249.5450 155.3179
5795 18.4034 231(22) 250.9845 155.4185
5796 18.4064 245(22) 252.0789 155.5192
5797 18.4094 241(22) 252.6369 155.6198
5798 18.4124 226(21) 252.5272 155.7204
5799 18.4154 219(21) 251.6427 155.8210
5800 18.4184 242(22) 249.9311 155.9216
5801 18.4214 245(22) 247.5221 156.0223
5802 18.4244 207(20) 244.4947 156.1229
5803 18.4274 229(21) 241.0633 156.2235
5804 18.4304 204(20) 237.4954 156.3242
5805 18.4334 211(21) 234.0016 156.4247
5806 18.4364 220(21) 230.7798 156.5254
5807 18.4394 201(20) 227.9978 156.6260
5808 18.4424 192(20) 225.7095 156.7266
5809 18.4454 192(20) 223.8640 156.8273
5810 18.4484 204(20) 222.4215 156.9279
5811 18.4514 195(20) 221.2347 157.0285
5812 18.4544 235(22) 220.1818 157.1291
5813 18.4574 204(20) 219.1443 157.2297
5814 18.4604 242(22) 218.0647 157.3303
5815 18.4634 217(21) 216.8996 157.4310
5816 18.4664 217(21) 215.7316 157.5316
5817 18.4694 225(22) 214.6650 157.6322
5818 18.4724 197(20) 213.8739 157.7329
5819 18.4754 210(21) 213.5327 157.8335
5820 18.4784 198(20) 213.8767 157.9341
5821 18.4814 189(20) 215.0182 158.0347
5822 18.4844 215(21) 217.0642 158.1353
5823 18.4874 215(21) 220.0277 158.2359
5824 18.4904 188(20) 223.8096 158.3366
5825 18.4934 221(21) 228.2812 158.4372
5826 18.4964 183(19) 233.2195 158.5378
5827 18.4994 218(21) 238.3798 158.6384
5828 18.5024 261(23) 243.5592 158.7390
5829 18.5054 282(24) 248.5359 158.8397
5830 18.5084 245(22) 253.0824 158.9403
5831 18.5114 234(22) 256.9814 159.0409
5832 18.5144 258(23) 260.0762 159.1416
5833 18.5174 282(24) 262.2561 159.2422
5834 18.5204 297(25) 263.5010 159.3428
5835 18.5234 267(23) 263.8720 159.4434
5836 18.5264 331(26) 263.4899 159.5440
5837 18.5294 308(25) 262.5758 159.6447
5838 18.5324 279(24) 261.2247 159.7453
5839 18.5354 265(23) 259.7765 159.8459
5840 18.5384 216(21) 258.3937 159.9465
5841 18.5414 248(23) 257.2667 160.0472
5842 18.5444 215(21) 256.5542 160.1477
5843 18.5474 204(20) 256.3605 160.2484
5844 18.5504 194(20) 256.7142 160.3490
5845 18.5534 185(20) 257.5718 160.4496
5846 18.5564 218(21) 258.8488 160.5503
5847 18.5594 231(22) 260.4312 160.6509
5848 18.5624 187(20) 262.1756 160.7515
5849 18.5654 219(21) 263.9142 160.8521
5850 18.5684 210(21) 265.5437 160.9527
5851 18.5714 219(21) 266.9438 161.0533
5852 18.5744 272(24) 268.0364 161.1540
5853 18.5774 263(23) 268.7867 161.2546
5854 18.5804 232(22) 269.1733 161.3552
5855 18.5834 214(21) 269.1912 161.4559
5856 18.5864 250(23) 268.8934 161.5564
5857 18.5894 232(22) 268.3722 161.6571
5858 18.5924 254(23) 267.7470 161.7577
5859 18.5954 259(23) 267.2161 161.8583
5860 18.5984 255(23) 266.9861 161.9590
5861 18.6014 298(25) 267.2448 162.0596
5862 18.6044 265(23) 268.1788 162.1602
5863 18.6074 307(25) 269.8220 162.2608
5864 18.6104 288(24) 272.1107 162.3614
5865 18.6134 309(25) 274.9427 162.4621
5866 18.6164 345(26) 278.0362 162.5627
5867 18.6194 350(27) 281.0897 162.6633
5868 18.6224 403(29) 283.8083 162.7639
5869 18.6254 359(27) 285.8823 162.8646
5870 18.6284 367(27) 287.0561 162.9652
5871 18.6314 362(27) 287.1724 163.0658
5872 18.6344 415(29) 286.1624 163.1664
5873 18.6374 318(26) 284.0932 163.2670
5874 18.6404 310(25) 281.1593 163.3677
5875 18.6434 376(28) 277.5961 163.4683
5876 18.6464 376(28) 273.7604 163.5689
5877 18.6494 318(26) 270.0059 163.6696
5878 18.6524 328(26) 266.6301 163.7701
5879 18.6554 321(26) 263.8925 163.8707
5880 18.6584 301(25) 261.9759 163.9714
5881 18.6614 273(24) 260.9539 164.0720
5882 18.6644 259(23) 260.7746 164.1726
5883 18.6674 248(23) 261.3389 164.2733
5884 18.6704 267(23) 262.3828 164.3739
5885 18.6734 237(22) 263.6400 164.4745
5886 18.6764 263(23) 264.7692 164.5751
5887 18.6794 271(24) 265.5004 164.6757
5888 18.6824 289(24) 265.6232 164.7764
5889 18.6854 264(23) 264.9864 164.8770
5890 18.6884 274(24) 263.5824 164.9776
5891 18.6914 238(22) 261.4739 165.0782
5892 18.6944 260(23) 258.8976 165.1789
5893 18.6974 200(20) 256.0923 165.2794
5894 18.7004 235(22) 253.2755 165.3801
5895 18.7034 226(22) 250.6469 165.4807
5896 18.7064 221(21) 248.3421 165.5813
5897 18.7094 222(21) 246.4119 165.6820
5898 18.7124 260(23) 244.7813 165.7826
5899 18.7154 186(20) 243.3729 165.8832
5900 18.7184 233(22) 242.0879 165.9838
5901 18.7214 210(21) 240.8036 166.0844
5902 18.7244 234(22) 239.4775 166.1851
5903 18.7274 201(20) 238.0754 166.2857
5904 18.7304 203(20) 236.6991 166.3863
5905 18.7334 212(21) 235.3928 166.4870
5906 18.7364 174(19) 234.2769 166.5876
5907 18.7394 212(21) 233.3819 166.6882
5908 18.7424 183(19) 232.5908 166.6300
5909 18.7454 190(20) 231.9497 166.5321
5910 18.7484 187(20) 231.5021 166.4342
5911 18.7514 187(20) 231.1868 166.3363
5912 18.7544 206(21) 230.9941 166.2384
5913 18.7574 212(21) 230.9342 166.1404
5914 18.7604 166(18) 231.0234 166.0425
5915 18.7634 196(20) 231.3343 165.9447
5916 18.7664 223(21) 231.9302 165.8468
5917 18.7694 203(20) 232.8354 165.7489
5918 18.7724 180(19) 234.0049 165.6510
5919 18.7754 228(22) 235.3874 165.5531
5920 18.7784 172(19) 236.9093 165.4551
5921 18.7814 235(22) 238.4169 165.3572
5922 18.7844 201(20) 239.8036 165.2593
5923 18.7874 199(20) 240.8719 165.1615
5924 18.7904 233(22) 241.5159 165.0636
5925 18.7934 236(22) 241.6009 164.9657
5926 18.7964 249(23) 241.1071 164.8678
5927 18.7994 247(22) 240.0412 164.7698
5928 18.8024 251(23) 238.4718 164.6719
5929 18.8054 284(24) 236.5316 164.5740
5930 18.8084 302(25) 234.3927 164.4762
5931 18.8114 279(24) 232.2599 164.3783
5932 18.8144 304(25) 230.3699 164.2803
5933 18.8174 269(24) 228.9017 164.1824
5934 18.8204 249(22) 228.0514 164.0845
5935 18.8234 250(23) 227.9161 163.9866
5936 18.8264 234(22) 228.6527 163.8887
5937 18.8294 206(21) 230.2673 163.7909
5938 18.8324 252(23) 232.8044 163.6930
5939 18.8354 211(21) 236.2645 163.5950
5940 18.8384 278(24) 240.5908 163.4971
5941 18.8414 268(23) 245.7182 163.3992
5942 18.8444 222(21) 251.4943 163.3013
5943 18.8474 262(23) 257.7194 163.2034
5944 18.8504 261(23) 264.1107 163.1055
5945 18.8534 227(22) 270.3119 163.0077
5946 18.8564 260(23) 275.8926 162.9097
5947 18.8594 333(26) 280.4210 162.8118
5948 18.8624 283(24) 283.5071 162.7139
5949 18.8654 302(25) 284.8443 162.6160
5950 18.8684 291(24) 284.3084 162.5181
5951 18.8714 291(24) 281.9909 162.4202
5952 18.8744 284(24) 278.1949 162.3223
5953 18.8774 299(25) 273.3373 162.2244
5954 18.8804 270(23) 267.9283 162.1265
5955 18.8834 281(24) 262.4676 162.0286
5956 18.8864 292(24) 257.4253 161.9307
5957 18.8894 254(23) 253.1738 161.8328
5958 18.8924 238(22) 249.9615 161.7349
5959 18.8954 219(21) 247.9292 161.6370
5960 18.8984 276(24) 247.1249 161.5391
5961 18.9014 268(23) 247.5168 161.4412
5962 18.9044 271(23) 248.9927 161.3433
5963 18.9074 256(23) 251.3766 161.2454
5964 18.9104 295(25) 254.4790 161.1475
5965 18.9134 330(26) 258.0825 161.0496
5966 18.9164 273(24) 262.0019 160.9517
5967 18.9194 281(24) 266.0235 160.8538
5968 18.9224 268(23) 270.0073 160.7559
5969 18.9254 291(24) 273.8184 160.6580
5970 18.9284 260(23) 277.3251 160.5601
5971 18.9314 274(24) 280.3851 160.4622
5972 18.9344 276(24) 282.8734 160.3643
5973 18.9374 294(25) 284.6738 160.2664
5974 18.9404 253(23) 285.6770 160.1685
5975 18.9434 267(23) 285.8262 160.0706
5976 18.9464 231(22) 285.1194 159.9727
5977 18.9494 256(23) 283.5854 159.8748
5978 18.9524 286(24) 281.2894 159.7769
5979 18.9554 282(24) 278.3366 159.6790
5980 18.9584 247(24) 274.7581 159.5811
5981 18.9614 252(23) 270.6576 159.4832
5982 18.9644 259(23) 266.0850 159.3853
5983 18.9674 273(24) 261.1430 159.2874
5984 18.9704 258(23) 255.9391 159.1895
5985 18.9734 242(22) 250.5738 159.0916
5986 18.9764 239(22) 245.1253 158.9937
5987 18.9794 222(21) 239.6433 158.8958
5988 18.9824 179(19) 234.1628 158.7979
5989 18.9854 223(21) 228.7472 158.7000
5990 18.9884 177(19) 223.4821 158.6021
5991 18.9914 198(20) 218.4707 158.5042
5992 18.9944 171(19) 213.8416 158.4063
5993 18.9974 178(19) 209.6810 158.3084
5994 19.0004 225(21) 206.0823 158.2105
5995 19.0034 197(20) 203.0709 158.1125
5996 19.0064 196(20) 200.6012 158.0147
5997 19.0094 222(21) 198.6140 157.9168
5998 19.0124 159(18) 197.0160 157.8189
5999 19.0154 202(20) 195.6976 157.7210
6000 19.0184 162(18) 194.5653 157.6231
6001 19.0214 201(20) 193.5495 157.5251
6002 19.0244 232(22) 192.5999 157.4272
6003 19.0274 219(21) 191.6849 157.3294
6004 19.0304 189(20) 190.8181 157.2315
6005 19.0334 216(21) 190.0120 157.1336
6006 19.0364 182(19) 189.3286 157.0357
6007 19.0394 198(20) 188.7829 156.9378
6008 19.0424 197(20) 188.4076 156.8398
6009 19.0454 219(21) 188.2157 156.7419
6010 19.0484 194(20) 188.2004 156.6440
6011 19.0514 251(23) 188.3469 156.5462
6012 19.0544 181(19) 188.6200 156.4483
6013 19.0574 192(20) 189.0117 156.3504
6014 19.0604 193(20) 189.4771 156.2525
6015 19.0634 252(23) 190.0432 156.1545
6016 19.0664 209(21) 190.7154 156.0566
6017 19.0694 213(21) 191.5422 155.9587
6018 19.0724 200(20) 192.5352 155.8609
6019 19.0754 228(22) 193.7315 155.7630
6020 19.0784 200(20) 195.1262 155.6651
6021 19.0814 165(18) 196.7081 155.5672
6022 19.0844 185(19) 198.4484 155.4692
6023 19.0874 152(18) 200.3061 155.3713
6024 19.0904 170(19) 202.2725 155.2734
6025 19.0934 143(17) 204.2909 155.1756
6026 19.0964 156(18) 206.3795 155.0777
6027 19.0994 155(18) 208.5604 155.0167
6028 19.1024 160(18) 210.9095 155.1037
6029 19.1054 167(19) 213.2437 155.1908
6030 19.1084 143(17) 215.4808 155.2778
6031 19.1114 142(17) 217.5488 155.3649
6032 19.1144 169(19) 219.3621 155.4519
6033 19.1174 135(17) 220.8630 155.5389
6034 19.1204 145(17) 222.0252 155.6260
6035 19.1234 155(18) 222.8557 155.7130
6036 19.1264 162(18) 223.3898 155.8001
6037 19.1294 181(19) 223.7057 155.8871
6038 19.1324 149(17) 223.9010 155.9742
6039 19.1354 148(17) 224.0652 156.0612
6040 19.1384 207(21) 224.2141 156.1482
6041 19.1414 187(20) 224.4547 156.2353
6042 19.1444 170(19) 224.7284 156.3223
6043 19.1474 194(20) 225.0309 156.4094
6044 19.1504 227(21) 225.2200 156.4964
6045 19.1534 218(21) 225.1848 156.5835
6046 19.1564 217(21) 224.8185 156.6705
6047 19.1594 210(21) 224.0612 156.7576
6048 19.1624 259(23) 222.8652 156.8446
6049 19.1654 180(19) 221.2555 156.9316
6050 19.1684 187(19) 219.2684 157.0187
6051 19.1714 170(19) 217.0108 157.1057
6052 19.1744 216(21) 214.5819 157.1928
6053 19.1774 186(20) 212.1090 157.2798
6054 19.1804 195(20) 209.7021 157.3669
6055 19.1834 261(23) 207.4725 157.4539
6056 19.1864 201(20) 205.5193 157.5409
6057 19.1894 212(21) 203.9174 157.6280
6058 19.1924 208(21) 202.6842 157.7150
6059 19.1954 182(19) 201.7975 157.8021
6060 19.1984 185(19) 201.2361 157.8891
6061 19.2014 215(21) 200.9634 157.9762
6062 19.2044 165(18) 200.8944 158.0632
6063 19.2074 192(20) 200.9658 158.1502
6064 19.2104 163(18) 201.1176 158.2373
6065 19.2134 225(22) 201.2906 158.3243
6066 19.2164 196(20) 201.4330 158.4114
6067 19.2194 208(21) 201.5172 158.4984
6068 19.2224 211(21) 201.5154 158.5855
6069 19.2254 195(20) 201.4049 158.6725
6070 19.2284 193(20) 201.2075 158.7595
6071 19.2314 235(22) 200.9258 158.8466
6072 19.2344 239(22) 200.5706 158.9336
6073 19.2374 216(21) 200.1586 159.0207
6074 19.2404 211(21) 199.6958 159.1077
6075 19.2434 233(22) 199.2108 159.1948
6076 19.2464 174(19) 198.6889 159.2818
6077 19.2494 180(19) 198.1736 159.3688
6078 19.2524 212(21) 197.7088 159.4559
6079 19.2554 217(21) 197.3593 159.5429
6080 19.2584 178(19) 197.2104 159.6300
6081 19.2614 184(19) 197.3401 159.7170
6082 19.2644 213(21) 197.8396 159.8041
6083 19.2674 199(20) 198.7809 159.8911
6084 19.2704 195(20) 200.2176 159.9781
6085 19.2734 212(21) 202.1409 160.0652
6086 19.2764 232(22) 204.5206 160.1522
6087 19.2794 230(22) 207.2751 160.2393
6088 19.2824 253(23) 210.2984 160.3263
6089 19.2854 251(23) 213.4638 160.4134
6090 19.2884 269(23) 216.6713 160.5004
6091 19.2914 223(21) 219.8295 160.5875
6092 19.2944 248(23) 222.9421 160.6745
6093 19.2974 220(21) 226.0424 160.7615
6094 19.3004 263(23) 229.2437 160.8486
6095 19.3034 246(22) 232.6153 160.9356
6096 19.3064 223(21) 236.2817 161.0227
6097 19.3094 235(22) 240.3174 161.1097
6098 19.3124 260(23) 244.7397 161.1968
6099 19.3154 261(23) 249.4937 161.2838
6100 19.3184 220(21) 254.4854 161.3708
6101 19.3214 301(25) 259.5341 161.4579
6102 19.3244 274(24) 264.4163 161.5449
6103 19.3274 323(26) 268.9034 161.6320
6104 19.3304 304(25) 272.7963 161.7190
6105 19.3334 271(24) 275.9188 161.8061
6106 19.3364 305(25) 278.1599 161.8931
6107 19.3394 317(25) 279.4625 161.9801
6108 19.3424 314(25) 279.8311 162.0672
6109 19.3454 336(26) 279.3230 162.1542
6110 19.3484 382(28) 278.0145 162.2413
6111 19.3514 302(25) 276.0157 162.3283
6112 19.3544 312(25) 273.4418 162.4154
6113 19.3574 343(27) 270.4215 162.5024
6114 19.3604 315(25) 267.0565 162.5894
6115 19.3634 332(26) 263.4678 162.6765
6116 19.3664 295(25) 259.7552 162.7635
6117 19.3694 324(26) 256.0389 162.8506
6118 19.3724 291(24) 252.4699 162.9376
6119 19.3754 309(25) 249.2154 163.0247
6120 19.3784 247(22) 246.4113 163.1117
6121 19.3814 251(23) 244.1760 163.1987
6122 19.3844 249(22) 242.4914 163.2858
6123 19.3874 224(21) 241.3253 163.3728
6124 19.3904 262(23) 240.5712 163.4599
6125 19.3934 257(23) 240.0740 163.5469
6126 19.3964 307(25) 239.6798 163.6340
6127 19.3994 208(21) 239.2608 163.7210
6128 19.4024 209(21) 238.7214 163.8080
6129 19.4054 248(23) 238.0313 163.8951
6130 19.4084 263(23) 237.1956 163.9821
6131 19.4114 247(22) 236.3027 164.0692
6132 19.4144 210(21) 235.4625 164.1562
6133 19.4174 212(21) 234.7857 164.2433
6134 19.4204 269(23) 234.3813 164.3303
6135 19.4234 237(22) 234.3134 164.4174
6136 19.4264 208(21) 234.6237 164.5044
6137 19.4294 179(19) 235.3123 164.5914
6138 19.4324 205(20) 236.3481 164.6785
6139 19.4354 226(21) 237.6903 164.7655
6140 19.4384 204(20) 239.2550 164.8526
6141 19.4414 204(21) 240.9535 164.9397
6142 19.4444 212(21) 242.7078 165.0267
6143 19.4474 222(21) 244.4513 165.1137
6144 19.4504 253(23) 246.1464 165.2007
6145 19.4534 224(22) 247.7462 165.2878
6146 19.4564 189(20) 249.2231 165.3748
6147 19.4594 248(23) 250.5689 165.4619
6148 19.4624 249(23) 251.7722 165.5490
6149 19.4654 264(23) 252.8399 165.6360
6150 19.4684 237(22) 253.7948 165.7230
6151 19.4714 226(22) 254.6797 165.8100
6152 19.4744 235(22) 255.5531 165.8971
6153 19.4774 255(23) 256.4313 165.9841
6154 19.4804 194(20) 257.3349 166.0712
6155 19.4834 233(22) 258.2207 166.1582
6156 19.4864 211(21) 259.0353 166.2453
6157 19.4894 208(21) 259.6508 166.3324
6158 19.4924 200(20) 259.9621 166.4193
6159 19.4954 170(19) 259.7576 166.5064
6160 19.4984 205(21) 258.9643 166.5934
6161 19.5014 227(22) 257.4569 166.6805
6162 19.5044 208(21) 255.1865 166.7675
6163 19.5074 241(22) 252.2095 166.8546
6164 19.5104 230(22) 248.6850 166.9417
6165 19.5134 240(22) 244.8077 167.0286
6166 19.5164 243(22) 240.8267 167.1157
6167 19.5194 230(22) 237.0106 167.2027
6168 19.5224 229(22) 233.6226 167.2898
6169 19.5254 239(22) 230.8088 167.3768
6170 19.5284 224(21) 228.7213 167.4639
6171 19.5314 229(22) 227.4395 167.5509
6172 19.5344 212(21) 226.9070 167.6380
6173 19.5374 184(20) 227.0509 167.7250
6174 19.5404 218(21) 227.7251 167.8120
6175 19.5434 241(22) 228.8185 167.8991
6176 19.5464 258(23) 230.1899 167.9861
6177 19.5494 222(21) 231.7212 168.0732
6178 19.5524 238(22) 233.3195 168.1602
6179 19.5554 237(22) 234.9755 168.2473
6180 19.5584 231(22) 236.6434 168.3343
6181 19.5614 216(21) 238.3447 168.4213
6182 19.5644 210(21) 240.1102 168.5084
6183 19.5674 199(20) 241.9574 168.5954
6184 19.5704 252(23) 243.9061 168.6825
6185 19.5734 258(23) 245.8901 168.7695
6186 19.5764 220(21) 247.9059 168.8566
6187 19.5794 263(23) 249.8640 168.9436
6188 19.5824 221(21) 251.6895 169.0307
6189 19.5854 267(24) 253.3099 169.1177
6190 19.5884 258(23) 254.7277 169.2047
6191 19.5914 195(20) 255.9694 169.2918
6192 19.5944 311(25) 257.0848 169.3788
6193 19.5974 285(24) 258.1538 169.4659
6194 19.6004 287(24) 259.2203 169.5529
6195 19.6034 300(25) 260.3361 169.6400
6196 19.6064 322(26) 261.4599 169.7270
6197 19.6094 263(23) 262.6095 169.8141
6198 19.6124 262(23) 263.7318 169.9011
6199 19.6154 296(25) 264.8244 169.9882
6200 19.6184 275(24) 265.8328 170.0752
6201 19.6214 267(23) 266.7556 170.1623
6202 19.6244 263(23) 267.5933 170.2493
6203 19.6274 320(26) 268.3625 170.3363
6204 19.6304 303(25) 269.0846 170.4234
6205 19.6334 287(24) 269.7823 170.5104
6206 19.6364 293(24) 270.4577 170.5975
6207 19.6394 272(24) 271.1258 170.6845
6208 19.6424 250(23) 271.7972 170.7716
6209 19.6454 231(22) 272.5247 170.8586
6210 19.6484 258(23) 273.4108 170.9456
6211 19.6514 265(23) 274.6141 171.0327
6212 19.6544 270(23) 276.3135 171.1197
6213 19.6574 321(26) 278.7092 171.2068
6214 19.6604 250(23) 282.0047 171.2938
6215 19.6634 314(25) 286.3854 171.3809
6216 19.6664 298(25) 291.9834 171.4679
6217 19.6694 240(22) 298.8604 171.5549
6218 19.6724 311(25) 306.9754 171.6420
6219 19.6754 356(27) 316.1635 171.7290
6220 19.6784 323(26) 326.1176 171.8161
6221 19.6814 378(28) 336.4676 171.9031
6222 19.6844 412(29) 346.7571 171.9902
6223 19.6874 418(29) 356.5521 172.0772
6224 19.6904 362(27) 365.4364 172.1642
6225 19.6934 449(30) 373.1089 172.2513
6226 19.6964 435(30) 379.3560 172.3383
6227 19.6994 503(32) 384.1403 172.4254
6228 19.7024 418(29) 387.5286 172.5124
6229 19.7054 432(30) 389.7398 172.5995
6230 19.7084 432(30) 391.0129 172.6865
6231 19.7114 426(29) 391.6348 172.7735
6232 19.7144 392(28) 391.8358 172.8605
6233 19.7174 445(30) 391.7924 172.9476
6234 19.7204 421(29) 391.6419 173.0347
6235 19.7234 473(31) 391.4817 173.1217
6236 19.7264 481(31) 391.3814 173.2088
6237 19.7294 470(31) 391.3907 173.2958
6238 19.7324 459(31) 391.5149 173.3829
6239 19.7354 531(33) 391.7488 173.4698
6240 19.7384 493(32) 392.0361 173.5569
6241 19.7414 491(32) 392.2610 173.6440
6242 19.7444 444(30) 392.2698 173.7310
6243 19.7474 473(31) 391.8554 173.8181
6244 19.7504 461(31) 390.7832 173.9051
6245 19.7534 469(31) 388.8003 173.9922
6246 19.7564 454(30) 385.6561 174.0792
6247 19.7594 525(33) 381.1575 174.1662
6248 19.7624 539(33) 375.1828 174.2533
6249 19.7654 508(32) 367.7404 174.3403
6250 19.7684 488(31) 358.9761 174.4274
6251 19.7714 457(31) 349.0873 174.5144
6252 19.7744 448(30) 338.3471 174.6015
6253 19.7774 422(29) 327.0760 174.6885
6254 19.7804 376(28) 315.5729 174.7755
6255 19.7834 358(27) 304.1712 174.8626
6256 19.7864 315(25) 293.1613 174.9496
6257 19.7894 322(26) 282.8323 175.0367
6258 19.7924 345(26) 273.3819 175.1237
6259 19.7954 260(23) 264.9919 175.2108
6260 19.7984 234(22) 257.7272 175.2978
6261 19.8014 266(23) 251.5923 175.3848
6262 19.8044 235(22) 246.5167 175.4719
6263 19.8074 241(22) 242.3525 175.5589
6264 19.8104 251(23) 238.9496 175.6460
6265 19.8134 217(21) 236.1587 175.7330
6266 19.8164 244(22) 233.8455 175.8201
6267 19.8194 226(22) 231.9076 175.9071
6268 19.8224 225(21) 230.2905 175.9941
6269 19.8254 207(21) 228.9236 176.0812
6270 19.8284 209(21) 227.8014 176.1682
6271 19.8314 216(21) 226.8763 176.2553
6272 19.8344 230(22) 226.1089 176.3423
6273 19.8374 207(21) 225.4243 176.4294
6274 19.8404 232(22) 224.7542 176.5164
6275 19.8434 200(20) 224.0088 176.6034
6276 19.8464 219(21) 223.0984 176.6905
6277 19.8494 176(19) 222.0182 176.7775
6278 19.8524 216(21) 220.7217 176.8646
6279 19.8554 247(23) 219.2827 176.9516
6280 19.8584 194(20) 217.7549 177.0387
6281 19.8614 151(18) 216.2157 177.1257
6282 19.8644 178(19) 214.7519 177.2128
6283 19.8674 154(18) 213.4264 177.2998
6284 19.8704 177(19) 212.3340 177.3868
6285 19.8734 168(19) 211.5108 177.4739
6286 19.8764 180(19) 211.0199 177.5609
6287 19.8794 185(19) 210.8554 177.6480
6288 19.8824 179(19) 211.0061 177.7350
6289 19.8854 153(18) 211.4631 177.8221
6290 19.8884 166(18) 212.2002 177.9091
6291 19.8914 182(19) 213.1932 177.9961
6292 19.8944 210(21) 214.3858 178.0832
6293 19.8974 197(20) 215.7449 178.1702
6294 19.9004 201(20) 217.2081 178.2573
6295 19.9034 180(19) 218.7564 178.3443
6296 19.9064 148(17) 220.2097 178.2997
6297 19.9094 220(21) 221.6707 178.2223
6298 19.9124 236(22) 223.1770 178.1449
6299 19.9154 210(21) 224.6778 178.0675
6300 19.9184 232(22) 226.2137 177.9900
6301 19.9214 199(20) 227.7719 177.9126
6302 19.9244 188(20) 229.3239 177.8351
6303 19.9274 182(19) 230.9002 177.7577
6304 19.9304 185(19) 232.4662 177.6803
6305 19.9334 208(21) 234.0425 177.6029
6306 19.9364 202(20) 235.5603 177.5254
6307 19.9394 173(19) 237.0822 177.4480
6308 19.9424 201(20) 238.6255 177.3706
6309 19.9454 194(20) 240.2218 177.2931
6310 19.9484 180(19) 241.9064 177.2157
6311 19.9514 187(20) 243.7193 177.1383
6312 19.9544 190(20) 245.6817 177.0609
6313 19.9574 199(20) 247.8049 176.9834
6314 19.9604 226(21) 250.0482 176.9060
6315 19.9634 201(20) 252.4109 176.8286
6316 19.9664 205(20) 254.7867 176.7511
6317 19.9694 229(22) 257.1219 176.6737
6318 19.9724 182(19) 259.3774 176.5962
6319 19.9754 225(21) 261.4569 176.5188
6320 19.9784 219(21) 263.3135 176.4414
6321 19.9814 235(22) 264.8695 176.3640
6322 19.9844 259(23) 266.0560 176.2865
6323 19.9874 280(24) 266.7899 176.2091
6324 19.9904 240(22) 267.0502 176.1317
6325 19.9934 301(25) 266.7588 176.0542
6326 19.9964 270(23) 265.8551 175.9768
6327 19.9994 297(25) 264.3558 175.8994
6328 20.0024 298(25) 262.2658 175.8220
6329 20.0054 253(23) 259.6311 175.7445
6330 20.0084 252(23) 256.5352 175.6671
6331 20.0114 299(25) 253.0892 175.5897
6332 20.0144 272(24) 249.4197 175.5122
6333 20.0174 273(24) 245.6660 175.4348
6334 20.0204 260(23) 241.9845 175.3574
6335 20.0234 199(20) 238.5310 175.2800
6336 20.0264 235(22) 235.4424 175.2025
6337 20.0294 243(22) 232.8139 175.1251
6338 20.0324 203(20) 230.7390 175.0477
6339 20.0354 166(18) 229.2787 174.9702
6340 20.0384 204(20) 228.4736 174.8928
6341 20.0414 212(21) 228.3544 174.8153
6342 20.0444 252(23) 228.9166 174.7379
6343 20.0474 191(20) 230.1514 174.6605
6344 20.0504 183(19) 232.0073 174.5831
6345 20.0534 171(19) 234.4050 174.5056
6346 20.0564 213(21) 237.2187 174.4282
6347 20.0594 223(21) 240.3400 174.3508
6348 20.0624 238(22) 243.6048 174.2733
6349 20.0654 262(23) 246.8331 174.1959
6350 20.0684 239(22) 249.8557 174.1185
6351 20.0714 252(23) 252.5136 174.0411
6352 20.0744 261(23) 254.6899 173.9636
6353 20.0774 242(22) 256.3084 173.8862
6354 20.0804 180(19) 257.3645 173.8087
6355 20.0834 230(22) 257.8887 173.7313
6356 20.0864 267(23) 257.9622 173.6539
6357 20.0894 218(21) 257.6859 173.5765
6358 20.0924 209(21) 257.1894 173.4991
6359 20.0954 242(22) 256.6100 173.4216
6360 20.0984 222(21) 256.0693 173.3442
6361 20.1014 224(21) 255.6502 173.2667
6362 20.1044 214(21) 255.3957 173.1893
6363 20.1074 208(21) 255.3230 173.1119
6364 20.1104 243(22) 255.4135 173.0345
6365 20.1134 257(23) 255.6363 172.9570
6366 20.1164 239(22) 255.9722 172.8796
6367 20.1194 243(22) 256.4165 172.8022
6368 20.1224 264(23) 256.9926 172.7247
6369 20.1254 290(24) 257.7421 172.6473
6370 20.1284 248(22) 258.7176 172.5699
6371 20.1314 245(22) 259.9547 172.4925
6372 20.1344 203(20) 261.4677 172.4150
6373 20.1374 287(24) 263.2173 172.3376
6374 20.1404 242(22) 265.1330 172.2602
6375 20.1434 259(23) 267.1216 172.1827
6376 20.1464 229(22) 269.0937 172.1053
6377 20.1494 224(21) 270.9367 172.0278
6378 20.1524 249(22) 272.6290 171.9505
6379 20.1554 270(24) 274.0938 171.8730
6380 20.1584 298(25) 275.2953 171.7956
6381 20.1614 308(25) 276.1967 171.7181
6382 20.1644 273(24) 276.7681 171.6407
6383 20.1674 295(25) 276.9829 171.5633
6384 20.1704 294(25) 276.8263 171.4858
6385 20.1734 302(25) 276.3103 171.4084
6386 20.1764 326(26) 275.4640 171.3310
6387 20.1794 337(26) 274.3491 171.2536
6388 20.1824 345(27) 273.0432 171.1761
6389 20.1854 361(27) 271.6207 171.0987
6390 20.1884 337(26) 270.1559 171.0213
6391 20.1914 337(26) 268.7065 170.9438
6392 20.1944 297(25) 267.3120 170.8664
6393 20.1974 248(23) 266.0118 170.7890
6394 20.2004 278(24) 264.8680 170.7116
6395 20.2034 275(24) 263.9407 170.6341
6396 20.2064 304(25) 263.2919 170.5567
6397 20.2094 270(23) 262.9824 170.4792
6398 20.2124 289(24) 263.1010 170.4018
6399 20.2154 321(26) 263.6891 170.3244
6400 20.2184 294(24) 264.7180 170.2470
6401 20.2214 297(25) 266.1421 170.1696
6402 20.2244 299(25) 267.8516 170.0921
6403 20.2274 285(24) 269.7153 170.0147
6404 20.2304 225(21) 271.5272 169.9372
6405 20.2334 275(24) 273.0937 169.8598
6406 20.2364 277(24) 274.2155 169.7824
6407 20.2394 305(25) 274.7598 169.7049
6408 20.2424 314(25) 274.6443 169.6275
6409 20.2454 334(26) 273.8748 169.5501
6410 20.2484 314(25) 272.5303 169.4727
6411 20.2514 301(25) 270.7430 169.3952
6412 20.2544 282(24) 268.6643 169.3178
6413 20.2574 296(25) 266.4402 169.2404
6414 20.2604 310(25) 264.1959 169.1629
6415 20.2634 336(26) 262.0031 169.0855
6416 20.2664 244(22) 259.9050 169.0081
6417 20.2694 300(25) 257.8864 168.9306
6418 20.2724 217(21) 255.9361 168.8532
6419 20.2754 242(22) 253.9803 168.7758
6420 20.2784 249(22) 251.9758 168.6983
6421 20.2814 295(25) 249.8722 168.6209
6422 20.2844 278(24) 247.6129 168.5435
6423 20.2874 285(24) 245.1893 168.4661
6424 20.2904 227(22) 242.6229 168.3886
6425 20.2934 248(23) 239.9197 168.3112
6426 20.2964 258(23) 237.1299 168.2338
6427 20.2994 222(21) 234.2999 168.1563
6428 20.3024 223(21) 231.5284 168.0789
6429 20.3054 197(20) 228.8779 168.0014
6430 20.3084 236(22) 226.4035 167.9241
6431 20.3114 197(20) 224.1492 167.8466
6432 20.3144 189(20) 222.1685 167.7692
6433 20.3174 164(18) 220.4918 167.6918
6434 20.3204 176(19) 219.1432 167.6143
6435 20.3234 200(20) 218.1386 167.5369
6436 20.3264 204(20) 217.4633 167.4594
6437 20.3294 165(18) 217.1411 167.3820
6438 20.3324 195(20) 217.1471 167.3046
6439 20.3354 173(19) 217.4566 167.2272
6440 20.3384 218(21) 218.0471 167.1497
6441 20.3414 205(21) 218.8768 167.0723
6442 20.3444 233(22) 219.8825 166.9949
6443 20.3474 211(21) 220.9808 166.9174
6444 20.3504 224(21) 222.0890 166.8400
6445 20.3534 230(22) 223.0923 166.7626
6446 20.3564 243(22) 223.8891 166.6852
6447 20.3594 233(22) 224.4703 166.6077
6448 20.3624 235(22) 224.8148 166.5303
6449 20.3654 199(20) 224.9865 166.4529
6450 20.3684 199(20) 225.0991 166.3754
6451 20.3714 200(20) 225.3139 166.2980
6452 20.3744 189(20) 225.8165 166.2206
6453 20.3774 190(20) 226.8128 166.1432
6454 20.3804 216(21) 228.4506 166.0657
6455 20.3834 194(20) 230.8441 165.9883
6456 20.3864 165(18) 234.0157 165.9108
6457 20.3894 183(19) 237.9929 165.8334
6458 20.3924 216(21) 242.6376 165.7560
6459 20.3954 196(20) 247.7643 165.6786
6460 20.3984 203(20) 253.1345 165.6012
6461 20.4014 202(20) 258.4535 165.5237
6462 20.4044 255(23) 263.3974 165.4463
6463 20.4074 236(22) 267.6506 165.3688
6464 20.4104 256(23) 270.9373 165.2914
6465 20.4134 243(22) 273.0309 165.2140
6466 20.4164 287(24) 273.7776 165.1365
6467 20.4194 281(24) 273.1149 165.0591
6468 20.4224 273(24) 271.1071 164.9817
6469 20.4254 262(23) 267.8855 164.9043
6470 20.4284 256(23) 263.6507 164.8268
6471 20.4314 235(22) 258.6751 164.7494
6472 20.4344 209(21) 253.2415 164.6720
6473 20.4374 226(22) 247.6416 164.5945
6474 20.4404 216(21) 242.1710 164.5171
6475 20.4434 216(21) 237.0712 164.4397
6476 20.4464 200(20) 232.5496 164.3622
6477 20.4494 199(20) 228.7978 164.2848
6478 20.4524 225(21) 225.9357 164.2074
6479 20.4554 194(20) 224.0377 164.1299
6480 20.4584 204(20) 223.1649 164.0525
6481 20.4614 247(22) 223.2689 163.9751
6482 20.4644 228(22) 224.2867 163.8977
6483 20.4674 221(21) 226.0921 163.8202
6484 20.4704 214(21) 228.5251 163.7428
6485 20.4734 217(21) 231.3847 163.6654
6486 20.4764 197(20) 234.4437 163.5879
6487 20.4794 248(23) 237.4715 163.5105
6488 20.4824 240(22) 240.2478 163.4331
6489 20.4854 248(23) 242.5551 163.3557
6490 20.4884 236(22) 244.2245 163.2782
6491 20.4914 251(23) 245.1408 163.2008
6492 20.4944 227(21) 245.2365 163.1234
6493 20.4974 243(22) 244.5311 163.0459
6494 20.5004 243(22) 243.1097 162.9685
6495 20.5034 244(22) 241.1003 162.8910
6496 20.5064 203(20) 238.6837 162.8137
6497 20.5094 203(20) 236.0640 162.7362
6498 20.5124 204(20) 233.4174 162.6588
6499 20.5154 208(21) 230.9170 162.5813
6500 20.5184 243(22) 228.7059 162.5039
6501 20.5214 215(21) 226.8980 162.4265
6502 20.5244 169(19) 225.5640 162.3490
6503 20.5274 219(21) 224.7207 162.2716
6504 20.5304 207(21) 224.3729 162.1942
6505 20.5334 153(18) 224.4450 162.1168
6506 20.5364 164(18) 224.8713 162.0393
6507 20.5394 199(20) 225.5611 161.9619
6508 20.5424 211(21) 226.4221 161.8845
6509 20.5454 211(21) 227.3736 161.8070
6510 20.5484 206(20) 228.3416 161.7296
6511 20.5514 217(21) 229.2537 161.6522
6512 20.5544 192(20) 230.0513 161.5748
6513 20.5574 186(20) 230.6678 161.4973
6514 20.5604 211(21) 231.0481 161.4199
6515 20.5634 208(21) 231.1117 161.3425
6516 20.5664 220(21) 230.8316 161.2650
6517 20.5694 215(21) 230.1360 161.1876
6518 20.5724 219(21) 229.0451 161.1102
6519 20.5754 229(22) 227.5154 161.0327
6520 20.5784 234(22) 225.6626 160.9553
6521 20.5814 212(21) 223.5163 160.8779
6522 20.5844 218(21) 221.1897 160.8004
6523 20.5874 201(20) 218.7875 160.7230
6524 20.5904 177(19) 216.4267 160.6456
6525 20.5934 186(20) 214.2234 160.5682
6526 20.5964 186(19) 212.2662 160.4907
6527 20.5994 176(19) 210.6481 160.4133
6528 20.6024 179(19) 209.4106 160.3359
6529 20.6054 207(21) 208.5863 160.2584
6530 20.6084 177(19) 208.1812 160.1810
6531 20.6114 180(19) 208.1719 160.1035
6532 20.6144 206(20) 208.5361 160.0261
6533 20.6174 189(20) 209.2035 159.9487
6534 20.6204 182(19) 210.1335 159.8713
6535 20.6234 218(21) 211.2856 159.7939
6536 20.6264 203(20) 212.6320 159.7164
6537 20.6294 207(21) 214.1238 159.6390
6538 20.6324 196(20) 215.7590 159.5615
6539 20.6354 185(20) 217.4820 159.4841
6540 20.6384 183(19) 219.2941 159.4067
6541 20.6414 220(21) 221.1680 159.3293
6542 20.6444 230(22) 223.0438 159.2518
6543 20.6474 196(20) 224.8441 159.1744
6544 20.6504 216(21) 226.5204 159.0970
6545 20.6534 212(21) 227.9621 159.0195
6546 20.6564 227(22) 229.0857 158.9421
6547 20.6594 207(21) 229.8185 158.8647
6548 20.6624 261(23) 230.1353 158.7873
6549 20.6654 250(23) 230.0322 158.7098
6550 20.6684 247(22) 229.5744 158.6324
6551 20.6714 227(22) 228.8324 158.5550
6552 20.6744 246(22) 227.9152 158.4775
6553 20.6774 194(20) 226.9321 158.4001
6554 20.6804 229(22) 225.9884 158.3226
6555 20.6834 229(22) 225.1751 158.2453
6556 20.6864 238(22) 224.5658 158.1678
6557 20.6894 222(21) 224.2134 158.0904
6558 20.6924 194(20) 224.1500 158.0129
6559 20.6954 230(22) 224.4018 157.9355
6560 20.6984 202(20) 224.9809 157.8581
6561 20.7014 192(20) 225.9159 157.7806
6562 20.7044 212(21) 227.2112 157.7032
6563 20.7074 227(22) 228.8829 157.6258
6564 20.7104 190(20) 230.9165 157.5484
6565 20.7134 202(20) 233.2684 157.4709
6566 20.7164 246(22) 235.8670 157.3935
6567 20.7194 204(20) 238.6216 157.3161
6568 20.7224 232(22) 241.3994 157.2386
6569 20.7254 215(21) 244.0694 157.1612
6570 20.7284 240(22) 246.5008 157.0838
6571 20.7314 239(22) 248.5748 157.0064
6572 20.7344 228(22) 250.2461 156.9289
6573 20.7374 252(23) 251.5282 156.8515
6574 20.7404 280(24) 252.4831 156.7740
6575 20.7434 254(23) 253.2509 156.6966
6576 20.7464 263(23) 254.0208 156.6192
6577 20.7494 252(23) 255.0296 156.5418
6578 20.7524 330(26) 256.5375 156.4644
6579 20.7554 272(24) 258.8094 156.3869
6580 20.7584 262(23) 262.0637 156.3095
6581 20.7614 301(25) 266.4269 156.2320
6582 20.7644 282(24) 271.9111 156.1546
6583 20.7674 285(24) 278.3809 156.0772
6584 20.7704 255(23) 285.5500 155.9998
6585 20.7734 273(24) 293.0144 155.9223
6586 20.7764 326(26) 300.2879 155.8449
6587 20.7794 320(26) 306.8207 155.7675
6588 20.7824 316(25) 312.1104 155.6900
6589 20.7854 335(26) 315.7382 155.6126
6590 20.7884 283(24) 317.4403 155.5352
6591 20.7914 322(26) 317.1297 155.4577
6592 20.7944 375(28) 314.9127 155.3803
6593 20.7974 359(27) 311.0650 155.3029
6594 20.8004 300(25) 305.9775 155.2254
6595 20.8034 289(24) 300.1112 155.1480
6596 20.8064 302(25) 293.9124 155.0706
6597 20.8094 258(23) 287.7570 154.9931
6598 20.8124 265(23) 281.9176 154.9157
6599 20.8154 282(24) 276.5402 154.8383
6600 20.8184 242(22) 271.6270 154.7609
6601 20.8214 235(22) 267.1039 154.6834
6602 20.8244 296(25) 262.8185 154.6060
6603 20.8274 298(25) 258.5775 154.5286
6604 20.8304 263(23) 254.2048 154.4511
6605 20.8334 249(23) 249.5682 154.3737
6606 20.8364 268(23) 244.6076 154.2963
6607 20.8394 221(21) 239.3343 154.2189
6608 20.8424 218(21) 233.8301 154.1414
6609 20.8454 194(20) 228.2188 154.0640
6610 20.8484 198(20) 222.6581 153.9866
6611 20.8514 206(21) 217.3155 153.9091
6612 20.8544 184(19) 212.3404 153.8317
6613 20.8574 228(22) 207.8654 153.7542
6614 20.8604 160(18) 203.9889 153.6768
6615 20.8634 203(20) 200.7602 153.5994
6616 20.8664 195(20) 198.1976 153.5220
6617 20.8694 245(22) 196.2722 153.4445
6618 20.8724 193(20) 194.9330 153.3671
6619 20.8754 183(19) 194.1034 153.2897
6620 20.8784 207(21) 193.6791 153.2122
6621 20.8814 180(19) 193.6063 153.1348
6622 20.8844 189(20) 193.7908 153.0574
6623 20.8874 166(18) 194.1685 152.9800
6624 20.8904 196(20) 194.6892 152.9025
6625 20.8934 177(19) 195.3194 152.8251
6626 20.8964 189(20) 196.0618 152.7477
6627 20.8994 175(19) 196.9097 152.6702
6628 20.9024 176(19) 198.0198 152.7476
6629 20.9054 183(19) 199.2509 152.8360
6630 20.9084 193(20) 200.5892 152.9245
6631 20.9114 201(20) 202.0264 153.0129
6632 20.9144 188(20) 203.5454 153.1013
6633 20.9174 181(19) 205.1135 153.1897
6634 20.9204 206(20) 206.7115 153.2782
6635 20.9234 193(20) 208.2863 153.3666
6636 20.9264 211(21) 209.7843 153.4550
6637 20.9294 188(20) 211.1558 153.5434
6638 20.9324 162(18) 212.3386 153.6318
6639 20.9354 208(23) 213.2656 153.7202
6640 20.9384 226(24) 213.8838 153.8087
6641 20.9414 218(23) 214.1598 153.8971
6642 20.9444 221(24) 214.0835 153.9855
6643 20.9474 163(20) 213.6419 154.0739
6644 20.9504 215(23) 212.9075 154.1623
6645 20.9534 176(21) 211.9567 154.2507
6646 20.9564 210(23) 210.9090 154.3391
6647 20.9594 203(23) 209.8923 154.4276
6648 20.9624 216(23) 209.0370 154.5160
6649 20.9654 214(23) 208.4719 154.6044
6650 20.9684 174(21) 208.2827 154.6928
6651 20.9714 212(23) 208.5521 154.7812
6652 20.9744 209(23) 209.3031 154.8696
6653 20.9774 230(24) 210.5446 154.9581
6654 20.9804 207(23) 212.2234 155.0465
6655 20.9834 221(24) 214.2576 155.1349
6656 20.9864 268(26) 216.5298 155.2233
6657 20.9894 213(23) 218.8992 155.3117
6658 20.9924 202(23) 221.2127 155.4001
6659 20.9954 262(26) 223.3340 155.4885
6660 20.9984 257(25) 225.1580 155.5770
6661 21.0014 211(23) 226.5890 155.6654
6662 21.0044 209(23) 227.6303 155.7538
6663 21.0074 230(24) 228.2948 155.8422
6664 21.0104 262(26) 228.6252 155.9306
6665 21.0134 218(23) 228.7522 156.0190
6666 21.0164 184(22) 228.7204 156.1074
6667 21.0194 206(23) 228.6201 156.1959
6668 21.0224 213(23) 228.5154 156.2843
6669 21.0254 182(21) 228.4209 156.3727
6670 21.0284 239(25) 228.3489 156.4611
6671 21.0314 204(23) 228.2886 156.5496
6672 21.0344 184(21) 228.2179 156.6380
6673 21.0374 192(22) 228.1286 156.7263
6674 21.0404 193(22) 227.9955 156.8148
6675 21.0434 231(24) 227.8453 156.9032
6676 21.0464 187(22) 227.6778 156.9916
6677 21.0494 211(23) 227.5296 157.0800
6678 21.0524 219(24) 227.4269 157.1685
6679 21.0554 198(22) 227.3750 157.2569
6680 21.0584 191(22) 227.4056 157.3453
6681 21.0614 173(21) 227.4863 157.4337
6682 21.0644 194(22) 227.5864 157.5221
6683 21.0674 197(22) 227.6543 157.6105
6684 21.0704 178(21) 227.6445 157.6990
6685 21.0734 211(23) 227.5019 157.7874
6686 21.0764 193(22) 227.1927 157.8758
6687 21.0794 183(22) 226.6862 157.9642
6688 21.0824 226(24) 225.9671 158.0526
6689 21.0854 167(21) 225.0413 158.1410
6690 21.0884 149(19) 223.9261 158.2294
6691 21.0914 174(21) 222.6619 158.3179
6692 21.0944 210(23) 221.3067 158.4063
6693 21.0974 195(22) 219.9316 158.4947
6694 21.1004 165(20) 218.6232 158.5831
6695 21.1034 193(22) 217.4676 158.6715
6696 21.1064 181(21) 216.5634 158.7599
6697 21.1094 152(20) 216.0080 158.8484
6698 21.1124 193(22) 215.8991 158.9368
6699 21.1154 222(24) 216.3137 159.0252
6700 21.1184 165(20) 217.3088 159.1136
6701 21.1214 187(22) 218.9080 159.2021
6702 21.1244 202(23) 221.1079 159.2904
6703 21.1274 181(21) 223.8392 159.3788
6704 21.1304 172(21) 227.0169 159.4673
6705 21.1334 254(25) 230.5076 159.5557
6706 21.1364 192(22) 234.1533 159.6441
6707 21.1394 190(22) 237.7766 159.7325
6708 21.1424 207(23) 241.1994 159.8210
6709 21.1454 272(26) 244.2548 159.9093
6710 21.1484 217(23) 246.8250 159.9978
6711 21.1514 197(22) 248.7878 160.0862
6712 21.1544 275(26) 250.0818 160.1746
6713 21.1574 222(24) 250.6765 160.2630
6714 21.1604 238(24) 250.5807 160.3514
6715 21.1634 211(23) 249.8077 160.4399
6716 21.1664 288(27) 248.4068 160.5283
6717 21.1694 219(24) 246.4597 160.6167
6718 21.1724 296(27) 244.0123 160.7051
6719 21.1754 295(27) 241.2056 160.7935
6720 21.1784 270(26) 238.1537 160.8819
6721 21.1814 248(25) 234.9838 160.9704
6722 21.1844 233(24) 231.8259 161.0588
6723 21.1874 234(24) 228.7910 161.1472
6724 21.1904 201(22) 225.9801 161.2356
6725 21.1934 222(24) 223.4744 161.3240
6726 21.1964 246(25) 221.3548 161.4124
6727 21.1994 206(23) 219.6609 161.5008
6728 21.2024 251(25) 218.4284 161.5893
6729 21.2054 257(26) 217.6518 161.6777
6730 21.2084 245(25) 217.3161 161.7661
6731 21.2114 267(26) 217.3781 161.8545
6732 21.2144 208(23) 217.7829 161.9429
6733 21.2174 224(24) 218.4734 162.0313
6734 21.2204 206(23) 219.3738 162.1198
6735 21.2234 255(25) 220.4335 162.2082
6736 21.2264 208(23) 221.6028 162.2966
6737 21.2294 175(21) 222.8335 162.3850
6738 21.2324 208(23) 224.0950 162.4734
6739 21.2354 222(24) 225.3500 162.5618
6740 21.2384 202(23) 226.5679 162.6502
6741 21.2414 202(23) 227.7069 162.7387
6742 21.2444 219(23) 228.7247 162.8271
6743 21.2474 208(23) 229.5665 162.9155
6744 21.2504 232(24) 230.1839 163.0039
6745 21.2534 221(24) 230.5218 163.0924
6746 21.2564 235(24) 230.5162 163.1807
6747 21.2594 222(24) 230.1478 163.2691
6748 21.2624 243(25) 229.3843 163.3576
6749 21.2654 233(24) 228.2424 163.4460
6750 21.2684 238(24) 226.7549 163.5344
6751 21.2714 232(24) 224.9858 163.6228
6752 21.2744 198(22) 223.0238 163.7113
6753 21.2774 220(24) 220.9524 163.7996
6754 21.2804 188(22) 218.8583 163.8881
6755 21.2834 190(22) 216.8250 163.9765
6756 21.2864 203(23) 214.9194 164.0649
6757 21.2894 206(23) 213.1896 164.1533
6758 21.2924 186(22) 211.6672 164.2418
6759 21.2954 204(23) 210.3698 164.3302
6760 21.2984 186(22) 209.2955 164.4186
6761 21.3014 192(22) 208.4417 164.5070
6762 21.3044 178(21) 207.7976 164.5954
6763 21.3074 220(24) 207.3436 164.6838
6764 21.3104 198(22) 207.0681 164.7722
6765 21.3134 170(21) 206.9594 164.8607
6766 21.3164 198(22) 207.0152 164.9491
6767 21.3194 187(22) 207.2335 165.0375
6768 21.3224 179(21) 207.6158 165.1259
6769 21.3254 164(20) 208.1644 165.2143
6770 21.3284 165(20) 208.8807 165.3027
6771 21.3314 183(22) 209.7754 165.3911
6772 21.3344 188(22) 210.8344 165.4796
6773 21.3374 242(25) 212.0585 165.5680
6774 21.3404 196(22) 213.4255 165.6564
6775 21.3434 184(22) 214.9061 165.7448
6776 21.3464 179(21) 216.4693 165.8332
6777 21.3494 225(24) 218.0715 165.9216
6778 21.3524 214(23) 219.6799 166.0101
6779 21.3554 247(25) 221.2527 166.0985
6780 21.3584 253(25) 222.7540 166.1869
6781 21.3614 215(23) 224.1443 166.2753
6782 21.3644 271(26) 225.4052 166.3638
6783 21.3674 310(28) 226.4967 166.4521
6784 21.3704 240(25) 227.4172 166.5405
6785 21.3734 238(25) 228.1536 166.6290
6786 21.3764 201(22) 228.6899 166.7174
6787 21.3794 270(26) 229.0354 166.8058
6788 21.3824 256(25) 229.1767 166.8942
6789 21.3854 279(27) 229.1161 166.9827
6790 21.3884 246(25) 228.8475 167.0710
6791 21.3914 273(26) 228.3714 167.1595
6792 21.3944 275(26) 227.7072 167.2479
6793 21.3974 259(26) 226.8886 167.3363
6794 21.4004 255(25) 225.9773 167.4247
6795 21.4034 239(25) 225.0413 167.5132
6796 21.4064 177(21) 224.1456 167.6016
6797 21.4094 186(22) 223.3488 167.6900
6798 21.4124 194(22) 222.7027 167.7784
6799 21.4154 186(22) 222.2302 167.8668
6800 21.4184 201(23) 221.9489 167.9552
6801 21.4214 220(24) 221.8515 168.0436
6802 21.4244 191(22) 221.9120 168.1321
6803 21.4274 230(24) 222.0847 168.2205
6804 21.4304 197(22) 222.3323 168.3089
6805 21.4334 216(23) 222.6160 168.3973
6806 21.4364 216(23) 222.8991 168.4857
6807 21.4394 226(24) 223.1549 168.5741
6808 21.4424 194(22) 223.3736 168.6626
6809 21.4454 194(22) 223.5528 168.7510
6810 21.4484 177(21) 223.7047 168.8394
6811 21.4514 204(23) 223.8550 168.9278
6812 21.4544 184(22) 224.0254 169.0162
6813 21.4574 207(23) 224.2421 169.1046
6814 21.4604 234(24) 224.5269 169.1930
6815 21.4634 197(21) 224.8984 169.2815
6816 21.4664 193(22) 225.3618 169.3699
6817 21.4694 180(21) 225.9079 169.4583
6818 21.4724 190(22) 226.5123 169.5467
6819 21.4754 236(24) 227.1528 169.6352
6820 21.4784 208(23) 227.7956 169.7235
6821 21.4814 230(24) 228.4030 169.8120
6822 21.4844 245(25) 228.9251 169.9004
6823 21.4874 245(25) 229.3205 169.9888
6824 21.4904 245(25) 229.5576 170.0772
6825 21.4934 239(25) 229.5959 170.1656
6826 21.4964 208(23) 229.4090 170.2541
6827 21.4994 215(23) 228.9880 170.3424
6828 21.5024 271(26) 228.3337 170.4309
6829 21.5054 252(25) 227.4716 170.5193
6830 21.5084 217(23) 226.4415 170.6077
6831 21.5114 241(25) 225.3126 170.6961
6832 21.5144 231(24) 224.1505 170.7845
6833 21.5174 234(24) 223.0285 170.8730
6834 21.5204 246(25) 222.0177 170.9613
6835 21.5234 194(22) 221.1817 171.0498
6836 21.5264 229(24) 220.5648 171.1382
6837 21.5294 223(24) 220.1855 171.2266
6838 21.5324 211(23) 220.0633 171.3150
6839 21.5354 206(23) 220.1778 171.4035
6840 21.5384 231(24) 220.4972 171.4919
6841 21.5414 200(22) 220.9728 171.5803
6842 21.5444 199(22) 221.5643 171.6687
6843 21.5474 220(24) 222.2021 171.7571
6844 21.5504 237(24) 222.8369 171.8455
6845 21.5534 203(23) 223.4138 171.9339
6846 21.5564 217(23) 223.8931 172.0224
6847 21.5594 214(23) 224.2347 172.1108
6848 21.5624 218(23) 224.4471 172.1992
6849 21.5654 202(23) 224.5103 172.2876
6850 21.5684 267(26) 224.4454 172.3760
6851 21.5714 259(26) 224.2839 172.4644
6852 21.5744 242(25) 224.0392 172.5529
6853 21.5774 228(24) 223.7369 172.6413
6854 21.5804 261(26) 223.4120 172.7297
6855 21.5834 251(25) 223.0758 172.8181
6856 21.5864 275(26) 222.7391 172.9065
6857 21.5894 254(25) 222.3977 172.9949
6858 21.5924 250(25) 222.0530 173.0833
6859 21.5954 248(25) 221.7094 173.1718
6860 21.5984 268(26) 221.3723 173.2602
6861 21.6014 215(23) 221.0491 173.3486
6862 21.6044 242(25) 220.7806 173.4370
6863 21.6074 275(26) 220.6010 173.5255
6864 21.6104 249(25) 220.5533 173.6138
6865 21.6134 252(25) 220.6877 173.7023
6866 21.6164 239(25) 221.0402 173.7907
6867 21.6194 233(24) 221.6423 173.8791
6868 21.6224 272(26) 222.4809 173.9675
6869 21.6254 269(26) 223.5792 174.0560
6870 21.6284 265(26) 224.8782 174.1444
6871 21.6314 245(25) 226.3282 174.2327
6872 21.6344 255(25) 227.8667 174.3212
6873 21.6374 266(26) 229.4142 174.4096
6874 21.6404 245(25) 230.8929 174.4980
6875 21.6434 240(25) 232.2444 174.5864
6876 21.6464 226(24) 233.4160 174.6749
6877 21.6494 234(24) 234.3792 174.7633
6878 21.6524 246(25) 235.1341 174.8517
6879 21.6554 233(24) 235.7052 174.9401
6880 21.6584 228(24) 236.1387 175.0285
6881 21.6614 248(25) 236.5011 175.1169
6882 21.6644 251(25) 236.8542 175.2054
6883 21.6674 301(28) 237.2740 175.2938
6884 21.6704 287(27) 237.8178 175.3822
6885 21.6734 271(26) 238.5305 175.4706
6886 21.6764 250(25) 239.4425 175.5590
6887 21.6794 234(24) 240.5491 175.6474
6888 21.6824 238(24) 241.8390 175.7358
6889 21.6854 250(25) 243.2819 175.8242
6890 21.6884 270(26) 244.8360 175.9127
6891 21.6914 246(25) 246.4674 176.0011
6892 21.6944 269(26) 248.1470 176.0895
6893 21.6974 244(25) 249.8555 176.1779
6894 21.7004 264(26) 251.6051 176.2663
6895 21.7034 244(25) 253.4176 176.3547
6896 21.7064 283(27) 255.3423 176.4432
6897 21.7094 253(25) 257.4364 176.5316
6898 21.7124 285(27) 259.7885 176.6200
6899 21.7154 286(27) 262.4755 176.7084
6900 21.7184 276(26) 265.5947 176.7968
6901 21.7214 317(28) 269.2283 176.8852
6902 21.7244 288(27) 273.4346 176.9736
6903 21.7274 318(28) 278.2562 177.0621
6904 21.7304 333(29) 283.6831 177.1505
6905 21.7334 286(27) 289.6735 177.2389
6906 21.7364 323(29) 296.1288 177.3273
6907 21.7394 311(28) 302.9091 177.4158
6908 21.7424 355(30) 309.8273 177.5041
6909 21.7454 319(28) 316.6968 177.5926
6910 21.7484 364(30) 323.3151 177.6810
6911 21.7514 457(34) 329.4831 177.7694
6912 21.7544 354(30) 335.0333 177.8578
6913 21.7574 398(32) 339.8212 177.9463
6914 21.7604 324(29) 343.7272 178.0347
6915 21.7634 410(32) 346.6572 178.1230
6916 21.7664 483(35) 348.5595 178.2115
6917 21.7694 369(31) 349.4041 178.2999
6918 21.7724 474(34) 349.1829 178.3883
6919 21.7754 434(33) 347.9116 178.4767
6920 21.7784 460(34) 345.6154 178.5652
6921 21.7814 422(33) 342.3303 178.6536
6922 21.7844 441(33) 338.1254 178.7420
6923 21.7874 453(34) 333.0876 178.8304
6924 21.7904 414(32) 327.3301 178.9188
6925 21.7934 391(31) 320.9903 179.0072
6926 21.7964 431(33) 314.2255 179.0957
6927 21.7994 384(31) 307.2037 179.1841
6928 21.8024 303(28) 300.0834 179.2725
6929 21.8054 319(28) 293.0051 179.3609
6930 21.8084 280(27) 286.0989 179.4493
6931 21.8114 253(25) 279.4541 179.5377
6932 21.8144 332(29) 273.1506 179.6261
6933 21.8174 293(27) 267.2471 179.7146
6934 21.8204 265(26) 261.7850 179.8030
6935 21.8234 321(28) 256.7946 179.8914
6936 21.8264 245(25) 252.3096 179.9798
6937 21.8294 266(26) 248.3498 180.0682
6938 21.8324 224(24) 244.9197 180.1566
6939 21.8354 211(23) 242.0142 180.2451
6940 21.8384 200(22) 239.6020 180.3335
6941 21.8414 201(23) 237.6407 180.4219
6942 21.8444 261(26) 236.0645 180.5103
6943 21.8474 212(23) 234.7964 180.5988
6944 21.8504 235(24) 233.7512 180.6872
6945 21.8534 244(25) 232.8520 180.7755
6946 21.8564 217(23) 232.0281 180.8640
6947 21.8594 195(22) 231.2265 180.9524
6948 21.8624 252(25) 230.4104 181.0408
6949 21.8654 247(25) 229.5660 181.1292
6950 21.8684 246(25) 228.7001 181.2177
6951 21.8714 230(24) 227.8232 181.3061
6952 21.8744 239(25) 226.9625 181.3944
6953 21.8774 208(23) 226.1463 181.4829
6954 21.8804 203(23) 225.4071 181.5713
6955 21.8834 202(23) 224.7778 181.6597
6956 21.8864 187(22) 224.2917 181.7481
6957 21.8894 205(23) 223.9742 181.8366
6958 21.8924 222(24) 223.8622 181.9250
6959 21.8954 227(24) 223.9829 182.0134
6960 21.8984 217(23) 224.3621 182.1018
6961 21.9014 207(23) 225.0339 182.1902
6962 21.9044 190(22) 226.0185 182.2786
6963 21.9074 205(23) 227.3242 182.3671
6964 21.9104 186(22) 228.9508 182.4555
6965 21.9134 216(23) 230.8772 182.5439
6966 21.9164 179(21) 233.0667 182.6323
6967 21.9194 274(26) 235.4548 182.7207
6968 21.9224 199(22) 237.9662 182.8091
6969 21.9254 211(23) 240.5071 182.8975
6970 21.9284 223(24) 242.9674 182.9860
6971 21.9314 231(24) 245.2590 183.0744
6972 21.9344 227(24) 247.2935 183.1628
6973 21.9374 222(24) 248.9993 183.2512
6974 21.9404 228(24) 250.3338 183.3396
6975 21.9434 240(25) 251.2991 183.4280
6976 21.9464 228(24) 251.9224 183.5164
6977 21.9494 226(24) 252.2527 183.6049
6978 21.9524 238(25) 252.3741 183.6933
6979 21.9554 265(26) 252.3828 183.7817
6980 21.9584 248(25) 252.3821 183.8701
6981 21.9614 294(27) 252.4534 183.9585
6982 21.9644 301(27) 252.6703 184.0469
6983 21.9674 256(25) 253.0772 184.1354
6984 21.9704 223(24) 253.6932 184.2238
6985 21.9734 304(28) 254.4982 184.3122
6986 21.9764 282(27) 255.4641 184.4006
6987 21.9794 278(26) 256.5383 184.4891
6988 21.9824 305(28) 257.6507 184.5775
6989 21.9854 289(27) 258.7272 184.6658
6990 21.9884 306(28) 259.7034 184.7543
6991 21.9914 299(27) 260.5305 184.8427
6992 21.9944 282(27) 261.1506 184.9311
6993 21.9974 248(25) 261.5598 185.0195
6994 22.0004 313(28) 261.7173 185.1080
6995 22.0034 272(26) 261.6635 185.1964
6996 22.0064 268(26) 261.3947 185.2848
6997 22.0094 279(27) 260.9271 185.3732
6998 22.0124 267(26) 260.2966 185.4616
6999 22.0154 243(25) 259.5311 185.5500
7000 22.0184 244(25) 258.6711 185.6385
7001 22.0214 262(26) 257.7574 185.7269
7002 22.0244 265(26) 256.8270 185.8153
7003 22.0274 259(26) 255.9369 185.9037
7004 22.0304 252(25) 255.1189 185.9921
7005 22.0334 231(24) 254.4063 186.0805
7006 22.0364 233(24) 253.8277 186.1689
7007 22.0394 256(25) 253.3992 186.2574
7008 22.0424 222(24) 253.1183 186.3458
7009 22.0454 215(23) 252.9741 186.4342
7010 22.0484 209(23) 252.9424 186.5226
7011 22.0514 207(23) 252.9888 186.6110
7012 22.0544 218(23) 253.0803 186.6994
7013 22.0574 182(21) 253.1811 186.7878
7014 22.0604 208(23) 253.2596 186.8763
7015 22.0634 215(23) 253.2906 186.9647
7016 22.0664 225(24) 253.2625 187.0531
7017 22.0694 210(23) 253.1813 187.1415
7018 22.0724 198(22) 253.0685 187.2299
7019 22.0754 215(23) 252.9648 187.3183
7020 22.0784 201(23) 252.9185 187.4068
7021 22.0814 248(25) 252.9859 187.4952
7022 22.0844 228(24) 253.2255 187.5836
7023 22.0874 236(24) 253.6900 187.6720
7024 22.0904 203(23) 254.4238 187.7605
7025 22.0934 217(23) 255.4747 187.8488
7026 22.0964 203(23) 256.8521 187.9372
7027 22.0994 222(24) 258.5619 188.0257
7028 22.1024 246(25) 260.5858 188.1141
7029 22.1054 263(26) 262.8813 188.2025
7030 22.1084 237(24) 265.3830 188.2909
7031 22.1114 255(25) 267.9966 188.3794
7032 22.1144 265(26) 270.6140 188.4678
7033 22.1174 263(26) 273.1173 188.5562
7034 22.1204 299(27) 275.3902 188.6446
7035 22.1234 278(26) 277.3153 188.7330
7036 22.1264 281(27) 278.7877 188.8214
7037 22.1294 305(28) 279.7274 188.9099
7038 22.1324 289(27) 280.0858 188.9983
7039 22.1354 267(26) 279.8228 189.0867
7040 22.1384 293(27) 278.9552 189.1751
7041 22.1414 252(25) 277.5206 189.2635
7042 22.1444 250(25) 275.5969 189.3519
7043 22.1474 241(25) 273.2802 189.4403
7044 22.1504 236(24) 270.6867 189.5288
7045 22.1534 275(26) 267.9414 189.6172
7046 22.1564 240(25) 265.1738 189.7056
7047 22.1594 234(24) 262.5020 189.7940
7048 22.1624 286(27) 260.0313 189.8824
7049 22.1654 250(25) 257.8393 189.9708
7050 22.1684 199(22) 255.9769 190.0592
7051 22.1714 259(26) 254.4618 190.1477
7052 22.1744 245(25) 253.2894 190.2361
7053 22.1774 223(24) 252.4339 190.3245
7054 22.1804 219(23) 251.8505 190.4129
7055 22.1834 233(24) 251.4911 190.5013
7056 22.1864 216(23) 251.3107 190.5897
7057 22.1894 220(24) 251.2653 190.6782
7058 22.1924 219(23) 251.3281 190.7666
7059 22.1954 224(24) 251.4729 190.8550
7060 22.1984 229(24) 251.6785 190.9434
7061 22.2014 181(21) 251.9305 191.0319
7062 22.2044 259(26) 252.2127 191.1202
7063 22.2074 211(23) 252.4981 191.2086
7064 22.2104 245(25) 252.7599 191.2971
7065 22.2134 191(22) 252.9627 191.3855
7066 22.2164 185(22) 253.0511 191.4739
7067 22.2194 194(22) 252.9923 191.5623
7068 22.2224 223(24) 252.7302 191.6508
7069 22.2254 141(19) 252.2213 191.7392
7070 22.2284 234(24) 251.4388 191.8275
7071 22.2314 202(23) 250.3661 191.9160
7072 22.2344 213(23) 249.0011 192.0044
7073 22.2374 243(25) 247.3594 192.0928
7074 22.2404 203(23) 245.4734 192.1812
7075 22.2434 241(25) 243.3869 192.2697
7076 22.2464 142(19) 241.1513 192.3581
7077 22.2494 217(23) 238.8363 192.4465
7078 22.2524 221(24) 236.4988 192.5349
7079 22.2554 205(23) 234.2058 192.6233
7080 22.2584 212(23) 232.0221 192.7117
7081 22.2614 267(26) 230.0038 192.8002
7082 22.2644 224(24) 228.2182 192.8886
7083 22.2674 223(24) 226.7009 192.9770
7084 22.2704 180(21) 225.4935 193.0654
7085 22.2734 173(21) 224.6199 193.1538
7086 22.2764 203(23) 224.0771 193.2244
7087 22.2794 167(21) 223.8040 193.2056
7088 22.2824 192(22) 223.8859 193.1868
7089 22.2854 216(23) 224.3119 193.1681
7090 22.2884 161(20) 225.0602 193.1493
7091 22.2914 172(21) 226.1046 193.1306
7092 22.2944 247(25) 227.4105 193.1118
7093 22.2974 201(23) 228.9444 193.0930
7094 22.3004 177(21) 230.6502 193.0743
7095 22.3034 222(24) 232.4808 193.0555
7096 22.3064 192(22) 234.3896 193.0368
7097 22.3094 238(24) 236.3116 193.0180
7098 22.3124 252(25) 238.1929 192.9992
7099 22.3154 270(26) 239.9729 192.9805
7100 22.3184 220(24) 241.6004 192.9617
7101 22.3214 258(26) 243.0296 192.9429
7102 22.3244 253(25) 244.2211 192.9242
7103 22.3274 236(24) 245.1535 192.9054
7104 22.3304 250(25) 245.8163 192.8867
7105 22.3334 226(24) 246.2153 192.8679
7106 22.3364 216(23) 246.3645 192.8492
7107 22.3394 226(24) 246.2823 192.8304
7108 22.3424 230(24) 245.9971 192.8116
7109 22.3454 253(25) 245.5297 192.7929
7110 22.3484 263(26) 244.9034 192.7741
7111 22.3514 243(25) 244.1445 192.7553
7112 22.3544 191(22) 243.2694 192.7366
7113 22.3574 224(24) 242.3050 192.7178
7114 22.3604 214(23) 241.2645 192.6991
7115 22.3634 243(25) 240.1630 192.6803
7116 22.3664 265(26) 239.0066 192.6615
7117 22.3694 221(24) 237.8251 192.6428
7118 22.3724 239(25) 236.6417 192.6240
7119 22.3754 214(23) 235.4857 192.6052
7120 22.3784 224(24) 234.4029 192.5865
7121 22.3814 281(27) 233.4255 192.5677
7122 22.3844 241(25) 232.5928 192.5490
7123 22.3874 261(26) 231.9244 192.5302
7124 22.3904 199(22) 231.4423 192.5114
7125 22.3934 262(26) 231.1531 192.4927
7126 22.3964 232(24) 231.0497 192.4739
7127 22.3994 272(26) 231.1187 192.4552
7128 22.4024 238(24) 231.3417 192.4364
7129 22.4054 281(27) 231.6985 192.4176
7130 22.4084 283(27) 232.1730 192.3989
7131 22.4114 280(27) 232.7556 192.3801
7132 22.4144 243(25) 233.4447 192.3613
7133 22.4174 231(24) 234.2445 192.3426
7134 22.4204 286(27) 235.1680 192.3238
7135 22.4234 271(26) 236.2367 192.3051
7136 22.4264 285(27) 237.4473 192.2863
7137 22.4294 268(26) 238.8074 192.2675
7138 22.4324 242(25) 240.3072 192.2488
7139 22.4354 285(27) 241.9277 192.2300
7140 22.4384 263(26) 243.6251 192.2113
7141 22.4414 303(28) 245.3546 192.1925
7142 22.4444 252(25) 247.0621 192.1737
7143 22.4474 247(25) 248.6841 192.1550
7144 22.4504 258(26) 250.1637 192.1362
7145 22.4534 237(24) 251.4508 192.1175
7146 22.4564 268(26) 252.5066 192.0987
7147 22.4594 237(25) 253.3030 192.0799
7148 22.4624 296(27) 253.8279 192.0612
7149 22.4654 247(25) 254.0988 192.0424
7150 22.4684 235(24) 254.1359 192.0237
7151 22.4714 237(24) 253.9745 192.0049
7152 22.4744 241(25) 253.6600 191.9861
7153 22.4774 225(24) 253.2345 191.9674
7154 22.4804 274(26) 252.7363 191.9486
7155 22.4834 228(24) 252.2058 191.9298
7156 22.4864 211(23) 251.6743 191.9111
7157 22.4894 220(24) 251.1676 191.8923
7158 22.4924 173(21) 250.7100 191.8736
7159 22.4954 192(22) 250.3198 191.8548
7160 22.4984 211(23) 250.0107 191.8360
7161 22.5014 197(22) 249.7919 191.8173
7162 22.5044 217(23) 249.6735 191.7985
7163 22.5074 207(23) 249.6643 191.7798
7164 22.5104 193(22) 249.7677 191.7610
7165 22.5134 159(20) 249.9810 191.7422
7166 22.5164 214(23) 250.2963 191.7235
7167 22.5194 223(24) 250.6953 191.7047
7168 22.5224 195(22) 251.1490 191.6859
7169 22.5254 232(24) 251.6154 191.6672
7170 22.5284 226(24) 252.0499 191.6484
7171 22.5314 241(25) 252.4047 191.6297
7172 22.5344 204(23) 252.6324 191.6109
7173 22.5374 254(25) 252.6881 191.5921
7174 22.5404 228(24) 252.5439 191.5734
7175 22.5434 224(24) 252.1901 191.5546
7176 22.5464 171(21) 251.6301 191.5359
7177 22.5494 207(23) 250.8900 191.5171
7178 22.5524 191(22) 250.0075 191.4983
7179 22.5554 231(24) 248.9973 191.4408
7180 22.5584 238(24) 247.9101 191.3327
7181 22.5614 177(21) 246.8673 191.2246
7182 22.5644 240(25) 245.9305 191.1165
7183 22.5674 153(20) 245.1624 191.0083
7184 22.5704 189(22) 244.6324 190.9002
7185 22.5734 226(24) 244.3828 190.7921
7186 22.5764 227(24) 244.4515 190.6839
7187 22.5794 227(25) 244.8659 190.5759
7188 22.5824 247(26) 245.6350 190.4677
7189 22.5854 220(24) 246.7451 190.3596
7190 22.5884 170(21) 248.1756 190.2515
7191 22.5914 209(24) 249.8730 190.1433
7192 22.5944 234(25) 251.7705 190.0352
7193 22.5974 253(26) 253.7840 189.9271
7194 22.6004 266(27) 255.8188 189.8189
7195 22.6034 214(24) 257.7817 189.7109
7196 22.6064 214(24) 259.5829 189.6027
7197 22.6094 271(27) 261.1369 189.4946
7198 22.6124 237(25) 262.3977 189.3865
7199 22.6154 239(25) 263.3192 189.2783
7200 22.6184 227(25) 263.8839 189.1702
7201 22.6214 235(25) 264.1039 189.0621
7202 22.6244 258(26) 264.0151 188.9540
7203 22.6274 323(30) 263.6800 188.8459
7204 22.6304 295(28) 263.1795 188.7377
7205 22.6334 279(27) 262.6139 188.6296
7206 22.6364 285(28) 262.0889 188.5215
7207 22.6394 283(28) 261.7113 188.4133
7208 22.6424 230(25) 261.5807 188.3052
7209 22.6454 333(30) 261.7761 188.1971
7210 22.6484 283(28) 262.3660 188.0890
7211 22.6514 344(30) 263.3828 187.9809
7212 22.6544 273(27) 264.8421 187.8727
7213 22.6574 270(27) 266.7316 187.7646
7214 22.6604 319(29) 269.0196 187.6565
7215 22.6634 311(29) 271.6664 187.5483
7216 22.6664 320(29) 274.6140 187.4402
7217 22.6694 324(30) 277.7967 187.3321
7218 22.6724 354(31) 281.1486 187.2240
7219 22.6754 393(33) 284.5876 187.1159
7220 22.6784 401(33) 288.0293 187.0077
7221 22.6814 343(30) 291.3785 186.8996
7222 22.6844 389(32) 294.5283 186.7915
7223 22.6874 375(32) 297.3713 186.6833
7224 22.6904 392(32) 299.7861 186.5753
7225 22.6934 345(31) 301.6601 186.4671
7226 22.6964 387(32) 302.8903 186.3590
7227 22.6994 344(30) 303.3868 186.2509
7228 22.7024 342(30) 303.0984 186.1427
7229 22.7054 395(33) 302.0125 186.0346
7230 22.7084 396(33) 300.1471 185.9265
7231 22.7114 351(31) 297.5701 185.8184
7232 22.7144 371(32) 294.3678 185.7103
7233 22.7174 355(31) 290.6650 185.6021
7234 22.7204 360(31) 286.5984 185.4940
7235 22.7234 338(30) 282.3091 185.3859
7236 22.7264 346(30) 277.9344 185.2777
7237 22.7294 365(31) 273.5908 185.1696
7238 22.7324 326(30) 269.3810 185.0615
7239 22.7354 313(29) 265.3860 184.9534
7240 22.7384 338(30) 261.6497 184.8453
7241 22.7414 305(29) 258.2013 184.7371
7242 22.7444 249(26) 255.0437 184.6290
7243 22.7474 295(28) 252.1701 184.5209
7244 22.7504 304(29) 249.5557 184.4127
7245 22.7534 300(28) 247.1758 184.3046
7246 22.7564 297(28) 245.0071 184.1965
7247 22.7594 241(26) 243.0288 184.0884
7248 22.7624 219(24) 241.2323 183.9803
7249 22.7654 239(25) 239.6126 183.8721
7250 22.7684 214(24) 238.1725 183.7640
7251 22.7714 199(23) 236.9144 183.6559
7252 22.7744 253(26) 235.8420 183.5477
7253 22.7774 239(25) 234.9526 183.4397
7254 22.7804 278(27) 234.2367 183.3315
7255 22.7834 212(24) 233.6837 183.2234
7256 22.7864 259(26) 233.2664 183.1152
7257 22.7894 249(26) 232.9639 183.0071
7258 22.7924 276(27) 232.7433 182.8990
7259 22.7954 226(25) 232.5699 182.7908
7260 22.7984 251(26) 232.4157 182.6827
7261 22.8014 256(26) 232.2551 182.5746
7262 22.8044 275(27) 232.0717 182.4665
7263 22.8074 253(26) 231.8576 182.3584
7264 22.8104 194(23) 231.6054 182.2502
7265 22.8134 227(25) 231.3259 182.1421
7266 22.8164 224(25) 231.0298 182.0340
7267 22.8194 190(23) 230.7301 181.9258
7268 22.8224 167(21) 230.4444 181.8178
7269 22.8254 263(27) 230.1815 181.7096
7270 22.8284 198(23) 229.9473 181.6015
7271 22.8314 183(22) 229.7388 181.4934
7272 22.8344 219(24) 229.5450 181.3852
7273 22.8374 180(22) 229.3518 181.2771
7274 22.8404 185(22) 229.1366 181.1690
7275 22.8434 192(23) 228.8791 181.0609
7276 22.8464 181(22) 228.5511 180.9528
7277 22.8494 188(22) 228.1363 180.8446
7278 22.8524 203(23) 227.6156 180.7365
7279 22.8554 193(23) 226.9764 180.6284
7280 22.8584 238(25) 226.2062 180.5202
7281 22.8614 211(24) 225.3034 180.4121
7282 22.8644 167(21) 224.2840 180.3040
7283 22.8674 208(24) 223.1578 180.1959
7284 22.8704 189(23) 222.0024 180.1348
7285 22.8734 184(22) 220.8505 180.1209
7286 22.8764 200(23) 219.6935 180.1069
7287 22.8794 199(23) 218.5757 180.0929
7288 22.8824 199(23) 217.5378 180.0790
7289 22.8854 235(25) 216.6171 180.0650
7290 22.8884 239(25) 215.8460 180.0510
7291 22.8914 215(24) 215.2507 180.0371
7292 22.8944 241(25) 214.8536 180.0231
7293 22.8974 213(24) 214.6715 180.0092
7294 22.9004 217(24) 214.7166 179.9952
7295 22.9034 196(23) 214.9978 179.9812
7296 22.9064 236(25) 215.5244 179.9673
7297 22.9094 185(22) 216.3028 179.9533
7298 22.9124 216(24) 217.3371 179.9393
7299 22.9154 205(24) 218.6325 179.9254
7300 22.9184 203(23) 220.1777 179.9114
7301 22.9214 215(24) 221.9660 179.8974
7302 22.9244 201(23) 223.9730 179.8835
7303 22.9274 229(25) 226.1649 179.8695
7304 22.9304 225(25) 228.4944 179.8555
7305 22.9334 214(24) 230.9011 179.8416
7306 22.9364 212(24) 233.3168 179.8276
7307 22.9394 235(25) 235.6564 179.8137
7308 22.9424 252(26) 237.8454 179.7997
7309 22.9454 202(23) 239.8066 179.7857
7310 22.9484 219(23) 241.4679 179.7718
7311 22.9514 247(25) 242.7658 179.7578
7312 22.9544 217(24) 243.6573 179.7439
7313 22.9574 220(24) 244.1267 179.7299
7314 22.9604 239(25) 244.1615 179.7159
7315 22.9634 260(27) 243.7767 179.7020
7316 22.9664 232(25) 243.0016 179.6880
7317 22.9694 213(24) 241.8758 179.6740
7318 22.9724 212(24) 240.4469 179.6600
7319 22.9754 223(25) 238.7721 179.6461
7320 22.9784 232(25) 236.9041 179.6321
7321 22.9814 208(24) 234.9005 179.6182
7322 22.9844 222(24) 232.8184 179.6042
7323 22.9874 248(26) 230.7159 179.5902
7324 22.9904 175(22) 228.6427 179.5763
7325 22.9934 206(24) 226.6522 179.5623
7326 22.9964 256(26) 224.7911 179.5484
7327 22.9994 217(24) 223.1081 179.5344
7328 23.0024 182(22) 221.6285 179.5204
7329 23.0054 198(23) 220.3804 179.5065
7330 23.0084 255(26) 219.3784 179.4925
7331 23.0114 207(24) 218.6304 179.4785
7332 23.0144 231(25) 218.1300 179.4646
7333 23.0174 231(25) 217.8600 179.4506
7334 23.0204 239(25) 217.7965 179.4366
7335 23.0234 194(23) 217.9036 179.4227
7336 23.0264 255(26) 218.1474 179.4087
7337 23.0294 189(23) 218.4834 179.3948
7338 23.0324 176(22) 218.8712 179.3808
7339 23.0354 177(22) 219.2710 179.3668
7340 23.0384 183(22) 219.6564 179.3529
7341 23.0414 205(24) 220.0037 179.3389
7342 23.0444 244(26) 220.3013 179.3249
7343 23.0474 216(24) 220.5524 179.3110
7344 23.0504 215(24) 220.7678 179.2970
7345 23.0534 179(22) 220.9717 179.2831
7346 23.0564 203(23) 221.1935 179.2691
7347 23.0594 173(22) 221.4544 179.2551
7348 23.0624 198(23) 221.7872 179.2411
7349 23.0654 205(24) 222.2138 179.2272
7350 23.0684 191(23) 222.7464 179.2132
7351 23.0714 212(24) 223.3837 179.1993
7352 23.0744 265(27) 224.1151 179.1853
7353 23.0774 206(24) 224.9164 179.1713
7354 23.0804 210(24) 225.7554 179.1574
7355 23.0834 238(25) 226.5867 179.1434
7356 23.0864 228(25) 227.3666 179.1295
7357 23.0894 201(23) 228.0475 179.1155
7358 23.0924 205(23) 228.5840 179.1015
7359 23.0954 190(23) 228.9443 179.0876
7360 23.0984 242(26) 229.0988 179.0736
7361 23.1014 194(23) 229.0329 179.0596
7362 23.1044 208(24) 228.7487 179.0457
7363 23.1074 177(22) 228.2644 179.0317
7364 23.1104 176(22) 227.6057 179.0177
7365 23.1134 195(23) 226.8145 179.0038
7366 23.1164 198(23) 225.9373 178.9898
7367 23.1194 174(22) 225.0270 178.9758
7368 23.1224 174(22) 224.1313 178.9619
7369 23.1254 181(22) 223.2963 178.9479
7370 23.1284 184(22) 222.5603 178.9340
7371 23.1314 179(22) 221.9511 178.9200
7372 23.1344 235(25) 221.4854 178.9060
7373 23.1374 175(22) 221.1688 178.8921
7374 23.1404 155(20) 220.9988 178.8781
7375 23.1434 158(21) 220.9626 178.8641
7376 23.1464 159(21) 221.0408 178.8502
7377 23.1494 190(23) 221.2112 178.8362
7378 23.1524 162(21) 221.4473 178.8223
7379 23.1554 220(24) 221.7233 178.8083
7380 23.1584 201(23) 222.0284 178.8103
7381 23.1614 196(23) 222.3300 178.8228
7382 23.1644 177(22) 222.5952 178.8354
7383 23.1674 149(20) 222.8002 178.8480
7384 23.1704 175(22) 222.9264 178.8605
7385 23.1734 166(21) 222.9586 178.8731
7386 23.1764 195(23) 222.8874 178.8857
7387 23.1794 177(22) 222.7091 178.8983
7388 23.1824 202(23) 222.4261 178.9108
7389 23.1854 197(23) 222.0494 178.9234
7390 23.1884 194(23) 221.5997 178.9360
7391 23.1914 153(20) 221.1003 178.9486
7392 23.1944 155(20) 220.5850 178.9611
7393 23.1974 190(23) 220.0917 178.9737
7394 23.2004 174(22) 219.6539 178.9863
7395 23.2034 196(23) 219.3130 178.9989
7396 23.2064 191(23) 219.0996 179.0114
7397 23.2094 212(24) 219.0357 179.0240
7398 23.2124 202(23) 219.1289 179.0366
7399 23.2154 184(22) 219.3768 179.0491
7400 23.2184 189(23) 219.7583 179.0617
7401 23.2214 203(23) 220.2450 179.0743
7402 23.2244 233(25) 220.7931 179.0869
7403 23.2274 247(26) 221.3521 179.0994
7404 23.2304 178(22) 221.8727 179.1120
7405 23.2334 204(23) 222.3109 179.1246
7406 23.2364 218(24) 222.6315 179.1372
7407 23.2394 252(26) 222.8178 179.1497
7408 23.2424 255(26) 222.8743 179.1623
7409 23.2454 237(25) 222.8252 179.1749
7410 23.2484 249(26) 222.7156 179.1875
7411 23.2514 210(24) 222.6091 179.2000
7412 23.2544 210(24) 222.5811 179.2126
7413 23.2574 225(25) 222.7126 179.2252
7414 23.2604 232(25) 223.0831 179.2378
7415 23.2634 189(23) 223.7631 179.2503
7416 23.2664 182(22) 224.8090 179.2629
7417 23.2694 207(24) 226.2526 179.2755
7418 23.2724 218(24) 228.1016 179.2881
7419 23.2754 212(24) 230.3382 179.3006
7420 23.2784 155(20) 232.9095 179.3132
7421 23.2814 253(26) 235.7417 179.3258
7422 23.2844 212(24) 238.7385 179.3383
7423 23.2874 245(26) 241.7853 179.3509
7424 23.2904 262(27) 244.7667 179.3635
7425 23.2934 230(25) 247.5603 179.3761
7426 23.2964 246(26) 250.0530 179.3886
7427 23.2994 265(27) 252.1497 179.4012
7428 23.3024 276(27) 253.7791 179.4138
7429 23.3054 281(28) 254.8981 179.4264
7430 23.3084 229(25) 255.4918 179.4389
7431 23.3114 252(26) 255.5761 179.4515
7432 23.3144 237(25) 255.1940 179.4641
7433 23.3174 257(26) 254.4071 179.4767
7434 23.3204 310(29) 253.2859 179.4892
7435 23.3234 269(27) 251.9075 179.5018
7436 23.3264 343(30) 250.3449 179.5144
7437 23.3294 252(26) 248.6646 179.5269
7438 23.3324 292(28) 246.9164 179.5395
7439 23.3354 328(30) 245.1452 179.5521
7440 23.3384 292(28) 243.3780 179.5647
7441 23.3414 270(27) 241.6387 179.5772
7442 23.3444 278(27) 239.9383 179.5898
7443 23.3474 255(26) 238.2852 179.6024
7444 23.3504 242(25) 236.6856 179.6150
7445 23.3534 285(28) 235.1526 179.6275
7446 23.3564 291(28) 233.6900 179.6401
7447 23.3594 253(26) 232.3101 179.6527
7448 23.3624 224(24) 231.0300 179.6653
7449 23.3654 251(26) 229.8617 179.6778
7450 23.3684 243(26) 228.8163 179.6904
7451 23.3714 318(29) 227.9029 179.7030
7452 23.3744 265(27) 227.1247 179.7155
7453 23.3774 270(27) 226.4724 179.7281
7454 23.3804 243(26) 225.9359 179.7407
7455 23.3834 251(26) 225.4937 179.7533
7456 23.3864 240(25) 225.1198 179.7659
7457 23.3894 205(24) 224.7844 179.7784
7458 23.3924 209(24) 224.4546 179.7910
7459 23.3954 292(28) 224.1050 179.8036
7460 23.3984 224(24) 223.7142 179.8161
7461 23.4014 252(26) 223.2641 179.8287
7462 23.4044 200(23) 222.7508 179.8413
7463 23.4074 220(24) 222.1767 179.8539
7464 23.4104 238(25) 221.5562 179.8664
7465 23.4134 263(27) 220.9162 179.8790
7466 23.4164 257(26) 220.2868 179.8916
7467 23.4194 266(27) 219.7073 179.9042
7468 23.4224 241(25) 219.2192 179.9167
7469 23.4254 289(28) 218.8610 179.9293
7470 23.4284 264(27) 218.6709 179.9419
7471 23.4314 251(26) 218.6786 179.9545
7472 23.4344 237(25) 218.9005 179.9670
7473 23.4374 264(27) 219.3462 179.9796
7474 23.4404 264(27) 220.0094 179.9922
7475 23.4434 216(24) 220.8729 180.0047
7476 23.4464 236(25) 221.9074 180.0173
7477 23.4494 282(28) 223.0764 180.0299
7478 23.4524 249(26) 224.3348 180.0425
7479 23.4554 248(26) 225.6344 180.0550
7480 23.4584 233(25) 226.9292 180.0676
7481 23.4614 237(25) 228.1734 180.0802
7482 23.4644 268(27) 229.3331 180.0928
7483 23.4674 241(26) 230.3786 180.1053
7484 23.4704 266(27) 231.2925 180.1179
7485 23.4734 226(25) 232.0675 180.1305
7486 23.4764 187(22) 232.7064 180.1431
7487 23.4794 234(25) 233.2181 180.1556
7488 23.4824 289(28) 233.6171 180.1682
7489 23.4854 269(27) 233.9224 180.1808
7490 23.4884 256(26) 234.1550 180.1933
7491 23.4914 256(26) 234.3351 180.2059
7492 23.4944 265(27) 234.4800 180.2185
7493 23.4974 239(25) 234.6043 180.2311
7494 23.5004 253(26) 234.7236 180.2437
7495 23.5034 239(25) 234.8507 180.2562
7496 23.5064 282(27) 234.9953 180.2688
7497 23.5094 304(29) 235.1672 180.2814
7498 23.5124 187(22) 235.3747 180.2939
7499 23.5154 232(25) 235.6250 180.3065
7500 23.5184 271(27) 235.9254 180.3191
7501 23.5214 294(28) 236.2824 180.3317
7502 23.5244 258(26) 236.7006 180.3442
7503 23.5274 296(28) 237.1844 180.3568
7504 23.5304 269(27) 237.7379 180.3694
7505 23.5334 307(29) 238.3616 180.3820
7506 23.5364 280(27) 239.0568 180.3945
7507 23.5394 311(29) 239.8230 180.4071
7508 23.5424 330(30) 240.6575 180.4197
7509 23.5454 256(26) 241.5554 180.4323
7510 23.5484 264(27) 242.5111 180.4448
7511 23.5514 257(26) 243.5179 180.4574
7512 23.5544 331(30) 244.5648 180.4700
7513 23.5574 268(27) 245.6461 180.4825
7514 23.5604 246(26) 246.7503 180.4951
7515 23.5634 299(28) 247.8612 180.5077
7516 23.5664 295(28) 248.9607 180.5203
7517 23.5694 290(28) 250.0284 180.5329
7518 23.5724 270(27) 251.0421 180.5454
7519 23.5754 289(28) 251.9789 180.5580
7520 23.5784 287(28) 252.8155 180.5706
7521 23.5814 281(28) 253.5337 180.5831
7522 23.5844 270(27) 254.1247 180.5957
7523 23.5874 295(28) 254.5877 180.6083
7524 23.5904 266(27) 254.9405 180.6209
7525 23.5934 281(28) 255.2098 180.6334
7526 23.5964 266(27) 255.4356 180.6460
7527 23.5994 300(28) 255.6697 180.6586
7528 23.6024 230(25) 255.9656 180.6712
7529 23.6054 272(27) 256.3728 180.6837
7530 23.6084 285(28) 256.9335 180.6963
7531 23.6114 231(25) 257.6777 180.7089
7532 23.6144 272(27) 258.6161 180.7215
7533 23.6174 311(29) 259.7380 180.7340
7534 23.6204 300(28) 261.0184 180.7466
7535 23.6234 294(28) 262.4129 180.7592
7536 23.6264 303(28) 263.8633 180.7717
7537 23.6294 313(29) 265.3036 180.7843
7538 23.6324 261(27) 266.6628 180.7969
7539 23.6354 290(28) 267.8705 180.8095
7540 23.6384 234(25) 268.8601 180.8220
7541 23.6414 307(29) 269.5753 180.8346
7542 23.6444 275(27) 269.9682 180.8472
7543 23.6474 335(30) 270.0042 180.8598
7544 23.6504 313(29) 269.6629 180.8723
7545 23.6534 256(26) 268.9337 180.8849
7546 23.6564 317(29) 267.8226 180.8975
7547 23.6594 323(30) 266.3434 180.9100
7548 23.6624 263(27) 264.5225 180.9226
7549 23.6654 236(25) 262.3850 180.9352
7550 23.6684 212(24) 259.9632 180.9478
7551 23.6714 240(26) 257.2879 180.9603
7552 23.6744 221(24) 254.3902 180.9729
7553 23.6774 232(25) 251.3003 180.9855
7554 23.6804 235(25) 248.0495 180.9981
7555 23.6834 213(24) 244.6741 181.0106
7556 23.6864 218(24) 241.2092 181.0232
7557 23.6894 317(29) 237.7011 181.0358
7558 23.6924 262(27) 234.1995 181.0484
7559 23.6954 228(25) 230.7597 181.0609
7560 23.6984 225(25) 227.4393 181.0735
7561 23.7014 228(25) 224.2982 181.0861
7562 23.7044 254(26) 221.3925 181.0986
7563 23.7074 259(27) 218.7675 181.1112
7564 23.7104 183(22) 216.4648 181.1238
7565 23.7134 226(25) 214.5102 181.1364
7566 23.7164 181(22) 212.9184 181.1490
7567 23.7194 228(25) 211.6870 181.1615
7568 23.7224 200(23) 210.8035 181.1741
7569 23.7254 176(22) 210.2392 181.1867
7570 23.7284 208(24) 209.9582 181.1992
7571 23.7314 220(24) 209.9162 181.2118
7572 23.7344 204(23) 210.0654 181.2244
7573 23.7374 169(21) 210.3593 181.2370
7574 23.7404 174(22) 210.7527 181.2495
7575 23.7434 217(24) 211.2030 181.2621
7576 23.7464 198(23) 211.6751 181.2747
7577 23.7494 150(20) 212.1388 181.2873
7578 23.7524 205(23) 212.5731 181.2998
7579 23.7554 164(21) 212.9610 181.3124
7580 23.7584 154(20) 213.2924 181.3250
7581 23.7614 163(21) 213.5137 181.2889
7582 23.7644 142(20) 213.6578 181.2406
7583 23.7674 244(26) 213.7386 181.1924
7584 23.7704 182(22) 213.7584 181.1441
7585 23.7734 185(22) 213.7233 181.0958
7586 23.7764 178(22) 213.6377 181.0476
7587 23.7794 153(20) 213.5078 180.9993
7588 23.7824 161(21) 213.3401 180.9510
7589 23.7854 201(23) 213.1439 180.9028
7590 23.7884 184(22) 212.9254 180.8545
7591 23.7914 194(23) 212.6906 180.8062
7592 23.7944 169(21) 212.4439 180.7580
7593 23.7974 213(24) 212.1903 180.7097
7594 23.8004 181(22) 211.9307 180.6614
7595 23.8034 170(21) 211.6638 180.6131
7596 23.8064 172(21) 211.3871 180.5649
7597 23.8094 149(20) 211.0955 180.5166
7598 23.8124 196(23) 210.7829 180.4683
7599 23.8154 179(22) 210.4448 180.4201
7600 23.8184 220(24) 210.0781 180.3718
7601 23.8214 171(22) 209.6800 180.3235
7602 23.8244 130(19) 209.2539 180.2753
7603 23.8274 183(22) 208.8048 180.2270
7604 23.8304 170(21) 208.3429 180.1787
7605 23.8334 163(21) 207.8825 180.1305
7606 23.8364 191(23) 207.4440 180.0822
7607 23.8394 184(22) 207.0473 180.0340
7608 23.8424 183(22) 206.7127 179.9857
7609 23.8454 167(21) 206.4683 179.9374
7610 23.8484 155(20) 206.3297 179.8891
7611 23.8514 173(22) 206.3173 179.8409
7612 23.8544 200(23) 206.4427 179.7926
7613 23.8574 172(22) 206.7122 179.7443
7614 23.8604 206(24) 207.1253 179.6961
7615 23.8634 204(23) 207.6781 179.6478
7616 23.8664 185(22) 208.3579 179.5995
7617 23.8694 193(23) 209.1469 179.5513
7618 23.8724 189(23) 210.0232 179.5030
7619 23.8754 193(23) 210.9592 179.4547
7620 23.8784 245(26) 211.9283 179.4064
7621 23.8814 222(25) 212.8998 179.3582
7622 23.8844 184(22) 213.8442 179.3099
7623 23.8874 214(24) 214.7330 179.2617
7624 23.8904 208(24) 215.5407 179.2134
7625 23.8934 199(23) 216.2442 179.1651
7626 23.8964 207(24) 216.8282 179.1169
7627 23.8994 196(23) 217.2827 179.0686
7628 23.9024 216(24) 217.6020 179.0203
7629 23.9054 214(24) 217.7899 178.9721
7630 23.9084 205(24) 217.8536 178.9238
7631 23.9114 207(24) 217.8104 178.8755
7632 23.9144 199(23) 217.6812 178.8273
7633 23.9174 227(25) 217.4904 178.7790
7634 23.9204 229(25) 217.2639 178.7307
7635 23.9234 246(26) 217.0320 178.6824
7636 23.9264 211(24) 216.8228 178.6342
7637 23.9294 246(26) 216.6624 178.5859
7638 23.9324 219(24) 216.5753 178.5376
7639 23.9354 272(27) 216.5822 178.4894
7640 23.9384 210(24) 216.6959 178.4411
7641 23.9414 211(24) 216.9221 178.3928
7642 23.9444 240(25) 217.2636 178.3446
7643 23.9474 181(22) 217.7110 178.2963
7644 23.9504 199(23) 218.2511 178.2480
7645 23.9534 220(24) 218.8620 178.1998
7646 23.9564 198(23) 219.5172 178.1515
7647 23.9594 230(25) 220.1860 178.1032
7648 23.9624 197(23) 220.8351 178.0550
7649 23.9654 202(23) 221.4311 178.0067
7650 23.9684 214(24) 221.9417 177.9585
7651 23.9714 261(27) 222.3390 177.9102
7652 23.9744 230(25) 222.5992 177.8619
7653 23.9774 232(25) 222.7057 177.8136
7654 23.9804 249(26) 222.6492 177.7654
7655 23.9834 239(25) 222.4283 177.7171
7656 23.9864 226(25) 222.0482 177.6688
7657 23.9894 286(28) 221.5215 177.6205
7658 23.9924 254(26) 220.8662 177.5723
7659 23.9954 315(29) 220.1050 177.5240
7660 23.9984 227(25) 219.2646 177.4758
7661 24.0014 259(26) 218.3743 177.4275
7662 24.0044 243(26) 217.4655 177.3792
7663 24.0074 204(24) 216.5718 177.3309
7664 24.0104 179(22) 215.7249 177.2827
7665 24.0134 233(25) 214.9568 177.2344
7666 24.0164 228(25) 214.2944 177.1862
7667 24.0194 248(26) 213.7608 177.1379
7668 24.0224 242(25) 213.3727 177.0896
7669 24.0254 202(23) 213.1386 177.0414
7670 24.0284 242(26) 213.0590 176.9931
7671 24.0314 231(25) 213.1236 176.9448
7672 24.0344 220(24) 213.3160 176.8965
7673 24.0374 205(24) 213.6099 176.8483
7674 24.0404 214(24) 213.9747 176.8000
7675 24.0434 197(23) 214.3766 176.7517
7676 24.0464 201(23) 214.7815 176.7035
7677 24.0494 258(26) 215.1567 176.6552
7678 24.0524 217(24) 215.4747 176.6069
7679 24.0554 242(26) 215.7148 176.5587
7680 24.0584 243(26) 215.8629 176.5104
7681 24.0614 258(26) 215.9136 176.4621
7682 24.0644 198(23) 215.8674 176.4139
7683 24.0674 210(24) 215.7295 176.3656
7684 24.0704 177(22) 215.5096 176.3173
7685 24.0734 203(23) 215.2177 176.2691
7686 24.0764 197(23) 214.8634 176.2208
7687 24.0794 219(24) 214.4550 176.1725
7688 24.0824 206(23) 213.9967 176.1243
7689 24.0854 230(25) 213.4925 176.0760
7690 24.0884 197(24) 212.9429 176.0277
7691 24.0914 236(26) 212.3487 175.9795
7692 24.0944 163(22) 211.7111 175.9312
7693 24.0974 184(23) 211.0322 175.8829
7694 24.1004 204(24) 210.3181 175.8346
7695 24.1034 201(24) 209.5783 175.7864
7696 24.1064 178(23) 208.8248 175.7381
7697 24.1094 178(23) 208.0735 175.6899
7698 24.1124 186(23) 207.3427 175.6416
7699 24.1154 198(24) 206.6503 175.5933
7700 24.1184 176(23) 206.0133 175.5450
7701 24.1214 167(22) 205.4453 175.4968
7702 24.1244 175(23) 204.9558 175.4485
7703 24.1274 153(21) 204.5472 175.4003
7704 24.1304 133(20) 204.2179 175.3520
7705 24.1334 173(23) 203.9588 175.3037
7706 24.1364 152(21) 203.7563 175.2554
7707 24.1394 162(22) 203.5922 175.2072
7708 24.1424 166(22) 203.4466 175.1589
7709 24.1454 183(23) 203.2997 175.1107
7710 24.1484 163(22) 203.1339 175.0624
7711 24.1514 192(24) 202.9344 175.0141
7712 24.1544 182(23) 202.6938 174.9659
7713 24.1574 183(23) 202.4088 174.9176
7714 24.1604 142(20) 202.0836 174.8693
7715 24.1634 179(23) 201.7294 174.8210
7716 24.1664 186(23) 201.3617 174.7728
7717 24.1694 197(24) 201.0025 174.7245
7718 24.1724 179(23) 200.6752 174.6762
7719 24.1754 189(24) 200.4063 174.6280
7720 24.1784 164(22) 200.2223 174.5797
7721 24.1814 153(21) 200.1487 174.5314
7722 24.1844 202(24) 200.2080 174.4832
7723 24.1874 181(23) 200.4203 174.4349
7724 24.1904 200(24) 200.7986 174.3866
7725 24.1934 221(25) 201.3512 174.3384
7726 24.1964 184(23) 202.0778 174.2901
7727 24.1994 154(21) 202.9710 174.2418
7728 24.2024 212(25) 204.0143 174.1936
7729 24.2054 176(23) 205.1824 174.1453
7730 24.2084 134(20) 206.4440 174.0970
7731 24.2114 159(22) 207.7580 174.0488
7732 24.2144 162(22) 209.0832 174.0005
7733 24.2174 180(23) 210.3721 173.9522
7734 24.2204 172(22) 211.5793 173.9040
7735 24.2234 171(22) 212.6619 173.8557
7736 24.2264 203(24) 213.5832 173.8074
7737 24.2294 152(21) 214.3148 173.7591
7738 24.2324 165(22) 214.8375 173.7109
7739 24.2354 162(22) 215.1424 173.6626
7740 24.2384 174(22) 215.2323 173.6143
7741 24.2414 215(25) 215.1198 173.5661
7742 24.2444 200(24) 214.8253 173.5178
7743 24.2474 145(21) 214.3771 173.4695
7744 24.2504 152(21) 213.8077 173.4213
7745 24.2534 152(21) 213.1515 173.3730
7746 24.2564 163(22) 212.4429 173.3248
7747 24.2594 182(23) 211.7133 173.2765
7748 24.2624 220(25) 210.9915 173.2282
7749 24.2654 150(21) 210.2989 173.1799
7750 24.2684 170(22) 209.6532 173.1317
7751 24.2714 175(23) 209.0651 173.0834
7752 24.2744 188(23) 208.5402 173.0351
7753 24.2774 217(25) 208.0802 172.9869
7754 24.2804 173(22) 207.6830 172.9386
7755 24.2834 154(21) 207.3462 172.8903
7756 24.2864 213(25) 207.0652 172.8421
7757 24.2894 222(25) 206.8362 172.7938
7758 24.2924 204(24) 206.6558 172.7455
7759 24.2954 185(23) 206.5204 172.6973
7760 24.2984 204(24) 206.4281 172.6490
7761 24.3014 192(24) 206.3763 172.6007
7762 24.3044 198(24) 206.3630 172.5525
7763 24.3074 228(26) 206.3853 172.5042
7764 24.3104 183(23) 206.4412 172.4559
7765 24.3134 236(26) 206.5288 172.4077
7766 24.3164 193(24) 206.6462 172.3594
7767 24.3194 206(25) 206.7927 172.3111
7768 24.3224 215(25) 206.9692 172.2629
7769 24.3254 188(23) 207.1783 172.2146
7770 24.3284 190(23) 207.4239 172.1663
7771 24.3314 187(23) 207.7108 172.1181
7772 24.3344 237(26) 208.0445 172.0698
7773 24.3374 153(21) 208.4293 172.0215
7774 24.3404 209(25) 208.8669 171.9732
7775 24.3434 183(23) 209.3551 171.9250
7776 24.3464 209(25) 209.8882 171.8767
7777 24.3494 173(22) 210.4533 171.8285
7778 24.3524 236(26) 211.0318 171.7802
7779 24.3554 225(26) 211.6012 171.7319
7780 24.3584 232(26) 212.1346 171.6836
7781 24.3614 155(21) 212.6044 171.6354
7782 24.3644 165(22) 212.9834 171.5871
7783 24.3674 219(25) 213.2478 171.5388
7784 24.3704 178(23) 213.3797 171.4906
7785 24.3734 207(25) 213.3688 171.4423
7786 24.3764 189(23) 213.2133 171.3940
7787 24.3794 226(26) 212.9208 171.3458
7788 24.3824 228(26) 212.5075 171.2975
7789 24.3854 261(28) 211.9981 171.2492
7790 24.3884 215(25) 211.4226 171.2010
7791 24.3914 212(25) 210.8144 171.1527
7792 24.3944 186(23) 210.2092 171.1044
7793 24.3974 202(24) 209.6419 171.0562
7794 24.4004 194(24) 209.1448 171.0079
7795 24.4034 174(23) 208.7459 170.9596
7796 24.4064 213(25) 208.4685 170.9113
7797 24.4094 255(27) 208.3311 170.8631
7798 24.4124 245(27) 208.3469 170.8148
7799 24.4154 240(26) 208.5259 170.7666
7800 24.4184 243(27) 208.8755 170.7183
7801 24.4214 187(23) 209.4021 170.6700
7802 24.4244 235(26) 210.1122 170.6217
7803 24.4274 240(26) 211.0132 170.5735
7804 24.4304 237(26) 212.1131 170.5252
7805 24.4334 217(25) 213.4191 170.4770
7806 24.4364 189(23) 214.9398 170.4287
7807 24.4394 305(30) 216.6784 170.3804
7808 24.4424 244(27) 218.6334 170.3322
7809 24.4454 265(28) 220.7953 170.2839
7810 24.4484 265(28) 223.1456 170.2356
7811 24.4514 238(26) 225.6549 170.1873
7812 24.4544 275(28) 228.2816 170.1391
7813 24.4574 235(26) 230.9784 170.0908
7814 24.4604 288(27) 233.6849 170.0426
7815 24.4634 264(27) 236.3362 169.9943
7816 24.4664 264(28) 238.8645 169.9460
7817 24.4694 265(28) 241.2035 169.8977
7818 24.4724 263(28) 243.2910 169.8495
7819 24.4754 280(29) 245.0734 169.8012
7820 24.4784 264(28) 246.5082 169.7529
7821 24.4814 266(28) 247.5679 169.7047
7822 24.4844 223(25) 248.2381 169.6564
7823 24.4874 221(25) 248.5194 169.6081
7824 24.4904 318(30) 248.4272 169.5599
7825 24.4934 268(28) 247.9895 169.5116
7826 24.4964 249(27) 247.2432 169.4633
7827 24.4994 259(28) 246.2344 169.4151
7828 24.5024 203(24) 245.0112 169.3668
7829 24.5054 208(25) 243.6253 169.3185
7830 24.5084 244(27) 242.1271 169.2703
7831 24.5114 253(27) 240.5665 169.2220
7832 24.5144 250(27) 238.9883 169.1737
7833 24.5174 236(26) 237.4343 169.1254
7834 24.5204 266(28) 235.9420 169.0772
7835 24.5234 219(25) 234.5414 169.0289
7836 24.5264 260(27) 233.2594 168.9807
7837 24.5294 227(26) 232.1170 168.9324
7838 24.5324 236(26) 231.1293 168.8841
7839 24.5354 238(26) 230.3053 168.8358
7840 24.5384 175(23) 229.6472 168.7876
7841 24.5414 200(24) 229.1512 168.7393
7842 24.5444 189(23) 228.8073 168.6911
7843 24.5474 250(27) 228.5990 168.6428
7844 24.5504 268(28) 228.5053 168.5945
7845 24.5534 248(27) 228.5012 168.5462
7846 24.5564 240(26) 228.5583 168.4980
7847 24.5594 198(24) 228.6473 168.4497
7848 24.5624 239(26) 228.7394 168.4014
7849 24.5654 238(26) 228.8076 168.3532
7850 24.5684 236(26) 228.8282 168.3049
7851 24.5714 236(26) 228.7824 168.2567
7852 24.5744 253(27) 228.6568 168.2084
7853 24.5774 242(26) 228.4442 168.1601
7854 24.5804 247(27) 228.1437 168.1118
7855 24.5834 242(27) 227.7600 168.0636
7856 24.5864 242(27) 227.3032 168.0153
7857 24.5894 224(25) 226.7866 167.9670
7858 24.5924 231(26) 226.2260 167.9188
7859 24.5954 265(28) 225.6373 167.8705
7860 24.5984 220(25) 225.0353 167.8222
7861 24.6014 185(23) 224.4315 167.7740
7862 24.6044 215(25) 223.8334 167.7257
7863 24.6074 229(26) 223.2445 167.6774
7864 24.6104 245(27) 222.6637 167.6292
7865 24.6134 246(27) 222.0849 167.5809
7866 24.6164 211(25) 221.5005 167.5326
7867 24.6194 211(25) 220.9013 167.4844
7868 24.6224 294(29) 220.2793 167.4361
7869 24.6254 225(26) 219.6289 167.3878
7870 24.6284 207(24) 218.9484 167.3395
7871 24.6314 245(27) 218.2420 167.2913
7872 24.6344 247(27) 217.5178 167.2430
7873 24.6374 257(27) 216.7908 167.1948
7874 24.6404 235(26) 216.0789 167.1465
7875 24.6434 222(25) 215.4031 167.0982
7876 24.6464 215(25) 214.7851 167.0499
7877 24.6494 227(26) 214.2451 167.0017
7878 24.6524 260(27) 213.8005 166.9534
7879 24.6554 239(26) 213.4632 166.9052
7880 24.6584 264(28) 213.2415 166.8569
7881 24.6614 230(26) 213.1370 166.8086
7882 24.6644 228(26) 213.1462 166.7603
7883 24.6674 210(25) 213.2619 166.7121
7884 24.6704 217(25) 213.4736 166.6638
7885 24.6734 217(25) 213.7697 166.6155
7886 24.6764 220(25) 214.1389 166.5673
7887 24.6794 244(27) 214.5723 166.5190
7888 24.6824 213(25) 215.0627 166.4707
7889 24.6854 239(26) 215.6062 166.4225
7890 24.6884 244(27) 216.2020 166.3742
7891 24.6914 198(24) 216.8507 166.3259
7892 24.6944 209(25) 217.5544 166.2777
7893 24.6974 213(25) 218.3133 166.2294
7894 24.7004 230(26) 219.1264 166.1812
7895 24.7034 226(26) 219.9868 166.1329
7896 24.7064 221(25) 220.8824 166.0846
7897 24.7094 235(26) 221.7943 166.0363
7898 24.7124 255(27) 222.6963 165.9881
7899 24.7154 224(26) 223.5555 165.9398
7900 24.7184 263(28) 224.3339 165.8915
7901 24.7214 219(25) 224.9909 165.8433
7902 24.7244 250(27) 225.4842 165.7950
7903 24.7274 261(28) 225.7735 165.7467
7904 24.7304 222(25) 225.8237 165.6985
7905 24.7334 207(25) 225.6082 165.6502
7906 24.7364 271(28) 225.1098 165.6019
7907 24.7394 255(27) 224.3241 165.5536
7908 24.7424 207(24) 223.2594 165.5054
7909 24.7454 209(25) 221.9352 165.4571
7910 24.7484 237(26) 220.3834 165.4089
7911 24.7514 212(25) 218.6457 165.3606
7912 24.7544 203(24) 216.7700 165.3123
7913 24.7574 193(24) 214.8082 165.2640
7914 24.7604 196(24) 212.8134 165.2158
7915 24.7634 193(24) 210.8381 165.1675
7916 24.7664 214(25) 208.9265 165.1193
7917 24.7694 212(25) 207.1208 165.0710
7918 24.7724 209(25) 205.4544 165.0227
7919 24.7754 167(22) 203.9530 164.9744
7920 24.7784 215(25) 202.6352 164.9262
7921 24.7814 170(22) 201.5115 164.8779
7922 24.7844 222(25) 200.5861 164.8296
7923 24.7874 173(22) 199.8576 164.7814
7924 24.7904 139(20) 199.3200 164.7331
7925 24.7934 180(23) 198.9649 164.6848
7926 24.7964 209(25) 198.7806 164.6366
7927 24.7994 164(22) 198.7531 164.5883
7928 24.8024 183(23) 198.8672 164.5400
7929 24.8054 182(23) 199.1070 164.4918
7930 24.8084 180(23) 199.4548 164.4435
7931 24.8114 165(22) 199.8930 164.3952
7932 24.8144 168(22) 200.4034 164.3470
7933 24.8174 172(22) 200.9660 164.2987
7934 24.8204 190(24) 201.5603 164.2504
7935 24.8234 223(26) 202.1651 164.2021
7936 24.8264 236(26) 202.7583 164.1539
7937 24.8294 179(23) 203.3171 164.1057
7938 24.8324 215(25) 203.8188 164.0574
7939 24.8354 174(23) 204.2399 164.0091
7940 24.8384 185(23) 204.5574 163.9608
7941 24.8414 195(24) 204.7516 163.9126
7942 24.8444 201(24) 204.8043 163.8643
7943 24.8474 185(23) 204.7016 163.8160
7944 24.8504 163(22) 204.4351 163.7677
7945 24.8534 188(23) 204.0028 163.7195
7946 24.8564 180(23) 203.4085 163.6712
7947 24.8594 176(23) 202.6638 163.6230
7948 24.8624 209(25) 201.7876 163.5747
7949 24.8654 169(22) 200.8045 163.5264
7950 24.8684 219(25) 199.7444 163.4781
7951 24.8714 195(24) 198.6400 163.4299
7952 24.8744 197(24) 197.5273 163.3816
7953 24.8774 199(24) 196.4390 163.3334
7954 24.8804 199(24) 195.4072 163.2851
7955 24.8834 162(22) 194.4594 163.2368
7956 24.8864 153(21) 193.6169 163.1885
7957 24.8894 144(20) 192.8939 163.1403
7958 24.8924 193(24) 192.2976 163.0920
7959 24.8954 219(25) 191.8276 163.0438
7960 24.8984 214(25) 191.4759 162.9955
7961 24.9014 192(24) 191.2291 162.9472
7962 24.9044 170(22) 191.0685 162.8989
7963 24.9074 209(25) 190.9718 162.8507
7964 24.9104 228(26) 190.9149 162.8024
7965 24.9134 197(24) 190.8726 162.7541
7966 24.9164 198(24) 190.8222 162.7059
7967 24.9194 160(22) 190.7428 162.6576
7968 24.9224 198(24) 190.6176 162.6093
7969 24.9254 183(23) 190.4352 162.5611
7970 24.9284 216(25) 190.1887 162.5128
7971 24.9314 234(26) 189.8774 162.4645
7972 24.9344 201(24) 189.5052 162.4163
7973 24.9374 161(22) 189.0812 162.3680
7974 24.9404 195(24) 188.6184 162.3197
7975 24.9434 161(22) 188.1323 162.2715
7976 24.9464 199(24) 187.6408 162.2232
7977 24.9494 222(25) 187.1621 162.1749
7978 24.9524 201(24) 186.7144 162.1266
7979 24.9554 167(22) 186.3139 162.0784
7980 24.9584 155(21) 185.9754 162.0301
7981 24.9614 181(23) 185.7106 161.9819
7982 24.9644 181(23) 185.5280 161.9336
7983 24.9674 173(23) 185.4338 161.8853
7984 24.9704 146(21) 185.4311 161.8371
7985 24.9734 206(25) 185.5197 161.7888
7986 24.9764 143(20) 185.6976 161.7405
7987 24.9794 157(21) 185.9601 161.6922
7988 24.9824 171(22) 186.3002 161.6440
7989 24.9854 170(22) 186.7091 161.5957
7990 24.9884 172(22) 187.1766 161.5475
7991 24.9914 162(22) 187.6914 161.4992
7992 24.9944 197(24) 188.2419 161.4509
7993 24.9974 218(25) 188.8158 161.4026
7994 25.0004 196(24) 189.4025 161.3544
7995 25.0034 165(22) 189.9930 161.3061
7996 25.0064 194(24) 190.5803 161.2579
7997 25.0094 182(23) 191.1617 161.2096
7998 25.0124 192(24) 191.7376 161.1613
7999 25.0154 190(24) 192.3122 161.1130
8000 25.0184 137(20) 192.8920 161.0648
8001 25.0214 162(22) 193.4792 161.0090
8002 25.0244 167(22) 194.0810 160.9422
8003 25.0274 169(22) 194.7178 160.8753
8004 25.0304 170(22) 195.3988 160.8084
8005 25.0334 116(18) 196.1270 160.7415
8006 25.0364 187(23) 196.9023 160.6746
8007 25.0394 165(22) 197.7169 160.6077
8008 25.0424 166(22) 198.5579 160.5408
8009 25.0454 200(24) 199.4057 160.4740
8010 25.0484 214(25) 200.2373 160.4071
8011 25.0514 215(25) 201.0257 160.3402
8012 25.0544 152(21) 201.7444 160.2733
8013 25.0574 208(25) 202.3678 160.2064
8014 25.0604 194(24) 202.8739 160.1395
8015 25.0634 206(25) 203.2464 160.0726
8016 25.0664 189(23) 203.4759 160.0058
8017 25.0694 201(24) 203.5592 159.9389
8018 25.0724 196(24) 203.5010 159.8720
8019 25.0754 265(28) 203.3116 159.8051
8020 25.0784 188(23) 203.0063 159.7382
8021 25.0814 227(26) 202.6041 159.6713
8022 25.0844 196(24) 202.1241 159.6044
8023 25.0874 219(25) 201.5859 159.5376
8024 25.0904 232(26) 201.0056 159.4707
8025 25.0934 262(28) 200.3993 159.4038
8026 25.0964 184(23) 199.7759 159.3369
8027 25.0994 225(26) 199.1436 159.2700
8028 25.1024 218(25) 198.5060 159.2031
8029 25.1054 187(23) 197.8652 159.1362
8030 25.1084 193(24) 197.2200 159.0694
8031 25.1114 206(25) 196.5697 159.0025
8032 25.1144 197(24) 195.9119 158.9356
8033 25.1174 198(24) 195.2457 158.8687
8034 25.1204 212(25) 194.5704 158.8018
8035 25.1234 157(21) 193.8876 158.7349
8036 25.1264 178(23) 193.1991 158.6680
8037 25.1294 165(22) 192.5098 158.6012
8038 25.1324 196(24) 191.8257 158.5343
8039 25.1354 178(23) 191.1541 158.4674
8040 25.1384 138(20) 190.5050 158.4005
8041 25.1414 164(22) 189.8864 158.3336
8042 25.1444 155(21) 189.3101 158.2667
8043 25.1474 198(24) 188.7853 158.1998
8044 25.1504 124(19) 188.3217 158.1329
8045 25.1534 163(22) 187.9278 158.0661
8046 25.1564 171(22) 187.6094 157.9992
8047 25.1594 158(22) 187.3705 157.9323
8048 25.1624 137(20) 187.2113 157.8654
8049 25.1654 149(21) 187.1292 157.7985
8050 25.1684 171(22) 187.1182 157.7316
8051 25.1714 128(19) 187.1696 157.6647
8052 25.1744 135(20) 187.2726 157.5979
8053 25.1774 164(22) 187.4146 157.5310
8054 25.1804 174(23) 187.5829 157.4641
8055 25.1834 211(25) 187.7649 157.3972
8056 25.1864 175(23) 187.9491 157.3303
8057 25.1894 135(20) 188.1264 157.2634
8058 25.1924 176(23) 188.2896 157.1965
8059 25.1954 184(23) 188.4355 157.1297
8060 25.1984 151(21) 188.5621 157.0628
8061 25.2014 182(23) 188.6709 156.9959
8062 25.2044 195(24) 188.7658 156.9290
8063 25.2074 214(25) 188.8516 156.8621
8064 25.2104 183(23) 188.9347 156.7952
8065 25.2134 148(21) 189.0211 156.7283
8066 25.2164 182(23) 189.1173 156.6615
8067 25.2194 161(22) 189.2284 156.5946
8068 25.2224 185(23) 189.3587 156.5277
8069 25.2254 206(24) 189.5112 156.4608
8070 25.2284 198(24) 189.6868 156.3939
8071 25.2314 148(21) 189.8868 156.3270
8072 25.2344 213(25) 190.1098 156.2601
8073 25.2374 219(25) 190.3544 156.1933
8074 25.2404 179(23) 190.6190 156.1264
8075 25.2434 175(23) 190.9023 156.0595
8076 25.2464 180(23) 191.2033 155.9926
8077 25.2494 169(22) 191.5224 155.9257
8078 25.2524 198(24) 191.8610 155.8588
8079 25.2554 175(23) 192.2216 155.7919
8080 25.2584 229(26) 192.6072 155.7251
8081 25.2614 190(24) 193.0223 155.6582
8082 25.2644 195(24) 193.4704 155.5913
8083 25.2674 194(24) 193.9553 155.5244
8084 25.2704 191(24) 194.4777 155.4575
8085 25.2734 171(22) 195.0377 155.3906
8086 25.2764 186(23) 195.6313 155.3237
8087 25.2794 150(21) 196.2504 155.2569
8088 25.2824 197(24) 196.8848 155.1900
8089 25.2854 217(25) 197.5204 155.1231
8090 25.2884 214(25) 198.1398 155.0562
8091 25.2914 193(24) 198.7248 154.9893
8092 25.2944 204(24) 199.2557 154.9224
8093 25.2974 233(26) 199.7153 154.8555
8094 25.3004 195(24) 200.0877 154.7886
8095 25.3034 196(24) 200.3615 154.7218
8096 25.3064 201(24) 200.5301 154.6549
8097 25.3094 164(22) 200.5937 154.5880
8098 25.3124 223(25) 200.5592 154.5211
8099 25.3154 232(26) 200.4403 154.4542
8100 25.3184 185(23) 200.2573 154.3873
8101 25.3214 192(24) 200.0358 154.3204
8102 25.3244 210(25) 199.8064 154.2536
8103 25.3274 200(24) 199.6016 154.1867
8104 25.3304 177(23) 199.4537 154.1198
8105 25.3334 200(24) 199.3920 154.0529
8106 25.3364 201(24) 199.4416 153.9860
8107 25.3394 188(23) 199.6201 153.9191
8108 25.3424 155(21) 199.9363 153.8522
8109 25.3454 209(25) 200.3883 153.7854
8110 25.3484 245(27) 200.9626 153.7185
8111 25.3514 220(25) 201.6350 153.6516
8112 25.3544 183(23) 202.3712 153.5847
8113 25.3574 203(24) 203.1286 153.5178
8114 25.3604 230(26) 203.8593 153.4509
8115 25.3634 194(24) 204.5151 153.3840
8116 25.3664 184(23) 205.0473 153.3171
8117 25.3694 206(24) 205.4140 153.2503
8118 25.3724 204(24) 205.5798 153.1834
8119 25.3754 238(26) 205.5221 153.1165
8120 25.3784 255(27) 205.2300 153.0496
8121 25.3814 266(28) 204.7058 152.9827
8122 25.3844 265(28) 203.9630 152.9158
8123 25.3874 260(28) 203.0279 152.8489
8124 25.3904 263(28) 201.9334 152.7821
8125 25.3934 250(27) 200.7187 152.7152
8126 25.3964 172(22) 199.4236 152.6483
8127 25.3994 196(24) 198.0877 152.5814
8128 25.4024 202(24) 196.7475 152.5145
8129 25.4054 206(24) 195.4291 152.4476
8130 25.4084 182(23) 194.1556 152.3807
8131 25.4114 202(24) 192.9396 152.3138
8132 25.4144 187(23) 191.7890 152.2470
8133 25.4174 179(23) 190.7016 152.1801
8134 25.4204 183(23) 189.6732 152.1132
8135 25.4234 218(25) 188.6948 152.0463
8136 25.4264 206(25) 187.7559 151.9794
8137 25.4294 206(24) 186.8451 151.9125
8138 25.4324 236(26) 185.9536 151.8456
8139 25.4354 194(24) 185.0748 151.7788
8140 25.4384 150(21) 184.2034 151.7119
8141 25.4414 165(22) 183.3376 151.6450
8142 25.4444 147(21) 182.4774 151.5781
8143 25.4474 217(25) 181.6258 151.5112
8144 25.4504 189(23) 180.7859 151.4443
8145 25.4534 193(24) 179.9625 151.3774
8146 25.4564 171(22) 179.1611 151.3105
8147 25.4594 213(25) 178.3875 151.2437
8148 25.4624 161(22) 177.6461 151.1768
8149 25.4654 169(22) 176.9433 151.1099
8150 25.4684 192(24) 176.2833 151.0430
8151 25.4714 224(26) 175.6696 150.9761
8152 25.4744 179(23) 175.1069 150.9092
8153 25.4774 171(22) 174.5971 150.8423
8154 25.4804 184(23) 174.1408 150.7755
8155 25.4834 190(24) 173.7377 150.7086
8156 25.4864 201(24) 173.3844 150.6417
8157 25.4894 152(21) 173.0764 150.5748
8158 25.4924 195(24) 172.8069 150.5079
8159 25.4954 147(21) 172.5672 150.4410
8160 25.4984 184(23) 172.3475 150.3741
8161 25.5014 198(24) 172.1376 150.3073
8162 25.5044 169(23) 171.9264 150.2404
8163 25.5074 194(25) 171.7044 150.1735
8164 25.5104 149(22) 171.4621 150.1066
8165 25.5134 193(25) 171.1925 150.0397
8166 25.5164 156(22) 170.8895 149.9728
8167 25.5194 152(22) 170.5508 149.9059
8168 25.5224 193(25) 170.1751 149.8391
8169 25.5254 153(22) 169.7639 149.7722
8170 25.5284 170(23) 169.3218 149.7053
8171 25.5314 181(24) 168.8526 149.6384
8172 25.5344 177(24) 168.3632 149.5715
8173 25.5374 160(22) 167.8599 149.5046
8174 25.5404 158(22) 167.3508 149.4377
8175 25.5434 140(21) 166.8431 149.3708
8176 25.5464 142(21) 166.3453 149.3040
8177 25.5494 150(22) 165.8652 149.2371
8178 25.5524 107(18) 165.4120 149.1702
8179 25.5554 117(19) 164.9942 149.1033
8180 25.5584 130(20) 164.6222 149.0364
8181 25.5614 158(22) 164.3046 148.9695
8182 25.5644 145(21) 164.0512 148.9026
8183 25.5674 155(22) 163.8719 148.8358
8184 25.5704 151(22) 163.7759 148.7689
8185 25.5734 202(25) 163.8413 148.7731
8186 25.5764 133(20) 164.1449 148.9195
8187 25.5794 190(25) 164.5481 149.0658
8188 25.5824 187(24) 165.0518 149.2121
8189 25.5854 158(22) 165.6528 149.3584
8190 25.5884 129(20) 166.3449 149.5048
8191 25.5914 174(23) 167.1181 149.6511
8192 25.5944 197(25) 167.9600 149.7975
8193 25.5974 155(22) 168.8552 149.9438
8194 25.6004 206(25) 169.7858 150.0902
8195 25.6034 226(27) 170.7347 150.2364
8196 25.6064 197(25) 171.6856 150.3828
8197 25.6094 193(25) 172.6219 150.5291
8198 25.6124 202(25) 173.5303 150.6755
8199 25.6154 159(22) 174.3998 150.8218
8200 25.6184 202(25) 175.2251 150.9682
8201 25.6214 136(21) 176.0028 151.1145
8202 25.6244 167(23) 176.7350 151.2607
8203 25.6274 191(25) 177.4281 151.4071
8204 25.6304 145(21) 178.0901 151.5534
8205 25.6334 133(21) 178.7322 151.6998
8206 25.6364 155(22) 179.3661 151.8461
8207 25.6394 206(26) 180.0066 151.9925
8208 25.6424 135(21) 180.6651 152.1388
8209 25.6454 135(21) 181.3513 152.2851
8210 25.6484 190(24) 182.0727 152.4314
8211 25.6514 226(27) 182.8311 152.5778
8212 25.6544 141(21) 183.6241 152.7241
8213 25.6574 170(23) 184.4459 152.8705
8214 25.6604 159(22) 185.2842 153.0168
8215 25.6634 170(23) 186.1242 153.1631
8216 25.6664 183(24) 186.9452 153.3095
8217 25.6694 151(22) 187.7262 153.4557
8218 25.6724 179(24) 188.4453 153.6021
8219 25.6754 186(24) 189.0803 153.7484
8220 25.6784 165(23) 189.6128 153.8948
8221 25.6814 147(22) 190.0270 154.0411
8222 25.6844 189(24) 190.3129 154.1875
8223 25.6874 227(27) 190.4660 154.3338
8224 25.6904 173(23) 190.4880 154.4801
8225 25.6934 162(23) 190.3868 154.6264
8226 25.6964 214(26) 190.1740 154.7728
8227 25.6994 227(27) 189.8668 154.9191
8228 25.7024 185(24) 189.4853 155.0655
8229 25.7054 221(26) 189.0493 155.2118
8230 25.7084 188(24) 188.5797 155.3582
8231 25.7114 192(25) 188.0942 155.5044
8232 25.7144 175(23) 187.6072 155.6508
8233 25.7174 230(27) 187.1286 155.7971
8234 25.7204 211(26) 186.6638 155.9435
8235 25.7234 185(24) 186.2150 156.0898
8236 25.7264 160(22) 185.7794 156.2361
8237 25.7294 174(23) 185.3516 156.3825
8238 25.7324 184(24) 184.9249 156.5288
8239 25.7354 183(24) 184.4944 156.6751
8240 25.7384 177(24) 184.0548 156.8214
8241 25.7414 188(24) 183.6060 156.9678
8242 25.7444 164(23) 183.1497 157.1141
8243 25.7474 159(22) 182.6929 157.2605
8244 25.7504 174(23) 182.2462 157.4068
8245 25.7534 151(22) 181.8246 157.5532
8246 25.7564 199(25) 181.4440 157.6994
8247 25.7594 180(24) 181.1227 157.8458
8248 25.7624 164(23) 180.8780 157.9921
8249 25.7654 185(24) 180.7265 158.1384
8250 25.7684 170(23) 180.6806 158.2848
8251 25.7714 189(24) 180.7490 158.4311
8252 25.7744 183(24) 180.9359 158.5775
8253 25.7774 155(22) 181.2375 158.7237
8254 25.7804 165(23) 181.6480 158.8701
8255 25.7834 146(21) 182.1537 159.0164
8256 25.7864 145(21) 182.7378 159.1628
8257 25.7894 131(20) 183.3800 159.3091
8258 25.7924 150(22) 184.0576 159.4555
8259 25.7954 178(24) 184.7467 159.6018
8260 25.7984 164(23) 185.4250 159.7482
8261 25.8014 177(24) 186.0698 159.8944
8262 25.8044 170(23) 186.6612 160.0408
8263 25.8074 186(24) 187.1831 160.1871
8264 25.8104 135(21) 187.6207 160.3335
8265 25.8134 202(25) 187.9637 160.4798
8266 25.8164 125(20) 188.2063 160.6261
8267 25.8194 178(24) 188.3440 160.7725
8268 25.8224 125(20) 188.3773 160.9187
8269 25.8254 180(24) 188.3083 161.0651
8270 25.8284 244(28) 188.1450 161.2114
8271 25.8314 191(25) 187.8947 161.3578
8272 25.8344 140(21) 187.5680 161.5041
8273 25.8374 137(21) 187.1782 161.6505
8274 25.8404 161(23) 186.7391 161.7968
8275 25.8434 160(22) 186.2690 161.9431
8276 25.8464 176(23) 185.7852 162.0894
8277 25.8494 157(22) 185.3067 162.2358
8278 25.8524 174(23) 184.8537 162.3821
8279 25.8554 160(23) 184.4458 162.5285
8280 25.8584 158(22) 184.1013 162.6748
8281 25.8614 142(21) 183.8381 162.8212
8282 25.8644 197(25) 183.6730 162.9675
8283 25.8674 235(27) 183.6185 163.1137
8284 25.8704 181(24) 183.6852 163.2601
8285 25.8734 195(25) 183.8792 163.4064
8286 25.8764 182(24) 184.2028 163.5528
8287 25.8794 174(23) 184.6535 163.6991
8288 25.8824 165(23) 185.2239 163.8455
8289 25.8854 174(23) 185.9056 163.9918
8290 25.8884 173(23) 186.6823 164.1381
8291 25.8914 206(25) 187.5352 164.2844
8292 25.8944 247(28) 188.4441 164.4308
8293 25.8974 180(24) 189.3846 164.5771
8294 25.9004 175(23) 190.3301 164.7234
8295 25.9034 180(24) 191.2576 164.8698
8296 25.9064 179(24) 192.1415 165.0161
8297 25.9094 205(25) 192.9605 165.1625
8298 25.9124 161(23) 193.6927 165.3087
8299 25.9154 189(25) 194.3241 165.4551
8300 25.9184 155(22) 194.8392 165.6014
8301 25.9214 192(25) 195.2330 165.7478
8302 25.9244 216(26) 195.5043 165.8941
8303 25.9274 243(28) 195.6541 166.0405
8304 25.9304 176(24) 195.6922 166.1868
8305 25.9334 151(22) 195.6278 166.3331
8306 25.9364 184(24) 195.4801 166.4794
8307 25.9394 188(24) 195.2667 166.6258
8308 25.9424 195(25) 195.0081 166.7721
8309 25.9454 171(23) 194.7242 166.9185
8310 25.9484 176(24) 194.4387 167.0648
8311 25.9514 160(21) 194.1692 167.2112
8312 25.9544 210(25) 193.9346 167.3574
8313 25.9574 188(24) 193.7478 167.5038
8314 25.9604 169(23) 193.6184 167.6501
8315 25.9634 169(23) 193.5546 167.7964
8316 25.9664 140(21) 193.5593 167.9428
8317 25.9694 169(23) 193.6303 168.0891
8318 25.9724 184(24) 193.7622 168.2355
8319 25.9754 171(23) 193.9502 168.3818
8320 25.9784 134(21) 194.1822 168.5281
8321 25.9814 168(23) 194.4490 168.6744
8322 25.9844 159(22) 194.7399 168.8208
8323 25.9874 176(24) 194.9852 168.9086
8324 25.9904 135(21) 195.0977 168.8598
8325 25.9934 188(24) 195.2055 168.8110
8326 25.9964 146(22) 195.3034 168.7621
8327 25.9994 206(26) 195.3876 168.7134
8328 26.0024 143(21) 195.4570 168.6646
8329 26.0054 171(23) 195.5129 168.6158
8330 26.0084 165(23) 195.5569 168.5670
8331 26.0114 205(25) 195.5938 168.5182
8332 26.0144 192(25) 195.6277 168.4694
8333 26.0174 176(24) 195.6647 168.4206
8334 26.0204 172(23) 195.7092 168.3718
8335 26.0234 177(24) 195.7657 168.3230
8336 26.0264 186(24) 195.8356 168.2742
8337 26.0294 164(23) 195.9209 168.2254
8338 26.0324 190(24) 196.0205 168.1766
8339 26.0354 139(21) 196.1320 168.1278
8340 26.0384 159(22) 196.2529 168.0790
8341 26.0414 209(26) 196.3795 168.0302
8342 26.0444 160(22) 196.5096 167.9814
8343 26.0474 165(23) 196.6412 167.9326
8344 26.0504 213(26) 196.7749 167.8838
8345 26.0534 176(24) 196.9111 167.8350
8346 26.0564 183(24) 197.0559 167.7862
8347 26.0594 158(22) 197.2148 167.7374
8348 26.0624 201(25) 197.3958 167.6886
8349 26.0654 188(24) 197.6091 167.6398
8350 26.0684 182(24) 197.8641 167.5910
8351 26.0714 189(24) 198.1715 167.5422
8352 26.0744 172(23) 198.5387 167.4934
8353 26.0774 192(25) 198.9729 167.4446
8354 26.0804 187(24) 199.4760 167.3958
8355 26.0834 203(25) 200.0467 167.3470
8356 26.0864 260(29) 200.6775 167.2982
8357 26.0894 184(24) 201.3590 167.2494
8358 26.0924 229(27) 202.0784 167.2006
8359 26.0954 165(23) 202.8165 167.1518
8360 26.0984 186(24) 203.5522 167.1030
8361 26.1014 228(27) 204.2632 167.0542
8362 26.1044 194(25) 204.9271 167.0054
8363 26.1074 172(23) 205.5251 166.9566
8364 26.1104 188(24) 206.0396 166.9079
8365 26.1134 197(25) 206.4608 166.8590
8366 26.1164 186(24) 206.7839 166.8102
8367 26.1194 188(24) 207.0118 166.7614
8368 26.1224 221(26) 207.1557 166.7126
8369 26.1254 220(26) 207.2353 166.6638
8370 26.1284 191(25) 207.2767 166.6150
8371 26.1314 227(27) 207.3121 166.5663
8372 26.1344 184(24) 207.3783 166.5175
8373 26.1374 197(25) 207.5140 166.4687
8374 26.1404 186(24) 207.7596 166.4199
8375 26.1434 207(26) 208.1509 166.3710
8376 26.1464 225(27) 208.7213 166.3223
8377 26.1494 211(26) 209.4975 166.2735
8378 26.1524 211(26) 210.4960 166.2247
8379 26.1554 213(26) 211.7252 166.1759
8380 26.1584 270(29) 213.1800 166.1271
8381 26.1614 218(26) 214.8455 166.0783
8382 26.1644 229(27) 216.6953 166.0295
8383 26.1674 234(27) 218.6924 165.9807
8384 26.1704 279(30) 220.7906 165.9319
8385 26.1734 221(26) 222.9369 165.8831
8386 26.1764 202(25) 225.0713 165.8343
8387 26.1794 309(31) 227.1363 165.7855
8388 26.1824 270(29) 229.0672 165.7367
8389 26.1854 266(29) 230.8070 165.6879
8390 26.1884 328(32) 232.3009 165.6391
8391 26.1914 301(31) 233.5004 165.5903
8392 26.1944 271(29) 234.3650 165.5415
8393 26.1974 307(31) 234.8671 165.4927
8394 26.2004 260(29) 234.9910 165.4439
8395 26.2034 315(31) 234.7296 165.3951
8396 26.2064 271(29) 234.0937 165.3463
8397 26.2094 284(30) 233.1013 165.2975
8398 26.2124 336(32) 231.7845 165.2487
8399 26.2154 300(31) 230.1835 165.1999
8400 26.2184 251(28) 228.3467 165.1511
8401 26.2214 263(29) 226.3245 165.1023
8402 26.2244 253(28) 224.1720 165.0535
8403 26.2274 257(29) 221.9408 165.0047
8404 26.2304 275(29) 219.6841 164.9559
8405 26.2334 225(27) 217.4474 164.9071
8406 26.2364 237(27) 215.2711 164.8583
8407 26.2394 225(27) 213.1872 164.8095
8408 26.2424 249(28) 211.2205 164.7607
8409 26.2454 193(25) 209.3863 164.7119
8410 26.2484 210(26) 207.6935 164.6631
8411 26.2514 219(26) 206.1436 164.6143
8412 26.2544 181(24) 204.7351 164.5655
8413 26.2574 213(26) 203.4606 164.5167
8414 26.2604 208(26) 202.3132 164.4679
8415 26.2634 184(24) 201.2842 164.4191
8416 26.2664 212(26) 200.3667 164.3703
8417 26.2694 186(24) 199.5544 164.3215
8418 26.2724 249(28) 198.8434 164.2727
8419 26.2754 175(23) 198.2305 164.2239
8420 26.2784 175(24) 197.7140 164.1751
8421 26.2814 176(24) 197.2929 164.1263
8422 26.2844 234(27) 196.9662 164.0775
8423 26.2874 202(25) 196.7323 164.0287
8424 26.2904 181(24) 196.5854 163.9799
8425 26.2934 207(26) 196.5247 163.9312
8426 26.2964 237(27) 196.5453 163.8823
8427 26.2994 150(22) 196.6383 163.8335
8428 26.3024 185(24) 196.7948 163.7847
8429 26.3054 149(22) 197.0041 163.7359
8430 26.3084 205(25) 197.2556 163.6872
8431 26.3114 157(22) 197.5375 163.6384
8432 26.3144 157(22) 197.8394 163.5896
8433 26.3174 232(27) 198.1506 163.5408
8434 26.3204 170(23) 198.4622 163.4920
8435 26.3234 205(25) 198.7681 163.4432
8436 26.3264 194(25) 199.0627 163.3943
8437 26.3294 199(25) 199.3435 163.3456
8438 26.3324 188(24) 199.6079 163.2968
8439 26.3354 210(26) 199.8561 163.2480
8440 26.3384 197(25) 200.0877 163.1992
8441 26.3414 219(26) 200.3018 163.1504
8442 26.3444 199(25) 200.4991 163.1016
8443 26.3474 184(24) 200.6799 163.0528
8444 26.3504 232(27) 200.8417 163.0040
8445 26.3534 226(27) 200.9794 162.9552
8446 26.3564 189(24) 201.0892 162.9064
8447 26.3594 218(26) 201.1643 162.8576
8448 26.3624 233(27) 201.1982 162.8088
8449 26.3654 190(24) 201.1820 162.7600
8450 26.3684 223(26) 201.1088 162.7112
8451 26.3714 274(29) 200.9722 162.6624
8452 26.3744 222(26) 200.7661 162.6136
8453 26.3774 157(22) 200.4862 162.5648
8454 26.3804 192(25) 200.1344 162.5160
8455 26.3834 225(27) 199.7093 162.4672
8456 26.3864 163(23) 199.2157 162.4184
8457 26.3894 164(23) 198.6598 162.3696
8458 26.3924 180(24) 198.0499 162.3208
8459 26.3954 170(23) 197.3987 162.2720
8460 26.3984 159(22) 196.7152 162.2232
8461 26.4014 167(23) 196.0127 162.1744
8462 26.4044 214(26) 195.3036 162.1256
8463 26.4074 210(26) 194.5997 162.0768
8464 26.4104 195(25) 193.9115 162.0280
8465 26.4134 211(26) 193.2510 161.9792
8466 26.4164 166(23) 192.6276 161.9304
8467 26.4194 168(23) 192.0514 161.8816
8468 26.4224 192(25) 191.5330 161.8328
8469 26.4254 184(24) 191.0824 161.7840
8470 26.4284 206(25) 190.7080 161.7352
8471 26.4314 173(23) 190.4218 161.6864
8472 26.4344 182(24) 190.2300 161.6376
8473 26.4374 211(26) 190.1417 161.5888
8474 26.4404 210(26) 190.1607 161.5401
8475 26.4434 188(24) 190.2909 161.4912
8476 26.4464 166(23) 190.5313 161.4424
8477 26.4494 213(26) 190.8813 161.3936
8478 26.4524 204(25) 191.3331 161.3448
8479 26.4554 186(24) 191.8735 161.2960
8480 26.4584 159(22) 192.4911 161.2472
8481 26.4614 185(24) 193.1689 161.1985
8482 26.4644 161(23) 193.8872 161.1497
8483 26.4674 201(25) 194.6234 161.1009
8484 26.4704 216(26) 195.3587 161.0520
8485 26.4734 180(24) 196.0682 161.0033
8486 26.4764 223(27) 196.7308 160.9545
8487 26.4794 238(27) 197.3253 160.9056
8488 26.4824 205(25) 197.8366 160.8568
8489 26.4854 204(25) 198.2473 160.8081
8490 26.4884 163(23) 198.5506 160.7593
8491 26.4914 193(25) 198.7354 160.7105
8492 26.4944 176(24) 198.7980 160.6617
8493 26.4974 229(27) 198.7415 160.6129
8494 26.5004 226(27) 198.5671 160.5641
8495 26.5034 221(26) 198.2852 160.5153
8496 26.5064 187(24) 197.9060 160.4665
8497 26.5094 205(25) 197.4414 160.4177
8498 26.5124 212(26) 196.9090 160.3689
8499 26.5154 221(27) 196.3281 160.3201
8500 26.5184 232(27) 195.7156 160.2713
8501 26.5214 212(26) 195.0933 160.2225
8502 26.5244 268(29) 194.4818 160.1737
8503 26.5274 281(30) 193.9020 160.1249
8504 26.5304 203(25) 193.3745 160.0761
8505 26.5334 209(26) 192.9169 160.0273
8506 26.5364 200(25) 192.5434 159.9785
8507 26.5394 224(27) 192.2656 159.9297
8508 26.5424 202(25) 192.0929 159.8809
8509 26.5454 172(23) 192.0260 159.8321
8510 26.5484 196(25) 192.0603 159.7833
8511 26.5514 161(23) 192.1889 159.7345
8512 26.5544 219(26) 192.3960 159.6857
8513 26.5574 224(27) 192.6617 159.6369
8514 26.5604 167(23) 192.9632 159.5881
8515 26.5634 180(24) 193.2737 159.5393
8516 26.5664 222(26) 193.5676 159.4905
8517 26.5694 171(23) 193.8184 159.4417
8518 26.5724 200(25) 194.0032 159.3929
8519 26.5754 237(27) 194.1031 159.3441
8520 26.5784 238(27) 194.1067 159.2953
8521 26.5814 224(27) 194.0071 159.2465
8522 26.5844 199(25) 193.8051 159.1977
8523 26.5874 141(21) 193.5070 159.1489
8524 26.5904 186(24) 193.1279 159.1001
8525 26.5934 137(21) 192.6879 159.0513
8526 26.5964 192(25) 192.2099 159.0025
8527 26.5994 183(24) 191.7208 158.9537
8528 26.6024 190(24) 191.2467 158.9049
8529 26.6054 170(23) 190.8123 158.8561
8530 26.6084 189(24) 190.4402 158.8073
8531 26.6114 206(26) 190.1448 158.7585
8532 26.6144 208(26) 189.9354 158.7097
8533 26.6174 204(25) 189.8147 158.6609
8534 26.6204 180(24) 189.7773 158.6122
8535 26.6234 204(25) 189.8144 158.5634
8536 26.6264 210(26) 189.9114 158.5145
8537 26.6294 207(26) 190.0486 158.4657
8538 26.6324 183(24) 190.2089 158.4169
8539 26.6354 117(19) 190.3718 158.3681
8540 26.6384 151(22) 190.5177 158.3194
8541 26.6414 210(26) 190.6304 158.2706
8542 26.6444 171(23) 190.6957 158.2218
8543 26.6474 192(25) 190.7054 158.1730
8544 26.6504 194(25) 190.6531 158.1242
8545 26.6534 218(26) 190.5393 158.0753
8546 26.6564 180(24) 190.3677 158.0266
8547 26.6594 248(28) 190.1470 157.9778
8548 26.6624 189(24) 189.8888 157.9290
8549 26.6654 194(25) 189.6058 157.8802
8550 26.6684 187(24) 189.3138 157.8314
8551 26.6714 182(24) 189.0289 157.7826
8552 26.6744 165(23) 188.7683 157.7338
8553 26.6774 185(24) 188.5453 157.6850
8554 26.6804 155(22) 188.3761 157.6362
8555 26.6834 151(22) 188.2680 157.5874
8556 26.6864 196(25) 188.2324 157.5386
8557 26.6894 174(23) 188.2716 157.4898
8558 26.6924 165(23) 188.3885 157.4410
8559 26.6954 162(23) 188.5775 157.3922
8560 26.6984 214(26) 188.8303 157.3434
8561 26.7014 208(26) 189.1362 157.2946
8562 26.7044 163(23) 189.4800 157.2458
8563 26.7074 191(25) 189.8447 157.1970
8564 26.7104 171(23) 190.2109 157.1482
8565 26.7134 171(23) 190.5592 157.0994
8566 26.7164 193(25) 190.8713 157.0506
8567 26.7194 178(24) 191.1305 157.0018
8568 26.7224 180(24) 191.3213 156.9530
8569 26.7254 155(22) 191.4336 156.9042
8570 26.7284 184(24) 191.4589 156.8554
8571 26.7314 182(24) 191.3945 156.8066
8572 26.7344 175(24) 191.2418 156.7578
8573 26.7374 192(25) 191.0057 156.7090
8574 26.7404 185(24) 190.6930 156.6602
8575 26.7434 181(24) 190.3156 156.6114
8576 26.7464 179(24) 189.8859 156.5626
8577 26.7494 166(23) 189.4170 156.5138
8578 26.7524 169(23) 188.9229 156.4650
8579 26.7554 228(27) 188.4161 156.4162
8580 26.7584 194(25) 187.9107 156.3674
8581 26.7614 171(23) 187.4143 156.3186
8582 26.7644 174(23) 186.9371 156.2698
8583 26.7674 120(19) 186.4873 156.2210
8584 26.7704 178(24) 186.0708 156.1722
8585 26.7734 186(24) 185.6918 156.1234
8586 26.7764 177(24) 185.3553 156.0746
8587 26.7794 146(21) 185.0631 156.0258
8588 26.7824 151(22) 184.8173 155.9770
8589 26.7854 201(25) 184.6188 155.9282
8590 26.7884 236(27) 184.4676 155.8794
8591 26.7914 197(25) 184.3624 155.8306
8592 26.7944 157(22) 184.3021 155.7819
8593 26.7974 229(27) 184.2850 155.7331
8594 26.8004 171(23) 184.3070 155.6842
8595 26.8034 256(28) 184.3654 155.6355
8596 26.8064 214(26) 184.4564 155.5867
8597 26.8094 180(24) 184.5754 155.5378
8598 26.8124 194(25) 184.7165 155.4890
8599 26.8154 188(24) 184.8745 155.4403
8600 26.8184 167(23) 185.0435 155.3915
8601 26.8214 154(22) 185.2141 155.3427
8602 26.8244 145(21) 185.3782 155.2939
8603 26.8274 178(24) 185.5272 155.2451
8604 26.8304 155(22) 185.6520 155.1963
8605 26.8334 187(24) 185.7433 155.1475
8606 26.8364 126(20) 185.7934 155.0987
8607 26.8394 182(24) 185.7944 155.0499
8608 26.8424 187(24) 185.7413 155.0011
8609 26.8454 157(22) 185.6263 154.9523
8610 26.8484 193(25) 185.4476 154.9035
8611 26.8514 168(23) 185.2032 154.8547
8612 26.8544 124(20) 184.8927 154.8059
8613 26.8574 171(23) 184.5175 154.7571
8614 26.8604 170(23) 184.0819 154.7083
8615 26.8634 193(25) 183.5904 154.6595
8616 26.8664 170(23) 183.0516 154.6107
8617 26.8694 184(24) 182.4761 154.5619
8618 26.8724 167(23) 181.8725 154.5131
8619 26.8754 190(24) 181.2557 154.4643
8620 26.8784 140(21) 180.6373 154.4155
8621 26.8814 172(23) 180.0336 154.3667
8622 26.8844 161(23) 179.4557 154.3179
8623 26.8874 164(23) 178.9183 154.2691
8624 26.8904 191(25) 178.4334 154.2203
8625 26.8934 181(24) 178.0114 154.1715
8626 26.8964 188(24) 177.6615 154.1227
8627 26.8994 195(25) 177.3903 154.0739
8628 26.9024 183(24) 177.2030 154.0251
8629 26.9054 142(21) 177.1032 153.9763
8630 26.9084 178(24) 177.0928 153.9275
8631 26.9114 183(24) 177.1730 153.8787
8632 26.9144 157(22) 177.3432 153.8299
8633 26.9174 209(26) 177.6024 153.7811
8634 26.9204 201(25) 177.9481 153.7323
8635 26.9234 190(25) 178.3776 153.6835
8636 26.9264 161(23) 178.8873 153.6347
8637 26.9294 161(22) 179.4715 153.5859
8638 26.9324 160(22) 180.1242 153.5371
8639 26.9354 207(26) 180.8415 153.4883
8640 26.9384 154(22) 181.6137 153.4395
8641 26.9414 148(22) 182.4313 153.3907
8642 26.9444 177(24) 183.2827 153.3419
8643 26.9474 166(23) 184.1535 153.2932
8644 26.9504 168(23) 185.0287 153.2444
8645 26.9534 168(23) 185.8905 153.1956
8646 26.9564 185(24) 186.7195 153.1467
8647 26.9594 193(25) 187.4964 153.0979
8648 26.9624 220(26) 188.2005 153.0491
8649 26.9654 211(26) 188.8125 153.0003
8650 26.9684 229(27) 189.3161 152.9516
8651 26.9714 196(25) 189.6950 152.9028
8652 26.9744 216(26) 189.9412 152.8540
8653 26.9774 171(23) 190.0432 152.8052
8654 26.9804 188(24) 189.9990 152.7564
8655 26.9834 210(26) 189.8094 152.7076
8656 26.9864 187(24) 189.4773 152.6588
8657 26.9894 187(24) 189.0144 152.6100
8658 26.9924 224(27) 188.4316 152.5612
8659 26.9954 187(24) 187.7451 152.5124
8660 26.9984 196(25) 186.9731 152.4636
8661 27.0014 201(25) 186.1351 152.4148
8662 27.0044 197(25) 185.2517 152.3660
8663 27.0074 177(24) 184.3445 152.3172
8664 27.0104 218(26) 183.4331 152.2684
8665 27.0134 132(20) 182.5382 152.2196
8666 27.0164 177(24) 181.6714 152.1708
8667 27.0194 196(25) 180.8495 152.1220
8668 27.0224 204(25) 180.0800 152.0732
8669 27.0254 170(23) 179.3726 152.0244
8670 27.0284 177(24) 178.7307 151.9756
8671 27.0314 165(23) 178.1559 151.9268
8672 27.0344 192(25) 177.6447 151.8780
8673 27.0374 168(23) 177.1933 151.8292
8674 27.0404 162(23) 176.7958 151.7804
8675 27.0434 233(27) 176.4440 151.7316
8676 27.0464 161(22) 176.1293 151.6828
8677 27.0494 160(24) 175.8431 151.6340
8678 27.0524 180(25) 175.5754 151.5852
8679 27.0554 131(22) 175.3188 151.5364
8680 27.0584 143(23) 175.0655 151.4876
8681 27.0614 135(22) 174.8109 151.4388
8682 27.0644 162(24) 174.5496 151.3900
8683 27.0674 223(28) 174.2786 151.3412
8684 27.0704 169(24) 174.0000 151.2924
8685 27.0734 141(22) 173.7124 151.2436
8686 27.0764 145(23) 173.4189 151.1948
8687 27.0794 171(25) 173.1585 151.1807
8688 27.0824 212(27) 172.9683 151.2359
8689 27.0854 206(27) 172.7835 151.2912
8690 27.0884 138(22) 172.6072 151.3465
8691 27.0914 139(22) 172.4448 151.4017
8692 27.0944 185(26) 172.2986 151.4570
8693 27.0974 149(23) 172.1711 151.5122
8694 27.1004 116(20) 172.0643 151.5675
8695 27.1034 137(22) 171.9791 151.6227
8696 27.1064 185(26) 171.9154 151.6779
8697 27.1094 183(25) 171.8711 151.7332
8698 27.1124 172(25) 171.8472 151.7884
8699 27.1154 188(26) 171.8399 151.8437
8700 27.1184 189(26) 171.8465 151.8990
8701 27.1214 175(25) 171.8626 151.9542
8702 27.1244 192(26) 171.8870 152.0094
8703 27.1274 136(22) 171.9158 152.0647
8704 27.1304 154(23) 171.9460 152.1199
8705 27.1334 191(26) 171.9762 152.1752
8706 27.1364 172(25) 172.0018 152.2304
8707 27.1394 144(23) 172.0241 152.2857
8708 27.1424 176(25) 172.0395 152.3409
8709 27.1454 122(21) 172.0460 152.3961
8710 27.1484 161(24) 172.0436 152.4514
8711 27.1514 174(25) 172.0310 152.5067
8712 27.1544 184(25) 172.0084 152.5619
8713 27.1574 216(28) 171.9762 152.6172
8714 27.1604 170(24) 171.9357 152.6724
8715 27.1634 155(23) 171.8899 152.7277
8716 27.1664 186(26) 171.8403 152.7829
8717 27.1694 203(27) 171.7912 152.8381
8718 27.1724 202(27) 171.7480 152.8934
8719 27.1754 177(25) 171.7137 152.9486
8720 27.1784 171(25) 171.6962 153.0039
8721 27.1814 212(27) 171.6979 153.0592
8722 27.1844 127(21) 171.7315 153.1144
8723 27.1874 161(24) 171.8015 153.1697
8724 27.1904 152(23) 171.9145 153.2249
8725 27.1934 142(23) 172.0776 153.2801
8726 27.1964 167(24) 172.2943 153.3354
8727 27.1994 173(25) 172.5692 153.3906
8728 27.2024 129(21) 172.9045 153.4459
8729 27.2054 151(23) 173.3004 153.5011
8730 27.2084 178(25) 173.7567 153.5564
8731 27.2114 152(23) 174.2676 153.6116
8732 27.2144 152(23) 174.8300 153.6669
8733 27.2174 145(23) 175.4356 153.7221
8734 27.2204 195(26) 176.0753 153.7774
8735 27.2234 179(25) 176.7395 153.8326
8736 27.2264 186(26) 177.4180 153.8879
8737 27.2294 162(24) 178.0996 153.9431
8738 27.2324 194(26) 178.7729 153.9984
8739 27.2354 180(25) 179.4272 154.0536
8740 27.2384 181(25) 180.0557 154.1089
8741 27.2414 206(27) 180.6473 154.1641
8742 27.2444 226(28) 181.1973 154.2194
8743 27.2474 165(24) 181.7019 154.2746
8744 27.2504 172(25) 182.1563 154.3299
8745 27.2534 183(25) 182.5607 154.3851
8746 27.2564 219(28) 182.9113 154.4403
8747 27.2594 155(23) 183.2095 154.4956
8748 27.2624 201(27) 183.4564 154.5508
8749 27.2654 179(25) 183.6507 154.6061
8750 27.2684 151(23) 183.7910 154.6613
8751 27.2714 203(27) 183.8817 154.7166
8752 27.2744 172(25) 183.9261 154.7719
8753 27.2774 193(26) 183.9197 154.8271
8754 27.2804 193(26) 183.8669 154.8823
8755 27.2834 177(25) 183.7678 154.9376
8756 27.2864 152(23) 183.6275 154.9928
8757 27.2894 195(26) 183.4485 155.0481
8758 27.2924 167(24) 183.2339 155.1033
8759 27.2954 152(23) 182.9898 155.1586
8760 27.2984 194(26) 182.7212 155.2138
8761 27.3014 169(24) 182.4369 155.2691
8762 27.3044 153(23) 182.1454 155.3243
8763 27.3074 154(23) 181.8521 155.3796
8764 27.3104 180(25) 181.5661 155.4348
8765 27.3134 178(25) 181.2957 155.4901
8766 27.3164 197(26) 181.0463 155.5453
8767 27.3194 140(22) 180.8241 155.6006
8768 27.3224 179(25) 180.6305 155.6558
8769 27.3254 155(23) 180.4674 155.7110
8770 27.3284 169(24) 180.3352 155.7663
8771 27.3314 167(24) 180.2321 155.8215
8772 27.3344 192(26) 180.1540 155.8768
8773 27.3374 160(24) 180.0957 155.9321
8774 27.3404 177(25) 180.0517 155.9873
8775 27.3434 159(24) 180.0154 156.0425
8776 27.3464 184(26) 179.9807 156.0978
8777 27.3494 164(24) 179.9413 156.1530
8778 27.3524 163(24) 179.8926 156.2083
8779 27.3554 178(25) 179.8301 156.2635
8780 27.3584 190(26) 179.7513 156.3188
8781 27.3614 230(29) 179.6547 156.3740
8782 27.3644 165(24) 179.5426 156.4293
8783 27.3674 151(23) 179.4161 156.4845
8784 27.3704 123(21) 179.2781 156.5398
8785 27.3734 162(24) 179.1325 156.5950
8786 27.3764 177(25) 178.9819 156.6503
8787 27.3794 171(25) 178.8313 156.7055
8788 27.3824 194(26) 178.6842 156.7608
8789 27.3854 187(26) 178.5422 156.8160
8790 27.3884 161(24) 178.4088 156.8712
8791 27.3914 142(22) 178.2849 156.9265
8792 27.3944 144(23) 178.1717 156.9818
8793 27.3974 180(25) 178.0698 157.0370
8794 27.4004 146(23) 177.9802 157.0923
8795 27.4034 172(25) 177.9008 157.1475
8796 27.4064 151(23) 177.8331 157.2028
8797 27.4094 132(20) 177.7754 157.2580
8798 27.4124 173(24) 177.7275 157.3132
8799 27.4154 189(26) 177.6893 157.3685
8800 27.4184 151(23) 177.6599 157.4237
8801 27.4214 137(22) 177.6413 157.4790
8802 27.4244 176(25) 177.6351 157.5342
8803 27.4274 154(23) 177.6425 157.5895
8804 27.4304 141(22) 177.6655 157.6447
8805 27.4334 172(25) 177.7085 157.7000
8806 27.4364 152(23) 177.7727 157.7552
8807 27.4394 199(26) 177.8626 157.8105
8808 27.4424 187(26) 177.9785 157.8657
8809 27.4454 142(22) 178.1223 157.9210
8810 27.4484 170(25) 178.2940 157.9762
8811 27.4514 156(24) 178.4912 158.0315
8812 27.4544 193(26) 178.7111 158.0867
8813 27.4574 183(26) 178.9486 158.1420
8814 27.4604 161(24) 179.1948 158.1972
8815 27.4634 159(24) 179.4460 158.2525
8816 27.4664 172(25) 179.6907 158.3077
8817 27.4694 186(26) 179.9190 158.3630
8818 27.4724 185(26) 180.1256 158.4182
8819 27.4754 180(25) 180.2993 158.4735
8820 27.4784 226(28) 180.4366 158.5287
8821 27.4814 190(26) 180.5316 158.5839
8822 27.4844 173(25) 180.5814 158.6392
8823 27.4874 193(26) 180.5846 158.6944
8824 27.4904 198(26) 180.5457 158.7497
8825 27.4934 203(27) 180.4695 158.8049
8826 27.4964 181(25) 180.3640 158.8602
8827 27.4994 180(25) 180.2383 158.9154
8828 27.5024 158(24) 180.1057 158.9707
8829 27.5054 190(26) 179.9791 159.0259
8830 27.5084 179(25) 179.8720 159.0812
8831 27.5114 173(25) 179.7969 159.1364
8832 27.5144 182(25) 179.7645 159.1917
8833 27.5174 188(26) 179.7834 159.2469
8834 27.5204 212(27) 179.8610 159.3022
8835 27.5234 195(26) 179.9996 159.3574
8836 27.5264 183(25) 180.2006 159.4127
8837 27.5294 165(24) 180.4595 159.4679
8838 27.5324 218(28) 180.7708 159.5232
8839 27.5354 186(26) 181.1269 159.5784
8840 27.5384 179(25) 181.5184 159.6337
8841 27.5414 175(25) 181.9344 159.6889
8842 27.5444 147(23) 182.3623 159.7441
8843 27.5474 208(27) 182.7947 159.7994
8844 27.5504 176(25) 183.2181 159.8546
8845 27.5534 191(26) 183.6256 159.9099
8846 27.5564 177(25) 184.0093 159.9651
8847 27.5594 201(27) 184.3645 160.0204
8848 27.5624 186(26) 184.6877 160.0757
8849 27.5654 226(28) 184.9782 160.1309
8850 27.5684 177(25) 185.2380 160.1861
8851 27.5714 173(25) 185.4671 160.2414
8852 27.5744 156(24) 185.6705 160.2966
8853 27.5774 141(22) 185.8510 160.3519
8854 27.5804 202(27) 186.0119 160.4071
8855 27.5834 209(27) 186.1583 160.4624
8856 27.5864 171(25) 186.2894 160.5176
8857 27.5894 145(23) 186.4097 160.5729
8858 27.5924 209(27) 186.5177 160.6281
8859 27.5954 213(27) 186.6149 160.6834
8860 27.5984 178(25) 186.7021 160.7386
8861 27.6014 176(25) 186.7774 160.7939
8862 27.6044 209(27) 186.8410 160.8491
8863 27.6074 215(28) 186.8926 160.9044
8864 27.6104 166(24) 186.9317 160.9596
8865 27.6134 160(24) 186.9600 161.0148
8866 27.6164 204(27) 186.9788 161.0701
8867 27.6194 157(24) 186.9925 161.1254
8868 27.6224 198(26) 187.0044 161.1806
8869 27.6254 207(27) 187.0187 161.2359
8870 27.6284 165(24) 187.0411 161.2911
8871 27.6314 162(24) 187.0770 161.3463
8872 27.6344 137(22) 187.1324 161.4016
8873 27.6374 173(25) 187.2108 161.4568
8874 27.6404 191(26) 187.3163 161.5121
8875 27.6434 179(25) 187.4503 161.5673
8876 27.6464 213(27) 187.6127 161.6226
8877 27.6494 168(24) 187.8035 161.6778
8878 27.6524 156(24) 188.0206 161.7331
8879 27.6554 156(24) 188.2586 161.7883
8880 27.6584 156(24) 188.5147 161.8436
8881 27.6614 176(25) 188.7850 161.8988
8882 27.6644 170(25) 189.0656 161.9541
8883 27.6674 207(27) 189.3539 162.0093
8884 27.6704 155(23) 189.6455 162.0646
8885 27.6734 189(26) 189.9408 162.1198
8886 27.6764 209(27) 190.2382 162.1750
8887 27.6794 188(26) 190.5394 162.2303
8888 27.6824 194(26) 190.8470 162.2856
8889 27.6854 231(29) 191.1641 162.3408
8890 27.6884 189(26) 191.4941 162.3961
8891 27.6914 227(28) 191.8387 162.4513
8892 27.6944 188(26) 192.2027 162.5066
8893 27.6974 208(27) 192.5863 162.5618
8894 27.7004 213(27) 192.9911 162.6170
8895 27.7034 227(28) 193.4163 162.6723
8896 27.7064 197(26) 193.8605 162.7275
8897 27.7094 202(27) 194.3222 162.7828
8898 27.7124 202(27) 194.7949 162.8380
8899 27.7154 159(24) 195.2753 162.8933
8900 27.7184 163(24) 195.7579 162.9485
8901 27.7214 192(26) 196.2389 163.0038
8902 27.7244 208(27) 196.7115 163.0590
8903 27.7274 225(28) 197.1714 163.1143
8904 27.7304 257(30) 197.6142 163.1695
8905 27.7334 176(25) 198.0334 163.2248
8906 27.7364 221(28) 198.4289 163.2800
8907 27.7394 192(26) 198.7943 163.3353
8908 27.7424 159(24) 199.1274 163.3905
8909 27.7454 178(25) 199.4285 163.4458
8910 27.7484 192(26) 199.6959 163.5010
8911 27.7514 184(26) 199.9264 163.5563
8912 27.7544 169(24) 200.1202 163.6115
8913 27.7574 199(26) 200.2762 163.6668
8914 27.7604 169(24) 200.3951 163.7220
8915 27.7634 126(21) 200.4750 163.7772
8916 27.7664 185(26) 200.5148 163.8325
8917 27.7694 216(28) 200.5155 163.8877
8918 27.7724 218(28) 200.4730 163.9430
8919 27.7754 184(25) 200.3866 163.9982
8920 27.7784 189(26) 200.2538 164.0535
8921 27.7814 225(28) 200.0744 164.1087
8922 27.7844 173(25) 199.8405 164.1640
8923 27.7874 189(26) 199.5572 164.2192
8924 27.7904 192(26) 199.2227 164.2745
8925 27.7934 178(25) 198.8393 164.3297
8926 27.7964 181(25) 198.4085 164.3850
8927 27.7994 184(26) 197.9333 164.4402
8928 27.8024 195(26) 197.4173 164.4955
8929 27.8054 194(26) 196.8665 164.5507
8930 27.8084 166(24) 196.2848 164.6060
8931 27.8114 164(24) 195.6767 164.6612
8932 27.8144 185(26) 195.0494 164.7165
8933 27.8174 161(24) 194.4088 164.7717
8934 27.8204 142(23) 193.6954 164.7590
8935 27.8234 214(28) 192.9239 164.6867
8936 27.8264 175(25) 192.1621 164.6144
8937 27.8294 215(28) 191.4186 164.5422
8938 27.8324 214(28) 190.7000 164.4699
8939 27.8354 211(27) 190.0130 164.3976
8940 27.8384 133(22) 189.3626 164.3254
8941 27.8414 165(24) 188.7527 164.2531
8942 27.8444 204(27) 188.1859 164.1808
8943 27.8474 191(26) 187.6635 164.1085
8944 27.8504 159(24) 187.1867 164.0363
8945 27.8534 178(25) 186.7547 163.9640
8946 27.8564 176(25) 186.3654 163.8918
8947 27.8594 223(28) 186.0165 163.8195
8948 27.8624 218(28) 185.7053 163.7472
8949 27.8654 238(29) 185.4258 163.6749
8950 27.8684 238(29) 185.1740 163.6027
8951 27.8714 176(25) 184.9457 163.5304
8952 27.8744 195(26) 184.7335 163.4582
8953 27.8774 193(26) 184.5324 163.3859
8954 27.8804 207(27) 184.3361 163.3136
8955 27.8834 180(25) 184.1403 163.2413
8956 27.8864 201(27) 183.9425 163.1691
8957 27.8894 178(25) 183.7369 163.0968
8958 27.8924 179(25) 183.5223 163.0245
8959 27.8954 177(25) 183.2966 162.9523
8960 27.8984 192(26) 183.0615 162.8800
8961 27.9014 171(25) 182.8170 162.8078
8962 27.9044 243(29) 182.5627 162.7355
8963 27.9074 243(29) 182.3011 162.6632
8964 27.9104 192(26) 182.0351 162.5909
8965 27.9134 175(25) 181.7663 162.5187
8966 27.9164 184(26) 181.4952 162.4464
8967 27.9194 168(24) 181.2246 162.3742
8968 27.9224 154(23) 180.9567 162.3019
8969 27.9254 173(25) 180.6927 162.2296
8970 27.9284 188(26) 180.4343 162.1573
8971 27.9314 185(26) 180.1820 162.0851
8972 27.9344 195(26) 179.9375 162.0128
8973 27.9374 205(27) 179.7014 161.9405
8974 27.9404 159(24) 179.4742 161.8683
8975 27.9434 194(26) 179.2579 161.7960
8976 27.9464 174(25) 179.0491 161.7238
8977 27.9494 168(24) 178.8545 161.6515
8978 27.9524 157(24) 178.6736 161.5792
8979 27.9554 154(23) 178.5053 161.5069
8980 27.9584 179(25) 178.3546 161.4347
8981 27.9614 179(25) 178.2235 161.3624
8982 27.9644 190(26) 178.1132 161.2902
8983 27.9674 148(23) 178.0277 161.2179
8984 27.9704 151(23) 177.9657 161.1456
8985 27.9734 169(25) 177.9290 161.0733
8986 27.9764 151(23) 177.9202 161.0011
8987 27.9794 160(24) 177.9366 160.9288
8988 27.9824 178(25) 177.9790 160.8565
8989 27.9854 179(25) 178.0453 160.7843
8990 27.9884 181(25) 178.1343 160.7120
8991 27.9914 190(26) 178.2439 160.6397
8992 27.9944 141(22) 178.3700 160.5675
8993 27.9974 158(24) 178.5094 160.4952
8994 28.0004 175(25) 178.6586 160.4229
8995 28.0034 175(25) 178.8140 160.3506
8996 28.0064 212(27) 178.9695 160.2784
8997 28.0094 204(27) 179.1236 160.2061
8998 28.0124 212(27) 179.2728 160.1339
8999 28.0154 190(26) 179.4135 160.0616
9000 28.0184 167(24) 179.5433 159.9893
9001 28.0214 154(23) 179.6626 159.9171
9002 28.0244 160(24) 179.7683 159.8448
9003 28.0274 168(24) 179.8636 159.7726
9004 28.0304 164(24) 179.9459 159.7003
9005 28.0334 170(25) 180.0173 159.6280
9006 28.0364 139(22) 180.0833 159.5557
9007 28.0394 163(24) 180.1440 159.4835
9008 28.0424 165(24) 180.2029 159.4112
9009 28.0454 200(27) 180.2646 159.3389
9010 28.0484 214(28) 180.3315 159.2666
9011 28.0514 162(24) 180.4042 159.1944
9012 28.0544 162(24) 180.4842 159.1221
9013 28.0574 179(25) 180.5710 159.0499
9014 28.0604 176(25) 180.6650 158.9776
9015 28.0634 158(24) 180.7631 158.9053
9016 28.0664 159(24) 180.8637 158.8330
9017 28.0694 174(25) 180.9603 158.7608
9018 28.0724 166(24) 181.0491 158.6885
9019 28.0754 152(23) 181.1254 158.6163
9020 28.0784 225(28) 181.1833 158.5440
9021 28.0814 181(25) 181.2146 158.4717
9022 28.0844 199(27) 181.2155 158.3994
9023 28.0874 171(25) 181.1781 158.3272
9024 28.0904 132(22) 181.0990 158.2549
9025 28.0934 193(26) 180.9763 158.1827
9026 28.0964 151(23) 180.8083 158.1104
9027 28.0994 216(28) 180.5957 158.0381
9028 28.1024 173(25) 180.3393 157.9659
9029 28.1054 150(23) 180.0439 157.8936
9030 28.1084 146(23) 179.7168 157.8213
9031 28.1114 178(25) 179.3638 157.7490
9032 28.1144 143(23) 178.9924 157.6768
9033 28.1174 192(26) 178.6112 157.6045
9034 28.1204 179(25) 178.2289 157.5323
9035 28.1234 160(24) 177.8526 157.4600
9036 28.1264 176(25) 177.4912 157.3877
9037 28.1294 190(26) 177.1507 157.3154
9038 28.1324 183(26) 176.8388 157.2432
9039 28.1354 242(29) 176.5563 157.1709
9040 28.1384 178(25) 176.3126 157.0987
9041 28.1414 217(28) 176.1099 157.0264
9042 28.1444 113(20) 175.9486 156.9541
9043 28.1474 159(24) 175.8298 156.8819
9044 28.1504 160(24) 175.7552 156.8096
9045 28.1534 196(26) 175.7232 156.7373
9046 28.1564 195(26) 175.7339 156.6650
9047 28.1594 141(22) 175.7832 156.5928
9048 28.1624 144(23) 175.8699 156.5205
9049 28.1654 163(24) 175.9900 156.4483
9050 28.1684 134(22) 176.1418 156.3760
9051 28.1714 169(25) 176.3200 156.3037
9052 28.1744 170(25) 176.5226 156.2314
9053 28.1774 143(23) 176.7450 156.1592
9054 28.1804 167(24) 176.9832 156.0869
9055 28.1834 94(18) 177.2347 156.0147
9056 28.1864 168(24) 177.4953 155.9424
9057 28.1894 149(23) 177.7596 155.8701
9058 28.1924 154(23) 178.0250 155.7978
9059 28.1954 182(25) 178.2868 155.7256
9060 28.1984 159(24) 178.5443 155.6533
9061 28.2014 153(23) 178.7918 155.5810
9062 28.2044 167(24) 179.0324 155.5088
9063 28.2074 198(27) 179.2630 155.4365
9064 28.2104 151(23) 179.4861 155.3642
9065 28.2134 148(23) 179.7021 155.2920
9066 28.2164 203(27) 179.9097 155.2197
9067 28.2194 174(25) 180.1136 155.1474
9068 28.2224 178(25) 180.3109 155.0751
9069 28.2254 185(26) 180.5026 155.0029
9070 28.2284 210(27) 180.6876 154.9306
9071 28.2314 181(25) 180.8621 154.8584
9072 28.2344 147(23) 181.0225 154.7861
9073 28.2374 185(26) 181.1652 154.7138
9074 28.2404 134(22) 181.2844 154.6416
9075 28.2434 216(28) 181.3749 154.5693
9076 28.2464 192(26) 181.4309 154.4970
9077 28.2494 205(27) 181.4481 154.4248
9078 28.2524 168(24) 181.4225 154.3525
9079 28.2554 196(26) 181.3497 154.2802
9080 28.2584 236(29) 181.2305 154.2080
9081 28.2614 199(27) 181.0635 154.1357
9082 28.2644 219(28) 180.8511 154.0634
9083 28.2674 192(26) 180.5990 153.9911
9084 28.2704 225(28) 180.3124 153.9189
9085 28.2734 180(25) 179.9991 153.8466
9086 28.2764 184(26) 179.6680 153.7744
9087 28.2794 162(24) 179.3292 153.7021
9088 28.2824 199(26) 178.9947 153.6298
9089 28.2854 132(22) 178.6730 153.5576
9090 28.2884 155(23) 178.3751 153.4853
9091 28.2914 190(26) 178.1089 153.4130
9092 28.2944 134(22) 177.8787 153.3408
9093 28.2974 206(27) 177.6887 153.2685
9094 28.3004 220(28) 177.5385 153.1962
9095 28.3034 206(27) 177.4241 153.1240
9096 28.3064 179(25) 177.3449 153.0517
9097 28.3094 196(26) 177.2926 152.9794
9098 28.3124 182(25) 177.2602 152.9071
9099 28.3154 184(26) 177.2369 152.8349
9100 28.3184 182(25) 177.2171 152.7626
9101 28.3214 204(27) 177.1900 152.6904
9102 28.3244 180(25) 177.1475 152.6181
9103 28.3274 196(26) 177.0817 152.5458
9104 28.3304 200(27) 176.9869 152.4735
9105 28.3334 182(25) 176.8581 152.4013
9106 28.3364 156(23) 176.6901 152.3290
9107 28.3394 170(25) 176.4812 152.2568
9108 28.3424 201(27) 176.2321 152.1845
9109 28.3454 212(27) 175.9434 152.1122
9110 28.3484 179(25) 175.6193 152.0399
9111 28.3514 147(23) 175.2628 151.9677
9112 28.3544 231(29) 174.8775 151.8954
9113 28.3574 216(28) 174.4705 151.8231
9114 28.3604 206(27) 174.0488 151.7509
9115 28.3634 169(24) 173.6163 151.6786
9116 28.3664 218(28) 173.1812 151.6064
9117 28.3694 218(28) 172.7507 151.5341
9118 28.3724 167(24) 172.3312 151.4618
9119 28.3754 162(24) 171.9303 151.3895
9120 28.3784 153(23) 171.5540 151.3173
9121 28.3814 169(25) 171.2092 151.2450
9122 28.3844 133(22) 170.9045 151.1728
9123 28.3874 170(25) 170.6427 151.1005
9124 28.3904 147(23) 170.4322 151.0282
9125 28.3934 157(24) 170.2765 150.9559
9126 28.3964 209(27) 170.1798 150.8837
9127 28.3994 146(23) 170.1475 150.8114
9128 28.4024 143(23) 170.1829 150.7392
9129 28.4054 208(27) 170.2841 150.6669
9130 28.4084 156(23) 170.4539 150.5946
9131 28.4114 149(23) 170.6902 150.5224
9132 28.4144 140(22) 170.9912 150.4501
9133 28.4174 176(25) 171.3500 150.3778
9134 28.4204 134(22) 171.7635 150.3055
9135 28.4234 165(24) 172.2209 150.2333
9136 28.4264 155(25) 172.7152 150.1610
9137 28.4294 187(27) 173.2374 150.0888
9138 28.4324 130(23) 173.7765 150.0165
9139 28.4354 178(26) 174.3235 149.9442
9140 28.4384 215(29) 174.8704 149.8719
9141 28.4414 203(28) 175.4092 149.7997
9142 28.4444 194(27) 175.9356 149.7274
9143 28.4474 186(27) 176.4437 149.6552
9144 28.4504 161(25) 176.9314 149.5829
9145 28.4534 170(26) 177.3964 149.5106
9146 28.4564 191(27) 177.8391 149.4383
9147 28.4594 219(29) 178.2586 149.3661
9148 28.4624 174(26) 178.6555 149.2938
9149 28.4654 141(24) 179.0301 149.2215
9150 28.4684 179(27) 179.3819 149.1493
9151 28.4714 197(28) 179.7115 149.0770
9152 28.4744 184(27) 180.0167 149.0047
9153 28.4774 174(26) 180.2954 148.9325
9154 28.4804 176(26) 180.5432 148.8602
9155 28.4834 153(25) 180.7540 148.7879
9156 28.4864 191(27) 180.9236 148.7157
9157 28.4894 179(27) 181.0441 148.6434
9158 28.4924 237(30) 181.1047 148.5712
9159 28.4954 210(29) 181.0972 148.4989
9160 28.4984 179(26) 181.0111 148.4266
9161 28.5014 206(28) 180.8368 148.3543
9162 28.5044 227(30) 180.5672 148.2821
9163 28.5074 284(33) 180.1934 148.2098
9164 28.5104 192(27) 179.7154 148.1375
9165 28.5134 238(30) 179.1326 148.0653
9166 28.5164 217(29) 178.4455 147.9930
9167 28.5194 203(28) 177.6612 147.9207
9168 28.5224 207(29) 176.7890 147.8485
9169 28.5254 172(26) 175.8392 147.7762
9170 28.5284 174(26) 174.8274 147.7039
9171 28.5314 174(26) 173.7672 147.6316
9172 28.5344 199(28) 172.6773 147.5594
9173 28.5374 182(27) 171.5778 147.4871
9174 28.5404 163(25) 170.4832 147.4149
9175 28.5434 194(28) 169.4148 147.3426
9176 28.5464 160(25) 168.3896 147.2703
9177 28.5494 171(26) 167.4244 147.1980
9178 28.5524 234(30) 166.5338 147.1258
9179 28.5554 244(31) 165.7295 147.0535
9180 28.5584 128(23) 165.0221 146.9813
9181 28.5614 144(24) 164.4182 146.9090
9182 28.5644 194(27) 163.9223 146.8367
9183 28.5674 152(24) 163.5404 146.7645
9184 28.5704 137(23) 163.2646 146.6922
9185 28.5734 139(23) 163.0944 146.6199
9186 28.5764 194(27) 163.0260 146.5476
9187 28.5794 224(30) 163.0484 146.4754
9188 28.5824 205(28) 163.1545 146.4031
9189 28.5854 144(24) 163.3339 146.3309
9190 28.5884 202(28) 163.5737 146.2586
9191 28.5914 190(27) 163.8626 146.1863
9192 28.5944 146(24) 164.1864 146.1140
9193 28.5974 156(25) 164.5326 146.0418
9194 28.6004 137(23) 164.8879 145.9695
9195 28.6034 147(24) 165.2402 145.8973
9196 28.6064 152(24) 165.5766 145.8250
9197 28.6094 135(23) 165.8856 145.7527
9198 28.6124 195(28) 166.1567 145.6805
9199 28.6154 182(27) 166.3829 145.6082
9200 28.6184 217(29) 166.5560 145.5359
9201 28.6214 168(26) 166.6714 145.4636
9202 28.6244 156(25) 166.7251 145.3914
9203 28.6274 177(26) 166.7166 145.3191
9204 28.6304 152(24) 166.6473 145.2469
9205 28.6334 162(25) 166.5195 145.1746
9206 28.6364 218(29) 166.3382 145.1023
9207 28.6394 177(26) 166.1096 145.0300
9208 28.6424 185(27) 165.8404 144.9578
9209 28.6454 171(26) 165.5396 144.8855
9210 28.6484 149(24) 165.2175 144.8133
9211 28.6514 159(25) 164.8809 144.7410
9212 28.6544 144(24) 164.5414 144.6687
9213 28.6574 178(27) 164.2058 144.5964
9214 28.6604 113(21) 163.8797 144.5242
9215 28.6634 152(25) 163.5698 144.4519
9216 28.6664 153(25) 163.2803 144.3796
9217 28.6694 145(24) 163.0139 144.3074
9218 28.6724 205(28) 162.7701 144.2351
9219 28.6754 148(24) 162.5492 144.1628
9220 28.6784 145(24) 162.3480 144.0906
9221 28.6814 189(27) 162.1625 144.0183
9222 28.6844 140(23) 161.9886 143.9460
9223 28.6874 143(24) 161.8219 143.8737
9224 28.6904 140(23) 161.6577 143.8015
9225 28.6934 110(21) 161.4930 143.7292
9226 28.6964 172(26) 161.3241 143.6570
9227 28.6994 158(25) 161.1500 143.5847
9228 28.7024 157(25) 160.9685 143.5124
9229 28.7054 153(25) 160.7832 143.4402
9230 28.7084 140(23) 160.5968 143.3679
9231 28.7114 174(26) 160.4120 143.2957
9232 28.7144 163(25) 160.2329 143.2234
9233 28.7174 143(24) 160.0644 143.1511
9234 28.7204 206(28) 159.9118 143.0788
9235 28.7234 158(25) 159.7805 143.0066
9236 28.7264 128(22) 159.6776 142.9343
9237 28.7294 159(25) 159.6073 142.8620
9238 28.7324 179(26) 159.5749 142.7897
9239 28.7354 161(25) 159.5820 142.7175
9240 28.7384 120(22) 159.6296 142.6452
9241 28.7414 192(27) 159.7191 142.5730
9242 28.7444 151(24) 159.8479 142.5007
9243 28.7474 125(22) 160.0563 142.4715
9244 28.7504 150(24) 160.3834 142.5283
9245 28.7534 150(24) 160.7361 142.5852
9246 28.7564 148(24) 161.1097 142.6421
9247 28.7594 160(25) 161.4968 142.6990
9248 28.7624 118(22) 161.8926 142.7559
9249 28.7654 124(22) 162.2864 142.8128
9250 28.7684 170(26) 162.6730 142.8696
9251 28.7714 126(22) 163.0460 142.9265
9252 28.7744 155(25) 163.4026 142.9834
9253 28.7774 131(23) 163.7337 143.0403
9254 28.7804 156(25) 164.0390 143.0972
9255 28.7834 159(25) 164.3141 143.1541
9256 28.7864 190(27) 164.5582 143.2110
9257 28.7894 139(23) 164.7691 143.2679
9258 28.7924 114(21) 164.9483 143.3247
9259 28.7954 101(20) 165.0947 143.3816
9260 28.7984 149(24) 165.2105 143.4385
9261 28.8014 139(23) 165.2955 143.4954
9262 28.8044 160(25) 165.3518 143.5523
9263 28.8074 172(26) 165.3804 143.6092
9264 28.8104 150(24) 165.3820 143.6660
9265 28.8134 153(24) 165.3575 143.7229
9266 28.8164 141(24) 165.3122 143.7798
9267 28.8194 198(28) 165.2452 143.8367
9268 28.8224 137(23) 165.1616 143.8936
9269 28.8254 178(26) 165.0633 143.9505
9270 28.8284 164(25) 164.9536 144.0074
9271 28.8314 129(23) 164.8335 144.0642
9272 28.8344 128(22) 164.7091 144.1211
9273 28.8374 170(26) 164.5786 144.1780
9274 28.8404 163(25) 164.4486 144.2349
9275 28.8434 153(25) 164.3216 144.2918
9276 28.8464 188(27) 164.1986 144.3487
9277 28.8494 163(25) 164.0846 144.4055
9278 28.8524 238(30) 163.9802 144.4624
9279 28.8554 157(25) 163.8880 144.5193
9280 28.8584 169(26) 163.8078 144.5762
9281 28.8614 219(29) 163.7415 144.6331
9282 28.8644 168(26) 163.6849 144.6900
9283 28.8674 126(22) 163.6367 144.7469
9284 28.8704 136(23) 163.5938 144.8038
9285 28.8734 199(28) 163.5507 144.8606
9286 28.8764 160(25) 163.5020 144.9175
9287 28.8794 131(23) 163.4418 144.9744
9288 28.8824 151(24) 163.3649 145.0313
9289 28.8854 147(24) 163.2660 145.0882
9290 28.8884 133(23) 163.1411 145.1451
9291 28.8914 159(25) 162.9882 145.2020
9292 28.8944 161(25) 162.8056 145.2588
9293 28.8974 198(28) 162.5933 145.3157
9294 28.9004 166(25) 162.3545 145.3726
9295 28.9034 143(24) 162.0904 145.4295
9296 28.9064 177(26) 161.8101 145.4864
9297 28.9094 137(23) 161.5204 145.5433
9298 28.9124 161(25) 161.2266 145.6001
9299 28.9154 141(24) 160.9425 145.6570
9300 28.9184 162(25) 160.6735 145.7139
9301 28.9214 202(28) 160.4291 145.7708
9302 28.9244 126(22) 160.2182 145.8277
9303 28.9274 159(25) 160.0453 145.8846
9304 28.9304 190(27) 159.9173 145.9415
9305 28.9334 128(22) 159.8368 145.9983
9306 28.9364 121(22) 159.8015 146.0552
9307 28.9394 148(24) 159.8112 146.1121
9308 28.9424 162(25) 159.8608 146.1690
9309 28.9454 152(24) 159.9509 146.2259
9310 28.9484 167(26) 160.0694 146.2828
9311 28.9514 132(23) 160.2135 146.3397
9312 28.9544 142(24) 160.3742 146.3965
9313 28.9574 201(28) 160.5479 146.4534
9314 28.9604 165(22) 160.7292 146.5103
9315 28.9634 174(25) 160.9138 146.5672
9316 28.9664 136(23) 161.1004 146.6241
9317 28.9694 142(24) 161.2900 146.6810
9318 28.9724 140(24) 161.4834 146.7379
9319 28.9754 165(25) 161.6834 146.7948
9320 28.9784 183(27) 161.8937 146.8516
9321 28.9814 154(25) 162.1171 146.9085
9322 28.9844 136(23) 162.3568 146.9654
9323 28.9874 185(27) 162.6168 147.0223
9324 28.9904 151(24) 162.8970 147.0792
9325 28.9934 158(25) 163.2003 147.1361
9326 28.9964 118(21) 163.5228 147.1930
9327 28.9994 162(25) 163.8594 147.2498
9328 29.0024 134(23) 164.2053 147.3067
9329 29.0054 145(24) 164.5522 147.3636
9330 29.0084 214(29) 164.8910 147.4205
9331 29.0114 139(23) 165.2120 147.4774
9332 29.0144 147(24) 165.5068 147.5343
9333 29.0174 125(22) 165.7644 147.5912
9334 29.0204 152(24) 165.9761 147.6480
9335 29.0234 149(24) 166.1346 147.7049
9336 29.0264 146(24) 166.2342 147.7618
9337 29.0294 194(28) 166.2719 147.8187
9338 29.0324 161(25) 166.2434 147.8756
9339 29.0354 175(26) 166.1512 147.9325
9340 29.0384 178(26) 165.9991 147.9894
9341 29.0414 126(22) 165.7919 148.0463
9342 29.0444 142(24) 165.5371 148.1031
9343 29.0474 189(27) 165.2440 148.1600
9344 29.0504 156(25) 164.9226 148.2169
9345 29.0534 137(23) 164.5834 148.2738
9346 29.0564 158(25) 164.2362 148.3307
9347 29.0594 151(24) 163.8915 148.3876
9348 29.0624 160(25) 163.5564 148.4445
9349 29.0654 155(25) 163.2411 148.5013
9350 29.0684 182(27) 162.9550 148.5582
9351 29.0714 136(23) 162.7000 148.6151
9352 29.0744 142(24) 162.4866 148.6720
9353 29.0774 155(25) 162.3150 148.7289
9354 29.0804 169(26) 162.1883 148.7858
9355 29.0834 186(27) 162.1107 148.8427
9356 29.0864 131(23) 162.0809 148.8995
9357 29.0894 137(23) 162.1017 148.9564
9358 29.0924 220(29) 162.1717 149.0133
9359 29.0954 189(27) 162.2918 149.0702
9360 29.0984 131(23) 162.4607 149.1271
9361 29.1014 125(22) 162.6782 149.1840
9362 29.1044 165(25) 162.9416 149.2409
9363 29.1074 143(24) 163.2494 149.2977
9364 29.1104 190(27) 163.5988 149.3546
9365 29.1134 137(23) 163.9887 149.4115
9366 29.1164 142(24) 164.4152 149.4684
9367 29.1194 125(22) 164.8737 149.5253
9368 29.1224 169(26) 165.3586 149.5822
9369 29.1254 136(23) 165.8649 149.6391
9370 29.1284 139(23) 166.3866 149.6959
9371 29.1314 145(24) 166.9149 149.7528
9372 29.1344 156(25) 167.4458 149.8097
9373 29.1374 130(23) 167.9707 149.8666
9374 29.1404 135(23) 168.4814 149.9235
9375 29.1434 153(25) 168.9736 149.9804
9376 29.1464 162(25) 169.4374 150.0372
9377 29.1494 153(24) 169.8689 150.0941
9378 29.1524 170(26) 170.2629 150.1510
9379 29.1554 172(26) 170.6166 150.2079
9380 29.1584 166(26) 170.9290 150.2648
9381 29.1614 168(26) 171.1990 150.3217
9382 29.1644 157(25) 171.4275 150.3786
9383 29.1674 178(27) 171.6156 150.4355
9384 29.1704 182(27) 171.7666 150.4923
9385 29.1734 185(27) 171.8839 150.5492
9386 29.1764 184(27) 171.9727 150.6061
9387 29.1794 156(25) 172.0352 150.6630
9388 29.1824 137(23) 172.0772 150.7199
9389 29.1854 152(24) 172.1033 150.7768
9390 29.1884 156(25) 172.1176 150.8336
9391 29.1914 205(28) 172.1231 150.8905
9392 29.1944 249(31) 172.1242 150.9474
9393 29.1974 184(27) 172.1232 151.0043
9394 29.2004 173(26) 172.1227 151.0612
9395 29.2034 177(26) 172.1248 151.1181
9396 29.2064 165(25) 172.1320 151.1750
9397 29.2094 196(28) 172.1457 151.2318
9398 29.2124 214(29) 172.1669 151.2887
9399 29.2154 192(27) 172.1971 151.3456
9400 29.2184 171(26) 172.2362 151.4025
9401 29.2214 180(27) 172.2872 151.4594
9402 29.2244 179(26) 172.3525 151.5163
9403 29.2274 133(23) 172.4340 151.5732
9404 29.2304 157(25) 172.5353 151.6301
9405 29.2334 158(25) 172.6597 151.6869
9406 29.2364 210(29) 172.8093 151.7438
9407 29.2394 146(24) 172.9877 151.8007
9408 29.2424 176(26) 173.1968 151.8576
9409 29.2454 194(28) 173.4371 151.9145
9410 29.2484 173(26) 173.7095 151.9714
9411 29.2514 153(25) 174.0124 152.0282
9412 29.2544 155(25) 174.3450 152.0851
9413 29.2574 170(26) 174.7045 152.1420
9414 29.2604 211(29) 175.0878 152.1989
9415 29.2634 207(28) 175.4890 152.2558
9416 29.2664 196(28) 175.9015 152.3127
9417 29.2694 173(26) 176.3172 152.3696
9418 29.2724 181(27) 176.7291 152.4264
9419 29.2754 223(30) 177.1259 152.4833
9420 29.2784 170(26) 177.4997 152.5402
9421 29.2814 170(26) 177.8398 152.5971
9422 29.2844 193(27) 178.1398 152.6540
9423 29.2874 200(28) 178.3889 152.7109
9424 29.2904 216(29) 178.5823 152.7677
9425 29.2934 213(29) 178.7128 152.8246
9426 29.2964 226(30) 178.7772 152.8815
9427 29.2994 205(28) 178.7744 152.9384
9428 29.3024 224(30) 178.7039 152.9953
9429 29.3054 188(27) 178.5675 153.0522
9430 29.3084 201(28) 178.3711 153.1091
9431 29.3114 155(25) 178.1200 153.1660
9432 29.3144 164(25) 177.8226 153.2228
9433 29.3174 150(24) 177.4877 153.2797
9434 29.3204 178(26) 177.1256 153.3366
9435 29.3234 206(28) 176.7483 153.3935
9436 29.3264 194(27) 176.3669 153.4504
9437 29.3294 205(28) 175.9921 153.5072
9438 29.3324 196(28) 175.6366 153.5641
9439 29.3354 172(26) 175.3102 153.6210
9440 29.3384 212(29) 175.0244 153.6779
9441 29.3414 174(26) 174.7857 153.7348
9442 29.3444 180(26) 174.5995 153.7917
9443 29.3474 160(25) 174.4715 153.8486
9444 29.3504 216(29) 174.4020 153.9055
9445 29.3534 150(24) 174.3919 153.9623
9446 29.3564 155(25) 174.4390 154.0192
9447 29.3594 106(21) 174.5380 154.0761
9448 29.3624 180(27) 174.6829 154.1330
9449 29.3654 187(27) 174.8645 154.1899
9450 29.3684 174(26) 175.0740 154.2468
9451 29.3714 207(29) 175.2997 154.3037
9452 29.3744 185(27) 175.5313 154.3605
9453 29.3774 151(24) 175.7580 154.4174
9454 29.3804 174(26) 175.9709 154.4743
9455 29.3834 176(26) 176.1618 154.5312
9456 29.3864 190(27) 176.3227 154.5881
9457 29.3894 161(25) 176.4483 154.6450
9458 29.3924 167(26) 176.5352 154.7019
9459 29.3954 247(31) 176.5814 154.7587
9460 29.3984 182(27) 176.5863 154.8156
9461 29.4014 179(26) 176.5517 154.8725
9462 29.4044 123(22) 176.4820 154.9294
9463 29.4074 164(25) 176.3828 154.9863
9464 29.4104 196(28) 176.2593 155.0432
9465 29.4134 149(24) 176.1205 155.1001
9466 29.4164 204(28) 175.9729 155.1570
9467 29.4194 200(28) 175.8247 155.2138
9468 29.4224 148(24) 175.6820 155.2707
9469 29.4254 194(28) 175.5513 155.3276
9470 29.4284 155(25) 175.4363 155.3845
9471 29.4314 158(25) 175.3435 155.4414
9472 29.4344 117(21) 175.2718 155.4983
9473 29.4374 149(24) 175.2208 155.5552
9474 29.4404 146(24) 175.1900 155.6120
9475 29.4434 128(22) 175.1760 155.6689
9476 29.4464 161(25) 175.1760 155.7258
9477 29.4494 205(28) 175.1878 155.7827
9478 29.4524 166(26) 175.2063 155.8396
9479 29.4554 228(30) 175.2285 155.8965
9480 29.4584 151(24) 175.2498 155.9534
9481 29.4614 187(27) 175.2698 156.0102
9482 29.4644 153(24) 175.2869 156.0671
9483 29.4674 176(26) 175.2982 156.1240
9484 29.4704 214(29) 175.3057 156.1809
9485 29.4734 193(27) 175.3102 156.2378
9486 29.4764 182(27) 175.3145 156.2947
9487 29.4794 213(29) 175.3205 156.3516
9488 29.4824 177(26) 175.3326 156.4085
9489 29.4854 191(27) 175.3541 156.4653
9490 29.4884 162(25) 175.3881 156.5222
9491 29.4914 186(27) 175.4377 156.5791
9492 29.4944 135(23) 175.5063 156.6360
9493 29.4974 240(31) 175.5942 156.6929
9494 29.5004 175(26) 175.7009 156.7498
9495 29.5034 144(24) 175.8251 156.8067
9496 29.5064 227(30) 175.9638 156.8635
9497 29.5094 189(27) 176.1149 156.9204
9498 29.5124 222(30) 176.2719 156.9773
9499 29.5154 197(28) 176.4312 157.0342
9500 29.5184 181(27) 176.5870 157.0911
9501 29.5214 170(26) 176.7359 157.1480
9502 29.5244 160(25) 176.8731 157.2048
9503 29.5274 134(23) 176.9938 157.2617
9504 29.5304 130(23) 177.0977 157.3186
9505 29.5334 152(24) 177.1779 157.3755
9506 29.5364 124(22) 177.2365 157.4324
9507 29.5394 159(25) 177.2707 157.4893
9508 29.5424 168(26) 177.2827 157.5462
9509 29.5454 161(25) 177.2731 157.6031
9510 29.5484 148(24) 177.2459 157.6599
9511 29.5514 185(27) 177.1346 157.6485
9512 29.5544 192(27) 176.9669 157.5915
9513 29.5574 172(26) 176.7938 157.5345
9514 29.5604 144(24) 176.6160 157.4775
9515 29.5634 191(27) 176.4400 157.4205
9516 29.5664 194(27) 176.2679 157.3635
9517 29.5694 126(22) 176.1021 157.3065
9518 29.5724 151(24) 175.9435 157.2496
9519 29.5754 185(27) 175.7929 157.1926
9520 29.5784 212(29) 175.6496 157.1356
9521 29.5814 155(25) 175.5105 157.0786
9522 29.5844 138(23) 175.3764 157.0216
9523 29.5874 186(27) 175.2429 156.9646
9524 29.5904 196(28) 175.1075 156.9076
9525 29.5934 174(26) 174.9653 156.8506
9526 29.5964 175(26) 174.8171 156.7937
9527 29.5994 150(24) 174.6612 156.7367
9528 29.6024 178(26) 174.4958 156.6797
9529 29.6054 176(26) 174.3207 156.6227
9530 29.6084 180(27) 174.1353 156.5657
9531 29.6114 158(25) 173.9409 156.5087
9532 29.6144 161(25) 173.7405 156.4517
9533 29.6174 199(28) 173.5347 156.3947
9534 29.6204 176(26) 173.3277 156.3377
9535 29.6234 130(23) 173.1192 156.2807
9536 29.6264 146(24) 172.9130 156.2237
9537 29.6294 155(25) 172.7108 156.1667
9538 29.6324 163(25) 172.5152 156.1097
9539 29.6354 112(21) 172.3268 156.0527
9540 29.6384 206(28) 172.1400 155.9958
9541 29.6414 199(28) 171.9575 155.9388
9542 29.6444 193(28) 171.7773 155.8818
9543 29.6474 150(24) 171.5945 155.8248
9544 29.6504 183(27) 171.4070 155.7678
9545 29.6534 178(26) 171.2106 155.7108
9546 29.6564 76(17) 171.0021 155.6538
9547 29.6594 143(24) 170.7780 155.5968
9548 29.6624 151(24) 170.5357 155.5399
9549 29.6654 184(27) 170.2730 155.4829
9550 29.6684 173(26) 169.9898 155.4259
9551 29.6714 169(26) 169.6865 155.3689
9552 29.6744 168(26) 169.3644 155.3119
9553 29.6774 160(25) 169.0258 155.2549
9554 29.6804 165(25) 168.6772 155.1979
9555 29.6834 172(26) 168.3193 155.1409
9556 29.6864 168(26) 167.9620 155.0839
9557 29.6894 151(24) 167.6122 155.0269
9558 29.6924 184(27) 167.2762 154.9699
9559 29.6954 178(26) 166.9588 154.9129
9560 29.6984 165(26) 166.6685 154.8559
9561 29.7014 168(26) 166.4089 154.7990
9562 29.7044 140(23) 166.1854 154.7420
9563 29.7074 194(28) 166.0023 154.6850
9564 29.7104 155(25) 165.8634 154.6280
9565 29.7134 160(25) 165.7690 154.5710
9566 29.7164 168(26) 165.7160 154.5140
9567 29.7194 213(29) 165.7053 154.4570
9568 29.7224 158(25) 165.7370 154.4000
9569 29.7254 133(23) 165.8020 154.3430
9570 29.7284 185(27) 165.8996 154.2861
9571 29.7314 147(24) 166.0220 154.2291
9572 29.7344 149(24) 166.1647 154.1721
9573 29.7374 136(23) 166.3227 154.1151
9574 29.7404 161(25) 166.4870 154.0581
9575 29.7434 168(26) 166.6533 154.0011
9576 29.7464 208(29) 166.8160 153.9441
9577 29.7494 164(25) 166.9689 153.8871
9578 29.7524 170(26) 167.1084 153.8301
9579 29.7554 217(29) 167.2294 153.7731
9580 29.7584 179(27) 167.3283 153.7161
9581 29.7614 201(28) 167.4023 153.6591
9582 29.7644 159(25) 167.4490 153.6021
9583 29.7674 168(26) 167.4672 153.5451
9584 29.7704 154(25) 167.4557 153.4882
9585 29.7734 185(27) 167.4160 153.4312
9586 29.7764 156(25) 167.3484 153.3742
9587 29.7794 177(26) 167.2555 153.3172
9588 29.7824 216(29) 167.1406 153.2602
9589 29.7854 163(25) 167.0037 153.2032
9590 29.7884 165(25) 166.8496 153.1462
9591 29.7914 148(24) 166.6832 153.0892
9592 29.7944 167(26) 166.5064 153.0323
9593 29.7974 180(27) 166.3248 152.9753
9594 29.8004 145(24) 166.1425 152.9183
9595 29.8034 187(27) 165.9645 152.8613
9596 29.8064 144(24) 165.7948 152.8043
9597 29.8094 168(26) 165.6364 152.7473
9598 29.8124 138(23) 165.4953 152.6903
9599 29.8154 175(26) 165.3746 152.6333
9600 29.8184 156(25) 165.2777 152.5763
9601 29.8214 220(29) 165.2087 152.5193
9602 29.8244 161(25) 165.1678 152.4623
9603 29.8274 126(22) 165.1568 152.4053
9604 29.8304 135(23) 165.1763 152.3483
9605 29.8334 154(25) 165.2264 152.2913
9606 29.8364 184(27) 165.3046 152.2344
9607 29.8394 146(24) 165.4080 152.1774
9608 29.8424 154(25) 165.5328 152.1204
9609 29.8454 135(23) 165.6765 152.0634
9610 29.8484 141(24) 165.8341 152.0064
9611 29.8514 200(28) 166.0009 151.9494
9612 29.8544 157(25) 166.1730 151.8924
9613 29.8574 155(25) 166.3467 151.8354
9614 29.8604 209(29) 166.5152 151.7784
9615 29.8634 139(23) 166.6781 151.7215
9616 29.8664 128(22) 166.8308 151.6645
9617 29.8694 147(24) 166.9746 151.6075
9618 29.8724 120(22) 167.1064 151.5505
9619 29.8754 164(25) 167.2272 151.4935
9620 29.8784 165(25) 167.3384 151.4365
9621 29.8814 158(25) 167.4421 151.3795
9622 29.8844 182(27) 167.5409 151.3225
9623 29.8874 164(25) 167.6389 151.2655
9624 29.8904 188(27) 167.7392 151.2085
9625 29.8934 230(30) 167.8468 151.1515
9626 29.8964 141(24) 167.9658 151.0945
9627 29.8994 136(23) 168.1006 151.0375
9628 29.9024 183(27) 168.2542 150.9806
9629 29.9054 168(26) 168.4299 150.9236
9630 29.9084 194(28) 168.6284 150.8666
9631 29.9114 184(27) 168.8516 150.8096
9632 29.9144 180(27) 169.0989 150.7526
9633 29.9174 159(25) 169.3690 150.6956
9634 29.9204 234(30) 169.6615 150.6386
9635 29.9234 164(25) 169.9707 150.5816
9636 29.9264 185(27) 170.2959 150.5246
9637 29.9294 195(28) 170.6312 150.4677
9638 29.9324 162(25) 170.9749 150.4107
9639 29.9354 197(28) 171.3209 150.3537
9640 29.9384 192(27) 171.6661 150.2967
9641 29.9414 186(27) 172.0068 150.2397
9642 29.9444 155(25) 172.3393 150.1827
9643 29.9474 248(31) 172.6618 150.1257
9644 29.9504 244(31) 172.9723 150.0687
9645 29.9534 189(27) 173.2669 150.0117
9646 29.9564 229(30) 173.5478 149.9547
9647 29.9594 178(26) 173.8122 149.8977
9648 29.9624 197(28) 174.0631 149.8407
9649 29.9654 168(26) 174.2984 149.7837
9650 29.9684 220(29) 174.5206 149.7268
9651 29.9714 216(29) 174.7301 149.6698
9652 29.9744 201(28) 174.9286 149.6128
9653 29.9774 130(23) 175.1176 149.5558
9654 29.9804 175(26) 175.2964 149.4988
9655 29.9834 156(25) 175.4657 149.4418
9656 29.9864 237(31) 175.6236 149.3848
9657 29.9894 167(26) 175.7702 149.3278
9658 29.9924 136(23) 175.9024 149.2708
9659 29.9954 233(32) 176.0184 149.2139
9660 29.9984 170(27) 149.1569 149.1569
loop_
_refln_mult
2
2
2
2
2
2
2
2
2
2
2
2
2
2
2
2
2
2
2
2
2
2
2
2
2
2
2
2
2
2
2
2
2
2
2
2
2
2
2
2
2
2
2
2
2
2
2
2
2
2
2
2
2
2
2
2
2
2
2
2
2
2
2
2
2
2
2
2
2
2
2
2
2
2
2
2
2
2
2
2
2
2
2
2
2
2
2
2
2
2
2
2
2
2
2
2
2
2
2
2
2
2
2
2
2
2
2
2
2
2
2
2
2
2
2
2
2
2
2
2
2
2
2
2
2
2
2
2
2
2
2
2
2
2
2
2
2
2
2
2
2
2
2
2
2
2
2
2
2
2
2
2
2
2
2
2
2
2
2
2
2
2
2
2
2
2
2
2
2
2
2
2
2
2
2
2
2
2
2
2
2
2
2
2
2
2
2
2
2
2
2
2
2
2
2
2
2
2
2
2
2
2
2
2
2
2
2
2
2
2
2
2
2
2
2
2
2
2
2
2
2
2
2
2
2
2
2
2
2
2
2
2
2
2
2
2
2
2
2
2
2
2
2
2
2
2
2
2
2
2
2
2
2
2
2
2
2
2
2
2
2
2
2
2
2
2
2
2
2
2
2
2
2
2
2
2
2
2
2
2
2
2
2
2
2
2
2
2
2
2
2
2
2
2
2
2
2
2
2
2
2
2
2
2
2
2
2
2
2
2
2
2
2
2
2
2
2
2
2
2
2
2
2
2
2
2
2
2
2
2
2
2
2
2
2
2
2
2
2
2
2
2
2
2
2
2
2
2
2
2
2
2
2
2
2
2
2
2
2
2
2
2
2
2
2
2
2
2
2
2
2
2
2
2
2
2
2
2
2
2
2
2
2
2
2
2
2
2
2
2
2
2
2
2
2
2
2
2
2
2
2
2
2
2
2
2
2
2
2
2
2
2
2
2
2
2
2
2
2
2
2
2
2
2
2
2
2
2
2
2
2
2
2
2
2
2
2
2
2
2
2
2
2
2
2
2
2
2
2
2
2
2
2
2
2
2
2
2
2
2
2
2
2
2
2
2
2
2
2
2
2
2
2
2
2
2
2
2
2
2
2
2
2
2
2
2
2
2
2
2
2
2
2
2
2
2
2
2
2
2
2
2
2
2
2
2
2
2
2
2
2
2
2
2
2
2
2
2
2
2
2
2
2
2
2
2
2
2
2
2
2
2
2
2
2
2
2
2
2
2
2
2
2
2
2
2
2
2
2
2
2
2
2
2
2
2
2
2
2
2
2
2
2
2
2
2
2
2
2
2
2
2
2
2
2
2
2
2
2
2
2
2
2
2
2
2
2
2
2
2
2
2
2
2
2
2
2
2
2
2
2
2
2
2
2
2
2
2
2
2
2
2
2
2
2
2
2
2
2
2
2
2
2
2
2
2
2
2
2
2
2
2
2
2
2
2
2
2
2
2
2
2
2
2
2
2
2
2
2
2
2
2
2
2
2
2
2
2
2
2
2
2
2
2
2
2
2
2
2
2
2
2
2
2
2
2
2
2
2
2
2
2
2
2
2
2
2
2
2
2
2
2
2
2
2
2
2
2
2
2
2
2
2
2
2
2
2
2
2
2
2
2
2
2
2
2
2
2
2
2
2
2
2
2
2
2
2
2
2
2
2
2
2
2
2
2
2
2
2
2
2
2
2
2
2
2
2
2
2
2
2
2
2
2
2
2
2
2
2
2
2
2
2
2
2
2
2
2
2
2
2
2
2
2
2
2
2
2
2
2
2
2
2
2
2
2
2
2
2
2
2
2
2
2
2
2
2
2
2
2
2
2
2
2
2
2
2
2
2
2
2
2
2
2
2
2
2
2
2
2
2
2
2
2
2
2
2
2
2
2
2
2
2
2
2
2
2
2
2
2
2
2
2
2
2
2
2
2
2
2
2
2
2
2
2
2
2
2
2
2
2
2
2
2
2
2
2
2
2
2
2
2
2
2
2
2
2
2
2
2
2
2
2
2
2
2
2
2
2
2
2
2
2
2
2
2
2
2
2
2
2
2
2
2
2
2
2
2
2
2
2
2
2
2
2
2
2
2
2
2
2
2
2
2
2
2
2
2
2
2
2
2
2
2
2
2
2
2
2
2
2
2
2
2
2
2
2
2
2
2
2
2
2
2
2
2
2
2
2
2
2
2
2
2
2
2
2
2
2
2
2
2
2
2
2
2
2
2
2
2
2
2
2
2
2
2
2
2
2
2
2
2
2
2
2
2
2
2
2
2
2
2
2
2
2
2
2
2
2
2
2
2
2
2
2
2
2
2
2
2
2
2
2
2
2
2
2
2
2
2
2
2
2
2
2
2
2
2
2
2
2
2
2
2
2
2
2
2
2
2
2
2
2
2
2
2
2
2
2
2
2
2
2
2
2
2
2
2
2
2
2
2
2
2
2
2
2
2
2
2
2
2
2
2
2
2
2
2
2
2
2
2
2
2
2
2
2
2
2
2
2
2
2
2
2
2
2
2
2
2
2
2
2
2
2
2
2
2
2
2
2
2
2
2
2
2
2
2
2
2
2
2
2
2
2
2
2
2
2
2
2
2
2
2
2
2
2
2
2
2
2
2
2
2
2
2
2
2
2
2
2
2
2
2
2
2
2
2
2
2
2
2
2
2
2
2
2
2
2
2
2
2
2
2
2
2
2
2
2
2
2
2
2
2
2
2
2
2
2
2
2
2
2
2
2
2
2
2
2
2
2
2
2
2
2
2
2
2
2
2
2
2
2
2
2
2
2
2
2
2
2
2
2
2
2
2
2
2
2
2
2
2
2
2
2
2
2
2
2
2
2
2
2
2
2
2
2
2
2
2
2
2
2
2
2
2
2
2
2
2
2
2
2
2
2
2
2
2
2
2
2
2
2
2
2
2
2
2
2
2
2
2
2
2
2
2
2
2
2
2
2
2
2
2
2
2
2
2
2
2
2
2
2
2
2
2
2
2
2
2
2
2
2
2
2
2
2
2
2
2
2
2
2
2
2
2
2
2
2
2
2
2
2
2
2
2
2
2
2
2
2
2
2
2
2
2
2
2
2
2
2
2
2
2
2
2
2
2
2
2
2
2
2
2
2
2
2
2
2
2
2
2
2
2
2
2
2
2
2
2
2
2
2
2
2
2
2
2
2
2
2
2
2
2
2
2
2
2
2
2
2
2
2
2
2
2
2
2
2
2
2
2
2
2
2
2
2
2
2
2
2
2
2
2
2
2
2
2
2
2
2
2
2
2
2
2
2
2
2
2
2
2
2
2
2
2
2
2
2
2
2
2
2
2
2
2
2
2
2
2
2
2
2
2
2
2
2
2
2
2
2
2
2
2
2
2
2
2
2
2
2
2
2
2
2
2
2
2
2
2
2
2
2
2
2
2
2
2
2
2
2
2
2
2
2
2
2
2
2
2
2
2
2
2
2
2
2
2
2
2
2
2
2
2
2
2
2
2
2
2
2
2
2
2
2
2
2
2
2
2
2
2
2
2
2
2
2
2
2
2
2
2
2
2
2
2
2
2
2
2
2
2
2
2
2
2
2
2
2
2
2
2
2
2
2
2
2
2
2
2
2
2
2
2
2
2
2
2
2
2
2
2
2
2
2
2
2
2
2
2
2
2
2
2
2
2
2
2
2
2
2
2
2
2
2
2
2
2
2
2
2
2
2
2
2
2
2
2
2
2
2
2
2
2
2
2
2
2
2
2
2
2
2
2
2
2
2
2
2
2
2
2
2
2
2
2
2
2
2
2
2
2
2
2
2
2
2
2
2
2
2
2
2
2
2
2
2
2
2
2
2
2
2
2
2
2
2
2
2
2
2
2
2
2
2
2
2
2
2
2
2
2
2
2
2
2
2
2
2
2
2
2
2
2
2
2
2
2
2
2
2
2
2
2
2
2
2
2
2
2
2
2
2
2
2
2
2
2
2
2
2
2
2
2
2
2
2
2
2
2
2
2
2
2
2
2
2
2
2
2
2
2
2
2
2
2
2
2
2
2
2
2
2
2
2
2
2
2
2
2
2
2
2
2
2
2
2
2
2
2
2
2
2
2
2
2
2
2
2
2
2
2
2
2
2
2
2
2
2
2
2
2
2
2
2
2
2
2
2
2
2
2
2
2
2
2
2
2
2
2
2
2
2
2
2
2
2
2
2
2
2
2
2
2
2
2
2
2
2
2
2
2
2
2
2
2
2
2
2
2
2
2
2
2
2
2
2
2
2
2
2
2
2
2
2
2
2
2
2
2
2
2
2
2
2
2
2
2
2
2
2
2
2
2
2
2
2
2
2
2
2
2
2
2
2
2
2
2
2
2
2
2
2
2
2
2
2
2
2
2
2
2
2
2
2
2
2
2
2
2
2
2
2
2
2
2
2
2
2
2
2
2
2
2
2
2
2
2
2
2
2
2
2
2
2
2
2
2
2
2
2
2
2
2
2
2
2
2
2
2
2
2
2
2
2
2
2
2
2
2
2
2
2
2
2
2
2
2
2
2
2
2
2
2
2
2
2
2
2
2
2
2
2
2
2
2
2
2
2
2
2
2
2
2
2
2
2
2
2
2
2
2
2
2
2
2
2
2
2
2
2
2
2
2
2
2
2
2
2
2
2
2
2
2
2
2
2
2
2
2
2
2
2
2
2
2
2
2
2
2
2
2
2
2
2
2
2
2
2
2
2
2
2
2
2
2
2
2
2
2
2
2
2
2
2
2
2
2
2
2
2
2
2
2
2
2
2
2
2
2
2
2
2
2
2
2
2
2
2
2
2
2
2
2
2
2
2
2
2
2
2
2
2
2
2
2
2
2
2
2
2
2
2
2
2
2
2
2
2
2
2
2
2
2
2
2
2
2
2
2
2
2
2
2
2
2
2
2
2
2
2
2
2
2
2
2
2
2
2
2
2
2
2
2
2
2
2
2
2
2
2
2
2
2
2
2
2
2
2
2
2
2
2
2
2
2
2
2
2
2
2
2
2
2
2
2
2
2
2
2
2
2
2
2
2
2
2
2
2
2
2
2
2
2
2
2
2
2
2
2
2
2
2
2
2
2
2
2
2
2
2
2
2
2
2
2
2
2
2
2
2
2
2
2
2
2
2
2
2
2
2
2
2
2
2
2
2
2
2
2
2
2
2
2
2
2
2
2
2
2
2
2
2
2
2
2
2
2
2
2
2
2
2
2
2
2
2
2
2
2
2
2
2
2
2
2
2
2
2
2
2
2
2
2
2
2
2
2
2
2
2
2
2
2
2
2
2
2
2
2
2
2
2
2
2
2
2
2
2
2
2
2
2
2
2
2
2
2
2
2
2
2
2
2
2
2
2
2
2
2
2
2
2
2
2
2
2
2
2
2
2
2
2
2
2
2
2
2
2
2
2
2
2
2
2
2
2
2
2
2
2
2
2
2
2
2
2
2
2
2
2
2
2
2
2
2
2
2
2
2
2
2
2
2
2
2
2
2
2
2
2
2
2
2
2
2
2
2
2
2
2
2
2
2
2
2
2
2
2
2
2
2
2
2
2
2
2
2
2
2
2
2
2
2
2
2
2
2
2
2
2
2
2
2
2
2
2
2
2
2
2
2
2
2
2
2
2
2
2
2
2
2
2
2
2
2
2
2
2
2
2
2
2
2
2
2
2
2
2
2
2
2
2
2
2
2
2
2
2
2
2
2
2
2
2
2
2
2
2
2
2
2
2
2
2
2
2
2
2
2
2
2
2
2
2
2
2
2
2
2
2
2
2
2
2
2
2
2
2
2
2
2
2
2
2
2
2
2
2
2
2
2
2
2
2
2
2
2
2
2
2
2
2
2
2
2
2
2
2
2
2
2
2
2
2
2
2
2
2
2
2
2
2
2
2
2
2
2
2
2
2
2
2
2
2
2
2
2
2
2
2
2
2
2
2
2
2
2
2
2
2
2
2
2
2
2
2
2
2
2
2
2
2
2
2
2
2
2
2
2
2
2
2
2
2
2
2
2
2
2
2
2
2
2
2
2
2
2
2
2
2
2
2
2
2
2
2
2
2
2
2
2
2
2
2
2
2
2
2
2
2
2
2
2
2
2
2
2
2
2
2
2
2
2
2
2
2
2
2
2
2
2
2
2
2
2
2
2
2
2
2
2
2
2
2
2
2
2
2
2
2
2
2
2
2
2
2
2
2
2
2
2
2
2
2
2
2
2
2
2
2
2
2
2
2
2
2
2
2
2
2
2
2
2
2
2
2
2
2
2
2
2
2
2
2
2
2
2
2
2
2
2
2
2
2
2
2
2
2
2
2
2
2
2
2
2
2
2
2
2
2
2
2
2
2
2
2
2
2
2
2
2
2
2
2
2
2
2
2
2
2
2
2
2
2
2
2
2
2
2
2
2
2
2
2
2
2
2
2
2
2
2
2
2
2
2
2
2
2
2
2
2
2
2
2
2
2
2
2
2
2
2
2
2
2
2
2
2
2
2
2
2
2
2
2
2
2
2
2
2
2
2
2
2
2
2
2
2
2
2
2
2
2
2
2
2
2
2
2
2
2
2
2
2
2
2
2
2
2
2
2
2
2
2
2
2
2
2
2
2
2
2
2
2
2
2
2
2
2
2
2
2
2
2
2
2
2
2
2
2
2
2
2
2
2
2
2
2
2
2
2
2
2
2
2
2
2
2
2
2
2
2
2
2
2
2
2
2
2
2
2
2
2
2
2
2
2
2
2
2
2
2
2
2
2
2
2
2
2
2
2
2
2
2
2
2
2
2
2
2
2
2
2
2
2
2
2
2
2
2
2
2
2
2
2
2
2
2
2
2
2
2
2
2
2
2
2
2
2
2
2
2
2
2
2
2
2
2
2
2
2
2
2
2
2
2
2
2
2
2
2
2
2
2
2
2
2
2
2
2
2
2
2
2
2
2
2
2
2
2
2
2
2
2
2
2
2
2
2
2
2
2
2
2
2
2
2
2
2
2
2
2
2
2
2
2
2
2
2
2
2
2
2
2
2
2
2
2
2
2
2
2
2
2
2
2
2
2
2
2
2
2
2
2
2
2
2
2
2
2
2
2
2
2
2
2
2
2
2
2
2
2
2
2
2
2
2
2
2
2
2
2
2
2
2
2
2
2
2
2
2
2
2
2
2
2
2
2
2
2
2
2
2
2
2
2
2
2
2
2
2
2
2
2
2
2
2
2
2
2
2
2
2
2
2
2
2
2
2
2
2
2
2
2
2
2
2
2
2
2
2
2
2
2
2
2
2
2
2
2
2
2
2
2
2
2
2
2
2
2
2
2
2
2
2
2
2
2
2
2
2
2
2
2
2
2
2
2
2
2
2
2
2
2
2
2
2
2
2
2
2
2
2
2
2
2
2
2
2
2
2
2
2
2
2
2
2
2
2
2
2
2
2
2
2
2
2
2
2
2
2
2
2
2
2
2
2
2
2
2
2
2
2
2
2
2
2
2
2
2
2
2
2
2
2
2
2
2
2
2
2
2
2
2
2
2
2
2
2
2
2
2
2
2
2
2
2
2
2
2
2
2
2
2
2
2
2
2
2
2
2
2
2
2
2
2
2
2
2
2
2
2
2
2
2
2
2
2
2
2
2
2
2
2
2
2
2
2
2
2
2
2
2
2
2
2
2
2
2
2
2
2
2
2
2
2
2
2
2
2
2
2
2
2
2
2
2
2
2
2
2
2
2
2
2
2
2
2
2
2
2
2
2
2
2
2
2
2
2
2
2
2
2
2
2
2
2
2
2
2
2
2
2
2
2
2
2
2
2
2
2
2
2
2
2
2
2
2
2
2
2
2
2
2
2
2
2
2
2
2
2
2
2
2
2
2
2
2
2
2
2
2
2
2
2
2
2
2
2
2
2
2
2
2
2
2
2
2
2
2
2
2
2
2
2
2
2
2
2
2
2
2
2
2
2
2
2
2
2
2
2
2
2
2
2
2
2
2
2
2
2
2
2
2
2
2
2
2
2
2
2
2
2
2
2
2
2
2
2
2
2
2
2
2
2
2
2
2
2
2
2
2
2
2
2
2
2
2
2
2
2
2
2
2
2
2
2
2
2
2
2
2
2
2
2
2
2
2
2
2
2
2
2
2
2
2
2
2
2
2
2
2
2
2
2
2
2
2
2
2
2
2
2
2
2
2
2
2
2
2
2
2
2
2
2
2
2
2
2
2
2
2
2
2
2
2
2
2
2
2
2
2
2
2
2
2
2
2
2
2
2
2
2
2
2
2
2
2
2
2
2
2
2
2
2
2
2
2
2
2
2
2
2
2
2
2
2
2
2
2
2
2
2
2
2
2
2
2
2
2
2
2
2
2
2
2
2
2
2
2
2
2
2
2
2
2
2
2
2
2
2
2
2
2
2
2
2
2
2
2
2
2
2
2
2
2
2
2
2
2
2
2
2
2
2
2
2
2
2
2
2
2
2
2
2
2
2
2
2
2
2
2
2
2
2
2
2
2
2
2
2
2
2
2
2
2
2
2
2
2
2
2
2
2
2
2
2
2
2
2
2
2
2
2
2
2
2
2
2
2
2
2
2
2
2
2
2
2
2
2
2
2
2
2
2
2
2
2
2
2
2
2
2
2
2
2
2
2
2
2
2
2
2
2
2
2
2
2
2
2
2
2
2
2
2
2
2
2
2
2
2
2
2
2
2
2
2
2
2
2
2
2
2
2
2
2
2
2
2
2
2
2
2
2
2
2
2
2
2
2
2
2
2
2
2
2
2
2
2
2
2
2
2
2
2
2
2
2
2
2
2
2
2
2
2
2
2
2
2
2
2
2
2
2
2
2
2
2
2
2
2
2
2
2
2
2
2
2
2
2
2
2
2
2
2
2
2
2
2
2
2
2
2
2
2
2
2
2
2
2
2
2
2
2
2
2
2
2
2
2
2
2
2
2
2
2
2
2
2
2
2
2
2
2
2
2
2
2
2
2
2
2
2
2
2
2
2
2
2
2
2
2
2
2
2
2
2
2
2
2
2
2
2
2
2
2
2
2
2
2
2
2
2
2
2
2
2
2
2
2
2
2
2
2
2
2
2
2
2
2
2
2
2
2
2
2
2
2
2
2
2
2
2
2
2
2
2
2
2
2
2
2
2
2
2
2
2
2
2
2
2
2
2
2
2
2
2
2
2
2
2
2
2
2
2
2
2
2
2
2
2
2
2
2
2
2
2
2
2
2
2
2
2
2
2
2
2
2
2
2
2
2
2
2
2
2
2
2
2
2
2
2
2
2
2
2
2
2
2
2
2
2
2
2
2
2
2
2
2
2
2
2
2
2
2
2
2
2
2
2
2
2
2
2
2
2
2
2
2
2
2
2
2
2
2
2
2
2
2
2
2
2
2
2
2
2
2
2
2
2
2
2
2
2
2
2
2
2
2
2
2
2
2
2
2
2
2
2
2
2
2
2
2
2
2
2
2
2
2
2
2
2
2
2
2
2
2
2
2
2
2
2
2
2
2
2
2
2
2
2
2
2
2
2
2
2
2
2
2
2
2
2
2
2
2
2
2
2
2
2
2
2
2
2
2
2
2
2
2
2
2
2
2
2
2
2
2
2
2
2
2
2
2
2
2
2
2
2
2
2
2
2
2
2
2
2
2
2
2
2
2
2
2
2
2
2
2
2
2
2
2
2
2
2
2
2
2
2
2
2
2
2
2
2
2
2
2
2
2
2
2
2
2
2
2
2
2
2
2
2
2
2
2
2
2
2
2
2
2
2
2
2
2
2
2
2
2
2
2
2
2
2
2
2
2
2
2
2
2
2
2
2
2
2
2
2
2
2
2
2
2
2
2
2
2
2
2
2
2
2
2
2
2
2
2
2
2
2
2
2
2
2
2
2
2
2
2
2
2
2
2
2
2
2
2
2
2
2
2
2
2
2
2
2
2
2
2
2
2
2
2
2
2
2
2
2
2
2
2
2
2
2
2
2
2
2
2
2
2
2
2
2
2
2
2
2
2
2
2
2
2
2
2
2
2
2
2
2
2
2
2
2
2
2
2
2
2
2
2
2
2
2
2
2
2
2
2
2
2
2
2
2
2
2
2
2
2
2
2
2
2
2
2
2
2
2
2
2
2
2
2
2
2
2
2
2
2
2
2
2
2
2
2
2
2
2
2
2
2
2
2
2
2
2
2
2
2
2
2
2
2
2
2
2
2
2
2
2
2
2
2
2
2
2
2
2
2
2
2
2
2
2
2
2
2
2
2
2
2
2
2
2
2
2
2
2
2
2
2
2
2
2
2
2
2
2
2
2
2
2
2
2
2
2
2
2
2
2
2
2
2
2
2
2
2
2
2
2
2
2
2
2
2
2
2
2
2
2
2
2
2
2
2
2
2
2
2
2
2
2
2
2
2
2
2
2
2
2
2
2
2
2
2
2
2
2
2
2
2
2
2
2
2
2
2
2
2
2
2
2
2
2
2
2
2
2
2
2
2
2
2
2
2
2
2
2
2
2
2
2
2
2
2
2
2
2
2
2
2
2
2
2
2
2
2
2
2
2
2
2
2
2
2
2
2
2
2
2
2
2
2
2
2
2
2
2
2
2
2
2
2
2
2
2
2
2
2
2
2
2
2
2
2
2
2
2
2
2
2
2
2
2
2
2
2
2
2
2
2
2
2
2
2
2
2
2
2
2
2
2
2
2
2
2
2
2
2
2
2
2
2
2
2
2
2
2
2
2
2
2
2
2
2
2
2
2
2
2
2
2
2
2
2
2
2
2
2
2
2
2
2
2
2
2
2
2
2
2
2
2
2
2
2
2
2
2
2
2
2
2
2
2
2
2
2
2
2
2
2
2
2
2
2
2
2
2
2
2
2
2
2
2
2
2
2
2
2
2
2
2
2
2
2
2
2
2
2
2
2
2
2
2
2
2
2
2
2
2
2
2
2
2
2
2
2
2
2
2
2
2
2
2
2
2
2
2
2
2
2
2
2
2
2
2
2
2
2
2
2
2
2
2
2
2
2
2
2
2
2
2
2
2
2
2
2
2
2
2
2
2
2
2
2
2
2
2
2
2
2
2
2
2
2
2
2
2
2
2
2
2
2
2
2
2
2
2
2
2
2
2
2
2
2
2
2
2
2
2
2
2
2
2
2
2
2
2
2
2
2
2
2
2
2
2
2
2
2
2
2
2
2
2
2
2
2
2
2
2
2
2
2
2
2
2
2
2
2
2
2
2
2
2
2
2
2
2
2
2
2
2
2
2
2
2
2
2
2
2
2
2
2
2
2
2
2
2
2
2
2
2
2
2
2
2
2
2
2
2
2
2
2
2
2
2
2
2
2
2
2
2
2
2
2
2
2
2
2
2
2
2
2
2
2
2
2
2
2
2
2
2
2
2
2
2
2
2
2
2
2
2
2
2
2
2
2
2
2
2
2
2
2
2
2
2
2
2
2
2
2
2
2
2
2
2
2
2
2
2
2
2
2
2
2
2
2
2
2
2
2
2
2
2
2
2
2
2
2
2
2
2
2
2
2
2
2
2
2
2
2
2
2
2
2
2
2
2
2
2
2
2
2
2
2
2
2
2
2
2
2
2
2
2
2
2
2
2
2
2
2
2
2
2
2
2
2
2
2
2
2
2
2
2
2
2
2
2
2
2
2
2
2
2
2
2
2
2
2
2
2
2
2
2
2
2
2
2
2
2
2
2
2
2
2
2
2
2
2
2
2
2
2
2
2
2
2
2
2
2
2
2
2
2
2
2
2
2
2
2
2
2
2
2
2
2
2
2
2
2
2
2
2
2
2
2
2
2
2
2
2
2
2
2
2
2
2
2
2
2
2
2
2
2
2
2
2
2
2
2
2
2
2
2
2
2
2
2
2
2
2
2
2
2
2
2
2
2
2
2
2
2
2
2
2
2
2
2
2
2
2
2
2
2
2
2
2
2
2
2
2
2
2
2
2
2
2
2
2
2
2
2
2
2
2
2
2
2
2
2
2
2
2
2
2
2
2
2
2
2
2
2
2
2
2
2
2
2
2
2
2
2
2
2
2
2
2
2
2
2
2
2
2
2
2
2
2
2
2
2
2
2
2
2
2
2
2
2
2
2
2
2
2
2
2
2
2
2
2
2
2
2
2
2
2
2
2
2
2
2
2
2
2
2
2
2
2
2
2
2
2
2
2
2
2
2
2
2
2
2
2
2
2
2
2
2
2
2
2
2
2
2
2
2
2
2
2
2
2
2
2
2
2
2
2
2
2
2
2
2
2
2
2
2
2
2
2
2
2
2
2
2
2
2
2
2
2
2
2
2
2
2
2
2
2
2
2
2
2
2
2
2
2
2
2
2
2
2
2
2
2
2
2
2
2
2
2
2
2
2
2
2
2
2
2
2
2
2
2
2
2
2
2
2
2
2
2
2
2
2
2
2
2
2
2
2
2
2
2
2
2
2
2
2
2
2
2
2
2
2
2
2
2
2
2
2
2
2
2
2
2
2
2
2
2
2
2
2
2
2
2
2
2
2
2
2
2
2
2
2
2
2
2
2
2
2
2
2
2
2
2
2
2
2
2
2
2
2
2
2
2
2
2
2
2
2
2
2
2
2
2
2
2
2
2
2
2
2
2
2
2
2
2
2
2
2
2
2
2
2
2
2
2
2
2
2
2
2
2
2
2
2
2
2
2
2
2
2
2
2
2
2
2
2
2
2
2
2
2
2
2
2
2
2
2
2
2
2
2
2
2
2
2
2
2
2
2
2
2
2
2
2
2
2
2
2
2
2
2
2
2
2
2
2
2
2
2
2
2
2
2
2
2
2
2
2
2
2
2
2
2
2
2
2
2
2
2
2
2
2
2
2
2
2
2
2
2
2
2
2
2
2
2
2
2
2
2
2
2
2
2
2
2
2
2
2
2
2
2
2
2
2
2
2
2
2
2
2
2
2
2
2
2
2
2
2
2
2
2
2
2
2
2
2
2
2
2
2
2
2
2
2
2
2
2
2
2
2
2
2
2
2
2
2
2
2
2
2
2
2
2
2
2
2
2
2
2
2
2
2
2
2
2
2
2
2
2
2
2
2
2
2
2
2
2
2
2
2
2
2
2
2
2
2
2
2
2
2
2
2
2
2
2
2
2
2
2
2
2
2
2
2
2
2
2
2
2
2
2
2
2
2
2
2
2
2
2
2
2
2
2
2
2
2
2
2
2
2
2
2
2
2
2
2
2
2
2
2
2
2
2
2
2
2
2
2
2
2
2
2
2
2
2
2
2
2
2
2
2
2
2
2
2
2
2
2
2
2
2
2
2
2
2
2
2
2
2
2
2
2
2
2
2
2
2
2
2
2
2
2
2
2
2
2
2
2
2
2
2
2
2
2
2
2
2
2
2
2
2
2
2
2
2
2
2
2
2
2
2
2
2
2
2
2
2
2
2
2
2
2
2
2
2
2
2
2
2
2
2
2
2
2
2
2
2
2
2
2
2
2
2
2
2
2
2
2
2
2
2
2
2
2
2
2
2
2
2
2
2
2
2
2
2
2
2
2
2
2
2
2
2
2
2
2
2
2
2
2
2
2
2
2
2
2
2
2
2
2
2
2
2
2
2
2
2
2
2
2
2
2
2
2
2
2
2
2
2
2
2
2
2
2
2
2
2
2
2
2
2
2
2
2
2
2
2
2
2
2
2
2
2
2
2
2
2
2
2
2
2
2
2
2
2
2
2
2
2
2
2
2
2
2
2
2
2
2
2
2
2
2
2
2
2
2
2
2
2
2
2
2
2
2
2
2
2
2
2
2
2
2
2
2
2
2
2
2
2
2
2
2
2
2
2
2
2
2
2
2
2
2
2
2
2
2
2
2
2
2
2
2
2
2
2
2
2
2
2
2
2
2
2
2
2
2
2
2
2
2
2
2
2
2
2
2
2
2
2
2
2
2
2
2
2
2
2
2
2
2
2
2
2
2
2
2
2
2
2
2
2
2
2
2
2
2
2
2
2
2
2
2
2
2
2
2
2
2
2
2
2
2
2
2
2
2
2
2
2
2
2
2
2
2
2
2
2
2
2
2
2
2
2
2
2
2
2
2
2
2
2
2
2
2
2
2
2
2
2
2
2
2
2
2
2
2
2
2
2
2
2
2
2
2
2
2
2
2
2
2
2
2
2
2
2
2
2
2
2
2
2
2
2
2
2
2
2
2
2
2
2
2
2
2
2
2
2
2
2
2
2
2
2
2
2
2
2
2
2
2
2
2
2
2
2
2
2
2
2
2
2
2
2
2
2
2
2
2
2
2
2
2
2
2
2
2
2
2
2
2
2
2
2
2
2
2
2
2
2
2
2
2
2
2
2
2
2
2
2
2
2
2
2
2
2
2
2
2
2
2
2
2
2
2
2
2
2
2
2
2
2
2
2
2
2
2
2
2
2
2
2
2
2
2
2
2
2
2
2
2
2
2
2
2
2
2
2
2
2
2
2
2
2
2
2
2
2
2
2
2
2
2
2
2
2
2
2
2
2
2
2
2
2
2
2
2
2
2
2
2
2
2
2
2
2
2
2
2
2
2
2
2
2
2
2
2
2
2
2
2
2
2
2
2
2
2
2
2
2
2
2
2
2
2
2
2
2
2
2
2
2
2
2
2
2
2
2
2
2
2
2
2
2
2
2
2
2
2
2
2
2
2
2
2
2
2
2
2
2
2
2
2
2
2
2
2
2
2
2
2
2
2
2
2
2
2
2
2
2
2
2
2
2
2
2
2
2
2
2
2
2
2
2
2
2
2
2
2
2
2
2
2
2
2
2
2
2
2
2
2
2
2
2
2
2
2
2
2
2
2
2
2
2
2
2
2
2
2
2
2
2
2
2
2
2
2
2
2
2
2
2
2
2
2
2
2
2
2
2
2
2
2
2
2
2
2
2
2
2
2
2
2
2
2
2
2
2
2
2
2
2
2
2
2
2
2
2
2
2
2
2
2
2
2
2
2
2
2
2
2
2
2
2
2
2
2
2
2
2
2
2
2
2
2
2
2
2
2
2
2
2
2
2
2
2
2
2
2
2
2
2
2
2
2
2
2
2
2
2
2
2
2
2
2
2
2
2
2
2
2
2
2
2
2
2
2
2
2
2
2
2
2
2
2
2
2
2
2
2
2
2
2
2
2
2
2
2
2
2
2
2
2
2
2
2
2
2
2
2
2
2
2
2
2
2
2
2
2
2
2
2
2
2
2
2
2
2
2
2
2
2
2
2
2
2
2
2
2
2
2
2
2
2
2
2
2
2
2
2
2
2
2
2
2
2
2
2
2
2
2
2
2
2
2
2
2
2
2
2
2
2
2
2
2
2
2
2
2
2
2
2
2
2
2
2
2
2
2
2
2
2
2
2
2
2
2
2
2
2
2
2
2
2
2
2
2
2
2
2
2
2
2
2
2
2
2
2
2
2
2
2
2
2
2
2
2
2
2
2
2
2
2
2
2
2
2
2
2
2
2
2
2
2
2
2
2
2
2
2
2
2
2
2
2
2
2
2
2
2
2
2
2
2
2
2
2
2
2
2
2
2
2
2
2
2
2
2
2
2
2
2
2
2
2
2
2
2
2
2
2
2
2
2
2
2
2
2
2
2
2
2
2
2
2
2
2
2
2
2
2
2
2
2
2
2
2
2
2
2
2
2
2
2
2
2
2
2
2
2
2
2
2
2
2
2
2
2
2
2
2
2
2
2
2
2
2
2
2
2
2
2
2
2
2
2
2
2
2
2
2
2
2
2
2
2
2
2
2
2
2
2
2
2
2
2
2
2
2
2
2
2
2
2
2
2
2
2
2
2
2
2
2
2
2
2
2
2
2
2
2
2
2
2
2
2
2
2
2
2
2
2
2
2
2
2
2
2
2
2
2
2
2
2
2
2
2
2
2
2
2
2
2
2
2
2
2
2
2
2
2
2
2
2
2
2
2
2
2
2
2
2
2
2
2
2
2
2
2
2
2
2
2
2
2
2
2
2
2
2
2
2
2
2
2
2
2
2
2
2
2
2
2
2
2
2
2
2
2
2
2
2
2
2
2
2
2
2
2
2
2
2
2
2
2
2
2
2
2
2
2
2
2
2
2
2
2
2
2
2
2
2
2
2
2
2
2
2
2
2
2
2
2
2
2
2
2
2
2
2
2
2
2
2
2
2
2
2
2
2
2
2
2
2
2
2
2
2
2
2
2
2
2
2
2
2
2
2
2
2
2
2
2
2
2
2
2
2
2
2
2
2
2
2
2
2
2
2
2
2
2
2
2
2
2
2
2
2
2
2
2
2
2
2
2
2
2
2
2
2
2
2
2
2
2
2
2
2
2
2
2
2
2
2
2
2
2
2
2
2
2
2
2
2
2
2
2
2
2
2
2
2
2
2
2
2
2
2
2
2
2
2
2
2
2
2
2
2
2
2
2
2
2
2
2
2
2
2
2
2
2
2
2
2
2
2
2
2
2
2
2
2
2
2
2
2
2
2
2
2
2
2
2
2
2
2
2
2
2
2
2
2
2
2
2
2
2
2
2
2
2
2
2
2
2
2
2
2
2
2
2
2
2
2
2
2
2
2
2
2
2
2
2
2
2
2
2
2
2
2
2
2
2
2
2
2
2
2
2
2
2
2
2
2
2
2
2
2
2
2
2
2
2
2
2
2
2
2
2
2
2
2
2
2
2
2
2
2
2
2
2
2
2
2
2
2
2
2
2
2
2
2
2
2
2
2
2
2
2
2
2
2
2
2
2
2
2
2
2
2
2
2
2
2
2
2
2
2
2
2
2
2
2
2
2
2
2
2
2
2
2
2
2
2
2
2
2
2
2
2
2
2
2
2
2
2
2
2
2
2
2
2
2
2
2
2
2
2
2
2
2
2
2
2
2
2
2
2
2
2
2
2
2
2
2
2
2
2
2
2
2
2
2
2
2
2
2
2
2
2
2
2
2
2
2
2
2
2
2
2
2
2
2
2
2
2
2
2
2
2
2
2
2
2
2
2
2
2
2
2
2
2
2
2
2
2
2
2
2
2
2
2
2
2
2
2
2
2
2
2
2
2
2
2
2
2
2
2
2
2
2
2
2
2
2
2
2
2
2
2
2
2
2
2
2
2
2
2
2
2
2
2
2
2
2
2
2
2
2
2
2
2
2
2
2
2
2
2
2
2
2
2
2
2
2
2
2
2
2
2
2
2
2
2
2
2
2
2
2
2
2
2
2
2
2
2
2
2
2
2
2
2
2
2
2
2
2
2
2
2
2
2
2
2
2
2
2
2
2
2
2
2
2
2
2
2
2
2
2
2
2
2
2
2
2
2
2
2
2
2
2
2
2
2
2
2
2
2
2
2
2
2
2
2
2
2
2
2
2
2
2
2
2
2
2
2
2
2
2
2
2
2
2
2
2
2
2
2
2
2
2
2
2
2
2
2
2
2
2
2
2
2
2
2
2
2
2
2
2
2
2
2
2
2
2
2
2
2
2
2
2
2
2
2
2
2
2
2
2
2
2
2
2
2
2
2
2
2
2
2
2
2
2
2
2
2
2
2
2
2
2
2
2
2
2
2
2
2
2
2
2
2
2
2
2
2
2
2
2
2
2
2
2
2
2
2
2
2
2
2
2
2
2
2
2
2
2
2
2
2
2
2
2
2
2
2
2
2
2
2
2
2
2
2
2
2
2
2
2
2
2
2
2
2
2
2
2
2
2
2
2
2
2
2
2
2
2
2
2
2
2
2
2
2
2
2
2
2
2
2
2
2
2
2
2
2
2
2
2
2
2
2
2
2
2
2
2
2
2
2
2
2
2
2
2
2
2
2
2
2
2
2
2
2
2
2
2
2
2
2
2
2
2
2
2
2
2
2
2
2
2
2
2
2
2
2
2
2
2
2
2
2
2
2
2
2
2
2
2
2
2
2
2
2
2
2
2
2
2
2
2
2
2
2
2
2
2
2
2
2
2
2
2
2
2
2
2
2
2
2
2
2
2
2
2
2
2
2
2
2
2
2
2
2
2
2
2
2
2
2
2
2
2
2
2
2
2
2
2
2
2
2
2
2
2
2
2
2
2
2
2
2
2
2
2
2
2
2
2
2
2
2
2
2
2
2
2
2
2
2
2
2
2
2
2
2
2
2
2
2
2
2
2
2
2
2
2
2
2
2
2
2
2
2
2
2
2
2
2
2
2
2
2
2
2
2
2
2
2
2
2
2
2
2
2
2
2
2
2
2
2
2
2
2
2
2
2
2
2
2
2
2
2
2
2
2
2
2
2
2
2
2
2
2
2
2
2
2
2
2
2
2
2
2
2
2
2
2
2
2
2
2
2
2
2
2
2
2
2
2
2
2
2
2
2
2
2
2
2
2
2
2
2
2
2
2
2
2
2
2
2
2
2
2
2
2
2
2
2
2
2
2
2
2
2
2
2
2
2
2
2
2
2
2
2
2
2
2
2
2
2
2
2
2
2
2
2
2
2
2
2
2
2
2
2
2
2
2
2
2
2
2
2
2
2
2
2
2
2
2
2
2
2
2
2
2
2
2
2
2
2
2
2
2
2
2
2
2
2
2
2
2
2
2
2
2
2
2
2
2
2
2
2
2
2
2
2
2
2
2
2
2
2
2
2
2
2
2
2
2
2
2
2
2
2
2
2
2
2
2
2
2
2
2
2
2
2
2
2
2
2
2
2
2
2
2
2
2
2
2
2
2
2
2
2
2
2
2
2
2
2
2
2
2
2
2
2
2
2
2
2
2
2
2
2
2
2
2
2
2
2
2
2
2
2
2
2
2
2
2
2
2
2
2
2
2
2
2
2
2
2
2
2
2
2
2
2
2
2
2
2
2
2
2
2
2
2
2
2
2
2
2
2
2
2
2
2
2
2
2
2
2
2
2
2
2
2
2
2
2
2
2
2
2
2
2
2
2
2
2
2
2
2
2
2
2
2
2
2
2
2
2
2
2
2
2
2
2
2
2
2
2
2
2
2
2
2
2
2
2
2
2
2
2
2
2
2
2
2
2
2
2
2
2
2
2
2
2
2
2
2
2
2
2
2
2
2
2
2
2
2
2
2
2
2
2
2
2
2
2
2
2
2
2
2
2
2
2
2
2
2
2
2
2
2
2
2
2
2
2
2
2
2
2
2
2
2
2
2
2
2
2
2
2
2
2
2
2
2
2
2
2
2
2
2
2
2
2
2
2
2
2
2
2
2
2
2
2
2
2
2
2
2
2
2
2
2
2
2
2
2
2
2
2
2
2
2
2
2
2
2
2
2
2
2
2
2
2
2
2
2
2
2
2
2
2
2
2
2
2
2
2
2
2
2
2
2
2
2
2
2
2
2
2
2
2
2
2
2
2
2
2
2
2
2
2
2
2
2
2
2
2
2
2
2
2
2
2
2
2
2
2
2
2
2
2
2
2
2
2
2
2
2
2
2
2
2
2
2
2
2
2
2
2
2
2
2
2
2
2
2
2
2
2
2
2
2
2
2
2
2
2
2
2
2
2
2
2
2
2
2
2
2
2
2
2
2
2
2
2
2
2
2
2
2
2
2
2
2
2
2
2
2
2
2
2
2
2
2
2
2
2
2
2
2
2
2
2
2
2
2
2
2
2
2
2
2
2
2
2
2
2
2
2
2
2
2
2
2
2
2
2
2
2
2
2
2
2
2
2
2
2
2
2
2
2
2
2
2
2
2
2
2
2
2
2
2
2
2
2
2
2
2
2
2
2
2
2
2
2
2
2
2
2
2
2
2
2
2
2
2
2
2
2
2
2
2
2
2
2
2
2
2
2
2
2
2
2
2
2
2
2
2
2
2
2
2
2
2
2
2
2
2
2
2
2
2
2
2
2
2
2
2
2
2
2
2
2
2
2
2
2
2
2
2
2
2
2
2
2
2
2
2
2
2
2
2
2
2
2
2
2
2
2
2
2
2
2
2
2
2
2
2
2
2
2
2
2
2
2
2
2
2
2
2
2
2
2
2
2
2
2
2
2
2
2
2
2
2
2
2
2
2
2
2
2
2
2
2
2
2
2
2
2
2
2
2
2
2
2
2
2
2
2
2
2
2
2
2
2
2
2
2
2
2
2
2
2
2
2
2
2
2
2
2
2
2
2
2
2
2
2
2
2
2
2
2
2
2
2
2
2
2
2
2
2
2
2
2
2
2
2
2
2
2
2
2
2
2
2
2
2
2
2
2
2
2
2
2
2
2
2
2
2
2
2
2
2
2
2
2
2
2
2
2
2
2
2
2
2
2
2
2
2
2
2
2
2
2
2
2
2
2
2
2
2
2
2
2
2
2
2
2
2
2
2
2
2
2
2
2
2
2
2
2
2
2
2
2
2
2
2
2
2
2
2
2
2
2
2
2
2
2
2
2
2
2
2
2
2
2
2
2
2
2
2
2
2
2
2
2
2
2
2
2
2
2
2
2
2
2
2
2
2
2
2
2
2
2
2
2
2
2
2
2
2
2
2
2
2
2
2
2
2
2
2
2
2
2
2
2
2
2
2
2
2
2
2
2
2
2
2
2
2
2
2
2
2
2
2
2
2
2
2
2
2
2
2
2
2
2
2
2
2
2
2
2
2
2
2
2
2
2
2
2
2
2
2
2
2
2
2
2
2
2
2
2
2
2
2
2
2
2
2
2
2
2
2
2
2
2
2
2
2
2
2
2
2
2
2
2
2
2
2
2
2
2
2
2
2
2
2
2
2
2
2
2
2
2
2
2
2
2
2
2
2
2
2
2
2
2
2
2
2
2
2
2
2
2
2
2
2
2
2
2
2
2
2
2
2
2
2
2
2
2
2
2
2
2
2
2
2
2
2
2
2
2
2
2
2
2
2
2
2
2
2
2
2
2
2
2
2
2
2
2
2
2
2
2
2
2
2
2
2
2
2
2
2
2
2
2
2
2
2
2
2
2
2
2
2
2
2
2
2
2
2
2
2
2
2
2
2
2
2
2
2
2
2
2
2
2
2
2
2
2
2
2
2
2
2
2
2
2
2
2
2
2
2
2
2
2
2
2
2
2
2
2
2
2
2
2
2
2
2
2
2
2
2
2
2
2
2
2
2
2
2
2
2
2
2
2
2
2
2
2
2
2
2
2
2
2
2
2
2
2
2
2
2
2
2
2
2
2
2
2
2
2
2
2
2
2
2
2
2
2
2
2
2
2
2
2
2
2
2
2
2
2
2
2
2
2
2
2
2
2
2
2
2
2
2
2
2
2
2
2
2
2
2
2
2
2
2
2
2
2
2
2
2
2
2
2
2
2
2
2
2
2
2
2
2
2
2
2
2
2
2
2
2
2
2
2
2
2
2
2
2
2
2
2
2
2
2
2
2
2
2
2
2
2
2
2
2
2
2
2
2
2
2
2
2
2
2
2
2
2
2
2
2
2
2
2
2
2
2
2
2
2
2
2
2
2
2
2
2
2
2
2
2
2
2
2
2
2
2
2
2
2
2
2
2
2
2
2
2
2
2
2
2
2
2
2
2
2
2
2
2
2
2
2
2
2
2
2
2
2
2
2
2
2
2
2
2
2
2
2
2
2
2
2
2
2
2
2
2
2
2
2
2
2
2
2
2
2
2
2
2
2
2
2
2
2
2
2
2
2
2
2
2
2
2
2
2
2
2
2
2
2
2
2
2
2
2
2
2
2
2
2
2
2
2
2
2
2
2
2
2
2
2
2
2
2
2
2
2
2
2
2
2
2
2
2
2
2
2
2
2
2
2
2
2
2
2
2
2
2
2
2
2
2
2
2
2
2
2
2
2
2
2
2
2
2
2
2
2
2
2
2
2
2
2
2
2
2
2
2
2
2
2
2
2
2
2
2
2
2
2
2
2
2
2
2
2
2
2
2
2
2
2
2
2
2
2
2
2
2
2
2
2
2
2
2
2
2
2
2
2
2
2
2
2
2
2
2
2
2
2
2
2
2
2
2
2
2
2
2
2
2
2
2
2
2
2
2
2
2
2
2
2
2
2
2
2
2
2
2
2
2
2
2
2
2
2
2
2
2
2
2
2
2
2
2
2
2
2
2
2
2
2
2
2
2
2
2
2
2
2
2
2
2
2
2
2
2
2
2
2
2
2
2
2
2
2
2
2
2
2
2
2
2
2
2
2
2
2
2
2
2
2
2
2
2
2
2
2
2
2
2
2
2
2
2
2
2
2
2
2
2
2
2
2
2
2
2
2
2
2
2
2
2
2
2
2
2
2
2
2
2
2
2
2
2
2
2
2
2
2
2
2
2
2
2
2
2
2
2
2
2
2
2
2
2
2
2
2
2
2
2
2
2
2
2
2
2
2
2
2
2
2
2
2
2
2
2
2
2
2
2
2
2
2
2
2
2
2
2
2
2
2
2
2
2
2
2
2
2
2
2
2
2
2
2
2
2
2
2
2
2
2
2
2
2
2
2
2
2
2
2
2
2
2
2
2
2
2
2
2
2
2
2
2
2
2
2
2
2
2
2
2
2
2
2
2
2
2
2
2
2
2
2
2
2
2
2
2
2
2
2
2
2
2
2
2
2
2
2
2
2
2
2
2
2
2
2
2
2
2
2
2
2
2
2
2
2
2
2
2
2
2
2
2
2
2
2
2
2
2
2
2
2
2
2
2
2
2
2
2
2
2
2
2
2
2
2
2
2
2
2
2
2
2
2
2
2
2
2
2
2
2
2
2
2
2
2
2
2
2
2
2
2
2
2
2
2
2
2
2
2
2
2
2
2
2
2
2
2
2
2
2
2
2
2
2
2
2
2
2
2
2
2
2
2
2
2
2
2
2
2
2
2
2
2
2
2
2
2
2
2
2
2
2
2
2
2
2
2
2
2
2
2
2
2
2
2
2
2
2
2
2
2
2
2
2
2
2
2
2
2
2
2
2
2
2
2
2
2
2
2
2
2
2
2
2
2
2
2
2
2
2
2
2
2
2
2
2
2
2
2
2
2
2
2
2
2
2
2
2
2
2
2
2
2
2
2
2
2
2
2
2
2
2
2
2
2
2
2
2
2
2
2
2
2
2
2
2
2
2
2
2
2
2
2
2
2
2
2
2
2
2
2
2
2
2
2
2
2
2
2
2
2
2
2
2
2
2
2
2
2
2
2
2
2
2
2
2
2
2
2
2
2
2
2
2
2
2
2
2
2
2
2
2
2
2
2
2
2
2
2
2
2
2
2
2
2
2
2
2
2
2
2
2
2
2
2
2
2
2
2
2
2
2
2
2
2
2
2
2
2
2
2
2
2
2
2
2
2
2
2
2
2
2
2
2
2
2
2
2
2
2
2
2
2
2
2
2
2
2
2
2
2
2
2
2
2
2
2
2
2
2
2
2
2
2
2
2
2
2
2
2
2
2
2
2
2
2
2
2
2
2
2
2
2
2
2
2
2
2
2
2
2
2
2
2
2
2
2
2
2
2
2
2
2
2
2
2
2
2
2
2
2
2
2
2
2
2
2
2
2
2
2
2
2
2
2
2
2
2
2
2
2
2
2
2
2
2
2
2
2
2
2
2
2
2
2
2
2
2
2
2
2
2
2
2
2
2
2
2
2
2
2
2
2
2
2
2
2
2
2
2
2
2
2
2
2
2
2
2
2
2
2
2
2
2
2
2
2
2
2
2
2
2
2
2
2
2
2
2
2
2
2
2
2
2
2
2
2
2
2
2
2
2
2
2
2
2
2
2
2
2
2
2
2
2
2
2
2
2
2
2
2
2
2
2
2
2
2
2
2
2
2
2
2
2
2
2
2
2
2
2
2
2
2
2
2
2
2
2
2
2
2
2
2
2
2
2
2
2
2
2
2
2
2
2
2
2
2
2
2
2
2
2
2
2
2
2
2
2
2
2
2
2
2
2
2
2
2
2
2
2
2
2
2
2
2
2
2
2
2
2
2
2
2
2
2
2
2
2
2
2
2
2
2
2
2
2
2
2
2
2
2
2
2
2
2
2
2
2
2
2
2
2
2
2
2
2
2
2
2
2
2
2
2
2
2
2
2
2
2
2
2
2
2
2
2
2
2
2
2
2
2
2
2
2
2
2
2
2
2
2
2
2
2
2
2
2
2
2
2
2
2
2
2
2
2
2
2
2
2
2
2
2
2
2
2
2
2
2
2
2
2
2
2
2
2
2
2
2
2
2
2
2
2
2
2
2
2
2
2
2
2
2
2
2
2
2
2
2
2
2
2
2
2
2
2
2
2
2
2
2
2
2
2
2
2
2
2
2
2
2
2
2
2
2
2
2
2
2
2
2
2
2
2
2
2
2
2
2
2
2
2
2
2
2
2
2
2
2
2
2
2
2
2
2
2
2
2
2
2
2
2
2
2
2
2
2
2
2
2
2
2
2
2
2
2
2
2
2
2
2
2
2
2
2
2
2
2
2
2
2
2
2
2
2
2
2
2
2
2
2
2
2
2
2
2
2
2
2
2
2
2
2
2
2
2
2
2
2
2
2
2
2
2
2
2
2
2
2
2
2
2
2
2
2
2
2
2
2
2
2
2
2
2
2
2
2
2
2
2
2
2
2
2
2
2
2
2
2
2
2
2
2
2
2
2
2
2
2
2
2
2
2
2
2
2
2
2
2
2
2
2
2
2
2
2
2
2
2
2
2
2
2
2
2
2
2
2
2
2
2
2
2
2
2
2
2
2
2
2
2
2
2
2
2
2
2
2
2
2
2
2
2
2
2
2
2
2
2
2
2
2
2
2
2
2
2
2
2
2
2
2
2
2
2
2
2
2
2
2
2
2
2
2
2
2
2
2
2
2
2
2
2
2
2
2
2
2
2
2
2
2
2
2
2
2
2
2
2
2
2
2
2
2
2
2
2
2
2
2
2
2
2
2
2
2
2
2
2
2
2
2
2
2
2
2
2
2
2
2
2
2
2
2
2
2
2
2
2
2
2
2
2
2
2
2
2
2
2
2
2
2
2
2
2
2
2
2
2
2
2
2
2
2
2
2
2
2
2
2
2
2
2
2
2
2
2
2
2
2
2
2
2
2
2
2
2
2
2
2
2
2
2
2
2
2
2
2
2
2
2
2
2
2
2
2
2
2
2
2
2
2
2
2
2
2
2
2
2
2
2
2
2
2
2
2
2
2
2
2
2
2
2
2
2
2
2
2
2
2
2
2
2
2
2
2
2
2
2
2
2
2
2
2
2
2
2
2
2
2
2
2
2
2
2
2
2
2
2
2
2
2
2
2
2
2
2
2
2
2
2
2
2
2
2
2
2
2
2
2
2
2
2
2
2
2
2
2
2
2
2
2
2
2
2
2
2
2
2
2
2
2
2
2
2
2
2
2
2
2
2
2
2
2
2
2
2
2
2
2
2
2
2
2
2
2
2
2
2
2
2
2
2
2
2
2
2
2
2
2
2
2
2
2
2
2
2
2
2
2
2
2
2
2
2
2
2
2
2
2
2
2
2
2
2
2
2
2
2
2
2
2
2
2
2
2
2
2
2
2
2
2
2
2
2
2
2
2
2
2
2
2
2
2
2
2
2
2
2
2
2
2
2
2
2
2
2
2
2
2
2
2
2
2
2
2
2
2
2
2
2
2
2
2
2
2
2
2
2
2
2
2
2
2
2
2
2
2
2
2
2
2
2
2
2
2
2
2
2
2
2
2
2
2
2
2
2
2
2
2
2
2
2
2
2
2
2
2
2
2
2
2
2
2
2
2
2
2
2
2
2
2
2
2
2
2
2
2
2
2
2
2
2
2
2
2
2
2
2
2
2
2
2
2
2
2
2
2
2
2
2
2
2
2
2
2
2
2
2
2
2
2
2
2
2
2
2
2
2
2
2
2
2
2
2
2
2
2
2
2
2
2
2
2
2
2
2
2
2
2
2
2
2
2
2
2
2
2
2
2
2
2
2
2
2
2
2
2
2
2
2
2
2
2
2
2
2
2
2
2
2
2
2
2
2
2
2
2
2
2
2
2
2
2
2
2
2
2
2
2
2
2
2
2
2
2
2
2
2
2
2
2
2
2
2
2
2
2
2
2
2
2
2
2
2
2
2
2
2
2
2
2
2
2
2
2
2
2
2
2
2
2
2
2
2
2
2
2
2
2
2
2
2
2
2
2
2
2
2
2
2
2
2
2
2
2
2
2
2
2
2
2
2
2
2
2
2
2
2
2
2
2
2
2
2
2
2
2
2
2
2
2
2
2
2
2
2
2
2
2
2
2
2
2
2
2
2
2
2
2
2
2
2
2
2
2
2
2
2
2
2
2
2
2
2
2
2
2
2
2
2
2
2
2
2
2
2
2
2
2
2
2
2
2
2
2
2
2
2
2
2
2
2
2
2
2
2
2
2
2
2
2
2
2
2
2
2
2
2
2
2
2
2
2
2
2
2
2
2
2
2
2
2
2
2
2
2
2
2
2
2
2
2
2
2
2
2
2
2
2
2
2
2
2
2
2
2
2
2
2
2
2
2
2
2
2
2
2
2
2
2
2
2
2
2
2
2
2
2
2
2
2
2
2
2
2
2
2
2
2
2
2
2
2
2
2
2
2
2
2
2
2
2
2
2
2
2
2
2
2
2
2
2
2
2
2
2
2
2
2
2
2
2
2
2
2
2
2
2
2
2
2
2
2
2
2
2
2
2
2
2
2
2
2
2
2
2
2
2
2
2
2
2
2
2
2
2
2
2
2
2
2
2
2
2
2
2
2
2
2
2
2
2
2
2
2
2
2
2
2
2
2
2
2
2
2
2
2
2
2
2
2
2
2
2
2
2
2
2
2
2
2
2
2
2
2
2
2
2
2
2
2
2
2
2
2
2
2
2
2
2
2
2
2
2
2
2
2
2
2
2
2
2
2
2
2
2
2
2
2
2
2
2
2
2
2
2
2
2
2
2
2
2
2
2
2
2
2
2
2
2
2
2
2
2
2
2
2
2
2
2
2
2
2
2
2
2
2
2
2
2
2
2
2
2
2
2
2
2
2
2
2
2
2
2
2
2
2
2
2
2
2
2
2
2
2
2
2
2
2
2
2
2
2
2
2
2
2
2
2
2
2
2
2
2
2
2
2
2
2
2
2
2
2
2
2
2
2
2
2
2
2
2
2
2
2
2
2
2
2
2
2
2
2
2
2
2
2
2
2
2
2
2
2
2
2
2
2
2
2
2
2
2
2
2
2
2
2
2
2
2
2
2
2
2
2
2
2
2
2
2
2
2
2
2
2
2
2
2
2
2
2
2
2
2
2
2
2
2
2
2
2
2
2
2
2
2
2
2
2
2
2
2
2
2
2
2
2
2
2
2
2
2
2
2
2
2
2
2
2
2
2
2
2
2
2
2
2
2
2
2
2
2
2
2
2
2
2
2
2
2
2
2
2
2
2
2
2
2
2
2
2
2
2
2
2
2
2
2
2
2
2
2
2
2
2
2
2
2
2
2
2
2
2
2
2
2
2
2
2
2
2
2
2
2
2
2
2
2
2
2
2
2
2
2
2
2
2
2
2
2
2
2
2
2
2
2
2
2
2
2
2
2
2
2
2
2
2
2
2
2
2
2
2
2
2
2
2
2
2
2
2
2
2
2
2
2
2
2
2
2
2
2
2
2
2
2
2
2
2
2
2
2
2
2
2
2
2
2
2
2
2
2
2
2
2
2
2
2
2
2
2
2
2
2
2
2
2
2
2
2
2
2
2
2
2
2
2
2
2
2
2
2
2
2
2
2
2
2
2
2
2
2
2
2
2
2
2
2
2
2
2
2
2
2
2
2
2
2
2
2
2
2
2
2
2
2
2
2
2
2
2
2
2
2
2
2
2
2
2
2
2
2
2
2
2
2
2
2
2
2
2
2
2
2
2
2
2
2
2
2
2
2
2
2
2
2
2
2
2
2
2
2
2
2
2
2
2
2
2
2
2
2
2
2
2
2
2
2
2
2
2
2
2
2
2
2
2
2
2
2
2
2
2
2
2
2
2
2
2
2
2
2
2
2
2
2
2
2
2
2
2
2
2
2
2
2
2
2
2
2
2
2
2
2
2
2
2
2
2
2
2
2
2
2
2
2
2
2
2
2
2
2
2
2
2
2
2
2
2
2
2
2
2
2
2
2
2
2
2
2
2
2
2
2
2
2
2
2
2
2
2
2
2
2
2
2
2
2
2
2
2
2
2
2
2
2
2
2
2
2
2
2
2
2
2
2
2
2
2
2
2
2
2
2
2
2
2
2
2
2
2
2
2
2
2
2
2
2
2
2
2
2
2
2
2
2
2
2
2
2
2
2
2
2
2
2
2
2
2
2
2
2
2
2
2
2
2
2
2
2
2
2
2
2
2
2
2
2
2
2
2
2
2
2
2
2
2
2
2
2
2
2
2
2
2
2
2
2
2
2
2
2
2
2
2
2
2
2
2
2
2
2
2
2
2
2
2
2
2
2
2
2
2
2
2
2
2
2
2
2
2
2
2
2
2
2
2
2
2
2
2
2
2
2
2
2
2
2
2
2
2
2
2
2
2
2
2
2
2
2
2
2
2
2
2
2
2
2
2
2
2
2
2
2
2
2
2
2
2
2
2
2
2
2
2
2
2
2
2
2
2
2
2
2
2
2
2
2
2
2
2
2
2
2
2
2
2
2
2
2
2
2
2
2
2
2
2
2
2
2
2
2
2
2
2
2
2
2
2
2
2
2
2
2
2
2
2
2
2
2
2
2
2
2
2
2
2
2
2
2
2
2
2
2
2
2
2
2
2
2
2
2
2
2
2
2
2
2
2
2
2
2
2
2
2
2
2
2
2
2
2
2
2
2
2
2
2
2
2
2
2
2
2
2
2
2
2
2
2
2
2
2
2
2
2
2
2
2
2
2
2
2
2
2
2
2
2
2
2
2
2
2
2
2
2
2
2
2
2
2
2
2
2
2
2
2
2
2
2
2
2
2
2
2
2
2
2
2
2
2
2
2
2
2
2
2
2
2
2
2
2
2
2
2
2
2
2
2
2
2
2
2
2
2
2
2
2
2
2
2
2
2
2
2
2
2
2
2
2
2
2
2
2
2
2
2
2
2
2
2
2
2
2
2
2
2
2
2
2
2
2
2
2
2
2
2
2
2
2
2
2
2
2
2
2
2
2
2
2
2
2
2
2
2
2
2
2
2
2
2
2
2
2
2
2
2
2
2
2
2
2
2
2
2
2
2
2
2
2
2
2
2
2
2
2
2
2
2
2
2
2
2
2
2
2
2
2
2
2
2
2
2
2
2
2
2
2
2
2
2
2
2
2
2
2
2
2
2
2
2
2
2
2
2
2
2
2
2
2
2
2
2
2
2
2
2
2
2
2
2
2
2
2
2
2
2
2
2
2
2
2
2
2
2
2
2
2
2
2
2
2
2
2
2
2
2
2
2
2
2
2
2
2
2
2
2
2
2
2
2
2
2
2
2
2
2
2
2
2
2
2
2
2
2
2
2
2
2
2
2
2
2
2
2
2
2
2
2
2
2
2
2
2
2
2
2
2
2
2
2
2
2
2
2
2
2
2
2
2
2
2
2
2
2
2
2
2
2
2
2
2
2
2
2
2
2
2
2
2
2
2
2
2
2
2
2
2
2
2
2
2
2
2
2
2
2
2
2
2
2
2
2
2
2
2
2
2
2
2
2
2
2
2
2
2
2
2
2
2
2
2
2
2
2
2
2
2
2
2
2
2
2
2
2
2
2
2
2
2
2
2
2
2
2
2
2
2
2
2
2
2
2
2
2
2
2
2
2
2
2
2
2
2
2
2
2
2
2
2
2
2
2
2
2
2
2
2
2
2
2
2
2
2
2
2
2
2
2
2
2
2
2
2
2
2
2
2
2
2
2
2
2
2
2
2
2
2
2
2
2
2
2
2
2
2
2
2
2
2
2
2
2
2
2
2
2
2
2
2
2
2
2
2
2
2
2
2
2
2
2
2
2
2
2
2
2
2
2
2
2
2
2
2
2
2
2
2
2
2
2
2
2
2
2
2
2
2
2
2
2
2
2
2
2
2
2
2
2
2
2
2
2
2
2
2
2
2
2
2
2
2
2
2
2
2
2
2
2
2
2
2
2
2
2
2
2
2
2
2
2
2
2
2
2
2
2
2
2
2
2
2
2
2
2
2
2
2
2
2
2
2
2
2
2
2
2
2
2
2
2
2
2
2
2
2
2
2
2
2
2
2
2
2
2
2
2
2
2
2
2
2
2
2
2
2
2
2
2
2
2
2
2
2
2
2
2
2
2
2
2
2
2
2
2
2
2
2
2
2
2
2
2
2
2
2
2
2
2
2
2
2
2
2
2
2
2
2
2
2
2
2
2
2
2
2
2
2
2
2
2
2
2
2
2
2
2
2
2
2
2
2
2
2
2
2
2
2
2
2
2
2
2
2
2
2
2
2
2
2
2
2
2
2
2
2
2
2
2
2
2
2
2
2
2
2
2
2
2
2
2
2
2
2
2
2
2
2
2
2
2
2
2
2
2
2
2
2
2
2
2
2
2
2
2
2
2
2
2
2
2
2
2
2
2
2
2
2
2
2
2
2
2
2
2
2
2
2
2
2
2
2
2
2
2
2
2
2
2
2
2
2
2
2
2
2
2
2
2
2
2
2
2
2
2
2
2
2
2
2
2
2
2
2
2
2
2
2
2
2
2
2
2
2
2
2
2
2
2
2
2
2
2
2
2
2
2
2
2
2
2
2
2
2
2
2
2
2
2
2
2
2
2
2
2
2
2
2
2
2
2
2
2
2
2
2
2
2
2
2
2
2
2
2
2
2
2
2
2
2
2
2
2
2
2
2
2
2
2
2
2
2
2
2
2
2
2
2
2
2
2
2
2
2
2
2
2
2
2
2
2
2
2
2
2
2
2
2
2
2
2
2
2
2
2
2
2
2
2
2
2
2
2
2
2
2
2
2
2
2
2
2
2
2
2
2
2
2
2
2
2
2
2
2
2
2
2
2
2
2
2
2
2
2
2
2
2
2
2
2
2
2
2
2
2
2
2
2
2
2
2
2
2
2
2
2
2
2
2
2
2
2
2
2
2
2
2
2
2
2
2
2
2
2
2
2
2
2
2
2
2
2
2
2
2
2
2
2
2
2
2
2
2
2
2
2
2
2
2
2
2
2
2
2
2
2
2
2
2
2
2
2
2
2
2
2
2
2
2
2
2
2
2
2
2
2
2
2
2
2
2
2
2
2
2
2
2
2
2
2
2
2
2
2
2
2
2
2
2
2
2
2
2
2
2
2
2
2
2
2
2
2
2
2
2
2
2
2
2
2
2
2
2
2
2
2
2
2
2
2
2
2
2
2
2
2
2
2
2
2
2
2
2
2
2
2
2
2
2
2
2
2
2
2
2
2
2
2
2
2
2
2
2
2
2
2
2
2
2
2
2
2
2
2
2
2
2
2
2
2
2
2
2
2
2
2
2
2
2
2
2
2
2
2
2
2
2
2
2
2
2
2
2
2
2
2
2
2
2
2
2
2
2
2
2
2
2
2
2
2
2
2
2
2
2
2
2
2
2
2
2
2
2
2
2
2
2
2
2
2
2
2
2
2
2
2
2
2
2
2
2
2
2
2
2
2
2
2
2
2
2
2
2
2
2
2
2
2
2
2
2
2
2
2
2
2
2
2
2
2
2
2
2
2
2
2
2
2
2
2
2
2
2
2
2
2
2
2
2
2
2
2
2
2
2
2
2
2
2
2
2
2
2
2
2
2
2
2
2
2
2
2
2
2
2
2
2
2
2
2
2
2
2
2
2
2
2
2
2
2
2
2
2
2
2
2
2
2
2
2
2
2
2
2
2
2
2
2
2
2
2
2
2
2
2
2
2
2
2
2
2
2
2
2
2
2
2
2
2
2
2
2
2
2
2
2
2
2
2
2
2
2
2
2
2
2
2
2
2
2
2
2
2
2
2
2
2
2
2
2
2
2
2
2
2
2
2
2
2
2
2
2
2
2
2
2
2
2
2
2
2
2
2
2
2
2
2
2
2
2
2
2
2
2
2
2
2
2
2
2
2
2
2
2
2
2
2
2
2
2
2
2
2
2
2
2
2
2
2
2
2
2
2
2
2
2
2
2
2
2
2
2
2
2
2
2
2
2
2
2
2
2
2
2
2
2
2
2
2
2
2
2
2
2
2
2
2
2
2
2
2
2
2
2
2
2
2
2
2
2
2
2
2
2
2
2
2
2
2
2
2
2
2
2
2
2
2
2
2
2
2
2
2
2
2
2
2
2
2
2
2
2
2
2
2
2
2
2
2
2
2
2
2
2
2
2
2
2
2
2
2
2
2
2
2
2
2
2
2
2
2
2
2
2
2
2
2
2
2
2
2
2
2
2
2
2
2
2
2
2
2
2
2
2
2
2
2
2
2
2
2
2
2
2
2
2
2
2
2
2
2
2
2
2
2
2
2
2
2
2
2
2
2
2
2
2
2
2
2
2
2
2
2
2
2
2
2
2
2
2
2
2
2
2
2
2
2
2
2
2
2
2
2
2
2
2
2
2
2
2
2
2
2
2
2
2
2
2
2
2
2
2
2
2
2
2
2
2
2
2
2
2
2
2
2
2
2
2
2
2
2
2
2
2
2
2
2
2
2
2
2
2
2
2
2
2
2
2
2
2
2
2
2
2
2
2
2
2
2
2
2
2
2
2
2
2
2
2
2
2
2
2
2
2
2
2
2
2
2
2
2
2
2
2
2
2
2
2
2
2
2
2
2
2
2
2
2
2
2
2
2
2
2
2
2
2
2
2
2
2
2
2
2
2
2
2
2
2
2
2
2
2
2
2
2
2
2
2
2
2
2
2
2
2
2
2
2
2
2
2
2
2
2
2
2
2
2
2
2
2
2
2
2
2
2
2
2
2
2
2
2
2
2
2
2
2
2
2
2
2
2
2
2
2
2
2
2
2
2
2
2
2
2
2
2
2
2
2
2
2
2
2
2
2
2
2
2
2
2
2
2
2
2
2
2
2
2
2
2
2
2
2
2
2
2
2
2
2
2
2
2
2
2
2
2
2
2
2
2
2
2
2
2
2
2
2
2
2
2
2
2
2
2
2
2
2
2
2
2
2
2
2
2
2
2
2
2
2
2
2
2
2
2
2
2
2
2
2
2
2
2
2
2
2
2
2
2
2
2
2
2
2
2
2
2
2
2
2
2
2
2
2
2
2
2
2
2
2
2
2
2
2
2
2
2
2
2
2
2
2
2
2
2
2
2
2
2
2
2
2
2
2
2
2
2
2
2
2
2
2
2
2
2
2
2
2
2
2
2
2
2
2
2
2
2
2
2
2
2
2
2
2
2
2
2
2
2
2
2
2
2
2
2
2
2
2
2
2
2
2
2
2
2
2
2
2
2
2
2
2
2
2
2
2
2
2
2
2
2
2
2
2
2
2
2
2
2
2
2
2
2
2
2
2
2
2
2
2
2
2
2
2
2
2
2
2
2
2
2
2
2
2
2
2
2
2
2
2
2
2
2
2
2
2
2
2
2
2
2
2
2
2
2
2
2
2
2
2
2
2
2
2
2
2
2
2
2
2
2
2
2
2
2
2
2
2
2
2
2
2
2
2
2
2
2
2
2
2
2
2
2
2
2
2
2
2
2
2
2
2
2
2
2
2
2
2
2
2
2
2
2
2
2
2
2
2
2
2
2
2
2
2
2
2
2
2
2
2
2
2
2
2
2
2
2
2
2
2
2
2
2
2
2
2
2
2
2
2
2
2
2
2
2
2
2
2
2
2
2
2
2
2
2
2
2
2
2
2
2
2
2
2
2
2
2
2
2
2
2
2
2
2
2
2
2
2
2
2
2
2
2
2
2
2
2
2
2
2
2
2
2
2
2
2
2
2
2
2
2
2
2
2
2
2
2
2
2
2
2
2
2
2
2
2
2
2
2
2
2
2
2
2
2
2
2
2
2
2
2
2
2
2
2
2
2
2
2
2
2
2
2
2
2
2
2
2
2
2
2
2
2
2
2
2
2
2
2
2
2
2
2
2
2
2
2
2
2
2
2
2
2
2
2
2
2
2
2
2
2
2
2
2
2
2
2
2
2
2
2
2
2
2
2
2
2
2
2
2
2
2
2
2
2
2
2
2
2
2
2
2
2
2
2
2
2
2
2
2
2
2
2
2
2
2
2
2
2
2
2
2
2
2
2
2
2
2
2
2
2
2
2
2
2
2
2
2
2
2
2
2
2
2
2
2
2
2
2
2
2
2
2
2
2
2
2
2
2
2
2
2
2
2
2
2
2
2
2
2
2
2
2
2
2
2
2
2
2
2
2
2
2
2
2
2
2
2
2
2
2
2
2
2
2
2
2
2
2
2
2
2
2
2
2
2
2
2
2
2
2
2
2
2
2
2
2
2
2
2
2
2
2
2
2
2
2
2
2
2
2
2
2
2
2
2
2
2
2
2
2
2
2
2
2
2
2
2
2
2
2
2
2
2
2
2
2
2
2
2
2
2
2
2
2
2
2
2
2
2
2
2
2
2
2
2
2
2
2
2
2
2
2
2
2
2
2
2
2
2
2
2
2
2
2
2
2
2
2
2
2
2
2
2
2
2
2
2
2
2
2
2
2
2
2
2
2
2
2
2
2
2
2
2
2
2
2
2
2
2
2
2
2
2
2
2
2
2
2
2
2
2
2
2
2
2
2
2
2
2
2
2
2
2
2
2
2
2
2
2
2
2
2
2
2
2
2
2
2
2
2
2
2
2
2
2
2
2
2
2
2
2
2
2
2
2
2
2
2
2
2
2
2
2
2
2
2
2
2
2
2
2
2
2
2
2
2
2
2
2
2
2
2
2
2
2
2
2
2
2
2
2
2
2
2
2
2
2
2
2
2
2
2
2
2
2
2
2
2
2
2
2
2
2
2
2
2
2
2
2
2
2
2
2
2
2
2
2
2
2
2
2
2
2
2
2
2
2
2
2
2
2
2
2
2
2
2
2
2
2
2
2
2
2
2
2
2
2
2
2
2
2
2
2
2
2
2
2
2
2
2
2
2
2
2
2
2
2
2
2
2
2
2
2
2
2
2
2
2
2
2
2
2
2
2
2
2
2
2
2
2
2
2
2
2
2
2
2
2
2
2
2
2
2
2
2
2
2
2
2
2
2
2
2
2
2
2
2
2
2
2
2
2
2
2
2
2
2
2
2
2
2
2
2
2
2
2
2
2
2
2
2
2
2
2
2
2
2
2
2
2
2
2
2
2
2
2
2
2
2
2
2
2
2
2
2
2
2
2
2
2
2
2
2
2
2
2
2
2
2
2
2
2
2
2
2
2
2
2
2
2
2
2
2
2
2
2
2
2
2
2
2
2
2
2
2
2
2
2
2
2
2
2
2
2
2
2
2
2
2
2
2
2
2
2
2
2
2
2
2
2
2
2
2
2
2
2
2
2
2
2
2
2
2
2
2
2
2
2
2
2
2
2
2
2
2
2
2
2
2
2
2
2
2
2
2
2
2
2
2
2
2
2
2
2
2
2
2
2
2
2
2
2
2
2
2
2
2
2
2
2
2
2
2
2
2
2
2
2
2
2
2
2
2
2
2
2
2
2
2
2
2
2
2
2
2
2
2
2
2
2
2
2
2
2
2
2
2
2
2
2
2
2
2
2
2
2
2
2
2
2
2
2
2
2
2
2
2
2
2
2
2
2
2
2
2
2
2
2
2
2
2
2
2
2
2
2
2
2
2
2
2
2
2
2
2
2
2
2
2
2
2
2
2
2
2
2
2
2
2
2
2
2
2
2
2
2
2
2
2
2
2
2
2
2
2
2
2
2
2
2
2
2
2
2
2
2
2
2
2
2
2
2
2
2
2
2
2
2
2
2
2
2
2
2
2
2
2
2
2
2
2
2
2
2
2
2
2
2
2
2
2
2
2
2
2
2
2
2
2
2
2
2
2
2
2
2
2
2
2
2
2
2
2
2
2
2
2
2
2
2
2
2
2
2
2
2
2
2
2
2
2
2
2
2
2
2
2
2
2
2
2
2
2
2
2
2
2
2
2
2
2
2
2
2
2
2
2
2
2
2
2
2
2
2
2
2
2
2
2
2
2
2
2
2
2
2
2
2
2
2
2
2
2
2
2
2
2
2
2
2
2
2
2
2
2
2
2
2
2
2
2
2
2
2
2
2
2
2
2
2
2
2
2
2
2
2
2
2
2
2
2
2
2
2
2
2
2
2
2
2
2
2
2
2
2
2
2
2
2
2
2
2
2
2
2
2
2
2
2
2
2
2
2
2
2
2
2
2
2
2
2
2
2
2
2
2
2
2
2
2
2
2
2
2
2
2
2
2
2
2
2
2
2
2
2
2
2
2
2
2
2
2
2
2
2
2
2
2
2
2
2
2
2
2
2
2
2
2
2
2
2
2
2
2
2
2
2
2
2
2
2
2
2
2
2
2
2
2
2
2
2
2
2
2
2
2
2
2
2
2
2
2
2
2
2
2
2
2
2
2
2
2
2
2
2
2
2
2
2
2
2
2
2
2
2
2
2
2
2
2
2
2
2
2
2
2
2
2
2
2
2
2
2
2
2
2
2
2
2
2
2
2
2
2
2
2
2
2
2
2
2
2
2
2
2
2
2
2
2
2
2
2
2
2
2
2
2
2
2
2
2
2
2
2
2
2
2
2
2
2
2
2
2
2
2
2
2
2
2
2
2
2
2
2
2
2
2
2
2
2
2
2
2
2
2
2
2
2
2
2
2
2
2
2
2
2
2
2
2
2
2
2
2
2
2
2
2
2
2
2
2
2
2
2
2
2
2
2
2
2
2
2
2
2
2
2
2
2
2
2
2
2
2
2
2
2
2
2
2
2
2
2
2
2
2
2
2
2
2
2
2
2
2
2
2
2
2
2
2
2
2
2
2
2
2
2
2
2
2
2
2
2
2
2
2
2
2
2
2
2
2
2
2
2
2
2
2
2
2
2
2
2
2
2
2
2
2
2
2
2
2
2
2
2
2
2
2
2
2
2
2
2
2
2
2
2
2
2
2
2
2
2
2
2
2
2
2
2
2
2
2
2
2
2
2
2
2
2
2
2
2
2
2
2
2
2
2
2
2
2
2
2
2
2
2
2
2
2
2
2
2
2
2
2
2
2
2
2
2
2
2
2
2
2
2
2
2
2
2
2
2
2
2
2
2
2
2
2
2
2
2
2
2
2
2
2
2
2
2
2
2
2
2
2
2
2
2
2
2
2
2
2
2
2
2
2
2
2
2
2
2
2
2
2
2
2
2
2
2
2
2
2
2
2
2
2
2
2
2
2
2
2
2
2
2
2
2
2
2
2
2
2
2
2
2
2
2
2
2
2
2
2
2
2
2
2
2
2
2
2
2
2
2
2
2
2
2
2
2
2
2
2
2
2
2
2
2
2
2
2
2
2
2
2
2
2
2
2
2
2
2
2
2
2
2
2
2
2
2
2
2
2
2
2
2
2
2
2
2
2
2
2
2
2
2
2
2
2
2
2
2
2
2
2
2
2
2
2
2
2
2
2
2
2
2
2
2
2
2
2
2
2
2
2
2
2
2
2
2
2
2
2
2
2
2
2
2
2
2
2
2
2
2
2
2
2
2
2
2
2
2
2
2
2
2
2
2
2
2
2
2
2
2
2
2
2
2
2
2
2
2
2
2
2
2
2
2
2
2
2
2
2
2
2
2
2
2
2
2
2
2
2
2
2
2
2
2
2
2
2
2
2
2
2
2
2
2
2
2
2
2
2
2
2
2
2
2
2
2
2
2
2
2
2
2
2
2
2
2
2
2
2
2
2
2
2
2
2
2
2
2
2
2
2
2
2
2
2
2
2
2
2
2
2
2
2
2
2
2
2
2
2
2
2
2
2
2
2
2
2
2
2
2
2
2
2
2
2
2
2
2
2
2
2
2
2
2
2
2
2
2
2
2
2
2
2
2
2
2
2
2
2
2
2
2
2
2
2
2
2
2
2
2
2
2
2
2
2
2
2
2
2
2
2
2
2
2
2
2
2
2
2
2
2
2
2
2
2
2
2
2
2
2
2
2
2
2
2
2
2
2
2
2
2
2
2
2
2
2
2
2
2
2
2
2
2
2
2
2
2
2
2
2
2
2
2
2
2
2
2
2
2
2
2
2
2
2
2
2
2
2
2
2
2
2
2
2
2
2
2
2
2
2
2
2
2
2
2
2
2
2
2
2
2
2
2
2
2
2
2
2
2
2
2
2
2
2
2
2
2
2
2
2
2
2
2
2
2
2
2
2
2
2
2
2
2
2
2
2
2
2
2
2
2
2
2
2
2
2
2
2
2
2
2
2
2
2
2
2
2
2
2
2
2
2
2
2
2
2
2
2
2
2
2
2
2
2
2
2
2
2
2
2
2
2
2
2
2
2
2
2
2
2
2
2
2
2
2
2
2
2
2
2
2
2
2
2
2
2
2
2
2
2
2
2
2
2
2
2
2
2
2
2
2
2
2
2
2
2
2
2
2
2
2
2
2
2
2
2
2
2
2
2
2
2
2
2
2
2
2
2
2
2
2
2
2
2
2
2
2
2
2
2
2
2
2
2
2
2
2
2
2
2
2
2
2
2
2
2
2
2
2
2
2
2
2
2
2
2
2
2
2
2
2
2
2
2
2
2
2
2
2
2
2
2
2
2
2
2
2
2
2
2
2
2
2
2
2
2
2
2
2
2
2
2
2
2
2
2
2
2
2
2
2
2
2
2
2
2
2
2
2
2
2
2
2
2
2
2
2
2
2
2
2
2
2
2
2
2
2
2
2
2
2
2
2
2
2
2
2
2
2
2
2
2
2
2
2
2
2
2
2
2
2
2
2
2
2
2
2
2
2
2
2
2
2
2
2
2
2
2
2
2
2
2
2
2
2
2
2
2
2
2
2
2
2
2
2
2
2
2
2
2
2
2
2
2
2
2
2
2
2
2
2
2
2
2
2
2
2
2
2
2
2
2
2
2
2
2
2
2
2
2
2
2
2
2
2
2
2
2
2
2
2
2
2
2
2
2
2
2
2
2
2
2
2
2
2
2
2
2
2
2
2
2
2
2
2
2
2
2
2
2
2
2
2
2
2
2
2
2
2
2
2
2
2
2
2
2
2
2
2
2
2
2
2
2
2
2
2
2
2
2
2
2
2
2
2
2
2
2
2
2
2
2
2
2
2
2
2
2
2
2
2
2
2
2
2
2
2
2
2
2
2
2
2
2
2
2
2
2
2
2
2
2
2
2
2
2
2
2
2
2
2
2
2
2
2
2
2
2
2
2
2
2
2
2
2
2
2
2
2
2
2
2
2
2
2
2
2
2
2
2
2
2
2
2
2
2
2
2
2
2
2
2
2
2
2
2
2
2
2
2
2
2
2
2
2
2
2
2
2
2
2
2
2
2
2
2
2
2
2
2
2
2
2
2
2
2
2
2
2
2
2
2
2
2
2
2
2
2
2
2
2
2
2
2
2
2
2
2
2
2
2
2
2
2
2
2
2
2
2
2
2
2
2
2
2
2
2
2
2
2
2
2
2
2
2
2
2
2
2
2
2
2
2
2
2
2
2
2
2
2
2
2
2
2
2
2
2
2
2
2
2
2
2
2
2
2
2
2
2
2
2
2
2
2
2
2
2
2
2
2
2
2
2
2
2
2
2
2
2
2
2
2
2
2
2
2
2
2
2
2
2
2
2
2
2
2
2
2
2
2
2
2
2
2
2
2
2
2
2
2
2
2
2
2
2
2
2
2
2
2
2
2
2
2
2
2
2
2
2
2
2
2
2
2
2
2
2
2
2
2
2
2
2
2
2
2
2
2
2
2
2
2
2
2
2
2
2
2
2
2
2
2
2
2
2
2
2
2
2
2
2
2
2
2
2
2
2
2
2
2
2
2
2
2
2
2
2
2
2
2
2
2
2
2
2
2
2
2
2
2
2
2
2
2
2
2
2
2
2
2
2
2
2
2
2
2
2
2
2
2
2
2
2
2
2
2
2
2
2
2
2
2
2
2
2
2
2
2
2
2
2
2
2
2
2
2
2
2
2
2
2
2
2
2
2
2
2
2
2
2
2
2
2
2
2
2
2
2
2
2
2
2
2
2
2
2
2
2
2
2
2
2
2
2
2
2
2
2
2
2
2
2
2
2
2
2
2
2
2
2
2
2
2
2
2
2
2
2
2
2
2
2
2
2
2
2
2
2
2
2
2
2
2
2
2
2
2
2
2
2
2
2
2
2
2
2
2
2
2
2
2
2
2
2
2
2
2
2
2
2
2
2
2
2
2
2
2
2
2
2
2
2
2
2
2
2
2
2
2
2
2
2
2
2
2
2
2
2
2
2
2
2
2
2
2
2
2
2
2
2
2
2
2
2
2
2
2
2
2
2
2
2
2
2
2
2
2
2
2
2
2
2
2
2
2
2
2
2
2
2
2
2
2
2
2
2
2
2
2
2
2
2
2
2
2
2
2
2
2
2
2
2
2
2
2
2
2
2
2
2
2
2
2
2
2
2
2
2
2
2
2
2
2
2
2
2
2
2
2
2
2
2
2
2
2
2
2
2
2
2
2
2
2
2
2
2
2
2
2
2
2
2
2
2
2
2
2
2
2
2
2
2
2
2
2
2
2
2
2
2
2
2
2
2
2
2
2
2
2
2
2
2
2
2
2
2
2
2
2
2
2
2
2
2
2
2
2
2
2
2
2
2
2
2
2
2
2
2
2
2
2
2
2
2
2
2
2
2
2
2
2
2
2
2
2
2
2
2
2
2
2
2
2
2
2
2
2
2
2
2
2
2
2
2
2
2
2
2
2
2
2
2
2
2
2
2
2
2
2
2
2
2
2
2
2
2
2
2
2
2
2
2
2
2
2
2
2
2
2
2
2
2
2
2
2
2
2
2
2
2
2
2
2
2
2
2
2
2
2
2
2
2
2
2
2
2
2
2
2
2
2
2
2
2
2
2
2
2
2
2
2
2
2
2
2
2
2
2
2
2
2
2
2
2
2
2
2
2
2
2
2
2
2
2
2
2
2
2
2
2
2
2
2
2
2
2
2
2
2
2
2
2
2
2
2
2
2
2
2
2
2
2
2
2
2
2
2
2
2
2
2
2
2
2
2
2
2
2
2
2
2
2
2
2
2
2
2
2
2
2
2
2
2
2
2
2
2
2
2
2
2
2
2
2
2
2
2
2
2
2
2
2
2
2
2
2
2
2
2
2
2
2
2
2
2
2
2
2
2
2
2
2
2
2
2
2
2
2
2
2
2
2
2
2
2
2
2
2
2
2
2
2
2
2
2
2
2
2
2
2
2
2
2
2
2
2
2
2
2
2
2
2
2
2
2
2
2
2
2
2
2
2
2
2
2
2
2
2
2
2
2
2
2
2
2
2
2
2
2
2
2
2
2
2
2
2
2
2
2
2
2
2
2
2
2
2
2
2
2
2
2
2
2
2
2
2
2
2
2
2
2
2
2
2
2
2
2
2
2
2
2
2
2
2
2
2
2
2
2
2
2
2
2
2
2
2
2
2
2
2
2
2
2
2
2
2
2
2
2
2
2
2
2
2
2
2
2
2
2
2
2
2
2
2
2
2
2
2
2
2
2
2
2
2
2
2
2
2
2
2
2
2
2
2
2
2
2
2
2
2
2
2
2
2
2
2
2
2
2
2
2
2
2
2
2
2
2
2
2
2
2
2
2
2
2
2
2
2
2
2
2
2
2
2
2
2
2
2
2
2
2
2
2
2
2
2
2
2
2
2
2
2
2
2
2
2
2
2
2
2
2
2
2
2
2
2
2
2
2
2
2
2
2
2
2
2
2
2
2
2
2
2
2
2
2
2
2
2
2
2
2
2
2
2
2
2
2
2
2
2
2
2
2
2
2
2
2
2
2
2
2
2
2
2
2
2
2
2
2
2
2
2
2
2
2
2
2
2
2
2
2
2
2
2
2
2
2
2
2
2
2
2
2
2
2
2
2
2
2
2
2
2
2
2
2
2
2
2
2
2
2
2
2
2
2
2
2
2
2
2
2
2
2
2
2
2
2
2
2
2
2
2
2
2
2
2
2
2
2
2
2
2
2
2
2
2
2
2
2
2
2
2
2
2
2
2
2
2
2
2
2
2
2
2
2
2
2
2
2
2
2
2
2
2
2
2
2
2
2
2
2
2
2
2
2
2
2
2
2
2
2
2
2
2
2
2
2
2
2
2
2
2
2
2
2
2
2
2
2
2
2
2
2
2
2
2
2
2
2
2
2
2
2
2
2
2
2
2
2
2
2
2
2
2
2
2
2
2
2
2
2
2
2
2
2
2
2
2
2
2
2
2
2
2
2
2
2
2
2
2
2
2
2
2
2
2
2
2
2
2
2
2
2
2
2
2
2
2
2
2
2
2
2
2
2
2
2
2
2
2
2
2
2
2
2
2
2
2
2
2
2
2
2
2
2
2
2
2
2
2
2
2
2
2
2
2
2
2
2
2
2
2
2
2
2
2
2
2
2
2
2
2
2
2
2
2
2
2
2
2
2
2
2
2
2
2
2
2
2
2
2
2
2
2
2
2
2
2
2
2
2
2
2
2
2
2
2
2
2
2
2
2
2
2
2
2
2
2
2
2
2
2
2
2
2
2
2
2
2
2
2
2
2
2
2
2
2
2
2
2
2
2
2
2
2
2
2
2
2
2
2
2
2
2
2
2
2
2
2
2
2
2
2
2
2
2
2
2
2
2
2
2
2
2
2
2
2
2
2
2
2
2
2
2
2
2
2
2
2
2
2
2
2
2
2
2
2
2
2
2
2
2
2
2
2
2
2
2
2
2
2
2
2
2
2
2
2
2
2
2
2
2
2
2
2
2
2
2
2
2
2
2
2
2
2
2
2
2
2
2
2
2
2
2
2
2
2
2
2
2
2
2
2
2
2
2
2
2
2
2
2
2
2
2
2
2
2
2
2
2
2
2
2
2
2
2
2
2
2
2
2
2
2
2
2
2
2
2
2
2
2
2
2
2
2
2
2
2
2
2
2
2
2
2
2
2
2
2
2
2
2
2
2
2
2
2
2
2
2
2
2
2
2
2
2
2
2
2
2
2
2
2
2
2
2
2
2
2
2
2
2
2
2
2
2
2
2
2
2
2
2
2
2
2
2
2
2
2
2
2
2
2
2
2
2
2
2
2
2
2
2
2
2
2
2
2
2
2
2
2
2
2
2
2
2
2
2
2
2
2
2
2
2
2
2
2
2
2
2
2
2
2
2
2
2
2
2
2
2
2
2
2
2
2
2
2
2
2
2
2
2
2
2
2
2
2
2
2
2
2
2
2
2
2
2
2
2
2
2
2
2
2
2
2
2
2
2
2
2
2
2
2
2
2
2
2
2
2
2
2
2
2
2
2
2
2
2
2
2
2
2
2
2
2
2
2
2
2
2
2
2
2
2
2
2
2
2
2
2
2
2
2
2
2
2
2
2
2
2
2
2
2
2
2
2
2
2
2
2
2
2
2
2
2
2
2
2
2
2
2
2
2
2
2
2
2
2
2
2
2
2
2
2
2
2
2
2
2
2
2
2
2
2
2
2
2
2
2
2
2
2
2
2
2
2
2
2
2
2
2
2
2
2
2
2
2
2
2
2
2
2
2
2
2
2
2
2
2
2
2
2
2
2
2
2
2
2
2
2
2
2
2
2
2
2
2
2
2
2
2
2
2
2
2
2
2
2
2
2
2
2
2
2
2
2
2
2
2
2
2
2
2
2
2
2
2
2
2
2
2
2
2
2
2
2
2
2
2
2
2
2
2
2
2
2
2
2
2
2
2
2
2
2
2
2
2
2
2
2
2
2
2
2
2
2
2
2
2
2
2
2
2
2
2
2
2
2
2
2
2
2
2
2
2
2
2
2
2
2
2
2
2
2
2
2
2
2
2
2
2
2
2
2
2
2
2
2
2
2
2
2
2
2
2
2
2
2
2
2
2
2
2
2
2
2
2
2
2
2
2
2
2
2
2
2
2
2
2
2
2
2
2
2
2
2
2
2
2
2
2
2
2
2
2
2
2
2
2
2
2
2
2
2
2
2
2
2
2
2
2
2
2
2
2
2
2
2
2
2
2
2
2
2
2
2
2
2
2
2
2
2
2
2
2
2
2
2
2
2
2
2
2
2
2
2
2
2
2
2
2
2
2
2
2
2
2
2
2
2
2
2
2
2
2
2
2
2
2
2
2
2
2
2
2
2
2
2
2
2
2
2
2
2
2
2
2
2
2
2
2
2
2
2
2
2
2
2
2
2
2
2
2
2
2
2
2
2
2
2
2
2
2
2
2
2
2
2
2
2
2
2
2
2
2
2
2
2
2
2
2
2
2
2
2
2
2
2
2
2
2
2
2
2
2
2
2
2
2
2
2
2
2
2
2
2
2
2
2
2
2
2
2
2
2
2
2
2
2
2
2
2
2
2
2
2
2
2
2
2
2
2
2
2
2
2
2
2
2
2
2
2
2
2
2
2
2
2
2
2
2
2
2
2
2
2
2
2
2
2
2
2
2
2
2
2
2
2
2
2
2
2
2
2
2
2
2
2
2
2
2
2
2
2
2
2
2
2
2
2
2
2
2
2
2
2
2
2
2
2
2
2
2
2
2
2
2
2
2
2
2
2
2
2
2
2
2
2
2
2
2
2
2
2
2
2
2
2
2
2
2
2
2
2
2
2
2
2
2
2
2
2
2
2
2
2
2
2
2
2
2
2
2
2
2
2
2
2
2
2
2
2
2
2
2
2
2
2
2
2
2
2
2
2
2
2
2
2
2
2
2
2
2
2
2
2
2
2
2
2
2
2
2
2
2
2
2
2
2
2
2
2
2
2
2
2
2
2
2
2
2
2
2
2
2
2
2
2
2
2
2
2
2
2
2
2
2
2
2
2
2
2
2
2
2
2
2
2
2
2
2
2
2
2
2
2
2
2
2
2
2
2
2
2
2
2
2
2
2
2
2
2
2
2
2
2
2
2
2
2
2
2
2
2
2
2
2
2
2
2
2
2
2
2
2
2
2
2
2
2
2
2
2
2
2
2
2
2
2
2
2
2
2
2
2
2
2
2
2
2
2
2
2
2
2
2
2
2
2
2
2
2
2
2
2
2
2
2
2
2
2
2
2
2
2
2
2
2
2
2
2
2
2
2
2
2
2
2
2
2
2
2
2
2
2
2
2
2
2
2
2
2
2
2
2
2
2
2
2
2
2
2
2
2
2
2
2
2
2
2
2
2
2
2
2
2
2
2
2
2
2
2
2
2
2
2
2
2
2
2
2
2
2
2
2
2
2
2
2
2
2
2
2
2
2
2
2
2
2
2
2
2
2
2
2
2
2
2
2
2
2
2
2
2
2
2
2
2
2
2
2
2
2
2
2
2
2
2
2
2
2
2
2
2
2
2
2
2
2
2
2
2
2
2
2
2
2
2
2
2
2
2
2
2
2
2
2
2
2
2
2
2
2
2
2
2
2
2
2
2
2
2
2
2
2
2
2
2
2
2
2
2
2
2
2
2
2
2
2
2
2
2
2
2
2
2
2
2
2
2
2
2
2
2
2
2
2
2
2
2
2
2
2
2
2
2
2
2
2
2
2
2
2
2
2
2
2
2
2
2
2
2
2
2
2
2
2
2
2
2
2
2
2
2
2
2
2
2
2
2
2
2
2
2
2
2
2
2
2
2
2
2
2
2
2
2
2
2
2
2
2
2
2
2
2
2
2
2
2
2
2
2
2
2
2
2
2
2
2
2
2
2
2
2
2
2
2
2
2
2
2
2
2
2
2
2
2
2
2
2
2
2
2
2
2
2
2
2
2
2
2
2
2
2
2
2
2
2
2
2
2
2
2
2
2
2
2
2
2
2
2
2
2
2
2
2
2
2
2
2
2
2
2
2
2
2
2
2
2
2
2
2
2
2
2
2
2
2
2
2
2
2
2
2
2
2
2
2
2
2
2
2
2
2
2
2
2
2
2
2
2
2
2
2
2
2
2
2
2
2
2
2
2
2
2
2
2
2
2
2
2
2
2
2
2
2
2
2
2
2
2
2
2
2
2
2
2
2
2
2
2
2
2
2
2
2
2
2
2
2
2
2
2
2
2
2
2
2
2
2
2
2
2
2
2
2
2
2
2
2
2
2
2
2
2
2
2
2
2
2
2
2
2
2
2
2
2
2
2
2
2
2
2
2
2
2
2
2
2
2
2
2
2
2
2
2
2
2
2
2
2
2
2
2
2
2
2
2
2
2
2
2
2
2
2
2
2
2
2
2
2
2
2
2
2
2
2
2
2
2
2
2
2
2
2
2
2
2
2
2
2
2
2
2
2
2
2
2
2
2
2
2
2
2
2
2
2
2
2
2
2
2
2
2
2
2
2
2
2
2
2
2
2
2
2
2
2
2
2
2
2
2
2
2
2
2
2
2
2
2
2
2
2
2
2
2
2
2
2
2
2
2
2
2
2
2
2
2
2
2
2
2
2
2
2
2
2
2
2
2
2
2
2
2
2
2
2
2
2
2
2
2
2
2
2
2
2
2
2
2
2
2
2
2
2
2
2
2
2
2
2
2
2
2
2
2
2
2
2
2
2
2
2
2
2
2
2
2
2
2
2
2
2
2
2
2
2
2
2
2
2
2
2
2
2
2
2
2
2
2
2
2
2
2
2
2
2
2
2
2
2
2
2
2
2
2
2
2
2
2
2
2
2
2
2
2
2
2
2
2
2
2
2
2
2
2
2
2
2
2
2
2
2
2
2
2
2
2
2
2
2
2
2
2
2
2
2
2
2
2
2
2
2
2
2
2
2
2
2
2
2
2
2
2
2
2
2
2
2
2
2
2
2
2
2
2
2
2
2
2
2
2
2
2
2
2
2
2
2
2
2
2
2
2
2
2
2
2
2
2
2
2
2
2
2
2
2
2
2
2
2
2
2
2
2
2
2
2
2
2
2
2
2
2
2
2
2
2
2
2
2
2
2
2
2
2
2
2
2
2
2
2
2
2
2
2
2
2
2
2
2
2
2
2
2
2
2
2
2
2
2
2
2
2
2
2
2
2
2
2
2
2
2
2
2
2
2
2
2
2
2
2
2
2
2
2
2
2
2
2
2
2
2
2
2
2
2
2
2
2
2
2
2
2
2
2
2
2
2
2
2
2
2
2
2
2
2
2
2
2
2
2
2
2
2
2
2
2
2
2
2
2
2
2
2
2
2
2
2
2
2
2
2
2
2
2
2
2
2
2
2
2
2
2
2
2
2
2
2
2
2
2
2
2
2
2
2
2
2
2
2
2
2
2
2
2
2
2
2
2
2
2
2
2
2
2
2
2
2
2
2
2
2
2
2
2
2
2
2
2
2
2
2
2
2
2
2
2
2
2
2
2
2
2
2
2
2
2
2
2
2
2
2
2
2
2
2
2
2
2
2
2
2
2
2
2
2
2
2
2
2
2
2
2
2
2
2
2
2
2
2
2
2
2
2
2
2
2
2
2
2
2
2
2
2
2
2
2
2
2
2
2
2
2
2
2
2
2
2
2
2
2
2
2
2
2
2
2
2
2
2
2
2
2
2
2
2
2
2
2
2
2
2
2
2
2
2
2
2
2
2
2
2
2
2
2
2
2
2
2
2
2
2
2
2
2
2
2
2
2
2
2
2
2
2
2
2
2
2
2
2
2
2
2
2
2
2
2
2
2
2
2
2
2
2
2
2
2
2
2
2
2
2
2
2
2
2
2
2
2
2
2
2
2
2
2
2
2
2
2
2
2
2
2
2
2
2
2
2
2
2
2
2
2
2
2
2
2
2
2
2
2
2
2
2
2
2
2
2
2
2
2
2
2
2
2
2
2
2
2
2
2
2
2
2
2
2
2
2
2
2
2
2
2
2
2
2
2
2
2
2
2
2
2
2
2
2
2
2
2
2
2
2
2
2
2
2
2
2
2
2
2
2
2
2
2
2
2
2
2
2
2
2
2
2
2
2
2
2
2
2
2
2
2
2
2
2
2
2
2
2
2
2
2
2
2
2
2
2
2
2
2
2
2
2
2
2
2
2
2
2
2
2
2
2
2
2
2
2
2
2
2
2
2
2
2
2
2
2
2
2
2
2
2
2
2
2
2
2
2
2
2
2
2
2
2
2
2
2
2
2
2
2
2
2
2
2
2
2
2
2
2
2
2
2
2
2
2
2
2
2
2
2
2
2
2
2
2
2
2
2
2
2
2
2
2
2
2
2
2
2
2
2
2
2
2
2
2
2
2
2
2
2
2
2
2
2
2
2
2
2
2
2
2
2
2
2
2
2
2
2
2
2
2
2
2
2
2
2
2
2
2
2
2
2
2
2
2
2
2
2
2
2
2
2
2
2
2
2
2
2
2
2
2
2
2
2
2
2
2
2
2
2
2
2
2
2
2
2
2
2
2
2
2
2
2
2
2
2
2
2
2
2
2
2
2
2
2
2
2
2
2
2
2
2
2
2
2
2
2
2
2
2
2
2
2
2
2
2
2
2
2
2
2
2
2
2
2
2
2
2
2
2
2
2
2
2
2
2
2
2
2
2
2
2
2
2
2
2
2
2
2
2
2
2
2
2
2
2
2
2
2
2
2
2
2
2
2
2
2
2
2
2
2
2
2
2
2
2
2
2
2
2
2
2
2
2
2
2
2
2
2
2
2
2
2
2
2
2
2
2
2
2
2
2
2
2
2
2
2
2
2
2
2
2
2
2
2
2
2
2
2
2
2
2
2
2
2
2
2
2
2
2
2
2
2
2
2
2
2
2
2
2
2
2
2
2
2
2
2
2
2
2
2
2
2
2
2
2
2
2
2
2
2
2
2
2
2
2
2
2
2
2
2
2
2
2
2
2
2
2
2
2
2
2
2
2
2
2
2
2
2
2
2
2
2
2
2
2
2
2
2
2
2
2
2
2
2
2
2
2
2
2
2
2
2
2
2
2
2
2
2
2
2
2
2
2
2
2
2
2
2
2
2
2
2
2
2
2
2
2
2
2
2
2
2
2
2
2
2
2
2
2
2
2
2
2
2
2
2
2
2
2
2
2
2
2
2
2
2
2
2
2
2
2
2
2
2
2
2
2
2
2
2
2
2
2
2
2
2
2
2
2
2
2
2
2
2
2
2
2
2
2
2
2
2
2
2
2
2
2
2
2
2
2
2
2
2
2
2
2
2
2
2
2
2
2
2
2
2
2
2
2
2
2
2
2
2
2
2
2
2
2
2
2
2
2
2
2
2
2
2
2
2
2
2
2
2
2
2
2
2
2
2
2
2
2
2
2
2
2
2
2
2
2
2
2
2
2
2
2
2
2
2
2
2
2
2
2
2
2
2
2
2
2
2
2
2
2
2
2
2
2
2
2
2
2
2
2
2
2
2
2
2
2
2
2
2
2
2
2
2
2
2
2
2
2
2
2
2
2
2
2
2
2
2
2
2
2
2
2
2
2
2
2
2
2
2
2
2
2
2
2
2
2
2
2
2
2
2
2
2
2
2
2
2
2
2
2
2
2
2
2
2
2
2
2
2
2
2
2
2
2
2
2
2
2
2
2
2
2
2
2
2
2
2
2
2
2
2
2
2
2
2
2
2
2
2
2
2
2
2
2
2
2
2
2
2
2
2
2
2
2
2
2
2
2
2
2
2
2
2
2
2
2
2
2
2
2
2
2
2
2
2
2
2
2
2
2
2
2
2
2
2
2
2
2
2
2
2
2
2
2
2
2
2
2
2
2
2
2
2
2
2
2
2
2
2
2
2
2
2
2
2
2
2
2
2
2
2
2
2
2
2
2
2
2
2
2
2
2
2
2
2
2
2
2
2
2
2
2
2
2
2
2
2
2
2
2
2
2
2
2
2
2
2
2
2
2
2
2
2
2
2
2
2
2
2
2
2
2
2
2
2
2
2
2
2
2
2
2
2
2
2
2
2
2
2
2
2
2
2
2
2
2
2
2
2
2
2
2
2
2
2
2
2
2
2
2
2
2
2
2
2
2
2
2
2
2
2
2
2
2
2
2
2
2
2
2
2
2
2
2
2
2
2
2
2
2
2
2
2
2
2
2
2
2
2
2
2
2
2
2
2
2
2
2
2
2
2
2
2
2
2
2
2
2
2
2
2
2
2
2
2
2
2
2
2
2
2
2
2
2
2
2
2
2
2
2
2
2
2
2
2
2
2
2
2
2
2
2
2
2
2
2
2
2
2
2
2
2
2
2
2
2
2
2
2
2
2
2
2
2
2
2
2
2
2
2
2
2
2
2
2
2
2
2
2
2
2
2
2
2
2
2
2
2
2
2
2
2
2
2
2
2
2
2
2
2
2
2
2
2
2
2
2
2
2
2
2
2
2
2
2
2
2
2
2
2
2
2
2
2
2
2
2
2
2
2
2
2
2
2
2
2
2
2
2
2
2
2
2
2
2
2
2
2
2
2
2
2
2
2
2
2
2
2
2
2
2
2
2
2
2
2
2
2
2
2
2
2
2
2
2
2
2
2
2
2
2
2
2
2
2
2
2
2
2
2
2
2
2
2
2
2
2
2
2
2
2
2
2
2
2
2
2
2
2
2
2
2
2
2
2
2
2
2
2
2
2
2
2
2
2
2
2
2
2
2
2
2
2
2
2
2
2
2
2
2
2
2
2
2
2
2
2
2
2
2
2
2
2
2
2
2
2
2
2
2
2
2
2
2
2
2
2
2
2
2
2
2
2
2
2
2
2
2
2
2
2
2
2
2
2
2
2
2
2
2
2
2
2
2
2
2
2
2
2
2
2
2
2
2
2
2
2
2
2
2
2
2
2
2
2
2
2
2
2
2
2
2
2
2
2
2
2
2
2
2
2
2
2
2
2
2
2
2
2
2
2
2
2
2
2
2
2
2
2
2
2
2
2
2
2
2
2
2
2
2
2
2
2
2
2
2
2
2
2
2
2
2
2
2
2
2
2
2
2
2
2
2
2
2
2
2
2
2
2
2
2
2
2
2
2
2
2
2
2
2
2
2
2
2
2
2
2
2
2
2
2
2
2
2
2
2
2
2
2
2
2
2
2
2
2
2
2
2
2
2
2
2
2
2
2
2
2
2
2
2
2
2
2
2
2
2
2
2
2
2
2
2
2
2
2
2
2
2
2
2
2
2
2
2
2
2
2
2
2
2
2
2
2
2
2
2
2
2
2
2
2
2
2
2
2
2
2
2
2
2
2
2
2
2
2
2
2
2
2
2
2
2
2
2
2
2
2
2
2
2
2
2
2
2
2
2
2
2
2
2
2
2
2
2
2
2
2
2
2
2
2
2
2
2
2
2
2
2
2
2
2
2
2
2
2
2
2
2
2
2
2
2
2
2
2
2
2
2
2
2
2
2
2
2
2
2
2
2
2
2
2
2
2
2
2
2
2
2
2
2
2
2
2
2
2
2
2
2
2
2
2
2
2
2
2
2
2
2
2
2
2
2
2
2
2
2
2
2
2
2
2
2
2
2
2
2
2
2
2
2
2
2
2
2
2
2
2
2
2
2
2
2
2
2
2
2
2
2
2
2
2
2
2
2
2
2
2
2
2
2
2
2
2
2
2
2
2
2
2
2
2
2
2
2
2
2
2
2
2
2
2
2
2
2
2
2
2
2
2
2
2
2
2
2
2
2
2
2
2
2
2
2
2
2
2
2
2
2
2
2
2
2
2
2
2
2
2
2
2
2
2
2
2
2
2
2
2
2
2
2
2
2
2
2
2
2
2
2
2
2
2
2
2
2
2
2
2
2
2
2
2
2
2
2
2
2
2
2
2
2
2
2
2
2
2
2
2
2
2
2
2
2
2
2
2
2
2
2
2
2
2
2
2
2
2
2
2
2
2
2
2
2
2
2
2
2
2
2
2
2
2
2
2
2
2
2
2
2
2
2
2
2
2
2
2
2
2
2
2
2
2
2
2
2
2
2
2
2
2
2
2
2
2
2
2
2
2
2
2
2
2
2
2
2
2
2
2
2
2
2
2
2
2
2
2
2
2
2
2
2
2
2
2
2
2
2
2
2
2
2
2
2
2
2
2
2
2
2
2
2
2
2
2
2
2
2
2
2
2
2
2
2
2
2
2
2
2
2
2
2
2
2
2
2
2
2
2
2
2
2
2
2
2
2
2
2
2
2
2
2
2
2
2
2
2
2
2
2
2
2
2
2
2
2
2
2
2
2
2
2
2
2
2
2
2
2
2
2
2
2
2
2
2
2
2
2
2
2
2
2
2
2
2
2
2
2
2
2
2
2
2
2
2
2
2
2
2
2
2
2
2
2
2
2
2
2
2
2
2
2
2
2
2
2
2
2
2
2
2
2
2
2
2
2
2
2
2
2
2
2
2
2
2
2
2
2
2
2
2
2
2
2
2
2
2
2
2
2
2
2
2
2
2
2
2
2
2
2
2
2
2
2
2
2
2
2
2
2
2
2
2
2
2
2
2
2
2
2
2
2
2
2
2
2
2
2
2
2
2
2
2
2
2
2
2
2
2
2
2
2
2
2
2
2
2
2
2
2
2
2
2
2
2
2
2
2
2
2
2
2
2
2
2
2
2
2
2
2
2
2
2
2
2
2
2
2
2
2
2
2
2
2
2
2
2
2
2
2
2
2
2
2
2
2
2
2
2
2
2
2
2
2
2
2
2
2
2
2
2
2
2
2
2
2
2
2
2
2
2
2
2
2
2
2
2
2
2
2
2
2
2
2
2
2
2
2
2
2
2
2
2
2
2
2
2
2
2
2
2
2
2
2
2
2
2
2
2
2
2
2
2
2
2
2
2
2
2
2
2
2
2
2
2
2
2
2
2
2
2
2
2
2
2
2
2
2
2
2
2
2
2
2
2
2
2
2
2
2
2
2
2
2
2
2
2
2
2
2
2
2
2
2
2
2
2
2
2
2
2
2
2
2
2
2
2
2
2
2
2
2
2
2
2
2
2
2
2
2
2
2
2
2
2
2
2
2
2
2
2
2
2
2
2
2
2
2
2
2
2
2
2
2
2
2
2
2
2
2
2
2
2
2
2
2
2
2
2
2
2
2
2
2
2
2
2
2
2
2
2
2
2
2
2
2
2
2
2
2
2
2
2
2
2
2
2
2
2
2
2
2
2
2
2
2
2
2
2
2
2
2
2
2
2
2
2
2
2
2
2
2
2
2
2
2
2
2
2
2
2
2
2
2
2
2
2
2
2
2
2
2
2
2
2
2
2
2
2
2
2
2
2
2
2
2
2
2
2
2
2
2
2
2
2
2
2
2
2
2
2
2
2
2
2
2
2
2
2
2
2
2
2
2
2
2
2
2
2
2
2
2
2
2
2
2
2
2
2
2
2
2
2
2
2
2
2
2
2
2
2
2
2
2
2
2
2
2
2
2
2
2
2
2
2
2
2
2
2
2
2
2
2
2
2
2
2
2
2
2
2
2
2
2
2
2
2
2
2
2
2
2
2
2
2
2
2
2
2
2
2
2
2
2
2
2
2
2
2
2
2
2
2
2
2
2
2
2
2
2
2
2
2
2
2
2
2
2
2
2
2
2
2
2
2
2
2
2
2
2
2
2
2
2
2
2
2
2
2
2
2
2
2
2
2
2
2
2
2
2
2
2
2
2
2
2
2
2
2
2
2
2
2
2
2
2
2
2
2
2
2
2
2
2
2
2
2
2
2
2
2
2
2
2
2
2
2
2
2
2
2
2
2
2
2
2
2
2
2
2
2
2
2
2
2
2
2
2
2
2
2
2
2
2
2
2
2
2
2
2
2
2
2
2
2
2
2
2
2
2
2
2
2
2
2
2
2
2
2
2
2
2
2
2
2
2
2
2
2
2
2
2
2
2
2
2
2
2
2
2
2
2
2
2
2
2
2
2
2
2
2
2
2
2
2
2
2
2
2
2
2
2
2
2
2
2
2
2
2
2
2
2
2
2
2
2
2
2
2
2
2
2
2
2
2
2
2
2
2
2
2
2
2
2
2
2
2
2
2
2
2
2
2
2
2
2
2
2
2
2
2
2
2
2
2
2
2
2
2
2
2
2
2
2
2
2
2
2
2
2
2
2
2
2
2
2
2
2
2
2
2
2
2
2
2
2
2
2
2
2
2
2
2
2
2
2
2
2
2
2
2
2
2
2
2
2
2
2
2
2
2
2
2
2
2
2
2
2
2
2
2
2
2
2
2
2
2
2
2
2
2
2
2
2
2
2
2
2
2
2
2
2
2
2
2
2
2
2
2
2
2
2
2
2
2
2
2
2
2
2
2
2
2
2
2
2
2
2
2
2
2
2
2
2
2
2
2
2
2
2
2
2
2
2
2
2
2
2
2
2
2
2
2
2
2
2
2
2
2
2
2
2
2
2
2
2
2
2
2
2
2
2
2
2
2
2
2
2
2
2
2
2
2
2
2
2
2
2
2
2
2
2
2
2
2
2
2
2
2
2
2
2
2
2
2
2
2
2
2
2
2
2
2
2
2
2
2
2
2
2
2
2
2
2
2
2
2
2
2
2
2
2
2
2
2
2
2
2
2
2
2
2
2
2
2
2
2
2
2
2
2
2
2
2
2
2
2
2
2
2
2
2
2
2
2
2
2
2
2
2
2
2
2
2
2
2
2
2
2
2
2
2
2
2
2
2
2
2
2
2
2
2
2
2
2
2
2
2
2
2
2
2
2
2
2
2
2
2
2
2
2
2
2
2
2
2
2
2
2
2
2
2
2
2
2
2
2
2
2
2
2
2
2
2
2
2
2
2
2
2
2
2
2
2
2
2
2
2
2
2
2
2
2
2
2
2
2
2
2
2
2
2
2
2
2
2
2
2
2
2
2
2
2
2
2
2
2
2
2
2
2
2
2
2
2
2
2
2
2
2
2
2
2
2
2
2
2
2
2
2
2
2
2
2
2
2
2
2
2
2
2
2
2
2
2
2
2
2
2
2
2
2
2
2
2
2
2
2
2
2
2
2
2
2
2
2
2
2
2
2
2
2
2
2
2
2
2
2
2
2
2
2
2
2
2
2
2
2
2
2
2
2
2
2
2
2
2
2
2
2
2
2
2
2
2
2
2
2
2
2
2
2
2
2
2
2
2
2
2
2
2
2
2
2
2
2
2
2
2
2
2
2
2
2
2
2
2
2
2
2
2
2
2
2
2
2
2
2
2
2
2
2
2
2
2
2
2
2
2
2
2
2
2
2
2
2
2
2
2
2
2
2
2
2
2
2
2
2
2
2
2
2
2
2
2
2
2
2
2
2
2
2
2
2
2
2
2
2
2
2
2
2
2
2
2
2
2
2
2
2
2
2
2
2
2
2
2
2
2
2
2
2
2
2
2
2
2
2
2
2
2
2
2
2
2
2
2
2
2
2
2
2
2
2
2
2
2
2
2
2
2
2
2
2
2
2
2
2
2
2
2
2
2
2
2
2
2
2
2
2
2
2
2
2
2
2
2
2
2
2
2
2
2
2
2
2
2
2
2
2
2
2
2
2
2
2
2
2
2
2
2
2
2
2
2
2
2
2
2
2
2
2
2
2
2
2
2
2
2
2
2
2
2
2
2
2
2
2
2
2
2
2
2
2
2
2
2
2
2
2
2
2
2
2
2
2
2
2
2
2
2
2
2
2
2
2
2
2
2
2
2
2
2
2
2
2
2
2
2
2
2
2
2
2
2
2
2
2
2
2
2
2
2
2
2
2
2
2
2
2
2
2
2
2
2
2
2
2
2
2
2
2
2
2
2
2
2
2
2
2
2
2
2
2
2
2
2
2
2
2
2
2
2
2
2
2
2
2
2
2
2
2
2
2
2
2
2
2
2
2
2
2
2
2
2
2
2
2
2
2
2
2
2
2
2
2
2
2
2
2
2
2
2
2
2
2
2
2
2
2
2
2
2
2
2
2
2
2
2
2
2
2
2
2
2
2
2
2
2
2
2
2
2
2
2
2
2
2
2
2
2
2
2
2
2
2
2
2
2
2
2
2
2
2
2
2
2
2
2
2
2
2
2
2
2
2
2
2
2
2
2
2
2
2
2
2
2
2
2
2
2
2
2
2
2
2
2
2
2
2
2
2
2
2
2
2
2
2
2
2
2
2
2
2
2
2
2
2
2
2
2
2
2
2
2
2
2
2
2
2
2
2
2
2
2
2
2
2
2
2
2
2
2
2
2
2
2
2
2
2
2
2
2
2
2
2
2
2
2
2
2
2
2
2
2
2
2
2
2
2
2
2
2
2
2
2
2
2
2
2
2
2
2
2
2
2
2
2
2
2
2
2
2
2
2
2
2
2
2
2
2
2
2
2
2
2
2
2
2
2
2
2
2
2
2
2
2
2
2
2
2
2
2
2
2
2
2
2
2
2
2
2
2
2
2
2
2
2
2
2
2
2
2
2
2
2
2
2
2
2
2
2
2
2
2
2
2
2
2
2
2
2
2
2
2
2
2
2
2
2
2
2
2
2
2
2
2
2
2
2
2
2
2
2
2
2
2
2
2
2
2
2
2
2
2
2
2
2
2
2
2
2
2
2
2
2
2
2
2
2
2
2
2
2
2
2
2
2
2
2
2
2
2
2
2
2
2
2
2
2
2
2
2
2
2
2
2
2
2
2
2
2
2
2
2
2
2
2
2
2
2
2
2
2
2
2
2
2
2
2
2
2
2
2
2
2
2
2
2
2
2
2
2
2
2
2
2
2
2
2
2
2
2
2
2
2
2
2
2
2
2
2
2
2
2
2
2
2
2
2
2
2
2
2
2
2
2
2
2
2
2
2
2
2
2
2
2
2
2
2
2
2
2
2
2
2
2
2
2
2
2
2
2
2
2
2
2
2
2
2
2
2
2
2
2
2
2
2
2
2
2
2
2
2
2
2
2
2
2
2
2
2
2
2
2
2
2
2
2
2
2
2
2
2
2
2
2
2
2
2
2
2
2
2
2
2
2
2
2
2
2
2
2
2
2
2
2
2
2
2
2
2
2
2
2
2
2
2
2
2
2
2
2
2
2
2
2
2
2
2
2
2
2
2
2
2
2
2
2
2
2
2
2
2
2
2
2
2
2
2
2
2
2
2
2
2
2
2
2
2
2
2
2
2
2
2
2
2
2
2
2
2
2
2
2
2
2
2
2
2
2
2
2
2
2
2
2
2
2
2
2
2
2
2
2
2
2
2
2
2
2
2
2
2
2
2
2
2
2
2
2
2
2
2
2
2
2
2
2
2
2
2
2
2
2
2
2
2
2
2
2
2
2
2
2
2
2
2
2
2
2
2
2
2
2
2
2
2
2
2
2
2
2
2
2
2
2
2
2
2
2
2
2
2
2
2
2
2
2
2
2
2
2
2
2
2
2
2
2
2
2
2
2
2
2
2
2
2
2
2
2
2
2
2
2
2
2
2
2
2
2
2
2
2
2
2
2
2
2
2
2
2
2
2
2
2
2
2
2
2
2
2
2
2
2
2
2
2
2
2
2
2
2
2
2
2
2
2
2
2
2
2
2
2
2
2
2
2
2
2
2
2
2
2
2
2
2
2
2
2
2
2
2
2
2
2
2
2
2
2
2
2
2
2
2
2
2
2
2
2
2
2
2
2
2
2
2
2
2
2
2
2
2
2
2
2
2
2
2
2
2
2
2
2
2
2
2
2
2
2
2
2
2
2
2
2
2
2
2
2
2
2
2
2
2
2
2
2
2
2
2
2
2
2
2
2
2
2
2
2
2
2
2
2
2
2
2
2
2
2
2
2
2
2
2
2
2
2
2
2
2
2
2
2
2
2
2
2
2
2
2
2
2
2
2
2
2
2
2
2
2
2
2
2
2
2
2
2
2
2
2
2
2
2
2
2
2
2
2
2
2
2
2
2
2
2
2
2
2
2
2
2
2
2
2
2
2
2
2
2
2
2
2
2
2
2
2
2
2
2
2
2
2
2
2
2
2
2
2
2
2
2
2
2
2
2
2
2
2
2
2
2
2
2
2
2
2
2
2
2
2
2
2
2
2
2
2
2
2
2
2
2
2
2
2
2
2
2
2
2
2
2
2
2
2
2
2
2
2
2
2
2
2
2
2
2
2
2
2
2
2
2
2
2
2
2
2
2
2
2
2
2
2
2
2
2
2
2
2
2
2
2
2
2
2
2
2
2
2
2
2
2
2
2
2
2
2
2
2
2
2
2
2
2
2
2
2
2
2
2
2
2
2
2
2
2
2
2
2
2
2
2
2
2
2
2
2
2
2
2
2
2
2
2
2
2
2
2
2
2
2
2
2
2
2
2
2
2
2
2
2
2
2
2
2
2
2
2
2
2
2
2
2
2
2
2
2
2
2
2
2
2
2
2
2
2
2
2
2
2
2
2
2
2
2
2
2
2
2
2
2
2
2
2
2
2
2
2
2
2
2
2
2
2
2
2
2
2
2
2
2
2
2
2
2
2
2
2
2
2
2
2
2
2
2
2
2
2
2
2
2
2
2
2
2
2
2
2
2
2
2
2
2
2
2
2
2
2
2
2
2
2
2
2
2
2
2
2
2
2
2
2
2
2
2
2
2
2
2
2
2
2
2
2
2
2
2
2
2
2
2
2
2
2
2
2
2
2
2
2
2
2
2
2
2
2
2
2
2
2
2
2
2
2
2
2
2
2
2
2
2
2
2
2
2
2
2
2
2
2
2
2
2
2
2
2
2
2
2
2
2
2
2
2
2
2
2
2
2
2
2
2
2
2
2
2
2
2
2
2
2
2
2
2
2
2
2
2
2
2
2
2
2
2
2
2
2
2
2
2
2
2
2
2
2
2
2
2
2
2
2
2
2
2
2
2
2
2
2
2
2
2
2
2
2
2
2
2
2
2
2
2
2
2
2
2
2
2
2
2
2
2
2
2
2
2
2
2
2
2
2
2
2
2
2
2
2
2
2
2
2
2
2
2
2
2
2
2
2
2
2
2
2
2
2
2
2
2
2
2
2
2
2
2
2
2
2
2
2
2
2
2
2
2
2
2
2
2
2
2
2
2
2
2
2
2
2
2
2
2
2
2
2
2
2
2
2
2
2
2
2
2
2
2
2
2
2
2
2
2
2
2
2
2
2
2
2
2
2
2
2
2
2
2
2
2
2
2
2
2
2
2
2
2
2
2
2
2
2
2
2
2
2
2
2
2
2
2
2
2
2
2
2
2
2
2
2
2
2
2
2
2
2
2
2
2
2
2
2
2
2
2
2
2
2
2
2
2
2
2
2
2
2
2
2
2
2
2
2
2
2
2
2
2
2
2
2
2
2
2
2
2
2
2
2
2
2
2
2
2
2
2
2
2
2
2
2
2
2
2
2
2
2
2
2
2
2
2
2
2
2
2
2
2
2
2
2
2
2
2
2
2
2
2
2
2
2
2
2
2
2
2
2
2
2
2
2
2
2
2
2
2
2
2
2
2
2
2
2
2
2
2
2
2
2
2
2
2
2
2
2
2
2
2
2
2
2
2
2
2
2
2
2
2
2
2
2
2
2
2
2
2
2
2
2
2
2
2
2
2
2
2
2
2
2
2
2
2
2
2
2
2
2
2
2
2
2
2
2
2
2
2
2
2
2
2
2
2
2
2
2
2
2
2
2
2
2
2
2
2
2
2
2
2
2
2
2
2
2
2
2
2
2
2
2
2
2
2
2
2
2
2
2
2
2
2
2
2
2
2
2
2
2
2
2
2
2
2
2
2
2
2
2
2
2
2
2
2
2
2
2
2
2
2
2
2
2
2
2
2
2
2
2
2
2
2
2
2
2
2
2
2
2
2
2
2
2
2
2
2
2
2
2
2
2
2
2
2
2
2
2
2
2
2
2
2
2
2
2
2
2
2
2
2
2
2
2
2
2
2
2
2
2
2
2
2
2
2
2
2
2
2
2
2
2
2
2
2
2
2
2
2
2
2
2
2
2
2
2
2
2
2
2
2
2
2
2
2
2
2
2
2
2
2
2
2
2
2
2
2
2
2
2
2
2
2
2
2
2
2
2
2
2
2
2
2
2
2
2
2
2
2
2
2
2
2
2
2
2
2
2
2
2
2
2
2
2
2
2
2
2
2
2
2
2
2
2
2
2
2
2
2
2
2
2
2
2
2
2
2
2
2
2
2
2
2
2
2
2
2
2
2
2
2
2
2
2
2
2
2
2
2
2
2
2
2
2
2
2
2
2
2
2
2
2
2
2
2
2
2
2
2
2
2
2
2
2
2
2
2
2
2
2
2
2
2
2
2
2
2
2
2
2
2
2
2
2
2
2
2
2
2
2
2
2
2
2
2
2
2
2
2
2
2
2
2
2
2
2
2
2
2
2
2
2
2
2
2
2
2
2
2
2
2
2
2
2
2
2
2
2
2
2
2
2
2
2
2
2
2
2
2
2
2
2
2
2
2
2
2
2
2
2
2
2
2
2
2
2
2
2
2
2
2
2
2
2
2
2
2
2
2
2
2
2
2
2
2
2
2
2
2
2
2
2
2
2
2
2
2
2
2
2
2
2
2
2
2
2
2
2
2
2
2
2
2
2
2
2
2
2
2
2
2
2
2
2
2
2
2
2
2
2
2
2
2
2
2
2
2
2
2
2
2
2
2
2
2
2
2
2
2
2
2
2
2
2
2
2
2
2
2
2
2
2
2
2
2
2
2
2
2
2
2
2
2
2
2
2
2
2
2
2
2
2
2
2
2
2
2
2
2
2
2
2
2
2
2
2
2
2
2
2
2
2
2
2
2
2
2
2
2
2
2
2
2
2
2
2
2
2
2
2
2
2
2
2
2
2
2
2
2
2
2
2
2
2
2
2
2
2
2
2
2
2
2
2
2
2
2
2
2
2
2
2
2
2
2
2
2
2
2
2
2
2
2
2
2
2
2
2
2
2
2
2
2
2
2
2
2
2
2
2
2
2
2
2
2
2
2
2
2
2
2
2
2
2
2
2
2
2
2
2
2
2
2
2
2
2
2
2
2
2
2
2
2
2
2
2
2
2
2
2
2
2
2
2
2
2
2
2
2
2
2
2
2
2
2
2
2
2
2
2
2
2
2
2
2
2
2
2
2
2
2
2
2
2
2
2
2
2
2
2
2
2
2
2
2
2
2
2
2
2
2
2
2
2
2
2
2
2
2
2
2
2
2
2
2
2
2
2
2
2
2
2
2
2
2
2
2
2
2
2
2
2
2
2
2
2
2
2
2
2
2
2
2
2
2
2
2
2
2
2
2
2
2
2
2
2
2
2
2
2
2
2
2
2
2
2
2
2
2
2
2
2
2
2
2
2
2
2
2
2
2
2
2
2
2
2
2
2
2
2
2
2
2
2
2
2
2
2
2
2
2
2
2
2
2
2
2
2
2
2
2
2
2
2
2
2
2
2
2
2
2
2
2
2
2
2
2
2
2
2
2
2
2
2
2
2
2
2
2
2
2
2
2
2
2
2
2
2
2
2
2
2
2
2
2
2
2
2
2
2
2
2
2
2
2
2
2
2
2
2
2
2
2
2
2
2
2
2
2
2
2
2
2
2
2
2
2
2
2
2
2
2
2
2
2
2
2
2
2
2
2
2
2
2
2
2
2
2
2
2
2
2
2
2
2
2
2
2
2
2
2
2
2
2
2
2
2
2
2
2
2
2
2
2
2
2
2
2
2
2
2
2
2
2
2
2
2
2
2
2
2
2
2
2
2
2
2
2
2
2
2
2
2
2
2
2
2
2
2
2
2
2
2
2
2
2
2
2
2
2
2
2
2
2
2
2
2
2
2
2
2
2
2
2
2
2
2
2
2
2
2
2
2
2
2
2
2
2
2
2
2
2
2
2
2
2
2
2
2
2
2
2
2
2
2
2
2
2
2
2
2
2
2
2
2
2
2
2
2
2
2
2
2
2
2
2
2
2
2
2
2
2
2
2
2
2
2
2
2
2
2
2
2
2
2
2
2
2
2
2
2
2
2
2
2
2
2
2
2
2
2
2
2
2
2
2
2
2
2
2
2
2
2
2
2
2
2
2
2
2
2
2
2
2
2
2
2
2
2
2
2
2
2
2
2
2
2
2
2
2
2
2
2
2
2
2
2
2
2
2
2
2
2
2
2
2
2
2
2
2
2
2
2
2
2
2
2
2
2
2
2
2
2
2
2
2
2
2
2
2
2
2
2
2
2
2
2
2
2
2
2
2
2
2
2
2
2
2
2
2
2
2
2
2
2
2
2
2
2
2
2
2
2
2
2
2
2
2
2
2
2
2
2
2
2
2
2
2
2
2
2
2
2
2
2
2
2
2
2
2
2
2
2
2
2
2
2
2
2
2
2
2
2
2
2
2
2
2
2
2
2
2
2
2
2
2
2
2
2
2
2
2
2
2
2
2
2
2
2
2
2
2
2
2
2
2
2
2
2
2
2
2
2
2
2
2
2
2
2
2
2
2
2
2
2
2
2
2
2
2
2
2
2
2
2
2
2
2
2
2
2
2
2
2
2
2
2
2
2
2
2
2
2
2
2
2
2
2
2
2
2
2
2
2
2
2
2
2
2
2
2
2
2
2
2
2
2
2
2
2
2
2
2
2
2
2
2
2
2
2
2
2
2
2
2
2
2
2
2
2
2
2
2
2
2
2
2
2
2
2
2
2
2
2
2
2
2
2
2
2
2
2
2
2
2
2
2
2
2
2
2
2
2
2
2
2
2
2
2
2
2
2
2
2
2
2
2
2
2
2
2
2
2
2
2
2
2
2
2
2
2
2
2
2
2
2
2
2
2
2
2
2
2
2
2
2
2
2
2
2
2
2
2
2
2
2
2
2
2
2
2
2
2
2
2
2
2
2
2
2
2
2
2
2
2
2
2
2
2
2
2
2
2
2
2
2
2
2
2
2
2
2
2
2
2
2
2
2
2
2
2
2
2
2
2
2
2
2
2
2
2
2
2
2
2
2
2
2
2
2
2
2
2
2
2
2
2
2
2
2
2
2
2
2
2
2
2
2
2
2
2
2
2
2
2
2
2
2
2
2
2
2
2
2
2
2
2
2
2
2
2
2
2
2
2
2
2
2
2
2
2
2
2
2
2
2
2
2
2
2
2
2
2
2
2
2
2
2
2
2
2
2
2
2
2
2
2
2
2
2
2
2
2
2
2
2
2
2
2
2
2
2
2
2
2
2
2
2
2
2
2
2
2
2
2
2
2
2
2
2
2
2
2
2
2
2
2
2
2
2
2
2
2
2
2
2
2
2
2
2
2
2
2
2
2
2
2
2
2
2
2
2
2
2
2
2
2
2
2
2
2
2
2
2
2
2
2
2
2
2
2
2
2
2
2
2
2
2
2
2
2
2
2
2
2
2
2
2
2
2
2
2
2
2
2
2
2
2
2
2
2
2
2
2
2
2
2
2
2
2
2
2
2
2
2
2
2
2
2
2
2
2
2
2
2
2
2
2
2
2
2
2
2
2
2
2
2
2
2
2
2
2
2
2
2
2
2
2
2
2
2
2
2
2
2
2
2
2
2
2
2
2
2
2
2
2
2
2
2
2
2
2
2
2
2
2
2
2
2
2
2
2
2
2
2
2
2
2
2
2
2
2
2
2
2
2
2
2
2
2
2
2
2
2
2
2
2
2
2
2
2
2
2
2
2
2
2
2
2
2
2
2
2
2
2
2
2
2
2
2
2
2
2
2
2
2
2
2
2
2
2
2
2
2
2
2
2
2
2
2
2
2
2
2
2
2
2
2
2
2
2
2
2
2
2
2
2
2
2
2
2
2
2
2
2
2
2
2
2
2
2
2
2
2
2
2
2
2
2
2
2
2
2
2
2
2
2
2
2
2
2
2
2
2
2
2
2
2
2
2
2
2
2
2
2
2
2
2
2
2
2
2
2
2
2
2
2
2
2
2
2
2
2
2
2
2
2
2
2
2
2
2
2
2
2
2
2
2
2
2
2
2
2
2
2
2
2
2
2
2
2
2
2
2
2
2
2
2
2
2
2
2
2
2
2
2
2
2
2
2
2
2
2
2
2
2
2
2
2
2
2
2
2
2
2
2
2
2
2
2
2
2
2
2
2
2
2
2
2
2
2
2
2
2
2
2
2
2
2
2
2
2
2
2
2
2
2
2
2
2
2
2
2
2
2
2
2
2
2
2
2
2
2
2
2
2
2
2
2
2
2
2
2
2
2
2
2
2
2
2
2
2
2
2
2
2
2
2
2
2
2
2
2
2
2
2
2
2
2
2
2
2
2
2
2
2
2
2
2
2
2
2
2
2
2
2
2
2
2
2
2
2
2
2
2
2
2
2
2
2
2
2
2
2
2
2
2
2
2
2
2
2
2
2
2
2
2
2
2
2
2
2
2
2
2
2
2
2
2
2
2
2
2
2
2
2
2
2
2
2
2
2
2
2
2
2
2
2
2
2
2
2
2
2
2
2
2
2
2
2
2
2
2
2
2
2
2
2
2
2
2
2
2
2
2
2
2
2
2
2
2
2
2
2
2
2
2
2
2
2
2
2
2
2
2
2
2
2
2
2
2
2
2
2
2
2
2
2
2
2
2
2
2
2
2
2
2
2
2
2
2
2
2
2
2
2
2
2
2
2
2
2
2
2
2
2
2
2
2
2
2
2
2
2
2
2
2
2
2
2
2
2
2
2
2
2
2
2
2
2
2
2
2
2
2
2
2
2
2
2
2
2
2
2
2
2
2
2
2
2
2
2
2
2
2
2
2
2
2
2
2
2
2
2
2
2
2
2
2
2
2
2
2
2
2
2
2
2
2
2
2
2
2
2
2
2
2
2
2
2
2
2
2
2
2
2
2
2
2
2
2
2
2
2
2
2
2
2
2
2
2
2
2
2
2
2
2
2
2
2
2
2
2
2
2
2
2
2
2
2
2
2
2
2
2
2
2
2
2
2
2
2
2
2
2
2
2
2
2
2
2
2
2
2
2
2
2
2
2
2
2
2
2
2
2
2
2
2
2
2
2
2
2
2
2
2
2
2
2
2
2
2
2
2
2
2
2
2
2
2
2
2
2
2
2
2
2
2
2
2
2
2
2
2
2
2
2
2
2
2
2
2
2
2
2
2
2
2
2
2
2
2
2
2
2
2
2
2
2
2
2
2
2
2
2
2
2
2
2
2
2
2
2
2
2
2
2
2
2
2
2
2
2
2
2
2
2
2
2
2
2
2
2
2
2
2
2
2
2
2
2
2
2
2
2
2
2
2
2
2
2
2
2
2
2
2
2
2
2
2
2
2
2
2
2
2
2
2
2
2
2
2
2
2
2
2
2
2
2
2
2
2
2
2
2
2
2
2
2
2
2
2
2
2
2
2
2
2
2
2
2
2
2
2
2
2
2
2
2
2
2
2
2
2
2
2
2
2
2
2
2
2
2
2
2
2
2
2
2
2
2
2
2
2
2
2
2
2
2
2
2
2
2
2
2
2
2
2
2
2
2
2
2
2
2
2
2
2
2
2
2
2
2
2
2
2
2
2
2
2
2
2
2
2
2
2
2
2
2
2
2
2
2
2
2
2
2
2
2
2
2
2
2
2
2
2
2
2
2
2
2
2
2
2
2
2
2
2
2
2
2
2
2
2
2
2
2
2
2
2
2
2
2
2
2
2
2
2
2
2
2
2
2
2
2
2
2
2
2
2
2
2
2
2
2
2
2
2
2
2
2
2
2
2
2
2
2
2
2
2
2
2
2
2
2
2
2
2
2
2
2
2
2
2
2
2
2
2
2
2
2
2
2
2
2
2
2
2
2
2
2
2
2
2
2
2
2
2
2
2
2
2
2
2
2
2
2
2
2
2
2
2
2
2
2
2
2
2
2
2
2
2
2
2
2
2
2
2
2
2
2
2
2
2
2
2
2
2
2
2
2
2
2
2
2
2
2
2
2
2
2
2
2
2
2
2
2
2
2
2
2
2
2
2
2
2
2
2
2
2
2
2
2
2
2
2
2
2
2
2
2
2
2
2
2
2
2
2
2
2
2
2
2
2
2
2
2
2
2
2
2
2
2
2
2
2
2
2
2
2
2
2
2
2
2
2
2
2
2
2
2
2
2
2
2
2
2
2
2
2
2
2
2
2
2
2
2
2
2
2
2
2
2
2
2
2
2
2
2
2
2
2
2
2
2
2
2
2
2
2
2
2
2
2
2
2
2
2
2
2
2
2
2
2
2
2
2
2
2
2
2
2
2
2
2
2
2
2
2
2
2
2
2
2
2
2
2
2
2
2
2
2
2
2
2
2
2
2
2
2
2
2
2
2
2
2
2
2
2
2
2
2
2
2
2
2
2
2
2
2
2
2
2
2
2
2
2
2
2
2
2
2
2
2
2
2
2
2
2
2
2
2
2
2
2
2
2
2
2
2
2
2
2
2
2
2
2
2
2
2
2
2
2
2
2
2
2
2
2
2
2
2
2
2
2
2
2
2
2
2
2
2
2
2
2
2
2
2
2
2
2
2
2
2
2
2
2
2
2
2
2
2
2
2
2
2
2
2
2
2
2
2
2
2
2
2
2
2
2
2
2
2
2
2
2
2
2
2
2
2
2
2
2
2
2
2
2
2
2
2
2
2
2
2
2
2
2
2
2
2
2
2
2
2
2
2
2
2
2
2
2
2
2
2
2
2
2
2
2
2
2
2
2
2
2
2
2
2
2
2
2
2
2
2
2
2
2
2
2
2
2
2
2
2
2
2
2
2
2
2
2
2
2
2
2
2
2
2
2
2
2
2
2
2
2
2
2
2
2
2
2
2
2
2
2
2
2
2
2
2
2
2
2
2
2
2
2
2
2
2
2
2
2
2
2
2
2
2
2
2
2
2
2
2
2
2
2
2
2
2
2
2
2
2
2
2
2
2
2
2
2
2
2
2
2
2
2
2
2
2
2
2
2
2
2
2
2
2
2
2
2
2
2
2
2
2
2
2
2
2
2
2
2
2
2
2
2
2
2
2
2
2
2
2
2
2
2
2
2
2
2
2
2
2
2
2
2
2
2
2
2
2
2
2
2
2
2
2
2
2
2
2
2
2
2
2
2
2
2
2
2
2
2
2
2
2
2
2
2
2
2
2
2
2
2
2
2
2
2
2
2
2
2
2
2
2
2
2
2
2
2
2
2
2
2
2
2
2
2
2
2
2
2
2
2
2
2
2
2
2
2
2
2
2
2
2
2
2
2
2
2
2
2
2
2
2
2
2
2
2
2
2
2
2
2
2
2
2
2
2
2
2
2
2
2
2
2
2
2
2
2
2
2
2
2
2
2
2
2
2
2
2
2
2
2
2
2
2
2
2
2
2
2
2
2
2
2
2
2
2
2
2
2
2
2
2
2
2
2
2
2
2
2
2
2
2
2
2
2
2
2
2
2
2
2
2
2
2
2
2
2
2
2
2
2
2
2
2
2
2
2
2
2
2
2
2
2
2
2
2
2
2
2
2
2
2
2
2
2
2
2
2
2
2
2
2
2
2
2
2
2
2
2
2
2
2
2
2
2
2
2
2
2
2
2
2
2
2
2
2
2
2
2
2
2
2
2
2
2
2
2
2
2
2
2
2
2
2
2
2
2
2
2
2
2
2
2
2
2
2
2
2
2
2
2
2
2
2
2
2
2
2
2
2
2
2
2
2
2
2
2
2
2
2
2
2
2
2
2
2
2
2
2
2
2
2
2
2
2
2
2
2
2
2
2
2
2
2
2
2
2
2
2
2
2
2
2
2
2
2
2
2
2
2
2
2
2
2
2
2
2
2
2
2
2
2
2
2
2
2
2
2
2
2
2
2
2
2
2
2
2
2
2
2
2
2
2
2
2
2
2
2
2
2
2
2
2
2
2
2
2
2
2
2
2
2
2
2
2
2
2
2
2
2
2
2
2
2
2
2
2
2
2
2
2
2
2
2
2
2
2
2
2
2
2
2
2
2
2
2
2
2
2
2
2
2
2
2
2
2
2
2
2
2
2
2
2
2
2
2
2
2
2
2
2
2
2
2
2
2
2
2
2
2
2
2
2
2
2
2
2
2
2
2
2
2
2
2
2
2
2
2
2
2
2
2
2
2
2
2
2
2
2
2
2
2
2
2
2
2
2
2
2
2
2
2
2
2
2
2
2
2
2
2
2
2
2
2
2
2
2
2
2
2
2
2
2
2
2
2
2
2
2
2
2
2
2
2
2
2
2
2
2
2
2
2
2
2
2
2
2
2
2
2
2
2
2
2
2
2
2
2
2
2
2
2
2
2
2
2
2
2
2
2
2
2
2
2
2
2
2
2
2
2
2
2
2
2
2
2
2
2
2
2
2
2
2
2
2
2
2
2
2
2
2
2
2
2
2
2
2
2
2
2
2
2
2
2
2
2
2
2
2
2
2
2
2
2
2
2
2
2
2
2
2
2
2
2
2
2
2
2
2
2
2
2
2
2
2
2
2
2
2
2
2
2
2
2
2
2
2
2
2
2
2
2
2
2
2
2
2
2
2
2
2
2
2
2
2
2
2
2
2
2
2
2
2
2
2
2
2
2
2
2
2
2
2
2
2
2
2
2
2
2
2
2
2
2
2
2
2
2
2
2
2
2
2
2
2
2
2
2
2
2
2
2
2
2
2
2
2
2
2
2
2
2
2
2
2
2
2
2
2
2
2
2
2
2
2
2
2
2
2
2
2
2
2
2
2
2
2
2
2
2
2
2
2
2
2
2
2
2
2
2
2
2
2
2
2
2
2
2
2
2
2
2
2
2
2
2
2
2
2
2
2
2
2
2
2
2
2
2
2
2
2
2
2
2
2
2
2
2
2
2
2
2
2
2
2
2
2
2
2
2
2
2
2
2
2
2
2
2
2
2
2
2
2
2
2
2
2
2
2
2
2
2
2
2
2
2
2
2
2
2
2
2
2
2
2
2
2
2
2
2
2
2
2
2
2
2
2
2
2
2
2
2
2
2
2
2
2
2
2
2
2
2
2
2
2
2
2
2
2
2
2
2
2
2
2
2
2
2
2
2
2
2
2
2
2
2
2
2
2
2
2
2
2
2
2
2
2
2
2
2
2
2
2
2
2
2
2
2
2
2
2
2
2
2
2
2
2
2
2
2
2
2
2
2
2
2
2
2
2
2
2
2
2
2
2
2
2
2
2
2
2
2
2
2
2
2
2
2
2
2
2
2
2
2
2
2
2
2
2
2
2
2
2
2
2
2
2
2
2
2
2
2
2
2
2
2
2
2
2
2
2
2
2
2
2
2
2
2
2
2
2
2
2
2
2
2
2
2
2
2
2
2
2
2
2
2
2
2
2
2
2
2
2
2
2
2
2
2
2
2
2
2
2
2
2
2
2
2
2
2
2
2
2
2
2
2
2
2
2
2
2
2
2
2
2
2
2
2
2
2
2
2
2
2
2
2
2
2
2
2
2
2
2
2
2
2
2
2
2
2
2
2
2
2
2
2
2
2
2
2
2
2
2
2
2
2
2
2
2
2
2
2
2
2
2
2
2
2
2
2
2
2
2
2
2
2
2
2
2
2
2
2
2
2
2
2
2
2
2
2
2
2
2
2
2
2
2
2
2
2
2
2
2
2
2
2
2
2
2
2
2
2
2
2
2
2
2
2
2
2
2
2
2
2
2
2
2
2
2
2
2
2
2
2
2
2
2
2
2
2
2
2
2
2
2
2
2
2
2
2
2
2
2
2
2
2
2
2
2
2
2
2
2
2
2
2
2
2
2
2
2
2
2
2
2
2
2
2
2
2
2
2
2
2
2
2
2
2
2
2
2
2
2
2
2
2
2
2
2
2
2
2
2
2
2
2
2
2
2
2
2
2
2
2
2
2
2
2
2
2
2
2
2
2
2
2
2
2
2
2
2
2
2
2
2
2
2
2
2
2
2
2
2
2
2
2
2
2
2
2
2
2
2
2
2
2
2
2
2
2
2
2
2
2
2
2
2
2
2
2
2
2
2
2
2
2
2
2
2
2
2
2
2
2
2
2
2
2
2
2
2
2
2
2
2
2
2
2
2
2
2
2
2
2
2
2
2
2
2
2
2
2
2
2
2
2
2
2
2
2
2
2
2
2
2
2
2
2
2
2
2
2
2
2
2
2
2
2
2
2
2
2
2
2
2
2
2
2
2
2
2
2
2
2
2
2
2
2
2
2
2
2
2
2
2
2
2
2
2
2
2
2
2
2
2
2
2
2
2
2
2
2
2
2
2
2
2
2
2
2
2
2
2
2
2
2
2
2
2
2
2
2
2
2
2
2
2
2
2
2
2
2
2
2
2
2
2
2
2
2
2
2
2
2
2
2
2
2
2
2
2
2
2
2
2
2
2
2
2
2
2
2
2
2
2
2
2
2
2
2
2
2
2
2
2
2
2
2
2
2
2
2
2
2
2
2
2
2
2
2
2
2
2
2
2
2
2
2
2
2
2
2
2
2
2
2
2
2
2
2
2
2
2
2
2
2
2
2
2
2
2
2
2
2
2
2
2
2
2
2
2
2
2
2
2
2
2
2
2
2
2
2
2
2
2
2
2
2
2
2
2
2
2
2
2
2
2
2
2
2
2
2
2
2
2
2
2
2
2
2
2
2
2
2
2
2
2
2
2
2
2
2
2
2
2
2
2
2
2
2
2
2
2
2
2
2
2
2
2
2
2
2
2
2
2
2
2
2
2
2
2
2
2
2
2
2
2
2
2
2
2
2
2
2
2
2
2
2
2
2
2
2
2
2
2
2
2
2
2
2
2
2
2
2
2
2
2
2
2
2
2
2
2
2
2
2
2
2
2
2
2
2
2
2
2
2
2
2
2
2
2
2
2
2
2
2
2
2
2
2
2
2
2
2
2
2
2
2
2
2
2
2
2
2
2
2
2
2
2
2
2
2
2
2
2
2
2
2
2
2
2
2
2
2
2
2
2
2
2
2
2
2
2
2
2
2
2
2
2
2
2
2
2
2
2
2
2
2
2
2
2
2
2
2
2
2
2
2
2
2
2
2
2
2
2
2
2
2
2
2
2
2
2
2
2
2
2
2
2
2
2
2
2
2
2
2
2
2
2
2
2
2
2
2
2
2
2
2
2
2
2
2
2
2
2
2
2
2
2
2
2
2
2
2
2
2
2
2
2
2
2
2
2
2
2
2
2
2
2
2
2
2
2
2
2
2
2
2
2
2
2
2
2
2
2
2
2
2
2
2
2
2
2
2
2
2
2
2
2
2
2
2
2
2
2
2
2
2
2
2
2
2
2
2
2
2
2
2
2
2
2
2
2
2
2
2
2
2
2
2
2
2
2
2
2
2
2
2
2
2
2
2
2
2
2
2
2
2
2
2
2
2
2
2
2
2
2
2
2
2
2
2
2
2
2
2
2
2
2
2
2
2
2
2
2
2
2
2
2
2
2
2
2
2
2
2
2
2
2
2
2
2
2
2
2
2
2
2
2
2
2
2
2
2
2
2
2
2
2
2
2
2
2
2
2
2
2
2
2
2
2
2
2
2
2
2
2
2
2
2
2
2
2
2
2
2
2
2
2
2
2
2
2
2
2
2
2
2
2
2
2
2
2
2
2
2
2
2
2
2
2
2
2
2
2
2
2
2
2
2
2
2
2
2
2
2
2
2
2
2
2
2
2
2
2
2
2
2
2
2
2
2
2
2
2
2
2
2
2
2
2
2
2
2
2
2
2
2
2
2
2
2
2
2
2
2
2
2
2
2
2
2
2
2
2
2
2
2
2
2
2
2
2
2
2
2
2
2
2
2
2
2
2
2
2
2
2
2
2
2
2
2
2
2
2
2
2
2
2
2
2
2
2
2
2
2
2
2
2
2
2
2
2
2
2
2
2
2
2
2
2
2
2
2
2
2
2
2
2
2
2
2
2
2
2
2
2
2
2
2
2
2
2
2
2
2
2
2
2
2
2
2
2
2
2
2
2
2
2
2
2
2
2
2
2
2
2
2
2
2
2
2
2
2
2
2
2
2
2
2
2
2
2
2
2
2
2
2
2
2
2
2
2
2
2
2
2
2
2
2
2
2
2
2
2
2
2
2
2
2
2
2
2
2
2
2
2
2
2
2
2
2
2
2
2
2
2
2
2
2
2
2
2
2
2
2
2
2
2
2
2
2
2
2
2
2
2
2
2
2
2
2
2
2
2
2
2
2
2
2
2
2
2
2
2
2
2
2
2
2
2
2
2
2
2
2
2
2
2
2
2
2
2
2
2
2
2
2
2
2
2
2
2
2
2
2
2
2
2
2
2
2
2
2
2
2
2
2
2
2
2
2
2
2
2
2
2
2
2
2
2
2
2
2
2
2
2
2
2
2
2
2
2
2
2
2
2
2
2
2
2
2
2
2
2
2
2
2
2
2
2
2
2
2
2
2
2
2
2
2
2
2
2
2
2
2
2
2
2
2
2
2
2
2
2
2
2
2
2
2
2
2
2
2
2
2
2
2
2
2
2
2
2
2
2
2
2
2
2
2
2
2
2
2
2
2
2
2
2
2
2
2
2
2
2
2
2
2
2
2
2
2
2
2
2
2
2
2
2
2
2
2
2
2
2
2
2
2
2
2
2
2
2
2
2
2
2
2
2
2
2
2
2
2
2
2
2
2
2
2
2
2
2
2
2
2
2
2
2
2
2
2
2
2
2
2
2
2
2
2
2
2
2
2
2
2
2
2
2
2
2
2
2
2
2
2
2
2
2
2
2
2
2
2
2
2
2
2
2
2
2
2
2
2
2
2
2
2
2
2
2
2
2
2
2
2
2
2
2
2
2
2
2
2
2
2
2
2
2
2
2
2
2
2
2
2
2
2
2
2
2
2
2
2
2
2
2
2
2
2
2
2
2
2
2
2
2
2
2
2
2
2
2
2
2
2
2
2
2
2
2
2
2
2
2
2
2
2
2
2
2
2
2
2
2
2
2
2
2
2
2
2
2
2
2
2
2
2
2
2
2
2
2
2
2
2
2
2
2
2
2
2
2
2
2
2
2
2
2
2
2
2
2
2
2
2
2
2
2
2
2
2
2
2
2
2
2
2
2
2
2
2
2
2
2
2
2
2
2
2
2
2
2
2
2
2
2
2
2
2
2
2
2
2
2
2
2
2
2
2
2
2
2
2
2
2
2
2
2
2
2
2
2
2
2
2
2
2
2
2
2
2
2
2
2
2
2
2
2
2
2
2
2
2
2
2
2
2
2
2
2
2
2
2
2
2
2
2
2
2
2
2
2
2
2
2
2
2
2
2
2
2
2
2
2
2
2
2
2
2
2
2
2
2
2
2
2
2
2
2
2
2
2
2
2
2
2
2
2
2
2
2
2
2
2
2
2
2
2
2
2
2
2
2
2
2
2
2
2
2
2
2
2
2
2
2
2
2
2
2
2
2
2
2
2
2
2
2
2
2
2
2
2
2
2
2
2
2
2
2
2
2
2
2
2
2
2
2
2
2
2
2
2
2
2
2
2
2
2
2
2
2
2
2
2
2
2
2
2
2
2
2
2
2
2
2
2
2
2
2
2
2
2
2
2
2
2
2
2
2
2
2
2
2
2
2
2
2
2
2
2
2
2
2
2
2
2
2
2
2
2
2
2
2
2
2
2
2
2
2
2
2
2
2
2
2
2
2
2
2
2
2
2
2
2
2
2
2
2
2
2
2
2
2
2
2
2
2
2
2
2
2
2
2
2
2
2
2
2
2
2
2
2
2
2
2
2
2
2
2
2
2
2
2
2
2
2
2
2
2
2
2
2
2
2
2
2
2
2
2
2
2
2
2
2
2
2
2
2
2
2
2
2
2
2
2
2
2
2
2
2
2
2
2
2
2
2
2
2
2
2
2
2
2
2
2
2
2
2
2
2
2
2
2
2
2
2
2
2
2
2
2
2
2
2
2
2
2
2
2
2
2
2
2
2
2
2
2
2
2
2
2
2
2
2
2
2
2
2
2
2
2
2
2
2
2
2
2
2
2
2
2
2
2
2
2
2
2
2
2
2
2
2
2
2
2
2
2
2
2
2
2
2
2
2
2
2
2
2
2
2
2
2
2
2
2
2
2
2
2
2
2
2
2
2
2
2
2
2
2
2
2
2
2
2
2
2
2
2
2
2
2
2
2
2
2
2
2
2
2
2
2
2
2
2
2
2
2
2
2
2
2
2
2
2
2
2
2
2
2
2
2
2
2
2
2
2
2
2
2
2
2
2
2
2
2
2
2
2
2
2
2
2
2
2
2
2
2
2
2
2
2
2
2
2
2
2
2
2
2
2
2
2
2
2
2
2
2
2
2
2
2
2
2
2
2
2
2
2
2
2
2
2
2
2
2
2
2
2
2
2
2
2
2
2
2
2
2
2
2
2
2
2
2
2
2
2
2
2
2
2
2
2
2
2
2
2
2
2
2
2
2
2
2
2
2
2
2
2
2
2
2
2
2
2
2
2
2
2
2
2
2
2
2
2
2
2
2
2
2
2
2
2
2
2
2
2
2
2
2
2
2
2
2
2
2
2
2
2
2
2
2
2
2
2
2
2
2
2
2
2
2
2
2
2
2
2
2
2
2
2
2
2
2
2
2
2
2
2
2
2
2
2
2
2
2
2
2
2
2
2
2
2
2
2
2
2
2
2
2
2
2
2
2
2
2
2
2
2
2
2
2
2
2
2
2
2
2
2
2
2
2
2
2
2
2
2
2
2
2
2
2
2
2
2
2
2
2
2
2
2
2
2
2
2
2
2
2
2
2
2
2
2
2
2
2
2
2
2
2
2
2
2
2
2
2
2
2
2
2
2
2
2
2
2
2
2
2
2
2
2
2
2
2
2
2
2
2
2
2
2
2
2
2
2
2
2
2
2
2
2
2
2
2
2
2
2
2
2
2
2
2
2
2
2
2
2
2
2
2
2
2
2
2
2
2
2
2
2
2
2
2
2
2
2
2
2
2
2
2
2
2
2
2
2
2
2
2
2
2
2
2
2
2
2
2
2
2
2
2
2
2
2
2
2
2
2
2
2
2
2
2
2
2
2
2
2
2
2
2
2
2
2
2
2
2
2
2
2
2
2
2
2
2
2
2
2
2
2
2
2
2
2
2
2
2
2
2
2
2
2
2
2
2
2
2
2
2
2
2
2
2
2
2
2
2
2
2
2
2
2
2
2
2
2
2
2
2
2
2
2
2
2
2
2
2
2
2
2
2
2
2
2
2
2
2
2
2
2
2
2
2
2
2
2
2
2
2
2
2
2
2
2
2
2
2
2
2
2
2
2
2
2
2
2
2
2
2
2
2
2
2
2
2
2
2
2
2
2
2
2
2
2
2
2
2
2
2
2
2
2
2
2
2
2
2
2
2
2
2
2
2
2
2
2
2
2
2
2
2
2
2
2
2
2
2
2
2
2
2
2
2
2
2
2
2
2
2
2
2
2
2
2
2
2
2
2
2
2
2
2
2
2
2
2
2
2
2
2
2
2
2
2
2
2
2
2
2
2
2
2
2
2
2
2
2
2
2
2
2
2
2
2
2
2
2
2
2
2
2
2
2
2
2
2
2
2
2
2
2
2
2
2
2
2
2
2
2
2
2
2
2
2
2
2
2
2
2
2
2
2
2
2
2
2
2
2
2
2
2
2
2
2
2
2
2
2
2
2
2
2
2
2
2
2
2
2
2
2
2
2
2
2
2
2
2
2
2
2
2
2
2
2
2
2
2
2
2
2
2
2
2
2
2
2
2
2
2
2
2
2
2
2
2
2
2
2
2
2
2
2
2
2
2
2
2
2
2
2
2
2
2
2
2
2
2
2
2
2
2
2
2
2
2
2
2
2
2
2
2
2
2
2
2
2
2
2
2
2
2
2
2
2
2
2
2
2
2
2
2
2
2
2
2
2
2
2
2
2
2
2
2
2
2
2
2
2
2
2
2
2
2
2
2
2
2
2
2
2
2
2
2
2
2
2
2
2
2
2
2
2
2
2
2
2
2
2
2
2
2
2
2
2
2
2
2
2
2
2
2
2
2
2
2
2
2
2
2
2
2
2
2
2
2
2
2
2
2
2
2
2
2
2
2
2
2
2
2
2
2
2
2
2
2
2
2
2
2
2
2
2
2
2
2
2
2
2
2
2
2
2
2
2
2
2
2
2
2
2
2
2
2
2
2
2
2
2
2
2
2
2
2
2
2
2
2
2
2
2
2
2
2
2
2
2
2
2
2
2
2
2
2
2
2
2
2
2
2
2
2
2
2
2
2
2
2
2
2
2
2
2
2
2
2
2
2
2
2
2
2
2
2
2
2
2
2
2
2
2
2
2
2
2
2
2
2
2
2
2
2
2
2
2
2
2
2
2
2
2
2
2
2
2
2
2
2
2
2
2
2
2
2
2
2
2
2
2
2
2
2
2
2
2
2
2
2
2
2
2
2
2
2
2
2
2
2
2
2
2
2
2
2
2
2
2
2
2
2
2
2
2
2
2
2
2
2
2
2
2
2
2
2
2
2
2
2
2
2
2
2
2
2
2
2
2
2
2
2
2
2
2
2
2
2
2
2
2
2
2
2
2
2
2
2
2
2
2
2
2
2
2
2
2
2
2
2
2
2
2
2
2
2
2
2
2
2
2
2
2
2
2
2
2
2
2
2
2
2
2
2
2
2
2
2
2
2
2
2
2
2
2
2
2
2
2
2
2
2
2
2
2
2
2
2
2
2
2
2
2
2
2
2
2
2
2
2
2
2
2
2
2
2
2
2
2
2
2
2
2
2
2
2
2
2
2
2
2
2
2
2
2
2
2
2
2
2
2
2
2
2
2
2
2
2
2
2
2
2
2
2
2
2
2
2
2
2
2
2
2
2
2
2
2
2
2
2
2
2
2
2
2
2
2
2
2
2
2
2
2
2
2
2
2
2
2
2
2
2
2
2
2
2
2
2
2
2
2
2
2
2
2
2
2
2
2
2
2
2
2
2
2
2
2
2
2
2
2
2
2
2
2
2
2
2
2
2
2
2
2
2
2
2
2
2
2
2
2
2
2
2
2
2
2
2
2
2
2
2
2
2
2
2
2
2
2
2
2
2
2
2
2
2
2
2
2
2
2
2
2
2
2
2
2
2
2
2
2
2
2
2
2
2
2
2
2
2
2
2
2
2
2
2
2
2
2
2
2
2
2
2
2
2
2
2
2
2
2
2
2
2
2
2
2
2
2
2
2
2
2
2
2
2
2
2
2
2
2
2
2
2
2
2
2
2
2
2
2
2
2
2
2
2
2
2
2
2
2
2
2
2
2
2
2
2
2
2
2
2
2
2
2
2
2
2
2
2
2
2
2
2
2
2
2
2
2
2
2
2
2
2
2
2
2
2
2
2
2
2
2
2
2
2
2
2
2
2
2
2
2
2
2
2
2
2
2
2
2
2
2
2
2
2
2
2
2
2
2
2
2
2
2
2
2
2
2
2
2
2
2
2
2
2
2
2
2
2
2
2
2
2
2
2
2
2
2
2
2
2
2
2
2
2
2
2
2
2
2
2
2
2
2
2
2
2
2
2
2
2
2
2
2
2
2
2
2
2
2
2
2
2
2
2
2
2
2
2
2
2
2
2
2
2
2
2
2
2
2
2
2
2
2
2
2
2
2
2
2
2
2
2
2
2
2
2
2
2
2
2
2
2
2
2
2
2
2
2
2
2
2
2
2
2
2
2
2
2
2
2
2
2
2
2
2
2
2
2
2
2
2
2
2
2
2
2
2
2
2
2
2
2
2
2
2
2
2
2
2
2
2
2
2
2
2
2
2
2
2
2
2
2
2
2
2
2
2
2
2
2
2
2
2
2
2
2
2
2
2
2
2
2
2
2
2
2
2
2
2
2
2
2
2
2
2
2
2
2
2
2
2
2
2
2
2
2
2
2
2
2
2
2
2
2
2
2
2
2
2
2
2
2
2
2
2
2
2
2
2
2
2
2
2
2
2
2
2
2
2
2
2
2
2
2
2
2
2
2
2
2
2
2
2
2
2
2
2
2
2
2
2
2
2
2
2
2
2
2
2
2
2
2
2
2
2
2
2
2
2
2
2
2
2
2
2
2
2
2
2
2
2
2
2
2
2
2
2
2
2
2
2
2
2
2
2
2
2
2
2
2
2
2
2
2
2
2
2
2
2
2
2
2
2
2
2
2
2
2
2
2
2
2
2
2
2
2
2
2
2
2
2
2
2
2
2
2
2
2
2
2
2
2
2
2
2
2
2
2
2
2
2
2
2
2
2
2
2
2
2
2
2
2
2
2
2
2
2
2
2
2
2
2
2
2
2
2
2
2
2
2
2
2
2
2
2
2
2
2
2
2
2
2
2
2
2
2
2
2
2
2
2
2
2
2
2
2
2
2
2
2
2
2
2
2
2
2
2
2
2
2
2
2
2
2
2
2
2
2
2
2
2
2
2
2
2
2
2
2
2
2
2
2
2
2
2
2
2
2
2
2
2
2
2
2
2
2
2
2
2
2
2
2
2
2
2
2
2
2
2
2
2
2
2
2
2
2
2
2
2
2
2
2
2
2
2
2
2
2
2
2
2
2
2
2
2
2
2
2
2
2
2
2
2
2
2
2
2
2
2
2
2
2
2
2
2
2
2
2
2
2
2
2
2
2
2
2
2
2
2
2
2
2
2
2
2
2
2
2
2
2
2
2
2
2
2
2
2
2
2
2
2
2
2
2
2
2
2
2
2
2
2
2
2
2
2
2
2
2
2
2
2
2
2
2
2
2
2
2
2
2
2
2
2
2
2
2
2
2
2
2
2
2
2
2
2
2
2
2
2
2
2
2
2
2
2
2
2
2
2
2
2
2
2
2
2
2
2
2
2
2
2
2
2
2
2
2
2
2
2
2
2
2
2
2
2
2
2
2
2
2
2
2
2
2
2
2
2
2
2
2
2
2
2
2
2
2
2
2
2
2
2
2
2
2
2
2
2
2
2
2
2
2
2
2
2
2
2
2
2
2
2
2
2
2
2
2
2
2
2
2
2
2
2
2
2
2
2
2
2
2
2
2
2
2
2
2
2
2
2
2
2
2
2
2
2
2
2
2
2
2
2
2
2
2
2
2
2
2
2
2
2
2
2
2
2
2
2
2
2
2
2
2
2
2
2
2
2
2
2
2
2
2
2
2
2
2
2
2
2
2
2
2
2
2
2
2
2
2
2
2
2
2
2
2
2
2
2
2
2
2
2
2
2
2
2
2
2
2
2
2
2
2
2
2
2
2
2
2
2
2
2
2
2
2
2
2
2
2
2
2
2
2
2
2
2
2
2
2
2
2
2
2
2
2
2
2
2
2
2
2
2
2
2
2
2
2
2
2
2
2
2
2
2
2
2
2
2
2
2
2
2
2
2
2
2
2
2
2
2
2
2
2
2
2
2
2
2
2
2
2
2
2
2
2
2
2
2
2
2
2
2
2
2
2
2
2
2
2
2
2
2
2
2
2
2
2
2
2
2
2
2
2
2
2
2
2
2
2
2
2
2
2
2
2
2
2
2
2
2
2
2
2
2
2
2
2
2
2
2
2
2
2
2
2
2
2
2
2
2
2
2
2
2
2
2
2
2
2
2
2
2
2
2
2
2
2
2
2
2
2
2
2
2
2
2
2
2
2
2
2
2
2
2
2
2
2
2
2
2
2
2
2
2
2
2
2
2
2
2
2
2
2
2
2
2
2
2
2
2
2
2
2
2
2
2
2
2
2
2
2
2
2
2
2
2
2
2
2
2
2
2
2
2
2
2
2
2
2
2
2
2
2
2
2
2
2
2
2
2
2
2
2
2
2
2
2
2
2
2
2
2
2
2
2
2
2
2
2
2
2
2
2
2
2
2
2
2
2
2
2
2
2
2
2
2
2
2
2
2
2
2
2
2
2
2
2
2
2
2
2
2
2
2
2
2
2
2
2
2
2
2
2
2
2
2
2
2
2
2
2
2
2
2
2
2
2
2
2
2
2
2
2
2
2
2
2
2
2
2
2
2
2
2
2
2
2
2
2
2
2
2
2
2
2
2
2
2
2
2
2
2
2
2
2
2
2
2
2
2
2
2
2
2
2
2
2
2
2
2
2
2
2
2
2
2
2
2
2
2
2
2
2
2
2
2
2
2
2
2
2
2
2
2
2
2
2
2
2
2
2
2
2
2
2
2
2
2
2
2
2
2
2
2
2
2
2
2
2
2
2
2
2
2
2
2
2
2
2
2
2
2
2
2
2
2
2
2
2
2
2
2
2
2
2
2
2
2
2
2
2
2
2
2
2
2
2
2
2
2
2
2
2
2
2
2
2
2
2
2
2
2
2
2
2
2
2
2
2
2
2
2
2
2
2
2
2
2
2
2
2
2
2
2
2
2
2
2
2
2
2
2
2
2
2
2
2
2
2
2
2
2
2
2
2
2
2
2
2
2
2
2
2
2
2
2
2
2
2
2
2
2
2
2
2
2
2
2
2
2
2
2
2
2
2
2
2
2
2
2
2
2
2
2
2
2
2
2
2
2
2
2
2
2
2
2
2
2
2
2
2
2
2
2
2
2
2
2
2
2
2
2
2
2
2
2
2
2
2
2
2
2
2
2
2
2
2
2
2
2
2
2
2
2
2
2
2
2
2
2
2
2
2
2
2
2
2
2
2
2
2
2
2
2
2
2
2
2
2
2
2
2
2
2
2
2
2
2
2
2
2
2
2
2
2
2
2
2
2
2
2
2
2
2
2
2
2
2
2
2
2
2
2
2
2
2
2
2
2
2
2
2
2
2
2
2
2
2
2
2
2
2
2
2
2
2
2
2
2
2
2
2
2
2
2
2
2
2
2
2
2
2
2
2
2
2
2
2
2
2
2
2
2
2
2
2
2
2
2
2
2
2
2
2
2
2
2
2
2
2
2
2
2
2
2
2
2
2
2
2
2
2
2
2
2
2
2
2
2
2
2
2
2
2
2
2
2
2
2
2
2
2
2
2
2
2
2
2
2
2
2
2
2
2
2
2
2
2
2
2
2
2
2
2
2
2
2
2
2
2
2
2
2
2
2
2
2
2
2
2
2
2
2
2
2
2
2
2
2
2
2
2
2
2
2
2
2
2
2
2
2
2
2
2
2
2
2
2
2
2
2
2
2
2
2
2
2
2
2
2
2
2
2
2
2
2
2
2
2
2
2
2
2
2
2
2
2
2
2
2
2
2
2
2
2
2
2
2
2
2
2
2
2
2
2
2
2
2
2
2
2
2
2
2
2
2
2
2
2
2
2
2
2
2
2
2
2
2
2
2
2
2
2
2
2
2
2
2
2
2
2
2
2
2
2
2
2
2
2
2
2
2
2
2
2
2
2
2
2
2
2
2
2
2
2
2
2
2
2
2
2
2
2
2
2
2
2
2
2
2
2
2
2
2
2
2
2
2
2
2
2
2
2
2
2
2
2
2
2
2
2
2
2
2
2
2
2
2
2
2
2
2
2
2
2
2
2
2
2
2
2
2
2
2
2
2
2
2
2
2
2
2
2
2
2
2
2
2
2
2
2
2
2
2
2
2
2
2
2
2
2
2
2
2
2
2
2
2
2
2
2
2
2
2
2
2
2
2
2
2
2
2
2
2
2
2
2
2
2
2
2
2
2
2
2
2
2
2
2
2
2
2
2
2
2
2
2
2
2
2
2
2
2
2
2
2
2
2
2
2
2
2
2
2
2
2
2
2
2
2
2
2
2
2
2
2
2
2
2
2
2
2
2
2
2
2
2
2
2
2
2
2
2
2
2
2
2
2
2
2
2
2
2
2
2
2
2
2
2
2
2
2
2
2
2
2
2
2
2
2
2
2
2
2
2
2
2
2
2
2
2
2
2
2
2
2
2
2
2
2
2
2
2
2
2
2
2
2
2
2
2
2
2
2
2
2
2
2
2
2
2
2
2
2
2
2
2
2
2
2
2
2
2
2
2
2
2
2
2
2
2
2
2
2
2
2
2
2
2
2
2
2
2
2
2
2
2
2
2
2
2
2
2
2
2
2
2
2
2
2
2
2
2
2
2
2
2
2
2
2
2
2
2
2
2
2
2
2
2
2
2
2
2
2
2
2
2
2
2
2
2
2
2
2
2
2
2
2
2
2
2
2
2
2
2
2
2
2
2
2
2
2
2
2
2
2
2
2
2
2
2
2
2
2
2
2
2
2
2
2
2
2
2
2
2
2
2
2
2
2
2
2
2
2
2
2
2
2
2
2
2
2
2
2
2
2
2
2
2
2
2
2
2
2
2
2
2
2
2
2
2
2
2
2
2
2
2
2
2
2
2
2
2
2
2
2
2
2
2
2
2
2
2
2
2
2
2
2
2
2
2
2
2
2
2
2
2
2
2
2
2
2
2
2
2
2
2
2
2
2
2
2
2
2
2
2
2
2
2
2
2
2
2
2
2
2
2
2
2
2
2
2
2
2
2
2
2
2
2
2
2
2
2
2
2
2
2
2
2
2
2
2
2
2
2
2
2
2
2
2
2
2
2
2
2
2
2
2
2
2
2
2
2
2
2
2
2
2
2
2
2
2
2
2
2
2
2
2
2
2
2
2
2
2
2
2
2
2
2
2
2
2
2
2
2
2
2
2
2
2
2
2
2
2
2
2
2
2
2
2
2
2
2
2
2
2
2
2
2
2
2
2
2
2
2
2
2
2
2
2
2
2
2
2
2
2
2
2
2
2
2
2
2
2
2
2
2
2
2
2
2
2
2
2
2
2
2
2
2
2
2
2
2
2
2
2
2
2
2
2
2
2
2
2
2
2
2
2
2
2
2
2
2
2
2
2
2
2
2
2
2
2
2
2
2
2
2
2
2
2
2
2
2
2
2
2
2
2
2
2
2
2
2
2
2
2
2
2
2
2
2
2
2
2
2
2
2
2
2
2
2
2
2
2
2
2
2
2
2
2
2
2
2
2
2
2
2
2
2
2
2
2
2
2
2
2
2
2
2
2
2
2
2
2
2
2
2
2
2
2
2
2
2
2
2
2
2
2
2
2
2
2
2
2
2
2
2
2
2
2
2
2
2
2
2
2
2
2
2
2
2
2
2
2
2
2
2
2
2
2
2
2
2
2
2
2
2
2
2
2
2
2
2
2
2
2
2
2
2
2
2
2
2
2
2
2
2
2
2
2
2
2
2
2
2
2
2
2
2
2
2
2
2
2
2
2
2
2
2
2
2
2
2
2
2
2
2
2
2
2
2
2
2
2
2
2
2
2
2
2
2
2
2
2
2
2
2
2
2
2
2
2
2
2
2
2
2
2
2
2
2
2
2
2
2
2
2
2
2
2
2
2
2
2
2
2
2
2
2
2
2
2
2
2
2
2
2
2
2
2
2
2
2
2
2
2
2
2
2
2
2
2
2
2
2
2
2
2
2
2
2
2
2
2
2
2
2
2
2
2
2
2
2
2
2
2
2
2
2
2
2
2
2
2
2
2
2
2
2
2
2
2
2
2
2
2
2
2
2
2
2
2
2
2
2
2
2
2
2
2
2
2
2
2
2
2
2
2
2
2
2
2
2
2
2
2
2
2
2
2
2
2
2
2
2
2
2
2
2
2
2
2
2
2
2
2
2
2
2
2
2
2
2
2
2
2
2
2
2
2
2
2
2
2
2
2
2
2
2
2
2
2
2
2
2
2
2
2
2
2
2
2
2
2
2
2
2
2
2
2
2
2
2
2
2
2
2
2
2
2
2
2
2
2
2
2
2
2
2
2
2
2
2
2
2
2
2
2
2
2
2
2
2
2
2
2
2
2
2
2
2
2
2
2
2
2
2
2
2
2
2
2
2
2
2
2
2
2
2
2
2
2
2
2
2
2
2
2
2
2
2
2
2
2
2
2
2
2
2
2
2
2
2
2
2
2
2
2
2
2
2
2
2
2
2
2
2
2
2
2
2
2
2
2
2
2
2
2
2
2
2
2
2
2
2
2
2
2
2
2
2
2
2
2
2
2
2
2
2
2
2
2
2
2
2
2
2
2
2
2
2
2
2
2
2
2
2
2
2
2
2
2
2
2
2
2
2
2
2
2
2
2
2
2
2
2
2
2
2
2
2
2
2
2
2
2
2
2
2
2
2
2
2
2
2
2
2
2
2
2
2
2
2
2
2
2
2
2
2
