#------------------------------------------------------------------------------
#$Date: 2021-11-06 21:48:22 +0200 (Sat, 06 Nov 2021) $
#$Revision: 270416 $
#$URL: file:///home/coder/svn-repositories/cod/cif/7/24/36/7243652.cif $
#------------------------------------------------------------------------------
#
# This file is available in the Crystallography Open Database (COD),
# http://www.crystallography.net/
#
# All data on this site have been placed in the public domain by the
# contributors.
#
data_7243652
loop_
_publ_author_name
'Quarez, \'Eric'
'Espinosa-Angeles, Julio C\'esar'
'Crosnier, Olivier'
'Joubert, Olivier'
'Brousse, Thierry'
_publ_section_title
;
 Revisiting the five-decade-old structure of the Fe2WO6 powder with
 incommensurate modulations
;
_journal_issue                   41
_journal_name_full               CrystEngComm
_journal_page_first              7298
_journal_page_last               7304
_journal_paper_doi               10.1039/D1CE00916H
_journal_volume                  23
_journal_year                    2021
_chemical_formula_sum            'Fe2.667 O8 W1.333'
_chemical_formula_weight         522
_space_group_IT_number           60
_space_group_name_Hall           '-P 2n 2ab'
_space_group_name_H-M_alt        'P b c n'
_space_group_ssg_name            Pbcn(0\b0)000
_symmetry_cell_setting           orthorhombic
_cell_angle_alpha                90
_cell_angle_beta                 90
_cell_angle_gamma                90
_cell_formula_units_Z            1
_cell_length_a                   4.57964(7)
_cell_length_b                   5.58662(8)
_cell_length_c                   4.96920(7)
_cell_measurement_temperature    293
_cell_modulation_dimension       1
_cell_volume                     127.136(3)
_diffrn_ambient_temperature      293
_diffrn_radiation_probe          x-ray
_diffrn_radiation_wavelength     1.54186
_exptl_absorpt_coefficient_mu    114.438
_exptl_crystal_density_diffrn    6.818
_exptl_crystal_F_000             456
_pd_instr_location               ' ?'
_pd_meas_2theta_range_inc        0.015
_pd_meas_2theta_range_max        100.002
_pd_meas_2theta_range_min        10.000
_pd_meas_number_of_points        6137
_pd_proc_2theta_range_inc        0.015
_pd_proc_2theta_range_max        100.002
_pd_proc_2theta_range_min        10
_pd_proc_ls_background_function
'Manual background combined with 12 Legendre polynoms'
_pd_proc_ls_pref_orient_corr     none
_pd_proc_ls_profile_function     Pseudo-Voigt
_pd_proc_ls_prof_R_factor        0.0792
_pd_proc_ls_prof_wR_expected     0.0846
_pd_proc_ls_prof_wR_factor       0.1126
_refine_diff_density_max         2.09
_refine_diff_density_min         -2.19
_refine_ls_goodness_of_fit_all   1.33
_refine_ls_number_constraints    8
_refine_ls_number_parameters     49
_refine_ls_number_restraints     0
_refine_ls_R_factor_all          0.0417
_refine_ls_R_factor_gt           0.0381
_refine_ls_shift/su_max          0.0087
_refine_ls_shift/su_mean         0.0005
_refine_ls_weighting_scheme      sigma
_refine_ls_wR_factor_all         0.0449
_refine_ls_wR_factor_gt          0.0442
_cod_data_source_file            d1ce00916h1.txt
_cod_data_source_block           I
_cod_depositor_comments
;
The following automatic conversions were performed:

data item '_diffrn_radiation_probe' value 'X-ray' was changed to
'x-ray' in accordance with the
/home/data/users/saulius/crontab/automatic-downloads/rss-feeds/RSC/lib/dictionaries/cif_core.dic
dictionary named 'cif_core.dic' version 2.4.2 last updated on
2011-04-26.

Automatic conversion script
Id: cif_fix_values 7556 2019-12-06 15:28:31Z antanas 

 Adding full bibliography for 7243652.cif.
;
_cod_database_code               7243652
loop_
_space_group_symop_id
_space_group_symop_operation_xyz
1 x,y,z
2 -x+0.5,-y+0.5,z+0.5
3 -x,y,-z+0.5
4 x+0.5,-y+0.5,-z
5 -x,-y,-z
6 x+0.5,y+0.5,-z+0.5
7 x,-y,z+0.5
8 -x+0.5,y+0.5,z
loop_
_space_group_symop_ssg_id
_space_group_symop_ssg_operation_algebraic
1 x1,x2,x3,x4
2 -x1+1/2,-x2+1/2,x3+1/2,-x4
3 -x1,x2,-x3+1/2,x4
4 x1+1/2,-x2+1/2,-x3,-x4
5 -x1,-x2,-x3,-x4
6 x1+1/2,x2+1/2,-x3+1/2,x4
7 x1,-x2,x3+1/2,-x4
8 -x1+1/2,x2+1/2,x3,x4
loop_
_atom_site_label
_atom_site_type_symbol
_atom_site_fract_x
_atom_site_fract_y
_atom_site_fract_z
_atom_site_adp_type
_atom_site_U_iso_or_equiv
_atom_site_site_symmetry_multiplicity
_atom_site_occupancy
_atom_site_calc_flag
_atom_site_refinement_flags
_atom_site_disorder_assembly
_atom_site_disorder_group
Fe1 Fe 0 0.1678(5) 0.75 Uani 0.0206(6) 4 0.6667 d . . .
W1 W 0 0.1678(5) 0.75 Uani 0.0206(6) 4 0.3333 d . . .
O1 O 0.2234(17) 0.1163(14) 0.4178(15) Uiso 0.011(2) 8 1 d . . .
loop_
_atom_site_aniso_label
_atom_site_aniso_type_symbol
_atom_site_aniso_U_11
_atom_site_aniso_U_22
_atom_site_aniso_U_33
_atom_site_aniso_U_12
_atom_site_aniso_U_13
_atom_site_aniso_U_23
Fe1 Fe 0.0158(10) 0.0242(11) 0.0217(11) 0 0.001(2) 0
W1 W 0.0158(10) 0.0242(11) 0.0217(11) 0 0.001(2) 0
loop_
_atom_site_displace_Fourier_atom_site_label
_atom_site_displace_Fourier_axis
_atom_site_displace_Fourier_wave_vector_seq_id
_atom_site_displace_Fourier_param_cos
_atom_site_displace_Fourier_param_sin
Fe1 x 1 0 0
Fe1 y 1 0.0020(8) -0.0044(9)
Fe1 z 1 0 0
W1 x 1 0 0
W1 y 1 0.0020(8) -0.0044(9)
W1 z 1 0 0
O1 x 1 -0.032(4) -0.013(4)
O1 y 1 -0.015(3) 0.008(6)
O1 z 1 0.000(6) 0.014(3)
loop_
_atom_site_displace_special_func_atom_site_label
_atom_site_displace_special_func_sawtooth_ax
_atom_site_displace_special_func_sawtooth_ay
_atom_site_displace_special_func_sawtooth_az
_atom_site_displace_special_func_sawtooth_c
_atom_site_displace_special_func_sawtooth_w
? ? ? ? ? ?
loop_
_atom_site_Fourier_wave_vector_seq_id
_jana_atom_site_fourier_wave_vector_q1_coeff
1 1
loop_
_atom_site_occ_Fourier_atom_site_label
_atom_site_occ_Fourier_wave_vector_seq_id
_atom_site_occ_Fourier_param_cos
_atom_site_occ_Fourier_param_sin
? ? ? ?
loop_
_atom_site_occ_special_func_atom_site_label
_atom_site_occ_special_func_crenel_c
_atom_site_occ_special_func_crenel_w
Fe1 0.7604(17) 0.6667
W1 0.2604(17) 0.3333
loop_
_atom_site_U_Fourier_atom_site_label
_atom_site_U_Fourier_tens_elem
_atom_site_U_Fourier_wave_vector_seq_id
_atom_site_U_Fourier_param_cos
_atom_site_U_Fourier_param_sin
? ? ? ? ?
loop_
_atom_type_symbol
_atom_type_scat_dispersion_real
_atom_type_scat_dispersion_imag
_atom_type_scat_source
Fe -1.1336 3.1974 'International Tables Vol C tables 4.2.6.8 and 6.1.1.1'
O 0.0492 0.0322 'International Tables Vol C tables 4.2.6.8 and 6.1.1.1'
W -5.4734 5.5774 'International Tables Vol C tables 4.2.6.8 and 6.1.1.1'
loop_
_cell_wave_vector_seq_id
_cell_wave_vector_x
_cell_wave_vector_y
_cell_wave_vector_z
1 0.000000 0.6687(4) 0.000000
loop_
_exptl_crystal_face_index_h
_exptl_crystal_face_index_k
_exptl_crystal_face_index_l
_exptl_crystal_face_perp_dist
? ? ? ?
loop_
_geom_angle_atom_site_label_1
_geom_angle_atom_site_label_2
_geom_angle_atom_site_label_3
_geom_angle_site_ssg_symmetry_1
_geom_angle_site_ssg_symmetry_2
_geom_angle_site_ssg_symmetry_3
_geom_angle_av
_geom_angle_min
_geom_angle_max
_geom_angle_publ_flag
O1 Fe1 O1 . . 2_5555 95.8(9) 93.1(8) 100.1(8) ?
O1 Fe1 O1 . . 3_5565 162.1(12) 156.4(12) 169.9(12) ?
O1 Fe1 O1 . . 4_4565 95.1(9) 91.4(9) 96.9(9) ?
O1 Fe1 O1 . . 5_5565 79.1(9) 70.5(8) 86.8(8) ?
O1 Fe1 O1 . . 7_5555 87.0(9) 84.3(8) 92.2(9) ?
O1 Fe1 O1 2_5555 . 3_5565 95.1(10) 91.4(11) 96.9(11) ?
O1 Fe1 O1 2_5555 . 4_4565 104.9(11) 97.4(12) 108.8(12) ?
O1 Fe1 O1 2_5555 . 5_5565 166.1(10) 164.7(9) 169.0(11) ?
O1 Fe1 O1 2_5555 . 7_5555 88.0(10) 84.7(11) 93.4(11) ?
O1 Fe1 O1 3_5565 . 4_4565 95.8(9) 93.1(8) 100.1(8) ?
O1 Fe1 O1 3_5565 . 5_5565 87.0(9) 84.3(8) 92.2(9) ?
O1 Fe1 O1 3_5565 . 7_5555 79.1(9) 70.5(8) 86.8(8) ?
O1 Fe1 O1 4_4565 . 5_5565 88.0(10) 84.7(11) 93.4(11) ?
O1 Fe1 O1 4_4565 . 7_5555 166.1(10) 164.7(9) 169.0(11) ?
O1 Fe1 O1 5_5565 . 7_5555 79.6(10) 76.9(10) 82.5(10) ?
O1 W1 O1 . . 2_5555 98.1(10) 95.0(9) 100.1(9) ?
O1 W1 O1 . . 3_5565 165.3(14) 159.2(13) 169.9(13) ?
O1 W1 O1 . . 4_4565 91.6(10) 90.6(10) 93.7(9) ?
O1 W1 O1 . . 5_5565 77.9(10) 71.2(9) 85.3(9) ?
O1 W1 O1 . . 7_5555 90.7(10) 87.1(9) 92.4(10) ?
O1 W1 O1 2_5555 . 3_5565 91.6(11) 90.6(12) 93.7(10) ?
O1 W1 O1 2_5555 . 4_4565 98.8(12) 96.7(12) 103.7(12) ?
O1 W1 O1 2_5555 . 5_5565 169.1(11) 166.7(11) 170.3(10) ?
O1 W1 O1 2_5555 . 7_5555 91.0(11) 87.1(10) 93.4(11) ?
O1 W1 O1 3_5565 . 4_4565 98.1(10) 95.0(9) 100.1(9) ?
O1 W1 O1 3_5565 . 5_5565 90.7(10) 87.1(9) 92.4(10) ?
O1 W1 O1 3_5565 . 7_5555 77.9(10) 71.2(9) 85.3(9) ?
O1 W1 O1 4_4565 . 5_5565 91.0(11) 87.1(10) 93.4(11) ?
O1 W1 O1 4_4565 . 7_5555 169.1(11) 166.7(11) 170.3(10) ?
O1 W1 O1 5_5565 . 7_5555 79.6(11) 77.3(10) 82.1(11) ?
Fe1 O1 Fe1 . . 2_5545 123.7(13) 121.5(13) 133.9(14) ?
Fe1 O1 Fe1 . . 5_5565 95.8(9) 94.2(8) 99.8(10) ?
Fe1 O1 W1 . . 2_5545 128.5(14) 123.3(16) 133.4(13) ?
Fe1 O1 W1 . . 5_5565 105.8(10) 100.3(10) 108.9(10) ?
Fe1 O1 Fe1 2_5545 . 5_5565 125.3(11) 124.3(10) 127.8(14) ?
Fe1 O1 W1 2_5545 . . 130.3(15) 124.8(12) 134.0(14) ?
Fe1 O1 W1 2_5545 . 5_5565 129.5(13) 125.4(13) 133.2(10) ?
Fe1 O1 W1 5_5565 . . 102.7(11) 96.7(9) 108.2(11) ?
Fe1 O1 W1 5_5565 . 2_5545 131.5(13) 128.0(15) 133.4(10) ?
W1 O1 W1 . . 5_5565 108.5(10) 108.4(10) 108.7(10) ?
loop_
_geom_bond_atom_site_label_1
_geom_bond_atom_site_label_2
_geom_bond_site_ssg_symmetry_1
_geom_bond_site_ssg_symmetry_2
_geom_bond_distance_av
_geom_bond_distance_min
_geom_bond_distance_max
_geom_bond_publ_flag
Fe1 O1 . . 2.01(2) 1.87(3) 2.08(3) ?
Fe1 O1 . 2_5555 1.99(2) 1.84(3) 2.08(3) ?
Fe1 O1 . 3_5565 2.01(2) 1.87(3) 2.08(3) ?
Fe1 O1 . 4_4565 1.99(2) 1.84(3) 2.08(3) ?
Fe1 O1 . 5_5565 2.13(3) 1.97(3) 2.22(3) ?
Fe1 O1 . 7_5555 2.13(3) 1.97(3) 2.22(3) ?
W1 O1 . . 1.88(2) 1.85(3) 1.95(3) ?
W1 O1 . 2_5555 1.83(2) 1.80(3) 1.91(3) ?
W1 O1 . 3_5565 1.88(2) 1.85(3) 1.95(3) ?
W1 O1 . 4_4565 1.83(2) 1.80(3) 1.91(3) ?
W1 O1 . 5_5565 1.94(2) 1.91(3) 2.00(3) ?
W1 O1 . 7_5555 1.94(2) 1.91(3) 2.00(3) ?
loop_
_geom_hbond_atom_site_label_D
_geom_hbond_atom_site_label_H
_geom_hbond_atom_site_label_A
_geom_hbond_site_symmetry_D
_geom_hbond_site_symmetry_H
_geom_hbond_site_symmetry_A
_geom_hbond_distance_DH
_geom_hbond_distance_HA
_geom_hbond_distance_DA
_geom_hbond_angle_DHA
_geom_hbond_publ_flag
? ? ? ? ? ? ? ? ? ? ?
loop_
_geom_torsion_atom_site_label_1
_geom_torsion_atom_site_label_2
_geom_torsion_atom_site_label_3
_geom_torsion_atom_site_label_4
_geom_torsion_site_ssg_symmetry_1
_geom_torsion_site_ssg_symmetry_2
_geom_torsion_site_ssg_symmetry_3
_geom_torsion_site_ssg_symmetry_4
_geom_torsion_av
_geom_torsion_min
_geom_torsion_max
? ? ? ? ? ? ? ? ? ? ?
loop_
_pd_proc_point_id
_pd_proc_2theta_corrected
_pd_proc_d_spacing
_pd_proc_intensity_net
_pd_calc_intensity_net
_pd_proc_ls_weight
1 9.9502 8.889562 68.00 64.15 8.00
2 9.9649 8.876508 65.00 64.01 8.00
3 9.9796 8.863492 65.00 63.87 8.00
4 9.9942 8.850524 70.00 63.74 8.00
5 10.0089 8.837584 54.00 63.60 7.00
6 10.0236 8.824683 66.00 63.46 8.00
7 10.0382 8.811819 56.00 63.33 7.00
8 10.0529 8.798994 56.00 63.19 7.00
9 10.0676 8.786214 61.00 63.06 8.00
10 10.0822 8.773462 61.00 62.93 8.00
11 10.0969 8.760748 67.00 62.80 8.00
12 10.1116 8.748071 77.00 62.68 9.00
13 10.1263 8.735430 64.00 62.55 8.00
14 10.1409 8.722835 48.00 62.43 7.00
15 10.1556 8.710268 42.00 62.32 6.00
16 10.1702 8.697737 69.00 62.20 8.00
17 10.1849 8.685241 62.00 62.09 8.00
18 10.1996 8.672791 53.00 61.99 7.00
19 10.2142 8.660369 59.00 61.89 8.00
20 10.2289 8.647981 63.00 61.80 8.00
21 10.2436 8.635628 70.00 61.71 8.00
22 10.2583 8.623312 49.00 61.64 7.00
23 10.2729 8.611039 72.00 61.57 8.00
24 10.2876 8.598793 64.00 61.51 8.00
25 10.3023 8.586581 57.00 61.47 8.00
26 10.3169 8.574405 56.00 61.43 7.00
27 10.3316 8.562263 51.00 61.42 7.00
28 10.3463 8.550163 65.00 61.42 8.00
29 10.3609 8.538089 71.00 61.44 8.00
30 10.3756 8.526052 66.00 61.48 8.00
31 10.3903 8.514046 64.00 61.54 8.00
32 10.4049 8.502075 54.00 61.63 7.00
33 10.4196 8.490146 57.00 61.75 8.00
34 10.4343 8.478243 75.00 61.90 9.00
35 10.4489 8.466372 66.00 62.07 8.00
36 10.4636 8.454535 81.00 62.28 9.00
37 10.4783 8.442731 75.00 62.51 9.00
38 10.4929 8.430968 67.00 62.75 8.00
39 10.5076 8.419230 68.00 62.99 8.00
40 10.5223 8.407526 63.00 63.20 8.00
41 10.5370 8.395853 72.00 63.37 8.00
42 10.5516 8.384221 70.00 63.44 8.00
43 10.5663 8.372613 68.00 63.40 8.00
44 10.5809 8.361038 67.00 63.22 8.00
45 10.5956 8.349495 67.00 62.90 8.00
46 10.6103 8.337984 66.00 62.46 8.00
47 10.6250 8.326511 56.00 61.92 7.00
48 10.6396 8.315064 63.00 61.33 8.00
49 10.6543 8.303648 69.00 60.72 8.00
50 10.6690 8.292264 67.00 60.13 8.00
51 10.6836 8.280910 59.00 59.57 8.00
52 10.6983 8.269596 63.00 59.11 8.00
53 10.7130 8.258305 60.00 58.82 8.00
54 10.7276 8.247045 65.00 58.57 8.00
55 10.7423 8.235815 51.00 58.36 7.00
56 10.7570 8.224616 63.00 58.18 8.00
57 10.7716 8.213455 66.00 58.03 8.00
58 10.7863 8.202318 58.00 57.91 8.00
59 10.8010 8.191210 58.00 57.81 8.00
60 10.8156 8.180132 59.00 57.73 8.00
61 10.8303 8.169086 47.00 57.66 7.00
62 10.8450 8.158075 66.00 57.60 8.00
63 10.8596 8.147088 56.00 57.56 7.00
64 10.8743 8.136130 59.00 57.52 8.00
65 10.8890 8.125202 57.00 57.50 8.00
66 10.9036 8.114310 61.00 57.48 8.00
67 10.9183 8.103441 66.00 57.46 8.00
68 10.9330 8.092601 53.00 57.45 7.00
69 10.9476 8.081789 57.00 57.45 8.00
70 10.9623 8.071007 48.00 57.45 7.00
71 10.9770 8.060261 55.00 57.45 7.00
72 10.9916 8.049537 56.00 57.46 7.00
73 11.0063 8.038840 60.00 57.47 8.00
74 11.0210 8.028172 39.00 57.48 6.00
75 11.0357 8.017534 70.00 57.49 8.00
76 11.0503 8.006930 61.00 57.51 8.00
77 11.0650 7.996347 73.00 57.53 9.00
78 11.0797 7.985793 66.00 57.54 8.00
79 11.0943 7.975266 59.00 57.56 8.00
80 11.1090 7.964767 59.00 57.58 8.00
81 11.1237 7.954303 54.00 57.61 7.00
82 11.1383 7.943860 53.00 57.63 7.00
83 11.1530 7.933444 58.00 57.65 8.00
84 11.1677 7.923055 58.00 57.68 8.00
85 11.1823 7.912694 71.00 57.70 8.00
86 11.1970 7.902368 57.00 57.73 8.00
87 11.2117 7.892060 71.00 57.76 8.00
88 11.2263 7.881780 46.00 57.78 7.00
89 11.2410 7.871528 56.00 57.81 7.00
90 11.2557 7.861308 61.00 57.84 8.00
91 11.2703 7.851108 52.00 57.87 7.00
92 11.2850 7.840935 62.00 57.90 8.00
93 11.2997 7.830788 57.00 57.93 8.00
94 11.3144 7.820668 39.00 57.96 6.00
95 11.3290 7.810581 71.00 57.99 8.00
96 11.3437 7.800512 73.00 58.02 9.00
97 11.3583 7.790471 63.00 58.05 8.00
98 11.3730 7.780455 56.00 58.08 7.00
99 11.3877 7.770465 67.00 58.11 8.00
100 11.4024 7.760507 63.00 58.14 8.00
101 11.4170 7.750569 61.00 58.17 8.00
102 11.4317 7.740655 72.00 58.20 8.00
103 11.4464 7.730768 60.00 58.24 8.00
104 11.4610 7.720905 65.00 58.27 8.00
105 11.4757 7.711075 65.00 58.30 8.00
106 11.4904 7.701263 60.00 58.33 8.00
107 11.5050 7.691476 58.00 58.36 8.00
108 11.5197 7.681714 55.00 58.40 7.00
109 11.5344 7.671977 60.00 58.43 8.00
110 11.5490 7.662271 66.00 58.46 8.00
111 11.5637 7.652584 44.00 58.50 7.00
112 11.5784 7.642921 65.00 58.53 8.00
113 11.5930 7.633282 54.00 58.56 7.00
114 11.6077 7.623668 66.00 58.59 8.00
115 11.6224 7.614085 44.00 58.63 7.00
116 11.6370 7.604519 55.00 58.66 7.00
117 11.6517 7.594978 55.00 58.69 7.00
118 11.6664 7.585461 61.00 58.73 8.00
119 11.6810 7.575974 58.00 58.76 8.00
120 11.6957 7.566504 64.00 58.80 8.00
121 11.7104 7.557058 72.00 58.83 8.00
122 11.7250 7.547636 71.00 58.86 8.00
123 11.7397 7.538237 59.00 58.90 8.00
124 11.7544 7.528869 64.00 58.93 8.00
125 11.7690 7.519517 58.00 58.96 8.00
126 11.7837 7.510189 52.00 59.00 7.00
127 11.7984 7.500883 72.00 59.02 8.00
128 11.8131 7.491601 56.00 58.99 7.00
129 11.8277 7.482348 66.00 58.96 8.00
130 11.8424 7.473113 58.00 58.93 8.00
131 11.8571 7.463900 61.00 58.90 8.00
132 11.8717 7.454710 58.00 58.88 8.00
133 11.8864 7.445542 42.00 58.85 6.00
134 11.9011 7.436403 62.00 58.82 8.00
135 11.9157 7.427281 64.00 58.79 8.00
136 11.9304 7.418181 61.00 58.76 8.00
137 11.9451 7.409103 50.00 58.73 7.00
138 11.9597 7.400049 68.00 58.71 8.00
139 11.9744 7.391022 57.00 58.68 8.00
140 11.9891 7.382011 59.00 58.65 8.00
141 12.0037 7.373022 52.00 58.62 7.00
142 12.0184 7.364056 53.00 58.59 7.00
143 12.0331 7.355117 46.00 58.57 7.00
144 12.0477 7.346193 67.00 58.54 8.00
145 12.0624 7.337292 60.00 58.51 8.00
146 12.0771 7.328413 60.00 58.48 8.00
147 12.0918 7.319554 46.00 58.45 7.00
148 12.1064 7.310724 56.00 58.43 7.00
149 12.1211 7.301909 57.00 58.40 8.00
150 12.1357 7.293115 54.00 58.37 7.00
151 12.1504 7.284343 52.00 58.34 7.00
152 12.1651 7.275592 67.00 58.31 8.00
153 12.1798 7.266867 47.00 58.29 7.00
154 12.1944 7.258158 59.00 58.26 8.00
155 12.2091 7.249470 51.00 58.23 7.00
156 12.2238 7.240803 47.00 58.20 7.00
157 12.2384 7.232156 60.00 58.18 8.00
158 12.2531 7.223536 56.00 58.15 7.00
159 12.2678 7.214931 62.00 58.12 8.00
160 12.2824 7.206347 53.00 58.09 7.00
161 12.2971 7.197783 63.00 58.06 8.00
162 12.3118 7.189239 70.00 58.04 8.00
163 12.3264 7.180722 55.00 58.01 7.00
164 12.3411 7.172220 65.00 57.98 8.00
165 12.3558 7.163736 51.00 57.95 7.00
166 12.3704 7.155274 52.00 57.92 7.00
167 12.3851 7.146838 63.00 57.88 8.00
168 12.3998 7.138415 59.00 57.85 8.00
169 12.4144 7.130013 65.00 57.82 8.00
170 12.4291 7.121631 58.00 57.79 8.00
171 12.4438 7.113267 57.00 57.76 8.00
172 12.4584 7.104930 53.00 57.73 7.00
173 12.4731 7.096607 69.00 57.71 8.00
174 12.4878 7.088304 70.00 57.68 8.00
175 12.5024 7.080019 54.00 57.65 7.00
176 12.5171 7.071754 57.00 57.62 8.00
177 12.5318 7.063514 56.00 57.59 7.00
178 12.5464 7.055288 60.00 57.57 8.00
179 12.5611 7.047081 60.00 57.54 8.00
180 12.5758 7.038893 61.00 57.51 8.00
181 12.5905 7.030725 65.00 57.48 8.00
182 12.6051 7.022582 50.00 57.46 7.00
183 12.6198 7.014451 57.00 57.43 8.00
184 12.6345 7.006339 64.00 57.40 8.00
185 12.6491 6.998247 61.00 57.37 8.00
186 12.6638 6.990172 52.00 57.34 7.00
187 12.6785 6.982123 48.00 57.32 7.00
188 12.6931 6.974087 73.00 57.29 9.00
189 12.7078 6.966068 52.00 57.26 7.00
190 12.7225 6.958069 49.00 57.23 7.00
191 12.7371 6.950093 66.00 57.20 8.00
192 12.7518 6.942131 54.00 57.18 7.00
193 12.7665 6.934186 51.00 57.15 7.00
194 12.7811 6.926260 65.00 57.12 8.00
195 12.7958 6.918353 50.00 57.09 7.00
196 12.8105 6.910469 66.00 57.06 8.00
197 12.8251 6.902597 48.00 57.04 7.00
198 12.8398 6.894743 68.00 57.01 8.00
199 12.8545 6.886908 65.00 56.98 8.00
200 12.8692 6.879090 60.00 56.95 8.00
201 12.8838 6.871296 45.00 56.92 7.00
202 12.8985 6.863513 60.00 56.89 8.00
203 12.9131 6.855749 59.00 56.87 8.00
204 12.9278 6.848003 58.00 56.84 8.00
205 12.9425 6.840274 57.00 56.81 8.00
206 12.9572 6.832567 66.00 56.78 8.00
207 12.9718 6.824873 59.00 56.75 8.00
208 12.9865 6.817196 60.00 56.73 8.00
209 13.0012 6.809537 52.00 56.70 7.00
210 13.0158 6.801895 56.00 56.67 7.00
211 13.0305 6.794276 65.00 56.64 8.00
212 13.0452 6.786668 64.00 56.61 8.00
213 13.0598 6.779078 54.00 56.58 7.00
214 13.0745 6.771504 56.00 56.55 7.00
215 13.0892 6.763953 69.00 56.53 8.00
216 13.1038 6.756414 60.00 56.50 8.00
217 13.1185 6.748891 66.00 56.47 8.00
218 13.1332 6.741386 57.00 56.44 8.00
219 13.1478 6.733897 63.00 56.41 8.00
220 13.1625 6.726429 46.00 56.38 7.00
221 13.1772 6.718974 41.00 56.36 6.00
222 13.1918 6.711535 50.00 56.33 7.00
223 13.2065 6.704113 62.00 56.30 8.00
224 13.2212 6.696707 62.00 56.27 8.00
225 13.2358 6.689323 53.00 56.24 7.00
226 13.2505 6.681950 57.00 56.21 8.00
227 13.2652 6.674593 58.00 56.18 8.00
228 13.2799 6.667253 59.00 56.15 8.00
229 13.2945 6.659929 57.00 56.13 8.00
230 13.3092 6.652626 61.00 56.10 8.00
231 13.3238 6.645335 47.00 56.07 7.00
232 13.3385 6.638059 61.00 56.04 8.00
233 13.3532 6.630799 61.00 56.01 8.00
234 13.3679 6.623555 61.00 55.98 8.00
235 13.3825 6.616333 56.00 55.95 7.00
236 13.3972 6.609121 71.00 55.92 8.00
237 13.4119 6.601924 52.00 55.89 7.00
238 13.4265 6.594744 45.00 55.87 7.00
239 13.4412 6.587579 58.00 55.84 8.00
240 13.4559 6.580435 59.00 55.81 8.00
241 13.4705 6.573302 52.00 55.78 7.00
242 13.4852 6.566184 49.00 55.75 7.00
243 13.4999 6.559082 59.00 55.72 8.00
244 13.5145 6.552000 58.00 55.69 8.00
245 13.5292 6.544929 55.00 55.66 7.00
246 13.5439 6.537872 60.00 55.63 8.00
247 13.5585 6.530831 59.00 55.60 8.00
248 13.5732 6.523806 60.00 55.58 8.00
249 13.5879 6.516800 66.00 55.55 8.00
250 13.6025 6.509805 44.00 55.52 7.00
251 13.6172 6.502824 54.00 55.49 7.00
252 13.6319 6.495860 58.00 55.46 8.00
253 13.6466 6.488910 57.00 55.43 8.00
254 13.6612 6.481979 59.00 55.40 8.00
255 13.6759 6.475059 63.00 55.37 8.00
256 13.6905 6.468154 53.00 55.34 7.00
257 13.7052 6.461263 60.00 55.31 8.00
258 13.7199 6.454388 72.00 55.28 8.00
259 13.7346 6.447531 58.00 55.25 8.00
260 13.7492 6.440685 70.00 55.22 8.00
261 13.7639 6.433853 61.00 55.19 8.00
262 13.7786 6.427036 57.00 55.17 8.00
263 13.7932 6.420234 51.00 55.14 7.00
264 13.8079 6.413450 59.00 55.11 8.00
265 13.8226 6.406676 48.00 55.08 7.00
266 13.8372 6.399917 67.00 55.05 8.00
267 13.8519 6.393172 66.00 55.02 8.00
268 13.8666 6.386446 50.00 55.00 7.00
269 13.8812 6.379730 55.00 54.99 7.00
270 13.8959 6.373028 53.00 54.97 7.00
271 13.9106 6.366340 57.00 54.95 8.00
272 13.9252 6.359666 58.00 54.94 8.00
273 13.9399 6.353011 54.00 54.92 7.00
274 13.9546 6.346365 63.00 54.90 8.00
275 13.9692 6.339733 54.00 54.89 7.00
276 13.9839 6.333116 62.00 54.87 8.00
277 13.9986 6.326512 73.00 54.85 9.00
278 14.0132 6.319926 47.00 54.84 7.00
279 14.0279 6.313350 63.00 54.82 8.00
280 14.0426 6.306787 65.00 54.80 8.00
281 14.0573 6.300239 68.00 54.79 8.00
282 14.0719 6.293704 47.00 54.77 7.00
283 14.0866 6.287187 56.00 54.75 7.00
284 14.1012 6.280679 49.00 54.74 7.00
285 14.1159 6.274185 55.00 54.72 7.00
286 14.1306 6.267704 50.00 54.70 7.00
287 14.1453 6.261237 50.00 54.69 7.00
288 14.1599 6.254788 58.00 54.67 8.00
289 14.1746 6.248347 45.00 54.65 7.00
290 14.1893 6.241920 64.00 54.64 8.00
291 14.2039 6.235507 55.00 54.62 7.00
292 14.2186 6.229110 58.00 54.60 8.00
293 14.2333 6.222723 64.00 54.59 8.00
294 14.2479 6.216349 59.00 54.57 8.00
295 14.2626 6.209988 56.00 54.55 7.00
296 14.2773 6.203640 62.00 54.54 8.00
297 14.2919 6.197310 49.00 54.52 7.00
298 14.3066 6.190988 54.00 54.50 7.00
299 14.3213 6.184679 58.00 54.49 8.00
300 14.3359 6.178383 52.00 54.47 7.00
301 14.3506 6.172101 58.00 54.45 8.00
302 14.3653 6.165834 45.00 54.44 7.00
303 14.3799 6.159577 65.00 54.42 8.00
304 14.3946 6.153333 43.00 54.40 7.00
305 14.4093 6.147101 54.00 54.38 7.00
306 14.4240 6.140882 55.00 54.37 7.00
307 14.4386 6.134680 51.00 54.35 7.00
308 14.4533 6.128487 55.00 54.33 7.00
309 14.4679 6.122306 57.00 54.32 8.00
310 14.4826 6.116138 48.00 54.30 7.00
311 14.4973 6.109981 52.00 54.28 7.00
312 14.5119 6.103842 66.00 54.27 8.00
313 14.5266 6.097711 58.00 54.25 8.00
314 14.5413 6.091592 55.00 54.23 7.00
315 14.5560 6.085486 59.00 54.21 8.00
316 14.5706 6.079397 57.00 54.20 8.00
317 14.5853 6.073314 58.00 54.18 8.00
318 14.6000 6.067245 46.00 54.16 7.00
319 14.6146 6.061188 48.00 54.15 7.00
320 14.6293 6.055143 51.00 54.13 7.00
321 14.6440 6.049114 41.00 54.11 6.00
322 14.6586 6.043093 62.00 54.09 8.00
323 14.6733 6.037084 55.00 54.08 7.00
324 14.6880 6.031087 55.00 54.06 7.00
325 14.7026 6.025103 55.00 54.04 7.00
326 14.7173 6.019135 62.00 54.02 8.00
327 14.7320 6.013173 41.00 54.01 6.00
328 14.7466 6.007225 59.00 53.99 8.00
329 14.7613 6.001287 52.00 53.97 7.00
330 14.7760 5.995362 41.00 53.95 6.00
331 14.7906 5.989453 54.00 53.94 7.00
332 14.8053 5.983551 45.00 53.92 7.00
333 14.8200 5.977662 55.00 53.90 7.00
334 14.8347 5.971783 52.00 53.88 7.00
335 14.8493 5.965916 50.00 53.87 7.00
336 14.8640 5.960065 52.00 53.85 7.00
337 14.8786 5.954222 47.00 53.83 7.00
338 14.8933 5.948390 54.00 53.81 7.00
339 14.9080 5.942569 61.00 53.80 8.00
340 14.9227 5.936760 53.00 53.78 7.00
341 14.9373 5.930967 53.00 53.76 7.00
342 14.9520 5.925180 65.00 53.74 8.00
343 14.9667 5.919406 41.00 53.73 6.00
344 14.9813 5.913643 70.00 53.71 8.00
345 14.9960 5.907895 57.00 53.69 8.00
346 15.0107 5.902153 55.00 53.67 7.00
347 15.0253 5.896424 56.00 53.65 7.00
348 15.0400 5.890706 63.00 53.64 8.00
349 15.0547 5.884999 51.00 53.62 7.00
350 15.0693 5.879306 62.00 53.60 8.00
351 15.0840 5.873622 59.00 53.58 8.00
352 15.0987 5.867948 53.00 53.57 7.00
353 15.1133 5.862285 55.00 53.55 7.00
354 15.1280 5.856633 47.00 53.53 7.00
355 15.1427 5.850996 59.00 53.51 8.00
356 15.1573 5.845366 43.00 53.49 7.00
357 15.1720 5.839747 70.00 53.48 8.00
358 15.1867 5.834139 42.00 53.46 6.00
359 15.2014 5.828542 50.00 53.44 7.00
360 15.2160 5.822959 68.00 53.42 8.00
361 15.2307 5.817384 50.00 53.40 7.00
362 15.2453 5.811819 50.00 53.39 7.00
363 15.2600 5.806265 64.00 53.37 8.00
364 15.2747 5.800722 40.00 53.35 6.00
365 15.2893 5.795193 59.00 53.33 8.00
366 15.3040 5.789670 49.00 53.32 7.00
367 15.3187 5.784159 62.00 53.30 8.00
368 15.3334 5.778658 52.00 53.28 7.00
369 15.3480 5.773171 54.00 53.26 7.00
370 15.3627 5.767692 65.00 53.24 8.00
371 15.3774 5.762223 63.00 53.22 8.00
372 15.3920 5.756763 51.00 53.21 7.00
373 15.4067 5.751315 51.00 53.19 7.00
374 15.4214 5.745881 60.00 53.17 8.00
375 15.4360 5.740453 58.00 53.15 8.00
376 15.4507 5.735035 50.00 53.13 7.00
377 15.4654 5.729629 53.00 53.12 7.00
378 15.4800 5.724232 52.00 53.10 7.00
379 15.4947 5.718849 41.00 53.08 6.00
380 15.5094 5.713472 63.00 53.06 8.00
381 15.5240 5.708106 58.00 53.04 8.00
382 15.5387 5.702751 50.00 53.03 7.00
383 15.5534 5.697405 48.00 53.01 7.00
384 15.5680 5.692072 55.00 52.99 7.00
385 15.5827 5.686747 40.00 52.97 6.00
386 15.5974 5.681432 37.00 52.95 6.00
387 15.6121 5.676126 59.00 52.93 8.00
388 15.6267 5.670830 60.00 52.92 8.00
389 15.6414 5.665548 63.00 52.90 8.00
390 15.6560 5.660272 59.00 52.88 8.00
391 15.6707 5.655006 63.00 52.86 8.00
392 15.6854 5.649751 65.00 52.84 8.00
393 15.7001 5.644508 50.00 52.82 7.00
394 15.7147 5.639272 68.00 52.81 8.00
395 15.7294 5.634046 52.00 52.79 7.00
396 15.7441 5.628829 56.00 52.77 7.00
397 15.7587 5.623622 43.00 52.75 7.00
398 15.7734 5.618428 46.00 52.73 7.00
399 15.7881 5.613241 63.00 52.71 8.00
400 15.8027 5.608063 62.00 52.69 8.00
401 15.8174 5.602894 61.00 52.68 8.00
402 15.8321 5.597736 52.00 52.75 7.00
403 15.8467 5.592590 56.00 52.82 7.00
404 15.8614 5.587451 47.00 52.90 7.00
405 15.8761 5.582321 50.00 52.98 7.00
406 15.8907 5.577200 58.00 53.05 8.00
407 15.9054 5.572090 56.00 53.13 7.00
408 15.9201 5.566992 47.00 53.20 7.00
409 15.9347 5.561899 50.00 53.28 7.00
410 15.9494 5.556817 45.00 53.35 7.00
411 15.9641 5.551744 58.00 53.43 8.00
412 15.9788 5.546679 51.00 53.50 7.00
413 15.9934 5.541628 48.00 53.58 7.00
414 16.0081 5.536583 57.00 53.65 8.00
415 16.0228 5.531547 55.00 53.73 7.00
416 16.0374 5.526520 49.00 53.80 7.00
417 16.0521 5.521505 49.00 53.88 7.00
418 16.0667 5.516497 53.00 53.95 7.00
419 16.0814 5.511497 73.00 54.03 9.00
420 16.0961 5.506507 52.00 54.10 7.00
421 16.1108 5.501527 58.00 54.18 8.00
422 16.1254 5.496559 61.00 54.25 8.00
423 16.1401 5.491595 63.00 54.33 8.00
424 16.1548 5.486641 65.00 54.40 8.00
425 16.1694 5.481697 62.00 54.48 8.00
426 16.1841 5.476761 66.00 54.55 8.00
427 16.1988 5.471838 48.00 54.63 7.00
428 16.2134 5.466919 69.00 54.70 8.00
429 16.2281 5.462011 73.00 54.78 9.00
430 16.2428 5.457111 51.00 54.85 7.00
431 16.2574 5.452219 58.00 54.93 8.00
432 16.2721 5.447340 52.00 55.00 7.00
433 16.2868 5.442467 50.00 55.08 7.00
434 16.3014 5.437602 52.00 55.15 7.00
435 16.3161 5.432745 56.00 55.23 7.00
436 16.3308 5.427898 64.00 55.30 8.00
437 16.3454 5.423063 68.00 55.38 8.00
438 16.3601 5.418233 50.00 55.45 7.00
439 16.3748 5.413412 55.00 55.53 7.00
440 16.3895 5.408600 50.00 55.60 7.00
441 16.4041 5.403797 63.00 55.68 8.00
442 16.4188 5.399004 58.00 55.75 8.00
443 16.4335 5.394217 64.00 55.83 8.00
444 16.4481 5.389440 48.00 55.90 7.00
445 16.4628 5.384670 52.00 55.97 7.00
446 16.4774 5.379912 48.00 56.05 7.00
447 16.4921 5.375160 58.00 56.12 8.00
448 16.5068 5.370416 56.00 56.20 7.00
449 16.5215 5.365681 62.00 56.27 8.00
450 16.5361 5.360953 50.00 56.35 7.00
451 16.5508 5.356237 76.00 56.42 9.00
452 16.5655 5.351528 50.00 56.50 7.00
453 16.5801 5.346826 44.00 56.57 7.00
454 16.5948 5.342132 47.00 56.65 7.00
455 16.6095 5.337446 64.00 56.72 8.00
456 16.6241 5.332773 66.00 56.80 8.00
457 16.6388 5.328104 61.00 56.87 8.00
458 16.6535 5.323444 64.00 56.95 8.00
459 16.6681 5.318791 68.00 57.02 8.00
460 16.6828 5.314148 49.00 57.10 7.00
461 16.6975 5.309515 62.00 57.17 8.00
462 16.7121 5.304887 48.00 57.25 7.00
463 16.7268 5.300268 52.00 57.32 7.00
464 16.7415 5.295656 61.00 57.40 8.00
465 16.7561 5.291053 54.00 57.47 7.00
466 16.7708 5.286461 53.00 57.54 7.00
467 16.7855 5.281874 56.00 57.62 7.00
468 16.8001 5.277295 41.00 57.69 6.00
469 16.8148 5.272723 53.00 57.77 7.00
470 16.8295 5.268163 56.00 57.84 7.00
471 16.8442 5.263608 48.00 57.92 7.00
472 16.8588 5.259061 56.00 57.99 7.00
473 16.8735 5.254522 60.00 58.07 8.00
474 16.8882 5.249990 59.00 58.14 8.00
475 16.9028 5.245470 54.00 58.22 7.00
476 16.9175 5.240955 66.00 58.29 8.00
477 16.9322 5.236447 65.00 58.37 8.00
478 16.9468 5.231947 50.00 58.44 7.00
479 16.9615 5.227455 49.00 58.51 7.00
480 16.9762 5.222974 58.00 58.59 8.00
481 16.9908 5.218497 47.00 58.66 7.00
482 17.0055 5.214028 44.00 58.74 7.00
483 17.0202 5.209568 70.00 58.81 8.00
484 17.0348 5.205114 46.00 58.89 7.00
485 17.0495 5.200672 71.00 58.96 8.00
486 17.0642 5.196233 60.00 59.04 8.00
487 17.0788 5.191803 47.00 59.11 7.00
488 17.0935 5.187381 51.00 59.19 7.00
489 17.1082 5.182966 53.00 59.26 7.00
490 17.1228 5.178561 75.00 59.33 9.00
491 17.1375 5.174161 58.00 59.41 8.00
492 17.1522 5.169769 52.00 59.48 7.00
493 17.1668 5.165384 56.00 59.56 7.00
494 17.1815 5.161010 52.00 59.63 7.00
495 17.1962 5.156640 51.00 59.71 7.00
496 17.2108 5.152278 44.00 59.78 7.00
497 17.2255 5.147923 54.00 59.86 7.00
498 17.2402 5.143575 70.00 59.93 8.00
499 17.2549 5.139238 57.00 60.01 8.00
500 17.2695 5.134906 54.00 60.08 7.00
501 17.2842 5.130581 62.00 60.15 8.00
502 17.2989 5.126263 58.00 60.23 8.00
503 17.3135 5.121953 44.00 60.30 7.00
504 17.3282 5.117652 50.00 60.38 7.00
505 17.3429 5.113357 64.00 60.45 8.00
506 17.3575 5.109067 68.00 60.53 8.00
507 17.3722 5.104786 68.00 60.60 8.00
508 17.3869 5.100513 69.00 60.68 8.00
509 17.4015 5.096249 74.00 60.75 9.00
510 17.4162 5.091989 50.00 60.83 7.00
511 17.4309 5.087737 52.00 60.90 7.00
512 17.4455 5.083491 66.00 60.97 8.00
513 17.4602 5.079253 59.00 61.05 8.00
514 17.4749 5.075025 48.00 61.12 7.00
515 17.4895 5.070801 65.00 61.20 8.00
516 17.5042 5.066585 51.00 61.27 7.00
517 17.5189 5.062375 65.00 61.35 8.00
518 17.5335 5.058175 67.00 61.42 8.00
519 17.5482 5.053980 58.00 61.50 8.00
520 17.5629 5.049792 55.00 61.57 7.00
521 17.5776 5.045610 75.00 61.64 9.00
522 17.5922 5.041436 66.00 61.72 8.00
523 17.6069 5.037271 66.00 61.79 8.00
524 17.6215 5.033111 72.00 61.87 8.00
525 17.6362 5.028956 54.00 61.94 7.00
526 17.6509 5.024810 66.00 62.02 8.00
527 17.6656 5.020671 61.00 62.09 8.00
528 17.6802 5.016541 49.00 62.17 7.00
529 17.6949 5.012415 51.00 62.24 7.00
530 17.7096 5.008296 70.00 62.31 8.00
531 17.7242 5.004184 70.00 62.39 8.00
532 17.7389 5.000078 48.00 62.46 7.00
533 17.7536 4.995983 56.00 62.54 7.00
534 17.7682 4.991891 68.00 62.61 8.00
535 17.7829 4.987806 62.00 62.69 8.00
536 17.7976 4.983727 54.00 62.76 7.00
537 17.8122 4.979656 59.00 62.84 8.00
538 17.8269 4.975594 67.00 62.91 8.00
539 17.8416 4.971536 63.00 62.98 8.00
540 17.8562 4.967485 66.00 63.06 8.00
541 17.8709 4.963440 61.00 63.13 8.00
542 17.8856 4.959402 67.00 63.21 8.00
543 17.9002 4.955374 60.00 63.28 8.00
544 17.9149 4.951349 72.00 63.36 8.00
545 17.9296 4.947330 67.00 63.43 8.00
546 17.9443 4.943319 74.00 63.50 9.00
547 17.9589 4.939317 78.00 63.58 9.00
548 17.9736 4.935318 73.00 63.65 9.00
549 17.9883 4.931326 62.00 63.73 8.00
550 18.0029 4.927341 68.00 63.80 8.00
551 18.0176 4.923363 63.00 63.88 8.00
552 18.0322 4.919393 59.00 63.95 8.00
553 18.0469 4.915427 50.00 64.03 7.00
554 18.0616 4.911468 69.00 64.10 8.00
555 18.0763 4.907515 52.00 64.17 7.00
556 18.0909 4.903568 72.00 64.25 8.00
557 18.1056 4.899631 66.00 64.32 8.00
558 18.1203 4.895697 67.00 64.40 8.00
559 18.1349 4.891770 61.00 64.47 8.00
560 18.1496 4.887850 64.00 64.55 8.00
561 18.1643 4.883935 51.00 64.62 7.00
562 18.1789 4.880029 53.00 64.70 7.00
563 18.1936 4.876128 66.00 64.77 8.00
564 18.2083 4.872232 65.00 64.84 8.00
565 18.2229 4.868342 51.00 64.92 7.00
566 18.2376 4.864460 83.00 64.99 9.00
567 18.2523 4.860586 75.00 65.07 9.00
568 18.2669 4.856716 57.00 65.14 8.00
569 18.2816 4.852851 67.00 65.22 8.00
570 18.2963 4.848993 72.00 65.29 8.00
571 18.3109 4.845144 67.00 65.36 8.00
572 18.3256 4.841299 71.00 65.44 8.00
573 18.3403 4.837460 58.00 65.51 8.00
574 18.3549 4.833626 64.00 65.59 8.00
575 18.3696 4.829799 52.00 65.66 7.00
576 18.3843 4.825981 71.00 65.74 8.00
577 18.3990 4.822166 76.00 65.81 9.00
578 18.4136 4.818357 74.00 65.89 9.00
579 18.4283 4.814555 69.00 65.96 8.00
580 18.4430 4.810758 71.00 66.03 8.00
581 18.4576 4.806970 72.00 66.11 8.00
582 18.4723 4.803185 68.00 66.18 8.00
583 18.4870 4.799407 54.00 66.26 7.00
584 18.5016 4.795635 57.00 66.33 8.00
585 18.5163 4.791868 68.00 66.41 8.00
586 18.5310 4.788111 68.00 66.48 8.00
587 18.5456 4.784357 66.00 66.56 8.00
588 18.5603 4.780608 59.00 66.63 8.00
589 18.5750 4.776865 68.00 66.70 8.00
590 18.5896 4.773129 81.00 66.78 9.00
591 18.6043 4.769401 73.00 69.76 9.00
592 18.6190 4.765676 75.00 70.01 9.00
593 18.6336 4.761957 75.00 70.32 9.00
594 18.6483 4.758244 75.00 71.95 9.00
595 18.6630 4.754539 64.00 72.22 8.00
596 18.6776 4.750838 62.00 72.49 8.00
597 18.6923 4.747143 63.00 72.73 8.00
598 18.7070 4.743453 76.00 72.91 9.00
599 18.7216 4.739770 72.00 73.08 8.00
600 18.7363 4.736094 62.00 73.24 8.00
601 18.7510 4.732421 76.00 73.41 9.00
602 18.7656 4.728755 71.00 73.58 8.00
603 18.7803 4.725094 77.00 73.75 9.00
604 18.7950 4.721439 71.00 73.93 8.00
605 18.8097 4.717793 63.00 74.11 8.00
606 18.8243 4.714149 83.00 74.30 9.00
607 18.8390 4.710512 64.00 74.49 8.00
608 18.8537 4.706879 63.00 74.68 8.00
609 18.8683 4.703253 70.00 74.88 8.00
610 18.8830 4.699635 72.00 75.09 8.00
611 18.8977 4.696020 71.00 75.30 8.00
612 18.9123 4.692410 65.00 75.52 8.00
613 18.9270 4.688806 89.00 75.75 9.00
614 18.9417 4.685207 66.00 75.99 8.00
615 18.9563 4.681617 87.00 76.23 9.00
616 18.9710 4.678030 71.00 76.48 8.00
617 18.9857 4.674448 71.00 76.74 8.00
618 19.0003 4.670873 82.00 77.01 9.00
619 19.0150 4.667305 74.00 77.29 9.00
620 19.0297 4.663739 78.00 77.59 9.00
621 19.0443 4.660180 79.00 77.89 9.00
622 19.0590 4.656626 70.00 78.20 8.00
623 19.0737 4.653078 81.00 78.53 9.00
624 19.0883 4.649537 76.00 78.87 9.00
625 19.1030 4.646000 74.00 79.22 9.00
626 19.1177 4.642467 94.00 79.59 10.00
627 19.1324 4.638941 72.00 79.98 8.00
628 19.1470 4.635420 86.00 80.38 9.00
629 19.1617 4.631907 102.00 80.80 10.00
630 19.1763 4.628397 95.00 81.24 10.00
631 19.1910 4.624892 88.00 81.70 9.00
632 19.2057 4.621392 78.00 82.19 9.00
633 19.2204 4.617898 92.00 82.69 10.00
634 19.2350 4.614411 85.00 83.22 9.00
635 19.2497 4.610928 91.00 83.78 10.00
636 19.2644 4.607450 84.00 84.37 9.00
637 19.2790 4.603977 91.00 84.98 10.00
638 19.2937 4.600510 91.00 85.63 10.00
639 19.3084 4.597050 100.00 86.32 10.00
640 19.3230 4.593592 102.00 87.05 10.00
641 19.3377 4.590140 109.00 88.94 10.00
642 19.3524 4.586695 90.00 89.81 9.00
643 19.3670 4.583256 112.00 90.74 11.00
644 19.3817 4.579819 101.00 92.24 10.00
645 19.3964 4.576389 110.00 93.27 10.00
646 19.4110 4.572963 121.00 94.37 11.00
647 19.4257 4.569543 108.00 95.52 10.00
648 19.4404 4.566130 116.00 96.73 11.00
649 19.4550 4.562720 115.00 98.03 11.00
650 19.4697 4.559316 128.00 99.42 11.00
651 19.4844 4.555915 105.00 100.91 10.00
652 19.4991 4.552521 130.00 102.51 11.00
653 19.5137 4.549134 120.00 104.22 11.00
654 19.5284 4.545750 125.00 106.07 11.00
655 19.5431 4.542370 147.00 108.07 12.00
656 19.5577 4.538997 134.00 110.24 12.00
657 19.5724 4.535628 126.00 112.59 11.00
658 19.5870 4.532266 137.00 115.14 12.00
659 19.6017 4.528907 146.00 122.25 12.00
660 19.6164 4.525553 140.00 125.70 12.00
661 19.6311 4.522204 158.00 129.29 13.00
662 19.6457 4.518861 145.00 135.16 12.00
663 19.6604 4.515524 178.00 139.54 13.00
664 19.6751 4.512191 164.00 144.40 13.00
665 19.6897 4.508862 197.00 149.70 14.00
666 19.7044 4.505538 167.00 155.54 13.00
667 19.7191 4.502219 198.00 162.04 14.00
668 19.7337 4.498908 208.00 169.29 14.00
669 19.7484 4.495599 205.00 177.42 14.00
670 19.7631 4.492295 208.00 186.59 14.00
671 19.7777 4.488996 222.00 196.98 15.00
672 19.7924 4.485704 229.00 208.79 15.00
673 19.8071 4.482415 277.00 222.32 17.00
674 19.8217 4.479131 300.00 237.89 17.00
675 19.8364 4.475851 277.00 255.88 17.00
676 19.8511 4.472577 309.00 276.80 18.00
677 19.8657 4.469309 313.00 301.18 18.00
678 19.8804 4.466044 372.00 329.75 19.00
679 19.8951 4.462784 374.00 363.28 19.00
680 19.9097 4.459529 435.00 402.67 21.00
681 19.9244 4.456279 487.00 448.92 22.00
682 19.9391 4.453036 513.00 503.01 23.00
683 19.9538 4.449795 533.00 565.95 23.00
684 19.9684 4.446559 602.00 638.36 25.00
685 19.9831 4.443327 638.00 720.24 25.00
686 19.9978 4.440101 757.00 810.36 28.00
687 20.0124 4.436882 831.00 905.53 29.00
688 20.0271 4.433665 969.00 1000.06 31.00
689 20.0418 4.430453 1069.00 1085.28 33.00
690 20.0564 4.427245 1166.00 1150.80 34.00
691 20.0711 4.424042 1193.00 1187.27 35.00
692 20.0858 4.420846 1223.00 1189.40 35.00
693 20.1004 4.417653 1160.00 1157.68 34.00
694 20.1151 4.414464 1070.00 1097.47 33.00
695 20.1298 4.411280 983.00 1016.86 31.00
696 20.1444 4.408103 945.00 924.75 31.00
697 20.1591 4.404929 758.00 829.36 28.00
698 20.1738 4.401758 722.00 737.54 27.00
699 20.1884 4.398593 612.00 653.82 25.00
700 20.2031 4.395432 516.00 580.39 23.00
701 20.2178 4.392278 507.00 517.68 23.00
702 20.2324 4.389126 467.00 464.94 22.00
703 20.2471 4.385979 439.00 421.03 21.00
704 20.2618 4.382837 399.00 384.67 20.00
705 20.2764 4.379699 377.00 354.65 19.00
706 20.2911 4.376568 397.00 329.93 20.00
707 20.3058 4.373439 329.00 309.59 18.00
708 20.3204 4.370315 319.00 292.95 18.00
709 20.3351 4.367196 294.00 279.43 17.00
710 20.3498 4.364080 325.00 268.59 18.00
711 20.3645 4.360972 334.00 260.09 18.00
712 20.3791 4.357866 296.00 253.65 17.00
713 20.3938 4.354764 293.00 249.09 17.00
714 20.4085 4.351667 295.00 246.27 17.00
715 20.4231 4.348574 299.00 245.10 17.00
716 20.4378 4.345488 318.00 245.53 18.00
717 20.4525 4.342404 292.00 247.58 17.00
718 20.4671 4.339325 302.00 251.31 17.00
719 20.4818 4.336250 307.00 256.83 18.00
720 20.4965 4.333182 338.00 264.31 18.00
721 20.5111 4.330116 314.00 274.01 18.00
722 20.5258 4.327054 297.00 286.24 17.00
723 20.5405 4.323997 373.00 301.45 19.00
724 20.5551 4.320944 368.00 320.19 19.00
725 20.5698 4.317897 354.00 343.16 19.00
726 20.5845 4.314853 410.00 371.28 20.00
727 20.5991 4.311814 451.00 405.66 21.00
728 20.6138 4.308778 493.00 447.68 22.00
729 20.6285 4.305747 533.00 499.00 23.00
730 20.6431 4.302722 541.00 561.52 23.00
731 20.6578 4.299700 688.00 637.53 26.00
732 20.6725 4.296682 710.00 729.26 27.00
733 20.6871 4.293668 774.00 838.79 28.00
734 20.7018 4.290659 945.00 967.00 31.00
735 20.7165 4.287655 1134.00 1112.21 34.00
736 20.7311 4.284655 1303.00 1268.09 36.00
737 20.7458 4.281658 1388.00 1420.83 37.00
738 20.7605 4.278666 1595.00 1549.15 40.00
739 20.7752 4.275678 1633.00 1629.80 40.00
740 20.7898 4.272696 1623.00 1647.78 40.00
741 20.8045 4.269716 1576.00 1603.54 40.00
742 20.8192 4.266740 1490.00 1509.63 39.00
743 20.8338 4.263769 1273.00 1382.15 36.00
744 20.8485 4.260804 1135.00 1236.67 34.00
745 20.8632 4.257842 1022.00 1087.81 32.00
746 20.8778 4.254882 936.00 948.57 31.00
747 20.8925 4.251928 822.00 827.29 29.00
748 20.9072 4.248978 704.00 727.07 27.00
749 20.9218 4.246034 680.00 647.36 26.00
750 20.9365 4.243092 621.00 585.62 25.00
751 20.9512 4.240154 580.00 539.13 24.00
752 20.9658 4.237220 564.00 505.36 24.00
753 20.9805 4.234290 574.00 482.25 24.00
754 20.9952 4.231367 550.00 468.23 23.00
755 21.0098 4.228446 510.00 462.08 23.00
756 21.0245 4.225528 447.00 462.88 21.00
757 21.0392 4.222615 480.00 469.82 22.00
758 21.0539 4.219706 471.00 482.08 22.00
759 21.0685 4.216803 472.00 498.62 22.00
760 21.0832 4.213902 513.00 518.12 23.00
761 21.0979 4.211005 535.00 538.71 23.00
762 21.1125 4.208112 519.00 558.06 23.00
763 21.1272 4.205224 601.00 573.53 25.00
764 21.1418 4.202341 554.00 582.56 24.00
765 21.1565 4.199460 627.00 583.23 25.00
766 21.1712 4.196583 609.00 574.69 25.00
767 21.1859 4.193710 602.00 557.28 25.00
768 21.2005 4.190842 542.00 532.34 23.00
769 21.2152 4.187979 537.00 501.84 23.00
770 21.2299 4.185118 479.00 467.94 22.00
771 21.2445 4.182261 478.00 432.77 22.00
772 21.2592 4.179409 379.00 398.14 19.00
773 21.2739 4.176561 382.00 365.39 20.00
774 21.2885 4.173717 291.00 335.29 17.00
775 21.3032 4.170876 285.00 308.22 17.00
776 21.3179 4.168038 291.00 284.23 17.00
777 21.3325 4.165205 249.00 263.17 16.00
778 21.3472 4.162378 233.00 244.78 15.00
779 21.3619 4.159553 230.00 228.71 15.00
780 21.3765 4.156731 232.00 214.70 15.00
781 21.3912 4.153913 196.00 202.44 14.00
782 21.4059 4.151100 196.00 191.69 14.00
783 21.4205 4.148292 197.00 182.24 14.00
784 21.4352 4.145486 178.00 173.88 13.00
785 21.4499 4.142684 205.00 166.48 14.00
786 21.4646 4.139886 157.00 159.88 13.00
787 21.4792 4.137092 180.00 153.99 13.00
788 21.4939 4.134304 145.00 148.70 12.00
789 21.5086 4.131516 132.00 143.94 11.00
790 21.5232 4.128734 150.00 139.63 12.00
791 21.5379 4.125955 145.00 135.73 12.00
792 21.5526 4.123179 148.00 132.18 12.00
793 21.5672 4.120410 132.00 125.81 11.00
794 21.5819 4.117642 127.00 122.91 11.00
795 21.5966 4.114879 144.00 120.26 12.00
796 21.6112 4.112118 114.00 117.82 11.00
797 21.6259 4.109364 107.00 114.07 10.00
798 21.6406 4.106611 137.00 112.03 12.00
799 21.6552 4.103863 98.00 110.15 10.00
800 21.6699 4.101118 114.00 108.42 11.00
801 21.6846 4.098376 112.00 106.81 11.00
802 21.6992 4.095640 100.00 105.31 10.00
803 21.7139 4.092907 102.00 103.92 10.00
804 21.7286 4.090177 106.00 102.62 10.00
805 21.7432 4.087450 100.00 101.41 10.00
806 21.7579 4.084727 113.00 100.28 11.00
807 21.7726 4.082010 95.00 99.22 10.00
808 21.7872 4.079295 95.00 98.22 10.00
809 21.8019 4.076583 98.00 97.29 10.00
810 21.8166 4.073875 96.00 96.41 10.00
811 21.8312 4.071171 102.00 95.59 10.00
812 21.8459 4.068472 104.00 94.81 10.00
813 21.8606 4.065775 80.00 94.07 9.00
814 21.8752 4.063081 82.00 93.38 9.00
815 21.8899 4.060392 93.00 92.72 10.00
816 21.9046 4.057705 100.00 92.10 10.00
817 21.9193 4.055025 98.00 91.51 10.00
818 21.9339 4.052346 82.00 90.96 9.00
819 21.9486 4.049670 73.00 90.43 9.00
820 21.9633 4.046999 81.00 89.92 9.00
821 21.9779 4.044332 74.00 84.90 9.00
822 21.9926 4.041667 81.00 84.56 9.00
823 22.0073 4.039007 87.00 84.23 9.00
824 22.0219 4.036349 62.00 83.92 8.00
825 22.0366 4.033695 81.00 81.42 9.00
826 22.0513 4.031047 82.00 81.20 9.00
827 22.0659 4.028400 92.00 80.98 10.00
828 22.0806 4.025757 61.00 80.78 8.00
829 22.0953 4.023117 91.00 80.59 10.00
830 22.1099 4.020481 76.00 80.40 9.00
831 22.1246 4.017850 87.00 80.23 9.00
832 22.1393 4.015221 77.00 80.06 9.00
833 22.1539 4.012595 77.00 79.91 9.00
834 22.1686 4.009974 75.00 79.76 9.00
835 22.1833 4.007354 73.00 79.62 9.00
836 22.1979 4.004741 63.00 79.48 8.00
837 22.2126 4.002130 61.00 79.36 8.00
838 22.2273 3.999521 72.00 79.23 8.00
839 22.2419 3.996917 70.00 79.12 8.00
840 22.2566 3.994315 61.00 79.01 8.00
841 22.2713 3.991719 79.00 78.90 9.00
842 22.2859 3.989125 67.00 78.81 8.00
843 22.3006 3.986534 77.00 78.71 9.00
844 22.3153 3.983946 80.00 78.62 9.00
845 22.3300 3.981364 64.00 78.54 8.00
846 22.3446 3.978783 63.00 78.45 8.00
847 22.3593 3.976206 83.00 78.38 9.00
848 22.3740 3.973632 89.00 78.20 9.00
849 22.3886 3.971061 65.00 77.99 8.00
850 22.4033 3.968496 79.00 77.77 9.00
851 22.4180 3.965932 75.00 77.56 9.00
852 22.4326 3.963372 76.00 77.36 9.00
853 22.4473 3.960815 73.00 77.15 9.00
854 22.4620 3.958261 76.00 76.95 9.00
855 22.4766 3.955713 73.00 76.75 9.00
856 22.4913 3.953166 65.00 76.56 8.00
857 22.5060 3.950622 59.00 76.36 8.00
858 22.5206 3.948082 60.00 76.17 8.00
859 22.5353 3.945545 81.00 75.98 9.00
860 22.5500 3.943013 76.00 75.80 9.00
861 22.5646 3.940483 85.00 75.61 9.00
862 22.5793 3.937956 76.00 75.43 9.00
863 22.5940 3.935432 69.00 75.25 8.00
864 22.6087 3.932912 78.00 75.07 9.00
865 22.6233 3.930396 66.00 74.90 8.00
866 22.6380 3.927883 86.00 74.72 9.00
867 22.6527 3.925372 75.00 74.55 9.00
868 22.6673 3.922864 89.00 74.37 9.00
869 22.6820 3.920361 70.00 74.20 8.00
870 22.6966 3.917862 70.00 74.04 8.00
871 22.7113 3.915364 66.00 73.87 8.00
872 22.7260 3.912870 60.00 73.70 8.00
873 22.7407 3.910379 76.00 73.54 9.00
874 22.7553 3.907893 65.00 73.37 8.00
875 22.7700 3.905408 61.00 73.21 8.00
876 22.7847 3.902927 63.00 73.05 8.00
877 22.7993 3.900449 70.00 72.89 8.00
878 22.8140 3.897974 55.00 72.73 7.00
879 22.8287 3.895504 72.00 72.57 8.00
880 22.8433 3.893035 83.00 72.41 9.00
881 22.8580 3.890570 60.00 72.26 8.00
882 22.8727 3.888108 65.00 72.10 8.00
883 22.8873 3.885649 54.00 71.95 7.00
884 22.9020 3.883195 79.00 71.79 9.00
885 22.9167 3.880742 65.00 71.64 8.00
886 22.9313 3.878293 66.00 71.49 8.00
887 22.9460 3.875846 64.00 71.34 8.00
888 22.9607 3.873403 63.00 71.19 8.00
889 22.9753 3.870965 72.00 71.04 8.00
890 22.9900 3.868528 56.00 69.69 7.00
891 23.0047 3.866094 71.00 69.56 8.00
892 23.0194 3.863664 58.00 69.43 8.00
893 23.0340 3.861236 60.00 69.30 8.00
894 23.0487 3.858814 68.00 68.59 8.00
895 23.0634 3.856392 59.00 68.47 8.00
896 23.0780 3.853974 56.00 68.35 7.00
897 23.0927 3.851559 62.00 68.23 8.00
898 23.1073 3.849149 59.00 68.11 8.00
899 23.1220 3.846740 76.00 68.00 9.00
900 23.1367 3.844334 80.00 67.88 9.00
901 23.1514 3.841931 50.00 67.76 7.00
902 23.1660 3.839531 64.00 67.64 8.00
903 23.1807 3.837136 48.00 67.52 7.00
904 23.1954 3.834743 69.00 67.40 8.00
905 23.2100 3.832352 60.00 67.28 8.00
906 23.2247 3.829964 71.00 67.16 8.00
907 23.2394 3.827580 55.00 67.04 7.00
908 23.2540 3.825200 69.00 66.92 8.00
909 23.2687 3.822822 75.00 66.80 9.00
910 23.2834 3.820447 67.00 66.68 8.00
911 23.2980 3.818074 63.00 66.57 8.00
912 23.3127 3.815705 59.00 66.45 8.00
913 23.3274 3.813340 81.00 66.33 9.00
914 23.3420 3.810977 54.00 66.21 7.00
915 23.3567 3.808616 49.00 66.09 7.00
916 23.3714 3.806259 81.00 65.97 9.00
917 23.3860 3.803904 60.00 65.85 8.00
918 23.4007 3.801554 72.00 65.73 8.00
919 23.4154 3.799206 64.00 65.61 8.00
920 23.4300 3.796860 64.00 65.49 8.00
921 23.4447 3.794518 47.00 65.37 7.00
922 23.4594 3.792180 61.00 65.25 8.00
923 23.4741 3.789843 76.00 65.13 9.00
924 23.4887 3.787509 53.00 65.01 7.00
925 23.5034 3.785178 70.00 64.89 8.00
926 23.5181 3.782850 53.00 64.78 7.00
927 23.5327 3.780527 56.00 64.66 7.00
928 23.5474 3.778205 75.00 64.54 9.00
929 23.5621 3.775886 64.00 64.42 8.00
930 23.5767 3.773570 56.00 64.30 7.00
931 23.5914 3.771256 52.00 64.18 7.00
932 23.6061 3.768947 72.00 64.06 8.00
933 23.6207 3.766640 50.00 63.94 7.00
934 23.6354 3.764335 66.00 63.82 8.00
935 23.6501 3.762033 67.00 63.70 8.00
936 23.6647 3.759735 62.00 63.58 8.00
937 23.6794 3.757440 63.00 63.46 8.00
938 23.6941 3.755147 65.00 63.34 8.00
939 23.7087 3.752857 77.00 63.22 9.00
940 23.7234 3.750569 66.00 63.10 8.00
941 23.7381 3.748285 58.00 62.99 8.00
942 23.7527 3.746004 59.00 62.87 8.00
943 23.7674 3.743726 65.00 62.75 8.00
944 23.7821 3.741450 59.00 62.63 8.00
945 23.7967 3.739176 48.00 62.51 7.00
946 23.8114 3.736907 73.00 62.39 9.00
947 23.8261 3.734640 69.00 62.27 8.00
948 23.8407 3.732375 66.00 62.15 8.00
949 23.8554 3.730113 68.00 62.03 8.00
950 23.8701 3.727854 63.00 61.91 8.00
951 23.8848 3.725599 61.00 61.79 8.00
952 23.8994 3.723345 47.00 61.67 7.00
953 23.9141 3.721094 66.00 61.55 8.00
954 23.9288 3.718846 66.00 61.72 8.00
955 23.9434 3.716601 61.00 62.21 8.00
956 23.9581 3.714360 52.00 62.90 7.00
957 23.9728 3.712120 68.00 63.47 8.00
958 23.9874 3.709883 60.00 64.12 8.00
959 24.0021 3.707649 51.00 64.81 7.00
960 24.0168 3.705417 80.00 65.63 9.00
961 24.0314 3.703190 62.00 66.50 8.00
962 24.0461 3.700964 80.00 67.65 9.00
963 24.0608 3.698741 69.00 69.65 8.00
964 24.0754 3.696520 88.00 75.48 9.00
965 24.0901 3.694302 76.00 81.25 9.00
966 24.1048 3.692089 72.00 90.97 8.00
967 24.1194 3.689877 105.00 109.30 10.00
968 24.1341 3.687667 130.00 132.27 11.00
969 24.1488 3.685460 141.00 131.45 12.00
970 24.1635 3.683255 128.00 108.67 11.00
971 24.1781 3.681055 84.00 99.39 9.00
972 24.1928 3.678857 97.00 104.09 10.00
973 24.2075 3.676660 106.00 103.27 10.00
974 24.2221 3.674467 84.00 90.10 9.00
975 24.2368 3.672277 111.00 80.51 11.00
976 24.2514 3.670089 77.00 77.13 9.00
977 24.2661 3.667904 83.00 75.95 9.00
978 24.2808 3.665721 79.00 75.52 9.00
979 24.2955 3.663541 88.00 75.51 9.00
980 24.3101 3.661365 92.00 75.67 10.00
981 24.3248 3.659190 87.00 75.91 9.00
982 24.3395 3.657018 104.00 75.86 10.00
983 24.3541 3.654848 87.00 76.28 9.00
984 24.3688 3.652681 85.00 76.73 9.00
985 24.3835 3.650518 75.00 77.18 9.00
986 24.3981 3.648356 77.00 77.49 9.00
987 24.4128 3.646197 81.00 77.98 9.00
988 24.4275 3.644041 84.00 78.47 9.00
989 24.4421 3.641887 85.00 78.97 9.00
990 24.4568 3.639737 66.00 79.46 8.00
991 24.4715 3.637589 77.00 79.95 9.00
992 24.4861 3.635442 66.00 80.44 8.00
993 24.5008 3.633299 76.00 80.94 9.00
994 24.5155 3.631158 84.00 81.43 9.00
995 24.5301 3.629021 84.00 81.92 9.00
996 24.5448 3.626885 78.00 82.42 9.00
997 24.5595 3.624752 87.00 82.91 9.00
998 24.5742 3.622622 96.00 83.40 10.00
999 24.5888 3.620495 87.00 83.53 9.00
1000 24.6035 3.618370 89.00 83.40 9.00
1001 24.6182 3.616246 90.00 83.26 9.00
1002 24.6328 3.614126 69.00 83.13 8.00
1003 24.6475 3.612008 73.00 82.99 9.00
1004 24.6621 3.609895 100.00 82.86 10.00
1005 24.6768 3.607781 82.00 82.72 9.00
1006 24.6915 3.605671 95.00 82.59 10.00
1007 24.7062 3.603564 79.00 82.45 9.00
1008 24.7208 3.601458 78.00 82.32 9.00
1009 24.7355 3.599357 90.00 82.18 9.00
1010 24.7502 3.597257 91.00 82.05 10.00
1011 24.7648 3.595159 82.00 81.91 9.00
1012 24.7795 3.593064 96.00 81.78 10.00
1013 24.7942 3.590971 84.00 81.64 9.00
1014 24.8088 3.588883 75.00 81.51 9.00
1015 24.8235 3.586795 109.00 81.37 10.00
1016 24.8382 3.584710 101.00 81.24 10.00
1017 24.8528 3.582627 107.00 81.10 10.00
1018 24.8675 3.580547 109.00 80.97 10.00
1019 24.8822 3.578471 105.00 80.83 10.00
1020 24.8968 3.576396 97.00 80.70 10.00
1021 24.9115 3.574322 118.00 80.56 11.00
1022 24.9262 3.572252 143.00 106.56 12.00
1023 24.9408 3.570185 141.00 119.27 12.00
1024 24.9555 3.568120 157.00 133.31 13.00
1025 24.9702 3.566057 203.00 149.51 14.00
1026 24.9848 3.563997 284.00 180.26 17.00
1027 24.9995 3.561938 322.00 214.63 18.00
1028 25.0142 3.559884 392.00 272.48 20.00
1029 25.0289 3.557831 581.00 401.64 24.00
1030 25.0435 3.555780 829.00 768.97 29.00
1031 25.0582 3.553731 1204.00 1127.82 35.00
1032 25.0729 3.551685 1900.00 1713.36 44.00
1033 25.0875 3.549643 3070.00 2804.58 55.00
1034 25.1022 3.547602 4840.00 4834.27 70.00
1035 25.1169 3.545563 6589.00 6875.75 81.00
1036 25.1315 3.543527 6590.00 6206.20 81.00
1037 25.1462 3.541493 4471.00 3970.85 67.00
1038 25.1609 3.539463 3190.00 3145.56 56.00
1039 25.1755 3.537434 3445.00 3567.31 59.00
1040 25.1902 3.535407 3488.00 3463.94 59.00
1041 25.2049 3.533382 2172.00 2141.32 47.00
1042 25.2195 3.531360 1083.00 1074.99 33.00
1043 25.2342 3.529342 588.00 623.79 24.00
1044 25.2489 3.527324 349.00 428.43 19.00
1045 25.2635 3.525310 300.00 315.67 17.00
1046 25.2782 3.523297 222.00 253.56 15.00
1047 25.2929 3.521288 196.00 214.22 14.00
1048 25.3075 3.519280 189.00 186.79 14.00
1049 25.3222 3.517274 141.00 164.12 12.00
1050 25.3369 3.515271 129.00 111.10 11.00
1051 25.3515 3.513271 122.00 104.32 11.00
1052 25.3662 3.511273 115.00 99.59 11.00
1053 25.3809 3.509277 88.00 95.98 9.00
1054 25.3955 3.507283 108.00 93.11 10.00
1055 25.4102 3.505292 93.00 75.96 10.00
1056 25.4249 3.503302 94.00 75.83 10.00
1057 25.4396 3.501317 101.00 75.69 10.00
1058 25.4542 3.499332 95.00 75.56 10.00
1059 25.4689 3.497350 82.00 75.42 9.00
1060 25.4836 3.495369 76.00 75.29 9.00
1061 25.4982 3.493392 85.00 75.15 9.00
1062 25.5129 3.491418 84.00 75.02 9.00
1063 25.5276 3.489445 79.00 74.88 9.00
1064 25.5422 3.487474 74.00 74.75 9.00
1065 25.5569 3.485505 78.00 74.61 9.00
1066 25.5716 3.483539 90.00 74.47 9.00
1067 25.5862 3.481576 63.00 74.34 8.00
1068 25.6009 3.479614 92.00 74.20 10.00
1069 25.6156 3.477655 59.00 74.07 8.00
1070 25.6302 3.475698 75.00 73.93 9.00
1071 25.6449 3.473744 61.00 73.80 8.00
1072 25.6596 3.471791 73.00 73.66 9.00
1073 25.6742 3.469841 70.00 73.53 8.00
1074 25.6889 3.467893 54.00 73.39 7.00
1075 25.7036 3.465946 83.00 73.25 9.00
1076 25.7182 3.464004 73.00 74.35 9.00
1077 25.7329 3.462063 65.00 74.30 8.00
1078 25.7476 3.460124 77.00 74.27 9.00
1079 25.7623 3.458186 66.00 74.21 8.00
1080 25.7769 3.456252 78.00 74.74 9.00
1081 25.7916 3.454320 65.00 74.71 8.00
1082 25.8062 3.452390 67.00 74.68 8.00
1083 25.8209 3.450462 72.00 74.64 8.00
1084 25.8356 3.448536 65.00 74.59 8.00
1085 25.8503 3.446612 90.00 74.54 9.00
1086 25.8649 3.444692 51.00 74.49 7.00
1087 25.8796 3.442772 71.00 74.44 8.00
1088 25.8943 3.440855 69.00 74.40 8.00
1089 25.9089 3.438940 67.00 74.35 8.00
1090 25.9236 3.437028 73.00 74.31 9.00
1091 25.9383 3.435118 76.00 74.27 9.00
1092 25.9529 3.433210 70.00 74.24 8.00
1093 25.9676 3.431304 59.00 74.21 8.00
1094 25.9823 3.429399 52.00 74.18 7.00
1095 25.9969 3.427497 75.00 74.16 9.00
1096 26.0116 3.425599 68.00 74.14 8.00
1097 26.0263 3.423702 72.00 74.12 8.00
1098 26.0409 3.421806 74.00 74.11 9.00
1099 26.0556 3.419913 78.00 74.11 9.00
1100 26.0703 3.418023 61.00 74.11 8.00
1101 26.0849 3.416134 56.00 74.12 7.00
1102 26.0996 3.414247 68.00 74.14 8.00
1103 26.1143 3.412362 71.00 74.16 8.00
1104 26.1290 3.410480 69.00 74.19 8.00
1105 26.1436 3.408601 47.00 74.22 7.00
1106 26.1583 3.406723 85.00 74.27 9.00
1107 26.1730 3.404846 63.00 74.32 8.00
1108 26.1876 3.402972 73.00 74.39 9.00
1109 26.2023 3.401100 80.00 74.46 9.00
1110 26.2169 3.399232 62.00 74.55 8.00
1111 26.2316 3.397364 77.00 74.64 9.00
1112 26.2463 3.395498 66.00 74.76 8.00
1113 26.2610 3.393635 72.00 74.88 8.00
1114 26.2756 3.391773 73.00 75.20 9.00
1115 26.2903 3.389915 69.00 75.37 8.00
1116 26.3050 3.388058 60.00 75.56 8.00
1117 26.3196 3.386203 70.00 75.76 8.00
1118 26.3343 3.384350 83.00 75.99 9.00
1119 26.3490 3.382499 73.00 76.32 9.00
1120 26.3636 3.380651 62.00 76.63 8.00
1121 26.3783 3.378805 71.00 76.97 8.00
1122 26.3930 3.376960 74.00 77.35 9.00
1123 26.4076 3.375117 82.00 77.76 9.00
1124 26.4223 3.373278 63.00 78.20 8.00
1125 26.4370 3.371439 72.00 78.69 8.00
1126 26.4516 3.369603 83.00 79.23 9.00
1127 26.4663 3.367768 75.00 79.82 9.00
1128 26.4810 3.365936 88.00 80.47 9.00
1129 26.4956 3.364107 82.00 81.19 9.00
1130 26.5103 3.362279 92.00 81.99 10.00
1131 26.5250 3.360452 81.00 82.87 9.00
1132 26.5396 3.358628 92.00 83.85 10.00
1133 26.5543 3.356806 79.00 84.95 9.00
1134 26.5690 3.354987 111.00 86.17 11.00
1135 26.5837 3.353169 91.00 87.54 10.00
1136 26.5983 3.351353 86.00 89.09 9.00
1137 26.6130 3.349539 96.00 90.82 10.00
1138 26.6277 3.347726 108.00 92.77 10.00
1139 26.6423 3.345918 108.00 94.97 10.00
1140 26.6570 3.344110 120.00 97.46 11.00
1141 26.6717 3.342304 105.00 100.29 10.00
1142 26.6863 3.340500 101.00 103.53 10.00
1143 26.7010 3.338698 111.00 107.25 11.00
1144 26.7157 3.336899 118.00 111.54 11.00
1145 26.7303 3.335101 135.00 116.53 12.00
1146 26.7450 3.333305 130.00 122.37 11.00
1147 26.7597 3.331511 116.00 129.23 11.00
1148 26.7743 3.329720 136.00 137.35 12.00
1149 26.7890 3.327930 156.00 147.03 12.00
1150 26.8037 3.326142 169.00 158.62 13.00
1151 26.8183 3.324355 179.00 172.54 13.00
1152 26.8330 3.322572 196.00 189.33 14.00
1153 26.8477 3.320791 197.00 209.58 14.00
1154 26.8623 3.319010 213.00 233.98 15.00
1155 26.8770 3.317232 264.00 263.15 16.00
1156 26.8917 3.315456 302.00 297.55 17.00
1157 26.9063 3.313681 304.00 337.04 17.00
1158 26.9210 3.311910 385.00 380.29 20.00
1159 26.9357 3.310139 405.00 424.35 20.00
1160 26.9503 3.308371 462.00 464.14 21.00
1161 26.9650 3.306605 572.00 493.57 24.00
1162 26.9797 3.304840 563.00 507.87 24.00
1163 26.9944 3.303078 521.00 505.95 23.00
1164 27.0090 3.301318 554.00 490.45 24.00
1165 27.0237 3.299559 483.00 465.28 22.00
1166 27.0384 3.297802 451.00 433.44 21.00
1167 27.0530 3.296047 385.00 396.86 20.00
1168 27.0677 3.294295 414.00 357.63 20.00
1169 27.0824 3.292544 337.00 318.35 18.00
1170 27.0970 3.290795 283.00 281.62 17.00
1171 27.1117 3.289047 238.00 249.08 15.00
1172 27.1264 3.287303 225.00 221.36 15.00
1173 27.1410 3.285560 213.00 198.24 15.00
1174 27.1557 3.283818 180.00 179.18 13.00
1175 27.1704 3.282079 163.00 163.52 13.00
1176 27.1850 3.280341 150.00 150.62 12.00
1177 27.1997 3.278606 152.00 139.95 12.00
1178 27.2144 3.276872 142.00 131.06 12.00
1179 27.2290 3.275140 128.00 123.60 11.00
1180 27.2437 3.273410 164.00 117.31 13.00
1181 27.2584 3.271681 114.00 111.96 11.00
1182 27.2730 3.269956 109.00 107.38 10.00
1183 27.2877 3.268231 101.00 103.43 10.00
1184 27.3024 3.266509 113.00 100.01 11.00
1185 27.3171 3.264787 114.00 97.04 11.00
1186 27.3317 3.263069 116.00 94.45 11.00
1187 27.3464 3.261353 115.00 92.18 11.00
1188 27.3610 3.259638 102.00 90.20 10.00
1189 27.3757 3.257924 99.00 88.46 10.00
1190 27.3904 3.256212 92.00 86.95 10.00
1191 27.4051 3.254503 112.00 85.64 11.00
1192 27.4197 3.252796 103.00 84.51 10.00
1193 27.4344 3.251090 90.00 83.55 9.00
1194 27.4491 3.249386 75.00 82.74 9.00
1195 27.4637 3.247683 90.00 82.09 9.00
1196 27.4784 3.245983 82.00 81.58 9.00
1197 27.4931 3.244285 85.00 81.21 9.00
1198 27.5077 3.242588 73.00 80.99 9.00
1199 27.5224 3.240893 100.00 80.92 10.00
1200 27.5371 3.239200 80.00 81.00 9.00
1201 27.5517 3.237510 91.00 81.25 10.00
1202 27.5664 3.235820 101.00 81.68 10.00
1203 27.5811 3.234133 105.00 82.33 10.00
1204 27.5957 3.232447 69.00 83.21 8.00
1205 27.6104 3.230762 89.00 84.36 9.00
1206 27.6251 3.229081 105.00 85.83 10.00
1207 27.6397 3.227401 107.00 87.66 10.00
1208 27.6544 3.225722 94.00 89.92 10.00
1209 27.6691 3.224045 100.00 92.67 10.00
1210 27.6838 3.222370 100.00 95.96 10.00
1211 27.6984 3.220698 96.00 99.84 10.00
1212 27.7131 3.219027 108.00 104.32 10.00
1213 27.7278 3.217357 93.00 109.33 10.00
1214 27.7424 3.215688 106.00 114.68 10.00
1215 27.7571 3.214022 113.00 120.03 11.00
1216 27.7717 3.212359 138.00 124.88 12.00
1217 27.7864 3.210696 133.00 128.64 12.00
1218 27.8011 3.209036 111.00 130.83 11.00
1219 27.8158 3.207377 159.00 131.20 13.00
1220 27.8304 3.205719 143.00 129.83 12.00
1221 27.8451 3.204065 138.00 127.01 12.00
1222 27.8598 3.202411 110.00 123.08 10.00
1223 27.8744 3.200759 114.00 118.34 11.00
1224 27.8891 3.199109 120.00 113.07 11.00
1225 27.9038 3.197461 110.00 107.57 10.00
1226 27.9184 3.195815 120.00 102.14 11.00
1227 27.9331 3.194170 118.00 97.02 11.00
1228 27.9478 3.192526 107.00 92.37 10.00
1229 27.9624 3.190885 105.00 88.27 10.00
1230 27.9771 3.189246 75.00 84.71 9.00
1231 27.9918 3.187608 91.00 81.65 10.00
1232 28.0064 3.185972 63.00 79.03 8.00
1233 28.0211 3.184337 90.00 76.78 9.00
1234 28.0358 3.182704 65.00 74.85 8.00
1235 28.0504 3.181074 80.00 73.19 9.00
1236 28.0651 3.179445 68.00 71.74 8.00
1237 28.0798 3.177817 63.00 70.47 8.00
1238 28.0944 3.176191 59.00 69.36 8.00
1239 28.1091 3.174567 55.00 68.37 7.00
1240 28.1238 3.172945 83.00 67.49 9.00
1241 28.1385 3.171324 62.00 66.70 8.00
1242 28.1531 3.169705 62.00 65.99 8.00
1243 28.1678 3.168088 55.00 65.35 7.00
1244 28.1825 3.166472 62.00 64.76 8.00
1245 28.1971 3.164859 58.00 64.22 8.00
1246 28.2118 3.163247 54.00 63.72 7.00
1247 28.2265 3.161636 62.00 63.26 8.00
1248 28.2411 3.160027 48.00 62.84 7.00
1249 28.2558 3.158421 63.00 61.09 8.00
1250 28.2705 3.156815 65.00 60.76 8.00
1251 28.2851 3.155211 59.00 60.44 8.00
1252 28.2998 3.153609 49.00 60.14 7.00
1253 28.3145 3.152008 55.00 59.20 7.00
1254 28.3291 3.150411 49.00 58.95 7.00
1255 28.3438 3.148813 61.00 58.72 8.00
1256 28.3585 3.147218 58.00 58.50 8.00
1257 28.3731 3.145624 61.00 58.29 8.00
1258 28.3878 3.144032 59.00 58.10 8.00
1259 28.4025 3.142442 53.00 57.92 7.00
1260 28.4171 3.140854 60.00 57.85 8.00
1261 28.4318 3.139266 48.00 57.80 7.00
1262 28.4465 3.137681 59.00 57.75 8.00
1263 28.4611 3.136097 59.00 57.72 8.00
1264 28.4758 3.134516 50.00 57.69 7.00
1265 28.4905 3.132935 55.00 57.67 7.00
1266 28.5051 3.131356 65.00 57.65 8.00
1267 28.5198 3.129779 53.00 57.64 7.00
1268 28.5345 3.128203 39.00 57.62 6.00
1269 28.5492 3.126630 52.00 57.61 7.00
1270 28.5638 3.125058 71.00 57.58 8.00
1271 28.5785 3.123487 48.00 57.56 7.00
1272 28.5932 3.121917 59.00 57.52 8.00
1273 28.6078 3.120351 59.00 57.49 8.00
1274 28.6225 3.118785 44.00 57.46 7.00
1275 28.6372 3.117221 54.00 57.42 7.00
1276 28.6518 3.115658 52.00 57.38 7.00
1277 28.6665 3.114097 53.00 57.35 7.00
1278 28.6812 3.112539 51.00 57.32 7.00
1279 28.6958 3.110981 64.00 57.29 8.00
1280 28.7105 3.109425 57.00 57.27 8.00
1281 28.7252 3.107870 48.00 57.25 7.00
1282 28.7398 3.106317 55.00 57.24 7.00
1283 28.7545 3.104767 58.00 57.23 8.00
1284 28.7692 3.103217 47.00 57.22 7.00
1285 28.7838 3.101669 48.00 57.21 7.00
1286 28.7985 3.100122 50.00 57.21 7.00
1287 28.8132 3.098577 44.00 57.21 7.00
1288 28.8278 3.097035 55.00 57.21 7.00
1289 28.8425 3.095493 51.00 57.21 7.00
1290 28.8572 3.093953 55.00 57.21 7.00
1291 28.8718 3.092414 55.00 57.21 7.00
1292 28.8865 3.090877 62.00 57.22 8.00
1293 28.9012 3.089342 44.00 57.22 7.00
1294 28.9158 3.087809 57.00 57.23 8.00
1295 28.9305 3.086276 67.00 57.24 8.00
1296 28.9452 3.084745 64.00 57.24 8.00
1297 28.9599 3.083216 52.00 57.25 7.00
1298 28.9745 3.081690 46.00 57.26 7.00
1299 28.9892 3.080163 52.00 57.27 7.00
1300 29.0039 3.078639 51.00 57.28 7.00
1301 29.0185 3.077116 55.00 57.29 7.00
1302 29.0332 3.075596 62.00 57.30 8.00
1303 29.0479 3.074075 57.00 57.31 8.00
1304 29.0625 3.072557 55.00 57.33 7.00
1305 29.0772 3.071041 44.00 57.34 7.00
1306 29.0919 3.069525 56.00 57.35 7.00
1307 29.1065 3.068013 48.00 57.36 7.00
1308 29.1212 3.066500 47.00 57.38 7.00
1309 29.1359 3.064990 55.00 57.39 7.00
1310 29.1505 3.063481 45.00 57.41 7.00
1311 29.1652 3.061973 65.00 57.42 8.00
1312 29.1799 3.060468 60.00 57.44 8.00
1313 29.1945 3.058964 47.00 57.45 7.00
1314 29.2092 3.057461 57.00 57.47 8.00
1315 29.2239 3.055959 60.00 57.48 8.00
1316 29.2386 3.054460 44.00 57.50 7.00
1317 29.2532 3.052962 47.00 57.51 7.00
1318 29.2679 3.051466 62.00 57.53 8.00
1319 29.2826 3.049970 61.00 57.55 8.00
1320 29.2972 3.048476 51.00 57.56 7.00
1321 29.3119 3.046984 48.00 57.58 7.00
1322 29.3265 3.045494 54.00 57.60 7.00
1323 29.3412 3.044005 68.00 57.42 8.00
1324 29.3559 3.042517 60.00 57.44 8.00
1325 29.3706 3.041031 54.00 57.46 7.00
1326 29.3852 3.039547 57.00 57.48 8.00
1327 29.3999 3.038064 60.00 57.50 8.00
1328 29.4146 3.036582 53.00 57.42 7.00
1329 29.4292 3.035102 53.00 57.45 7.00
1330 29.4439 3.033623 57.00 57.47 8.00
1331 29.4586 3.032146 58.00 57.49 8.00
1332 29.4732 3.030671 51.00 57.52 7.00
1333 29.4879 3.029197 64.00 57.54 8.00
1334 29.5026 3.027724 55.00 57.56 7.00
1335 29.5172 3.026252 60.00 57.59 8.00
1336 29.5319 3.024783 56.00 58.57 7.00
1337 29.5466 3.023315 57.00 59.59 8.00
1338 29.5612 3.021848 56.00 60.61 7.00
1339 29.5759 3.020383 68.00 61.63 8.00
1340 29.5906 3.018919 59.00 62.65 8.00
1341 29.6052 3.017457 63.00 63.67 8.00
1342 29.6199 3.015996 80.00 64.69 9.00
1343 29.6346 3.014536 88.00 65.71 9.00
1344 29.6493 3.013078 86.00 66.73 9.00
1345 29.6639 3.011621 77.00 67.75 9.00
1346 29.6786 3.010167 79.00 68.78 9.00
1347 29.6933 3.008713 63.00 69.80 8.00
1348 29.7079 3.007261 81.00 70.82 9.00
1349 29.7226 3.005810 62.00 71.84 8.00
1350 29.7372 3.004362 72.00 72.86 8.00
1351 29.7519 3.002914 67.00 73.88 8.00
1352 29.7666 3.001467 76.00 74.90 9.00
1353 29.7813 3.000022 64.00 75.92 8.00
1354 29.7959 2.998579 60.00 76.94 8.00
1355 29.8106 2.997137 81.00 77.96 9.00
1356 29.8253 2.995697 62.00 78.98 8.00
1357 29.8399 2.994257 77.00 80.00 9.00
1358 29.8546 2.992820 71.00 81.02 8.00
1359 29.8693 2.991383 78.00 82.05 9.00
1360 29.8839 2.989949 107.00 83.07 10.00
1361 29.8986 2.988516 120.00 84.09 11.00
1362 29.9133 2.987083 139.00 85.11 12.00
1363 29.9279 2.985652 126.00 86.13 11.00
1364 29.9426 2.984223 100.00 87.15 10.00
1365 29.9573 2.982796 102.00 88.17 10.00
1366 29.9719 2.981369 107.00 89.19 10.00
1367 29.9866 2.979944 107.00 90.21 10.00
1368 30.0013 2.978521 107.00 91.23 10.00
1369 30.0159 2.977098 117.00 92.25 11.00
1370 30.0306 2.975678 108.00 93.27 10.00
1371 30.0453 2.974259 116.00 94.29 11.00
1372 30.0599 2.972841 86.00 95.31 9.00
1373 30.0746 2.971424 115.00 96.33 11.00
1374 30.0893 2.970010 95.00 97.35 10.00
1375 30.1040 2.968596 99.00 98.37 10.00
1376 30.1186 2.967183 121.00 99.39 11.00
1377 30.1333 2.965772 116.00 100.41 11.00
1378 30.1480 2.964362 106.00 101.43 10.00
1379 30.1626 2.962955 94.00 102.45 10.00
1380 30.1773 2.961548 85.00 103.47 9.00
1381 30.1920 2.960143 107.00 104.49 10.00
1382 30.2066 2.958739 101.00 105.51 10.00
1383 30.2213 2.957336 97.00 106.53 10.00
1384 30.2360 2.955935 106.00 107.55 10.00
1385 30.2506 2.954535 125.00 108.57 11.00
1386 30.2653 2.953137 124.00 109.59 11.00
1387 30.2800 2.951739 97.00 110.61 10.00
1388 30.2946 2.950343 106.00 111.64 10.00
1389 30.3093 2.948950 130.00 112.65 11.00
1390 30.3240 2.947556 92.00 113.67 10.00
1391 30.3386 2.946165 117.00 114.30 11.00
1392 30.3533 2.944774 132.00 114.06 11.00
1393 30.3680 2.943385 133.00 113.82 12.00
1394 30.3826 2.941998 114.00 113.58 11.00
1395 30.3973 2.940612 117.00 113.34 11.00
1396 30.4120 2.939227 113.00 113.10 11.00
1397 30.4266 2.937843 110.00 112.86 10.00
1398 30.4413 2.936461 112.00 112.62 11.00
1399 30.4560 2.935081 119.00 112.39 11.00
1400 30.4706 2.933701 111.00 112.15 11.00
1401 30.4853 2.932323 119.00 111.91 11.00
1402 30.5000 2.930946 121.00 111.67 11.00
1403 30.5147 2.929571 141.00 111.43 12.00
1404 30.5293 2.928197 121.00 111.19 11.00
1405 30.5440 2.926824 123.00 110.95 11.00
1406 30.5587 2.925452 133.00 110.71 12.00
1407 30.5733 2.924082 122.00 110.47 11.00
1408 30.5880 2.922714 151.00 110.23 12.00
1409 30.6027 2.921347 139.00 109.99 12.00
1410 30.6173 2.919980 145.00 109.75 12.00
1411 30.6320 2.918615 166.00 109.51 13.00
1412 30.6467 2.917252 170.00 109.27 13.00
1413 30.6613 2.915890 153.00 109.03 12.00
1414 30.6760 2.914529 166.00 108.79 13.00
1415 30.6907 2.913170 158.00 108.55 13.00
1416 30.7053 2.911811 181.00 108.31 13.00
1417 30.7200 2.910454 194.00 108.07 14.00
1418 30.7347 2.909099 214.00 107.83 15.00
1419 30.7493 2.907745 209.00 107.59 14.00
1420 30.7640 2.906392 210.00 157.70 14.00
1421 30.7787 2.905040 269.00 176.03 16.00
1422 30.7934 2.903689 312.00 206.64 18.00
1423 30.8080 2.902341 394.00 241.68 20.00
1424 30.8227 2.900993 416.00 281.21 20.00
1425 30.8374 2.899647 512.00 354.06 23.00
1426 30.8520 2.898301 627.00 431.86 25.00
1427 30.8667 2.896958 760.00 554.08 28.00
1428 30.8813 2.895615 948.00 786.90 31.00
1429 30.8960 2.894274 1506.00 1456.20 39.00
1430 30.9107 2.892934 2289.00 2213.19 48.00
1431 30.9254 2.891595 3612.00 3434.52 60.00
1432 30.9400 2.890258 5939.00 5712.30 77.00
1433 30.9547 2.888922 10019.00 10042.40 100.00
1434 30.9694 2.887587 15403.00 15989.20 124.00
1435 30.9840 2.886253 17459.00 17665.00 132.00
1436 30.9987 2.884921 12306.00 11998.30 111.00
1437 31.0134 2.883591 7452.00 7171.34 86.00
1438 31.0280 2.882261 6197.00 6307.48 79.00
1439 31.0427 2.880932 7666.00 7918.16 88.00
1440 31.0574 2.879605 9115.00 9174.70 95.00
1441 31.0720 2.878278 7267.00 7065.55 85.00
1442 31.0867 2.876955 4008.00 3919.56 63.00
1443 31.1014 2.875631 1988.00 2085.86 45.00
1444 31.1160 2.874309 1174.00 1290.94 34.00
1445 31.1307 2.872988 779.00 878.42 28.00
1446 31.1454 2.871668 568.00 656.53 24.00
1447 31.1600 2.870350 425.00 524.03 21.00
1448 31.1747 2.869033 353.00 435.12 19.00
1449 31.1894 2.867717 328.00 370.51 18.00
1450 31.2041 2.866402 255.00 305.11 16.00
1451 31.2187 2.865090 242.00 186.86 16.00
1452 31.2334 2.863778 212.00 170.45 15.00
1453 31.2481 2.862467 216.00 158.79 15.00
1454 31.2627 2.861157 184.00 149.86 14.00
1455 31.2774 2.859848 173.00 142.76 13.00
1456 31.2920 2.858542 163.00 98.70 13.00
1457 31.3067 2.857236 152.00 98.46 12.00
1458 31.3214 2.855931 138.00 98.22 12.00
1459 31.3361 2.854628 145.00 97.98 12.00
1460 31.3507 2.853325 126.00 97.74 11.00
1461 31.3654 2.852025 140.00 98.02 12.00
1462 31.3801 2.850725 129.00 97.81 11.00
1463 31.3947 2.849427 138.00 97.60 12.00
1464 31.4094 2.848129 121.00 97.38 11.00
1465 31.4241 2.846833 114.00 97.15 11.00
1466 31.4387 2.845539 122.00 96.93 11.00
1467 31.4534 2.844246 139.00 96.96 12.00
1468 31.4681 2.842953 117.00 96.74 11.00
1469 31.4827 2.841662 106.00 96.53 10.00
1470 31.4974 2.840372 95.00 96.31 10.00
1471 31.5121 2.839084 106.00 96.09 10.00
1472 31.5267 2.837796 107.00 95.87 10.00
1473 31.5414 2.836510 96.00 95.65 10.00
1474 31.5561 2.835225 106.00 95.42 10.00
1475 31.5707 2.833942 97.00 95.20 10.00
1476 31.5854 2.832659 89.00 94.98 9.00
1477 31.6001 2.831377 99.00 94.76 10.00
1478 31.6147 2.830097 96.00 94.55 10.00
1479 31.6294 2.828818 90.00 94.33 9.00
1480 31.6441 2.827541 89.00 94.11 9.00
1481 31.6588 2.826264 102.00 93.89 10.00
1482 31.6734 2.824989 77.00 93.68 9.00
1483 31.6881 2.823714 88.00 93.46 9.00
1484 31.7028 2.822441 99.00 93.25 10.00
1485 31.7174 2.821170 83.00 93.01 9.00
1486 31.7321 2.819899 96.00 92.76 10.00
1487 31.7468 2.818630 79.00 92.52 9.00
1488 31.7614 2.817361 94.00 92.27 10.00
1489 31.7761 2.816094 108.00 92.03 10.00
1490 31.7908 2.814829 102.00 94.89 10.00
1491 31.8054 2.813564 87.00 95.76 9.00
1492 31.8201 2.812300 92.00 97.32 10.00
1493 31.8348 2.811038 97.00 99.13 10.00
1494 31.8494 2.809777 89.00 101.15 9.00
1495 31.8641 2.808517 95.00 103.65 10.00
1496 31.8788 2.807258 100.00 108.78 10.00
1497 31.8934 2.806000 120.00 114.81 11.00
1498 31.9081 2.804744 128.00 125.57 11.00
1499 31.9228 2.803490 128.00 156.81 11.00
1500 31.9374 2.802235 176.00 197.69 13.00
1501 31.9521 2.800982 215.00 256.31 15.00
1502 31.9668 2.799730 341.00 362.60 18.00
1503 31.9814 2.798480 583.00 567.91 24.00
1504 31.9961 2.797231 924.00 921.16 30.00
1505 32.0108 2.795982 1247.00 1218.98 35.00
1506 32.0255 2.794735 1142.00 1040.03 34.00
1507 32.0401 2.793489 689.00 656.56 26.00
1508 32.0548 2.792244 459.00 471.11 21.00
1509 32.0695 2.791001 445.00 496.12 21.00
1510 32.0841 2.789758 592.00 619.94 24.00
1511 32.0988 2.788517 643.00 648.77 25.00
1512 32.1135 2.787276 480.00 469.73 22.00
1513 32.1281 2.786037 260.00 286.64 16.00
1514 32.1428 2.784800 156.00 194.48 12.00
1515 32.1575 2.783563 115.00 152.32 11.00
1516 32.1721 2.782327 84.00 130.63 9.00
1517 32.1868 2.781093 104.00 118.68 10.00
1518 32.2015 2.779859 89.00 111.03 9.00
1519 32.2161 2.778628 87.00 105.72 9.00
1520 32.2308 2.777396 102.00 101.70 10.00
1521 32.2455 2.776167 101.00 97.37 10.00
1522 32.2601 2.774938 81.00 90.29 9.00
1523 32.2748 2.773710 77.00 89.18 9.00
1524 32.2895 2.772484 75.00 88.35 9.00
1525 32.3041 2.771259 72.00 87.68 8.00
1526 32.3188 2.770034 64.00 87.12 8.00
1527 32.3335 2.768811 86.00 84.27 9.00
1528 32.3481 2.767589 75.00 84.15 9.00
1529 32.3628 2.766368 82.00 84.03 9.00
1530 32.3775 2.765149 76.00 83.93 9.00
1531 32.3922 2.763930 71.00 83.84 8.00
1532 32.4068 2.762712 79.00 83.75 9.00
1533 32.4215 2.761497 77.00 83.68 9.00
1534 32.4361 2.760281 56.00 83.62 7.00
1535 32.4508 2.759067 69.00 83.58 8.00
1536 32.4655 2.757854 73.00 83.55 9.00
1537 32.4802 2.756641 67.00 83.54 8.00
1538 32.4948 2.755431 93.00 83.54 10.00
1539 32.5095 2.754221 74.00 83.57 9.00
1540 32.5242 2.753013 90.00 83.61 9.00
1541 32.5388 2.751805 84.00 83.71 9.00
1542 32.5535 2.750598 85.00 83.84 9.00
1543 32.5682 2.749394 89.00 84.01 9.00
1544 32.5828 2.748189 72.00 84.20 8.00
1545 32.5975 2.746986 75.00 84.43 9.00
1546 32.6122 2.745784 68.00 84.70 8.00
1547 32.6268 2.744583 87.00 85.02 9.00
1548 32.6415 2.743384 87.00 85.38 9.00
1549 32.6562 2.742185 76.00 85.80 9.00
1550 32.6708 2.740987 80.00 86.28 9.00
1551 32.6855 2.739790 70.00 86.83 8.00
1552 32.7002 2.738595 64.00 87.46 8.00
1553 32.7148 2.737401 82.00 88.18 9.00
1554 32.7295 2.736207 75.00 89.00 9.00
1555 32.7442 2.735015 73.00 89.93 9.00
1556 32.7589 2.733824 87.00 90.99 9.00
1557 32.7735 2.732635 67.00 92.19 8.00
1558 32.7882 2.731445 77.00 93.56 9.00
1559 32.8028 2.730258 97.00 95.12 10.00
1560 32.8175 2.729070 102.00 96.89 10.00
1561 32.8322 2.727885 91.00 98.92 10.00
1562 32.8469 2.726701 98.00 101.24 10.00
1563 32.8615 2.725517 107.00 103.90 10.00
1564 32.8762 2.724334 104.00 106.96 10.00
1565 32.8909 2.723152 108.00 110.48 10.00
1566 32.9055 2.721972 108.00 114.54 10.00
1567 32.9202 2.720794 95.00 119.23 10.00
1568 32.9349 2.719615 130.00 125.34 11.00
1569 32.9495 2.718438 126.00 131.88 11.00
1570 32.9642 2.717262 143.00 139.57 12.00
1571 32.9789 2.716086 133.00 148.44 12.00
1572 32.9935 2.714913 141.00 158.61 12.00
1573 33.0082 2.713740 177.00 170.23 13.00
1574 33.0229 2.712568 193.00 183.76 14.00
1575 33.0375 2.711397 228.00 198.78 15.00
1576 33.0522 2.710228 237.00 216.34 15.00
1577 33.0669 2.709059 246.00 240.45 16.00
1578 33.0815 2.707891 290.00 264.90 17.00
1579 33.0962 2.706725 333.00 295.58 18.00
1580 33.1109 2.705559 354.00 341.87 19.00
1581 33.1255 2.704395 438.00 419.31 21.00
1582 33.1402 2.703232 475.00 503.62 22.00
1583 33.1549 2.702069 518.00 495.80 23.00
1584 33.1696 2.700907 392.00 395.05 20.00
1585 33.1842 2.699747 313.00 323.58 18.00
1586 33.1989 2.698588 321.00 305.42 18.00
1587 33.2136 2.697430 328.00 319.43 18.00
1588 33.2282 2.696272 339.00 333.13 18.00
1589 33.2429 2.695116 315.00 298.17 18.00
1590 33.2576 2.693961 223.00 237.52 15.00
1591 33.2722 2.692807 178.00 194.41 13.00
1592 33.2869 2.691654 168.00 169.60 13.00
1593 33.3016 2.690502 133.00 153.05 12.00
1594 33.3162 2.689351 162.00 140.84 13.00
1595 33.3309 2.688201 126.00 130.99 11.00
1596 33.3456 2.687052 120.00 122.80 11.00
1597 33.3602 2.685905 133.00 115.80 12.00
1598 33.3749 2.684757 96.00 108.39 10.00
1599 33.3896 2.683612 125.00 103.44 11.00
1600 33.4042 2.682467 100.00 99.21 10.00
1601 33.4189 2.681323 99.00 95.52 10.00
1602 33.4336 2.680180 124.00 92.27 11.00
1603 33.4482 2.679039 89.00 89.39 9.00
1604 33.4629 2.677897 103.00 86.31 10.00
1605 33.4776 2.676758 86.00 84.08 9.00
1606 33.4922 2.675619 95.00 82.06 10.00
1607 33.5069 2.674482 96.00 80.24 10.00
1608 33.5216 2.673344 102.00 78.58 10.00
1609 33.5363 2.672209 89.00 77.06 9.00
1610 33.5509 2.671075 85.00 75.67 9.00
1611 33.5656 2.669941 86.00 74.39 9.00
1612 33.5802 2.668808 73.00 73.21 9.00
1613 33.5949 2.667676 77.00 72.11 9.00
1614 33.6096 2.666545 73.00 71.10 9.00
1615 33.6242 2.665416 73.00 70.15 9.00
1616 33.6389 2.664287 73.00 69.26 9.00
1617 33.6536 2.663160 67.00 68.42 8.00
1618 33.6683 2.662033 86.00 67.64 9.00
1619 33.6829 2.660907 85.00 66.90 9.00
1620 33.6976 2.659783 72.00 66.20 8.00
1621 33.7123 2.658659 70.00 65.53 8.00
1622 33.7269 2.657536 63.00 64.89 8.00
1623 33.7416 2.656414 69.00 64.29 8.00
1624 33.7563 2.655293 70.00 63.71 8.00
1625 33.7709 2.654174 54.00 63.15 7.00
1626 33.7856 2.653055 64.00 62.62 8.00
1627 33.8003 2.651937 52.00 62.10 7.00
1628 33.8149 2.650820 61.00 61.65 8.00
1629 33.8296 2.649705 47.00 61.28 7.00
1630 33.8443 2.648590 60.00 60.93 8.00
1631 33.8589 2.647476 55.00 60.59 7.00
1632 33.8736 2.646363 77.00 60.27 9.00
1633 33.8883 2.645252 77.00 59.95 9.00
1634 33.9029 2.644141 53.00 59.65 7.00
1635 33.9176 2.643031 57.00 59.35 8.00
1636 33.9323 2.641922 60.00 59.07 8.00
1637 33.9469 2.640814 63.00 58.79 8.00
1638 33.9616 2.639707 62.00 58.53 8.00
1639 33.9763 2.638601 47.00 58.27 7.00
1640 33.9910 2.637496 49.00 58.02 7.00
1641 34.0056 2.636392 54.00 57.77 7.00
1642 34.0203 2.635288 54.00 57.53 7.00
1643 34.0350 2.634186 57.00 57.30 8.00
1644 34.0496 2.633085 59.00 57.07 8.00
1645 34.0643 2.631985 59.00 56.85 8.00
1646 34.0790 2.630886 73.00 56.63 9.00
1647 34.0936 2.629787 50.00 56.42 7.00
1648 34.1083 2.628690 47.00 56.21 7.00
1649 34.1230 2.627594 49.00 56.00 7.00
1650 34.1376 2.626498 52.00 55.79 7.00
1651 34.1523 2.625404 47.00 55.59 7.00
1652 34.1670 2.624310 60.00 55.39 8.00
1653 34.1816 2.623218 60.00 55.19 8.00
1654 34.1963 2.622126 62.00 55.00 8.00
1655 34.2110 2.621035 53.00 54.80 7.00
1656 34.2256 2.619946 63.00 54.61 8.00
1657 34.2403 2.618857 42.00 54.43 6.00
1658 34.2550 2.617769 59.00 54.24 8.00
1659 34.2696 2.616683 57.00 54.06 8.00
1660 34.2843 2.615597 59.00 53.88 8.00
1661 34.2990 2.614511 53.00 53.70 7.00
1662 34.3136 2.613427 48.00 53.52 7.00
1663 34.3283 2.612345 53.00 53.35 7.00
1664 34.3430 2.611263 44.00 53.18 7.00
1665 34.3577 2.610181 46.00 53.01 7.00
1666 34.3723 2.609101 47.00 52.84 7.00
1667 34.3870 2.608021 54.00 52.67 7.00
1668 34.4016 2.606943 56.00 52.51 7.00
1669 34.4163 2.605866 54.00 52.34 7.00
1670 34.4310 2.604789 51.00 52.18 7.00
1671 34.4457 2.603713 41.00 52.02 6.00
1672 34.4603 2.602638 50.00 51.86 7.00
1673 34.4750 2.601565 41.00 51.70 6.00
1674 34.4897 2.600492 46.00 51.54 7.00
1675 34.5043 2.599420 55.00 51.39 7.00
1676 34.5190 2.598349 46.00 51.23 7.00
1677 34.5337 2.597280 58.00 51.08 8.00
1678 34.5483 2.596211 61.00 50.92 8.00
1679 34.5630 2.595142 46.00 50.77 7.00
1680 34.5777 2.594075 44.00 50.62 7.00
1681 34.5923 2.593008 46.00 50.47 7.00
1682 34.6070 2.591944 33.00 50.32 6.00
1683 34.6217 2.590879 49.00 50.17 7.00
1684 34.6363 2.589815 45.00 50.02 7.00
1685 34.6510 2.588752 46.00 49.87 7.00
1686 34.6657 2.587690 44.00 49.72 7.00
1687 34.6803 2.586630 48.00 49.57 7.00
1688 34.6950 2.585570 57.00 49.53 8.00
1689 34.7097 2.584511 56.00 49.57 7.00
1690 34.7243 2.583452 51.00 49.61 7.00
1691 34.7390 2.582395 48.00 49.65 7.00
1692 34.7537 2.581339 35.00 49.68 6.00
1693 34.7683 2.580284 50.00 49.72 7.00
1694 34.7830 2.579229 45.00 49.76 7.00
1695 34.7977 2.578175 57.00 49.81 8.00
1696 34.8124 2.577123 46.00 49.85 7.00
1697 34.8270 2.576072 42.00 49.89 6.00
1698 34.8417 2.575020 66.00 49.93 8.00
1699 34.8564 2.573970 49.00 49.97 7.00
1700 34.8710 2.572921 44.00 50.01 7.00
1701 34.8857 2.571873 64.00 49.49 8.00
1702 34.9004 2.570826 49.00 49.55 7.00
1703 34.9150 2.569779 62.00 49.60 8.00
1704 34.9297 2.568733 36.00 49.65 6.00
1705 34.9444 2.567689 54.00 49.70 7.00
1706 34.9590 2.566646 68.00 49.76 8.00
1707 34.9737 2.565603 59.00 49.54 8.00
1708 34.9884 2.564561 41.00 49.59 6.00
1709 35.0030 2.563519 52.00 49.65 7.00
1710 35.0177 2.562479 49.00 49.71 7.00
1711 35.0324 2.561440 42.00 49.77 6.00
1712 35.0470 2.560402 52.00 49.83 7.00
1713 35.0617 2.559364 54.00 49.88 7.00
1714 35.0764 2.558327 56.00 49.94 7.00
1715 35.0910 2.557292 57.00 50.00 8.00
1716 35.1057 2.556257 65.00 50.06 8.00
1717 35.1204 2.555223 51.00 50.12 7.00
1718 35.1351 2.554190 44.00 50.17 7.00
1719 35.1497 2.553157 56.00 50.23 7.00
1720 35.1644 2.552126 47.00 50.29 7.00
1721 35.1791 2.551096 60.00 50.35 8.00
1722 35.1937 2.550066 52.00 50.40 7.00
1723 35.2084 2.549037 53.00 50.46 7.00
1724 35.2231 2.548009 54.00 50.52 7.00
1725 35.2377 2.546982 55.00 50.58 7.00
1726 35.2524 2.545956 60.00 50.64 8.00
1727 35.2671 2.544931 54.00 50.69 7.00
1728 35.2817 2.543906 57.00 50.75 8.00
1729 35.2964 2.542883 61.00 50.81 8.00
1730 35.3111 2.541861 58.00 50.87 8.00
1731 35.3257 2.540839 58.00 50.93 8.00
1732 35.3404 2.539818 61.00 50.98 8.00
1733 35.3551 2.538798 50.00 51.13 7.00
1734 35.3697 2.537778 54.00 51.40 7.00
1735 35.3844 2.536760 71.00 51.67 8.00
1736 35.3991 2.535743 49.00 51.94 7.00
1737 35.4137 2.534726 63.00 52.80 8.00
1738 35.4284 2.533710 57.00 53.31 8.00
1739 35.4431 2.532695 60.00 53.86 8.00
1740 35.4577 2.531681 44.00 54.44 7.00
1741 35.4724 2.530668 51.00 55.09 7.00
1742 35.4871 2.529655 61.00 55.87 8.00
1743 35.5018 2.528644 54.00 57.14 7.00
1744 35.5164 2.527633 57.00 58.84 8.00
1745 35.5311 2.526624 68.00 63.37 8.00
1746 35.5457 2.525615 89.00 69.37 9.00
1747 35.5604 2.524606 78.00 78.04 9.00
1748 35.5751 2.523599 99.00 93.96 10.00
1749 35.5898 2.522592 134.00 125.45 12.00
1750 35.6044 2.521587 191.00 181.31 14.00
1751 35.6191 2.520582 215.00 229.99 15.00
1752 35.6338 2.519578 206.00 205.40 14.00
1753 35.6484 2.518575 129.00 142.85 11.00
1754 35.6631 2.517574 112.00 108.25 11.00
1755 35.6778 2.516572 109.00 104.76 10.00
1756 35.6924 2.515571 110.00 121.01 10.00
1757 35.7071 2.514571 153.00 142.15 12.00
1758 35.7218 2.513572 142.00 137.68 12.00
1759 35.7364 2.512575 96.00 107.82 10.00
1760 35.7511 2.511578 71.00 83.70 8.00
1761 35.7658 2.510581 56.00 72.35 7.00
1762 35.7804 2.509585 56.00 67.43 7.00
1763 35.7951 2.508590 65.00 65.13 8.00
1764 35.8098 2.507597 60.00 63.89 8.00
1765 35.8244 2.506604 66.00 63.17 8.00
1766 35.8391 2.505611 59.00 62.58 8.00
1767 35.8538 2.504620 60.00 61.28 8.00
1768 35.8685 2.503629 68.00 60.92 8.00
1769 35.8831 2.502640 64.00 67.42 8.00
1770 35.8978 2.501651 80.00 69.61 9.00
1771 35.9124 2.500663 66.00 73.03 8.00
1772 35.9271 2.499675 78.00 76.89 9.00
1773 35.9418 2.498688 84.00 80.67 9.00
1774 35.9565 2.497704 123.00 85.55 11.00
1775 35.9711 2.496719 109.00 95.05 10.00
1776 35.9858 2.495734 117.00 105.00 11.00
1777 36.0005 2.494751 89.00 120.27 9.00
1778 36.0151 2.493769 128.00 151.54 11.00
1779 36.0298 2.492788 156.00 219.60 12.00
1780 36.0445 2.491807 260.00 296.23 16.00
1781 36.0591 2.490826 389.00 425.90 20.00
1782 36.0738 2.489847 650.00 667.42 25.00
1783 36.0885 2.488870 1067.00 1137.56 33.00
1784 36.1031 2.487892 1836.00 1924.09 43.00
1785 36.1178 2.486915 2653.00 2554.31 52.00
1786 36.1325 2.485939 2263.00 2170.81 48.00
1787 36.1471 2.484964 1193.00 1320.61 35.00
1788 36.1618 2.483990 706.00 837.96 27.00
1789 36.1765 2.483016 664.00 774.96 26.00
1790 36.1911 2.482044 857.00 984.24 29.00
1791 36.2058 2.481071 1255.00 1265.05 35.00
1792 36.2205 2.480100 1225.00 1222.35 35.00
1793 36.2351 2.479131 806.00 821.15 28.00
1794 36.2498 2.478161 395.00 467.14 20.00
1795 36.2645 2.477192 224.00 288.75 15.00
1796 36.2791 2.476224 181.00 202.46 13.00
1797 36.2938 2.475257 111.00 160.11 11.00
1798 36.3085 2.474291 96.00 135.51 10.00
1799 36.3232 2.473325 93.00 119.60 10.00
1800 36.3378 2.472361 101.00 108.74 10.00
1801 36.3525 2.471397 78.00 100.64 9.00
1802 36.3671 2.470434 86.00 82.06 9.00
1803 36.3818 2.469471 65.00 76.35 8.00
1804 36.3965 2.468510 78.00 74.09 9.00
1805 36.4112 2.467549 58.00 72.61 8.00
1806 36.4258 2.466589 77.00 71.51 9.00
1807 36.4405 2.465630 63.00 70.67 8.00
1808 36.4552 2.464672 76.00 70.01 9.00
1809 36.4698 2.463714 49.00 64.67 7.00
1810 36.4845 2.462757 69.00 64.78 8.00
1811 36.4992 2.461801 62.00 64.89 8.00
1812 36.5138 2.460846 69.00 64.87 8.00
1813 36.5285 2.459892 61.00 64.74 8.00
1814 36.5432 2.458938 75.00 64.61 9.00
1815 36.5578 2.457985 66.00 64.48 8.00
1816 36.5725 2.457032 80.00 64.35 9.00
1817 36.5872 2.456082 67.00 64.22 8.00
1818 36.6018 2.455131 62.00 64.09 8.00
1819 36.6165 2.454181 66.00 63.96 8.00
1820 36.6312 2.453232 67.00 63.83 8.00
1821 36.6459 2.452283 74.00 72.54 9.00
1822 36.6605 2.451336 71.00 75.38 8.00
1823 36.6752 2.450390 98.00 79.80 10.00
1824 36.6898 2.449444 88.00 84.81 9.00
1825 36.7045 2.448498 88.00 90.18 9.00
1826 36.7192 2.447554 97.00 96.47 10.00
1827 36.7338 2.446611 121.00 108.89 11.00
1828 36.7485 2.445668 145.00 121.93 12.00
1829 36.7632 2.444725 170.00 142.03 13.00
1830 36.7779 2.443784 182.00 183.66 13.00
1831 36.7925 2.442844 241.00 273.21 16.00
1832 36.8072 2.441904 348.00 375.02 19.00
1833 36.8219 2.440965 492.00 548.26 22.00
1834 36.8365 2.440026 855.00 872.55 29.00
1835 36.8512 2.439089 1427.00 1504.90 38.00
1836 36.8659 2.438153 2451.00 2549.50 50.00
1837 36.8805 2.437216 3267.00 3368.44 57.00
1838 36.8952 2.436281 2850.00 2848.10 53.00
1839 36.9099 2.435346 1670.00 1723.18 41.00
1840 36.9245 2.434412 1015.00 1076.05 32.00
1841 36.9392 2.433480 912.00 972.54 30.00
1842 36.9539 2.432548 1141.00 1225.22 34.00
1843 36.9685 2.431616 1545.00 1616.39 39.00
1844 36.9832 2.430685 1590.00 1647.92 40.00
1845 36.9979 2.429755 1087.00 1150.19 33.00
1846 37.0125 2.428827 565.00 651.20 24.00
1847 37.0272 2.427898 310.00 385.68 18.00
1848 37.0419 2.426970 213.00 257.99 15.00
1849 37.0565 2.426043 152.00 196.28 12.00
1850 37.0712 2.425117 113.00 160.84 11.00
1851 37.0859 2.424192 100.00 138.11 10.00
1852 37.1006 2.423267 101.00 122.45 10.00
1853 37.1152 2.422343 86.00 110.93 9.00
1854 37.1299 2.421419 105.00 99.94 10.00
1855 37.1446 2.420497 70.00 77.21 8.00
1856 37.1592 2.419575 74.00 73.78 9.00
1857 37.1739 2.418654 73.00 71.50 9.00
1858 37.1886 2.417734 60.00 69.78 8.00
1859 37.2032 2.416814 68.00 68.42 8.00
1860 37.2179 2.415896 65.00 67.32 8.00
1861 37.2326 2.414978 65.00 59.87 8.00
1862 37.2472 2.414060 57.00 59.85 8.00
1863 37.2619 2.413144 53.00 59.84 7.00
1864 37.2766 2.412228 50.00 59.84 7.00
1865 37.2912 2.411313 48.00 59.85 7.00
1866 37.3059 2.410398 58.00 59.88 8.00
1867 37.3206 2.409485 58.00 59.91 8.00
1868 37.3352 2.408572 48.00 59.96 7.00
1869 37.3499 2.407660 55.00 60.03 7.00
1870 37.3646 2.406749 58.00 60.12 8.00
1871 37.3792 2.405838 58.00 60.22 8.00
1872 37.3939 2.404928 55.00 60.35 7.00
1873 37.4086 2.404018 57.00 60.51 8.00
1874 37.4232 2.403110 65.00 60.70 8.00
1875 37.4379 2.402203 57.00 60.92 8.00
1876 37.4526 2.401295 73.00 61.18 9.00
1877 37.4673 2.400388 63.00 61.48 8.00
1878 37.4819 2.399483 72.00 61.83 8.00
1879 37.4966 2.398579 65.00 62.25 8.00
1880 37.5112 2.397674 59.00 62.73 8.00
1881 37.5259 2.396770 58.00 63.28 8.00
1882 37.5406 2.395868 52.00 63.91 7.00
1883 37.5553 2.394965 61.00 64.63 8.00
1884 37.5699 2.394065 74.00 65.46 9.00
1885 37.5846 2.393164 63.00 66.41 8.00
1886 37.5993 2.392264 69.00 67.50 8.00
1887 37.6139 2.391365 56.00 68.76 7.00
1888 37.6286 2.390466 78.00 70.21 9.00
1889 37.6433 2.389569 63.00 71.90 8.00
1890 37.6579 2.388672 58.00 73.85 8.00
1891 37.6726 2.387775 82.00 76.13 9.00
1892 37.6873 2.386880 77.00 78.78 9.00
1893 37.7019 2.385985 61.00 81.88 8.00
1894 37.7166 2.385091 93.00 85.50 10.00
1895 37.7313 2.384197 88.00 89.71 9.00
1896 37.7459 2.383304 83.00 94.59 9.00
1897 37.7606 2.382412 86.00 100.19 9.00
1898 37.7753 2.381521 112.00 106.50 11.00
1899 37.7899 2.380631 97.00 113.39 10.00
1900 37.8046 2.379740 146.00 120.60 12.00
1901 37.8193 2.378851 147.00 127.66 12.00
1902 37.8340 2.377963 149.00 133.94 12.00
1903 37.8486 2.377075 158.00 138.77 13.00
1904 37.8633 2.376188 154.00 141.66 12.00
1905 37.8779 2.375301 144.00 142.42 12.00
1906 37.8926 2.374416 151.00 141.27 12.00
1907 37.9073 2.373530 145.00 138.68 12.00
1908 37.9220 2.372647 141.00 135.09 12.00
1909 37.9366 2.371763 137.00 130.80 12.00
1910 37.9513 2.370880 137.00 125.90 12.00
1911 37.9660 2.369997 135.00 120.45 12.00
1912 37.9806 2.369116 106.00 114.54 10.00
1913 37.9953 2.368236 105.00 108.35 10.00
1914 38.0100 2.367355 116.00 102.15 11.00
1915 38.0246 2.366475 87.00 96.20 9.00
1916 38.0393 2.365597 114.00 90.71 11.00
1917 38.0540 2.364718 91.00 85.76 10.00
1918 38.0686 2.363842 85.00 81.39 9.00
1919 38.0833 2.362965 95.00 77.57 10.00
1920 38.0980 2.362089 94.00 74.26 10.00
1921 38.1126 2.361213 69.00 71.40 8.00
1922 38.1273 2.360338 61.00 68.91 8.00
1923 38.1420 2.359465 72.00 66.75 8.00
1924 38.1566 2.358592 79.00 64.86 9.00
1925 38.1713 2.357719 80.00 63.21 9.00
1926 38.1860 2.356847 54.00 61.74 7.00
1927 38.2006 2.355976 73.00 60.45 9.00
1928 38.2153 2.355105 58.00 59.29 8.00
1929 38.2300 2.354235 65.00 58.26 8.00
1930 38.2447 2.353366 56.00 57.32 7.00
1931 38.2593 2.352498 75.00 56.47 9.00
1932 38.2740 2.351630 50.00 55.70 7.00
1933 38.2887 2.350763 64.00 55.00 8.00
1934 38.3033 2.349896 61.00 54.35 8.00
1935 38.3180 2.349031 60.00 53.76 8.00
1936 38.3327 2.348166 58.00 53.21 8.00
1937 38.3473 2.347301 48.00 52.69 7.00
1938 38.3620 2.346437 53.00 52.22 7.00
1939 38.3767 2.345574 55.00 51.77 7.00
1940 38.3913 2.344712 39.00 51.35 6.00
1941 38.4060 2.343850 52.00 50.96 7.00
1942 38.4207 2.342989 52.00 50.59 7.00
1943 38.4353 2.342129 44.00 50.24 7.00
1944 38.4500 2.341269 52.00 49.94 7.00
1945 38.4647 2.340410 57.00 49.72 8.00
1946 38.4793 2.339551 58.00 49.51 8.00
1947 38.4940 2.338694 39.00 49.31 6.00
1948 38.5087 2.337837 40.00 49.13 6.00
1949 38.5233 2.336981 59.00 48.95 8.00
1950 38.5380 2.336125 52.00 48.79 7.00
1951 38.5527 2.335269 50.00 48.63 7.00
1952 38.5673 2.334416 62.00 48.49 8.00
1953 38.5820 2.333562 50.00 48.34 7.00
1954 38.5967 2.332709 47.00 48.21 7.00
1955 38.6114 2.331856 52.00 48.08 7.00
1956 38.6260 2.331005 52.00 47.96 7.00
1957 38.6407 2.330154 64.00 47.84 8.00
1958 38.6553 2.329303 40.00 47.73 6.00
1959 38.6700 2.328453 58.00 47.62 8.00
1960 38.6847 2.327604 56.00 47.52 7.00
1961 38.6993 2.326756 42.00 47.42 6.00
1962 38.7140 2.325908 54.00 47.32 7.00
1963 38.7287 2.325061 56.00 47.22 7.00
1964 38.7434 2.324214 54.00 47.13 7.00
1965 38.7580 2.323369 49.00 47.05 7.00
1966 38.7727 2.322524 45.00 46.96 7.00
1967 38.7874 2.321679 65.00 46.88 8.00
1968 38.8020 2.320835 54.00 46.80 7.00
1969 38.8167 2.319992 51.00 46.72 7.00
1970 38.8314 2.319149 49.00 46.64 7.00
1971 38.8460 2.318307 58.00 46.57 8.00
1972 38.8607 2.317466 49.00 46.50 7.00
1973 38.8754 2.316626 49.00 46.42 7.00
1974 38.8900 2.315785 50.00 46.36 7.00
1975 38.9047 2.314946 47.00 46.29 7.00
1976 38.9194 2.314108 50.00 46.22 7.00
1977 38.9340 2.313270 45.00 46.16 7.00
1978 38.9487 2.312432 54.00 46.09 7.00
1979 38.9634 2.311595 62.00 46.03 8.00
1980 38.9780 2.310760 45.00 45.97 7.00
1981 38.9927 2.309924 34.00 45.95 6.00
1982 39.0074 2.309089 36.00 45.93 6.00
1983 39.0220 2.308255 52.00 45.92 7.00
1984 39.0367 2.307421 53.00 45.93 7.00
1985 39.0514 2.306589 59.00 45.93 8.00
1986 39.0661 2.305757 65.00 49.51 8.00
1987 39.0807 2.304925 49.00 50.66 7.00
1988 39.0954 2.304094 53.00 52.37 7.00
1989 39.1101 2.303263 65.00 54.29 8.00
1990 39.1247 2.302434 66.00 56.31 8.00
1991 39.1394 2.301605 86.00 58.62 9.00
1992 39.1541 2.300776 83.00 61.57 9.00
1993 39.1687 2.299948 72.00 67.39 8.00
1994 39.1834 2.299121 87.00 73.92 9.00
1995 39.1981 2.298295 84.00 85.08 9.00
1996 39.2127 2.297469 95.00 113.47 10.00
1997 39.2274 2.296643 133.00 146.41 12.00
1998 39.2421 2.295819 212.00 195.52 15.00
1999 39.2567 2.294995 328.00 282.99 18.00
2000 39.2714 2.294172 498.00 446.79 22.00
2001 39.2861 2.293349 744.00 757.07 27.00
2002 39.3007 2.292527 1077.00 1207.09 33.00
2003 39.3154 2.291705 1397.00 1442.17 37.00
2004 39.3301 2.290884 1163.00 1112.69 34.00
2005 39.3447 2.290064 665.00 661.10 26.00
2006 39.3594 2.289245 482.00 433.60 22.00
2007 39.3741 2.288425 466.00 399.48 22.00
2008 39.3887 2.287607 507.00 495.21 23.00
2009 39.4034 2.286790 617.00 665.31 25.00
2010 39.4181 2.285972 741.00 732.10 27.00
2011 39.4328 2.285156 542.00 562.88 23.00
2012 39.4474 2.284340 368.00 341.43 19.00
2013 39.4621 2.283524 209.00 207.60 14.00
2014 39.4767 2.282710 137.00 142.18 12.00
2015 39.4914 2.281896 128.00 109.81 11.00
2016 39.5061 2.281083 75.00 92.36 9.00
2017 39.5208 2.280270 83.00 81.44 9.00
2018 39.5354 2.279457 77.00 74.07 9.00
2019 39.5501 2.278646 65.00 68.79 8.00
2020 39.5648 2.277835 65.00 64.65 8.00
2021 39.5794 2.277025 60.00 54.40 8.00
2022 39.5941 2.276215 53.00 51.93 7.00
2023 39.6088 2.275406 86.00 50.80 9.00
2024 39.6234 2.274598 58.00 50.01 8.00
2025 39.6381 2.273789 51.00 49.41 7.00
2026 39.6528 2.272982 54.00 48.94 7.00
2027 39.6674 2.272176 55.00 48.55 7.00
2028 39.6821 2.271370 57.00 45.62 8.00
2029 39.6968 2.270564 56.00 45.64 7.00
2030 39.7114 2.269759 40.00 45.65 6.00
2031 39.7261 2.268955 52.00 45.70 7.00
2032 39.7408 2.268151 60.00 45.74 8.00
2033 39.7554 2.267349 59.00 45.78 8.00
2034 39.7701 2.266546 44.00 45.82 7.00
2035 39.7848 2.265744 53.00 45.87 7.00
2036 39.7994 2.264943 51.00 45.91 7.00
2037 39.8141 2.264142 45.00 45.95 7.00
2038 39.8288 2.263343 57.00 45.99 8.00
2039 39.8434 2.262543 56.00 46.04 7.00
2040 39.8581 2.261744 63.00 46.08 8.00
2041 39.8728 2.260946 60.00 46.12 8.00
2042 39.8875 2.260148 53.00 46.17 7.00
2043 39.9021 2.259352 36.00 46.21 6.00
2044 39.9168 2.258555 49.00 46.25 7.00
2045 39.9315 2.257759 44.00 46.29 7.00
2046 39.9461 2.256964 51.00 46.34 7.00
2047 39.9608 2.256169 63.00 46.38 8.00
2048 39.9755 2.255376 48.00 46.42 7.00
2049 39.9901 2.254582 42.00 46.46 6.00
2050 40.0048 2.253789 50.00 46.51 7.00
2051 40.0195 2.252997 45.00 46.55 7.00
2052 40.0341 2.252205 50.00 46.59 7.00
2053 40.0488 2.251414 44.00 46.64 7.00
2054 40.0635 2.250624 42.00 46.68 6.00
2055 40.0781 2.249834 55.00 46.72 7.00
2056 40.0928 2.249044 55.00 46.77 7.00
2057 40.1075 2.248256 51.00 46.81 7.00
2058 40.1221 2.247468 53.00 46.85 7.00
2059 40.1368 2.246680 53.00 46.90 7.00
2060 40.1515 2.245893 54.00 46.94 7.00
2061 40.1661 2.245107 49.00 46.98 7.00
2062 40.1808 2.244322 58.00 47.03 8.00
2063 40.1955 2.243536 39.00 47.07 6.00
2064 40.2102 2.242752 37.00 47.11 6.00
2065 40.2248 2.241968 45.00 47.16 7.00
2066 40.2395 2.241184 53.00 47.20 7.00
2067 40.2542 2.240402 41.00 47.24 6.00
2068 40.2688 2.239619 59.00 47.29 8.00
2069 40.2835 2.238838 51.00 47.33 7.00
2070 40.2982 2.238057 54.00 47.37 7.00
2071 40.3128 2.237276 44.00 47.42 7.00
2072 40.3275 2.236497 57.00 47.46 8.00
2073 40.3422 2.235718 66.00 47.51 8.00
2074 40.3568 2.234938 59.00 47.55 8.00
2075 40.3715 2.234160 59.00 47.60 8.00
2076 40.3862 2.233382 65.00 47.64 8.00
2077 40.4008 2.232606 45.00 47.68 7.00
2078 40.4155 2.231829 52.00 47.73 7.00
2079 40.4302 2.231054 50.00 47.77 7.00
2080 40.4448 2.230278 54.00 47.82 7.00
2081 40.4595 2.229504 48.00 47.87 7.00
2082 40.4742 2.228730 66.00 47.91 8.00
2083 40.4888 2.227956 60.00 47.96 8.00
2084 40.5035 2.227183 58.00 48.00 8.00
2085 40.5182 2.226410 53.00 48.05 7.00
2086 40.5328 2.225639 54.00 48.10 7.00
2087 40.5475 2.224868 37.00 48.15 6.00
2088 40.5622 2.224097 57.00 48.20 8.00
2089 40.5769 2.223327 43.00 48.25 7.00
2090 40.5915 2.222557 59.00 48.30 8.00
2091 40.6062 2.221789 67.00 48.35 8.00
2092 40.6208 2.221020 56.00 48.58 7.00
2093 40.6355 2.220252 45.00 48.77 7.00
2094 40.6502 2.219485 50.00 48.97 7.00
2095 40.6649 2.218718 42.00 49.20 6.00
2096 40.6795 2.217952 38.00 49.42 6.00
2097 40.6942 2.217186 54.00 49.67 7.00
2098 40.7089 2.216421 38.00 49.95 6.00
2099 40.7235 2.215657 53.00 51.87 7.00
2100 40.7382 2.214893 71.00 52.39 8.00
2101 40.7529 2.214130 60.00 53.40 8.00
2102 40.7675 2.213367 52.00 54.94 7.00
2103 40.7822 2.212605 56.00 56.87 7.00
2104 40.7969 2.211843 66.00 60.23 8.00
2105 40.8115 2.211082 67.00 66.68 8.00
2106 40.8262 2.210322 88.00 78.84 9.00
2107 40.8409 2.209562 100.00 94.21 10.00
2108 40.8555 2.208802 100.00 97.90 10.00
2109 40.8702 2.208043 96.00 83.93 10.00
2110 40.8849 2.207285 65.00 70.07 8.00
2111 40.8995 2.206527 48.00 64.35 7.00
2112 40.9142 2.205770 63.00 64.12 8.00
2113 40.9289 2.205014 55.00 67.76 7.00
2114 40.9436 2.204257 71.00 74.05 8.00
2115 40.9582 2.203502 78.00 77.13 9.00
2116 40.9729 2.202747 58.00 72.25 8.00
2117 40.9875 2.201993 55.00 64.99 7.00
2118 41.0022 2.201239 63.00 60.66 8.00
2119 41.0169 2.200485 54.00 58.76 7.00
2120 41.0316 2.199733 52.00 58.04 7.00
2121 41.0462 2.198981 63.00 57.71 8.00
2122 41.0609 2.198229 64.00 58.97 8.00
2123 41.0756 2.197478 71.00 59.60 8.00
2124 41.0902 2.196727 65.00 60.22 8.00
2125 41.1049 2.195978 76.00 60.71 9.00
2126 41.1196 2.195228 60.00 61.46 8.00
2127 41.1342 2.194479 64.00 62.47 8.00
2128 41.1489 2.193731 73.00 63.75 9.00
2129 41.1636 2.192983 87.00 66.00 9.00
2130 41.1782 2.192236 71.00 68.65 8.00
2131 41.1929 2.191489 77.00 74.38 9.00
2132 41.2076 2.190743 84.00 83.26 9.00
2133 41.2222 2.189997 98.00 93.36 10.00
2134 41.2369 2.189252 101.00 110.09 10.00
2135 41.2516 2.188508 128.00 140.64 11.00
2136 41.2662 2.187764 212.00 199.62 15.00
2137 41.2809 2.187020 316.00 308.26 18.00
2138 41.2956 2.186277 452.00 443.21 21.00
2139 41.3102 2.185535 533.00 481.09 23.00
2140 41.3249 2.184793 377.00 363.15 19.00
2141 41.3396 2.184052 243.00 235.79 16.00
2142 41.3543 2.183311 163.00 177.12 13.00
2143 41.3689 2.182570 141.00 170.06 12.00
2144 41.3836 2.181831 185.00 199.03 14.00
2145 41.3983 2.181092 239.00 253.17 15.00
2146 41.4129 2.180353 301.00 286.19 17.00
2147 41.4276 2.179615 246.00 249.31 16.00
2148 41.4423 2.178877 181.00 184.36 13.00
2149 41.4569 2.178141 144.00 141.11 12.00
2150 41.4716 2.177404 128.00 121.21 11.00
2151 41.4863 2.176668 133.00 114.39 12.00
2152 41.5009 2.175933 107.00 113.67 10.00
2153 41.5156 2.175198 128.00 116.36 11.00
2154 41.5303 2.174464 134.00 121.73 12.00
2155 41.5449 2.173730 121.00 129.70 11.00
2156 41.5596 2.172997 134.00 140.45 12.00
2157 41.5743 2.172264 159.00 152.27 13.00
2158 41.5889 2.171532 184.00 169.82 14.00
2159 41.6036 2.170800 180.00 191.28 13.00
2160 41.6183 2.170069 239.00 215.49 15.00
2161 41.6329 2.169338 274.00 240.13 17.00
2162 41.6476 2.168608 307.00 261.29 18.00
2163 41.6623 2.167879 343.00 274.48 19.00
2164 41.6769 2.167150 338.00 276.26 18.00
2165 41.6916 2.166421 277.00 269.60 17.00
2166 41.7063 2.165693 289.00 257.87 17.00
2167 41.7210 2.164965 225.00 245.58 15.00
2168 41.7356 2.164239 231.00 237.19 15.00
2169 41.7503 2.163512 232.00 229.22 15.00
2170 41.7649 2.162786 265.00 221.44 16.00
2171 41.7796 2.162061 247.00 211.57 16.00
2172 41.7943 2.161336 220.00 198.75 15.00
2173 41.8089 2.160612 204.00 183.98 14.00
2174 41.8236 2.159888 188.00 169.24 14.00
2175 41.8383 2.159164 187.00 157.21 14.00
2176 41.8530 2.158442 174.00 147.49 13.00
2177 41.8676 2.157719 157.00 142.02 13.00
2178 41.8823 2.156998 140.00 146.38 12.00
2179 41.8970 2.156277 150.00 155.89 12.00
2180 41.9116 2.155556 182.00 172.29 13.00
2181 41.9263 2.154835 220.00 206.52 15.00
2182 41.9410 2.154116 264.00 276.36 16.00
2183 41.9556 2.153397 474.00 416.73 22.00
2184 41.9703 2.152678 710.00 647.46 27.00
2185 41.9850 2.151960 862.00 836.19 29.00
2186 41.9996 2.151242 774.00 751.35 28.00
2187 42.0143 2.150526 565.00 501.02 24.00
2188 42.0290 2.149809 314.00 325.63 18.00
2189 42.0436 2.149093 292.00 264.25 17.00
2190 42.0583 2.148377 274.00 276.64 17.00
2191 42.0730 2.147662 337.00 347.29 18.00
2192 42.0876 2.146948 434.00 442.37 21.00
2193 42.1023 2.146234 425.00 463.63 21.00
2194 42.1170 2.145520 370.00 369.68 19.00
2195 42.1316 2.144807 261.00 261.59 16.00
2196 42.1463 2.144094 205.00 200.90 14.00
2197 42.1610 2.143383 161.00 175.34 13.00
2198 42.1757 2.142671 183.00 168.39 14.00
2199 42.1903 2.141960 168.00 169.14 13.00
2200 42.2050 2.141249 173.00 172.78 13.00
2201 42.2197 2.140539 196.00 176.32 14.00
2202 42.2343 2.139830 176.00 177.69 13.00
2203 42.2490 2.139122 171.00 175.79 13.00
2204 42.2637 2.138413 173.00 167.38 13.00
2205 42.2783 2.137705 168.00 161.57 13.00
2206 42.2930 2.136998 159.00 155.98 13.00
2207 42.3077 2.136291 168.00 150.86 13.00
2208 42.3223 2.135584 129.00 146.10 11.00
2209 42.3370 2.134878 141.00 141.15 12.00
2210 42.3517 2.134173 134.00 135.44 12.00
2211 42.3663 2.133468 102.00 127.35 10.00
2212 42.3810 2.132764 102.00 120.25 10.00
2213 42.3957 2.132060 109.00 113.09 10.00
2214 42.4103 2.131356 108.00 106.38 10.00
2215 42.4250 2.130653 97.00 100.44 10.00
2216 42.4397 2.129951 98.00 95.39 10.00
2217 42.4543 2.129249 80.00 91.18 9.00
2218 42.4690 2.128547 97.00 87.71 10.00
2219 42.4837 2.127846 78.00 84.87 9.00
2220 42.4983 2.127146 79.00 82.54 9.00
2221 42.5130 2.126446 79.00 80.61 9.00
2222 42.5277 2.125747 78.00 78.99 9.00
2223 42.5424 2.125048 73.00 77.60 9.00
2224 42.5570 2.124349 81.00 76.40 9.00
2225 42.5717 2.123651 83.00 75.35 9.00
2226 42.5863 2.122954 82.00 74.42 9.00
2227 42.6010 2.122257 61.00 73.59 8.00
2228 42.6157 2.121560 57.00 72.86 8.00
2229 42.6304 2.120864 64.00 72.22 8.00
2230 42.6450 2.120169 83.00 71.66 9.00
2231 42.6597 2.119474 82.00 71.16 9.00
2232 42.6744 2.118779 63.00 70.72 8.00
2233 42.6890 2.118085 75.00 70.34 9.00
2234 42.7037 2.117391 67.00 70.01 8.00
2235 42.7184 2.116699 67.00 69.74 8.00
2236 42.7330 2.116006 66.00 69.54 8.00
2237 42.7477 2.115314 76.00 69.41 9.00
2238 42.7624 2.114622 54.00 69.32 7.00
2239 42.7770 2.113931 61.00 68.48 8.00
2240 42.7917 2.113241 61.00 68.50 8.00
2241 42.8064 2.112550 73.00 68.56 9.00
2242 42.8210 2.111861 60.00 68.68 8.00
2243 42.8357 2.111171 81.00 68.85 9.00
2244 42.8504 2.110483 61.00 69.08 8.00
2245 42.8650 2.109795 50.00 69.36 7.00
2246 42.8797 2.109107 57.00 69.70 8.00
2247 42.8944 2.108420 65.00 69.73 8.00
2248 42.9090 2.107733 85.00 70.20 9.00
2249 42.9237 2.107047 61.00 70.76 8.00
2250 42.9384 2.106361 70.00 71.40 8.00
2251 42.9530 2.105676 73.00 72.13 9.00
2252 42.9677 2.104991 66.00 72.98 8.00
2253 42.9824 2.104306 59.00 73.95 8.00
2254 42.9971 2.103623 67.00 75.06 8.00
2255 43.0117 2.102940 67.00 76.32 8.00
2256 43.0264 2.102256 70.00 77.70 8.00
2257 43.0411 2.101574 71.00 79.21 8.00
2258 43.0557 2.100892 73.00 80.92 9.00
2259 43.0704 2.100211 59.00 82.85 8.00
2260 43.0851 2.099530 88.00 84.96 9.00
2261 43.0997 2.098849 77.00 87.23 9.00
2262 43.1144 2.098169 100.00 89.58 10.00
2263 43.1291 2.097489 97.00 91.88 10.00
2264 43.1437 2.096811 102.00 93.99 10.00
2265 43.1584 2.096132 85.00 95.75 9.00
2266 43.1731 2.095454 112.00 97.00 11.00
2267 43.1877 2.094776 95.00 97.68 10.00
2268 43.2024 2.094098 104.00 97.77 10.00
2269 43.2171 2.093422 88.00 97.35 9.00
2270 43.2317 2.092746 94.00 96.52 10.00
2271 43.2464 2.092070 90.00 95.39 9.00
2272 43.2611 2.091394 93.00 94.08 10.00
2273 43.2757 2.090719 98.00 92.55 10.00
2274 43.2904 2.090045 90.00 90.87 9.00
2275 43.3051 2.089371 90.00 89.02 9.00
2276 43.3198 2.088698 96.00 87.06 10.00
2277 43.3344 2.088025 74.00 85.02 9.00
2278 43.3491 2.087352 81.00 82.99 9.00
2279 43.3638 2.086681 83.00 81.04 9.00
2280 43.3784 2.086009 85.00 79.90 9.00
2281 43.3931 2.085338 86.00 78.34 9.00
2282 43.4078 2.084667 88.00 77.40 9.00
2283 43.4224 2.083997 84.00 76.40 9.00
2284 43.4371 2.083327 73.00 75.85 9.00
2285 43.4518 2.082658 73.00 76.08 9.00
2286 43.4664 2.081989 75.00 77.78 9.00
2287 43.4811 2.081321 68.00 81.24 8.00
2288 43.4958 2.080653 66.00 84.00 8.00
2289 43.5104 2.079986 80.00 80.91 9.00
2290 43.5251 2.079319 58.00 75.86 8.00
2291 43.5398 2.078652 80.00 72.42 9.00
2292 43.5544 2.077986 62.00 70.97 8.00
2293 43.5691 2.077321 67.00 70.72 8.00
2294 43.5838 2.076656 64.00 71.49 8.00
2295 43.5984 2.075991 59.00 72.96 8.00
2296 43.6131 2.075327 76.00 73.50 9.00
2297 43.6278 2.074663 58.00 71.62 8.00
2298 43.6424 2.074000 62.00 69.29 8.00
2299 43.6571 2.073337 65.00 67.74 8.00
2300 43.6718 2.072675 62.00 66.97 8.00
2301 43.6865 2.072013 67.00 66.56 8.00
2302 43.7011 2.071351 62.00 66.32 8.00
2303 43.7158 2.070691 69.00 66.16 8.00
2304 43.7304 2.070030 66.00 66.06 8.00
2305 43.7451 2.069370 57.00 66.00 8.00
2306 43.7598 2.068710 66.00 65.91 8.00
2307 43.7744 2.068051 57.00 65.89 8.00
2308 43.7891 2.067392 68.00 65.91 8.00
2309 43.8038 2.066734 67.00 65.93 8.00
2310 43.8185 2.066076 65.00 65.95 8.00
2311 43.8331 2.065419 51.00 65.95 7.00
2312 43.8478 2.064762 64.00 65.95 8.00
2313 43.8625 2.064106 61.00 65.93 8.00
2314 43.8771 2.063450 57.00 65.90 8.00
2315 43.8918 2.062794 68.00 65.89 8.00
2316 43.9065 2.062139 46.00 65.89 7.00
2317 43.9211 2.061485 61.00 65.90 8.00
2318 43.9358 2.060830 62.00 65.91 8.00
2319 43.9505 2.060177 69.00 65.92 8.00
2320 43.9651 2.059523 62.00 65.94 8.00
2321 43.9798 2.058870 68.00 65.96 8.00
2322 43.9945 2.058218 67.00 65.99 8.00
2323 44.0091 2.057566 60.00 66.03 8.00
2324 44.0238 2.056914 62.00 66.09 8.00
2325 44.0385 2.056263 81.00 66.16 9.00
2326 44.0532 2.055613 64.00 66.25 8.00
2327 44.0678 2.054963 74.00 66.35 9.00
2328 44.0825 2.054313 74.00 66.47 9.00
2329 44.0971 2.053664 63.00 66.60 8.00
2330 44.1118 2.053015 78.00 66.74 9.00
2331 44.1265 2.052367 62.00 66.90 8.00
2332 44.1412 2.051719 75.00 67.07 9.00
2333 44.1558 2.051071 75.00 67.26 9.00
2334 44.1705 2.050424 88.00 67.46 9.00
2335 44.1852 2.049777 71.00 67.68 8.00
2336 44.1998 2.049131 78.00 67.91 9.00
2337 44.2145 2.048486 70.00 68.17 8.00
2338 44.2292 2.047840 76.00 68.44 9.00
2339 44.2438 2.047195 71.00 72.97 8.00
2340 44.2585 2.046551 87.00 74.55 9.00
2341 44.2732 2.045907 102.00 76.69 10.00
2342 44.2878 2.045264 93.00 79.09 10.00
2343 44.3025 2.044620 102.00 81.56 10.00
2344 44.3172 2.043978 110.00 84.29 10.00
2345 44.3318 2.043335 114.00 87.58 11.00
2346 44.3465 2.042694 123.00 91.77 11.00
2347 44.3612 2.042053 120.00 99.52 11.00
2348 44.3758 2.041412 119.00 108.53 11.00
2349 44.3905 2.040771 139.00 128.00 12.00
2350 44.4052 2.040131 136.00 161.51 12.00
2351 44.4198 2.039491 164.00 197.07 13.00
2352 44.4345 2.038852 250.00 255.28 16.00
2353 44.4492 2.038213 356.00 361.53 19.00
2354 44.4638 2.037575 544.00 568.17 23.00
2355 44.4785 2.036937 958.00 955.47 31.00
2356 44.4932 2.036300 1461.00 1482.94 38.00
2357 44.5079 2.035663 1791.00 1736.28 42.00
2358 44.5225 2.035026 1352.00 1374.77 37.00
2359 44.5372 2.034390 808.00 846.06 28.00
2360 44.5518 2.033755 512.00 538.39 23.00
2361 44.5665 2.033119 389.00 438.45 20.00
2362 44.5812 2.032484 464.00 469.93 22.00
2363 44.5959 2.031850 604.00 615.48 25.00
2364 44.6105 2.031216 899.00 825.68 30.00
2365 44.6252 2.030582 902.00 910.22 30.00
2366 44.6399 2.029949 733.00 737.78 27.00
2367 44.6545 2.029316 462.00 489.28 21.00
2368 44.6692 2.028684 315.00 325.31 18.00
2369 44.6839 2.028052 227.00 244.10 15.00
2370 44.6985 2.027421 200.00 209.72 14.00
2371 44.7132 2.026790 196.00 194.40 14.00
2372 44.7279 2.026159 174.00 189.00 13.00
2373 44.7425 2.025529 185.00 189.85 14.00
2374 44.7572 2.024899 188.00 195.28 14.00
2375 44.7719 2.024270 208.00 204.43 14.00
2376 44.7865 2.023641 219.00 209.63 15.00
2377 44.8012 2.023013 249.00 223.45 16.00
2378 44.8159 2.022385 237.00 241.98 15.00
2379 44.8306 2.021757 283.00 261.47 17.00
2380 44.8452 2.021130 318.00 280.05 18.00
2381 44.8599 2.020503 354.00 295.63 19.00
2382 44.8745 2.019877 364.00 306.38 19.00
2383 44.8892 2.019251 308.00 311.52 18.00
2384 44.9039 2.018625 277.00 308.64 17.00
2385 44.9185 2.018001 354.00 305.80 19.00
2386 44.9332 2.017376 291.00 301.57 17.00
2387 44.9479 2.016751 301.00 297.42 17.00
2388 44.9626 2.016128 312.00 293.90 18.00
2389 44.9772 2.015505 325.00 290.68 18.00
2390 44.9919 2.014881 323.00 287.03 18.00
2391 45.0066 2.014259 286.00 282.22 17.00
2392 45.0212 2.013637 297.00 275.90 17.00
2393 45.0359 2.013015 296.00 268.05 17.00
2394 45.0506 2.012394 263.00 258.86 16.00
2395 45.0652 2.011773 248.00 248.56 16.00
2396 45.0799 2.011152 270.00 237.45 16.00
2397 45.0946 2.010532 256.00 225.96 16.00
2398 45.1092 2.009912 237.00 214.56 15.00
2399 45.1239 2.009294 214.00 203.59 15.00
2400 45.1386 2.008674 184.00 193.51 14.00
2401 45.1532 2.008056 182.00 184.20 13.00
2402 45.1679 2.007438 192.00 175.48 14.00
2403 45.1826 2.006820 179.00 167.09 13.00
2404 45.1972 2.006203 172.00 158.83 13.00
2405 45.2119 2.005587 173.00 150.64 13.00
2406 45.2266 2.004970 161.00 142.67 13.00
2407 45.2412 2.004354 150.00 134.94 12.00
2408 45.2559 2.003739 150.00 127.79 12.00
2409 45.2706 2.003124 142.00 121.26 12.00
2410 45.2853 2.002509 126.00 115.42 11.00
2411 45.2999 2.001895 128.00 110.24 11.00
2412 45.3146 2.001281 112.00 105.69 11.00
2413 45.3293 2.000668 111.00 101.72 11.00
2414 45.3439 2.000054 112.00 98.26 11.00
2415 45.3586 1.999442 90.00 95.22 9.00
2416 45.3733 1.998829 86.00 92.55 9.00
2417 45.3879 1.998217 111.00 90.21 11.00
2418 45.4026 1.997606 79.00 88.14 9.00
2419 45.4173 1.996995 94.00 86.32 10.00
2420 45.4319 1.996385 91.00 84.70 10.00
2421 45.4466 1.995774 70.00 83.26 8.00
2422 45.4613 1.995164 93.00 81.98 10.00
2423 45.4759 1.994555 72.00 80.83 8.00
2424 45.4906 1.993946 87.00 79.81 9.00
2425 45.5053 1.993338 80.00 78.89 9.00
2426 45.5199 1.992729 69.00 78.07 8.00
2427 45.5346 1.992121 76.00 77.32 9.00
2428 45.5493 1.991514 85.00 76.66 9.00
2429 45.5639 1.990907 73.00 76.06 9.00
2430 45.5786 1.990301 59.00 75.52 8.00
2431 45.5933 1.989694 59.00 75.03 8.00
2432 45.6079 1.989089 67.00 74.60 8.00
2433 45.6226 1.988483 80.00 74.21 9.00
2434 45.6373 1.987878 74.00 73.86 9.00
2435 45.6520 1.987274 74.00 73.56 9.00
2436 45.6666 1.986670 60.00 73.29 8.00
2437 45.6813 1.986066 79.00 73.05 9.00
2438 45.6959 1.985463 66.00 72.84 8.00
2439 45.7106 1.984859 63.00 72.67 8.00
2440 45.7253 1.984257 56.00 72.48 7.00
2441 45.7400 1.983655 63.00 72.31 8.00
2442 45.7546 1.983053 68.00 72.17 8.00
2443 45.7693 1.982452 57.00 72.05 8.00
2444 45.7840 1.981851 62.00 71.96 8.00
2445 45.7986 1.981250 73.00 71.90 9.00
2446 45.8133 1.980650 63.00 71.86 8.00
2447 45.8280 1.980050 62.00 71.85 8.00
2448 45.8426 1.979451 77.00 71.86 9.00
2449 45.8573 1.978852 77.00 71.90 9.00
2450 45.8720 1.978253 64.00 71.96 8.00
2451 45.8866 1.977655 62.00 72.06 8.00
2452 45.9013 1.977057 68.00 72.18 8.00
2453 45.9160 1.976460 70.00 72.34 8.00
2454 45.9306 1.975863 82.00 72.53 9.00
2455 45.9453 1.975266 60.00 72.75 8.00
2456 45.9600 1.974670 77.00 73.02 9.00
2457 45.9746 1.974074 64.00 73.33 8.00
2458 45.9893 1.973478 66.00 73.68 8.00
2459 46.0040 1.972883 76.00 74.09 9.00
2460 46.0187 1.972288 71.00 74.56 8.00
2461 46.0333 1.971695 73.00 75.09 9.00
2462 46.0480 1.971101 79.00 75.69 9.00
2463 46.0626 1.970507 86.00 76.36 9.00
2464 46.0773 1.969914 82.00 77.13 9.00
2465 46.0920 1.969321 76.00 77.99 9.00
2466 46.1067 1.968729 73.00 78.96 9.00
2467 46.1213 1.968137 76.00 80.05 9.00
2468 46.1360 1.967545 94.00 81.26 10.00
2469 46.1507 1.966954 104.00 82.63 10.00
2470 46.1653 1.966363 69.00 84.17 8.00
2471 46.1800 1.965773 92.00 85.89 10.00
2472 46.1947 1.965183 94.00 87.84 10.00
2473 46.2093 1.964593 101.00 90.04 10.00
2474 46.2240 1.964004 103.00 92.52 10.00
2475 46.2387 1.963415 101.00 95.34 10.00
2476 46.2533 1.962827 95.00 98.54 10.00
2477 46.2680 1.962239 101.00 102.20 10.00
2478 46.2827 1.961651 121.00 106.43 11.00
2479 46.2973 1.961064 96.00 111.25 10.00
2480 46.3120 1.960476 109.00 116.81 10.00
2481 46.3267 1.959890 122.00 123.19 11.00
2482 46.3413 1.959304 142.00 130.51 12.00
2483 46.3560 1.958718 143.00 138.85 12.00
2484 46.3707 1.958133 148.00 148.22 12.00
2485 46.3853 1.957548 150.00 157.78 12.00
2486 46.4000 1.956963 140.00 168.79 12.00
2487 46.4147 1.956379 176.00 180.05 13.00
2488 46.4294 1.955795 200.00 190.85 14.00
2489 46.4440 1.955211 164.00 200.45 13.00
2490 46.4587 1.954629 194.00 207.82 14.00
2491 46.4734 1.954046 227.00 212.46 15.00
2492 46.4880 1.953463 236.00 214.38 15.00
2493 46.5027 1.952881 209.00 214.22 14.00
2494 46.5174 1.952300 218.00 212.90 15.00
2495 46.5320 1.951719 208.00 212.78 14.00
2496 46.5467 1.951138 210.00 213.38 14.00
2497 46.5614 1.950557 203.00 210.31 14.00
2498 46.5760 1.949977 195.00 200.09 14.00
2499 46.5907 1.949397 180.00 187.39 13.00
2500 46.6054 1.948818 174.00 176.30 13.00
2501 46.6200 1.948239 180.00 166.81 13.00
2502 46.6347 1.947661 154.00 158.27 12.00
2503 46.6494 1.947082 153.00 150.84 12.00
2504 46.6640 1.946504 143.00 144.68 12.00
2505 46.6787 1.945927 124.00 138.56 11.00
2506 46.6934 1.945350 114.00 130.46 11.00
2507 46.7080 1.944773 128.00 121.28 11.00
2508 46.7227 1.944197 110.00 113.22 10.00
2509 46.7374 1.943621 91.00 106.63 10.00
2510 46.7520 1.943045 90.00 101.67 9.00
2511 46.7667 1.942470 102.00 97.59 10.00
2512 46.7814 1.941895 87.00 94.16 9.00
2513 46.7961 1.941321 90.00 91.24 9.00
2514 46.8107 1.940747 93.00 88.76 10.00
2515 46.8254 1.940173 83.00 86.64 9.00
2516 46.8400 1.939600 73.00 84.84 9.00
2517 46.8547 1.939026 83.00 83.10 9.00
2518 46.8694 1.938454 75.00 81.83 9.00
2519 46.8840 1.937882 71.00 80.83 8.00
2520 46.8987 1.937310 77.00 80.04 9.00
2521 46.9134 1.936738 81.00 79.46 9.00
2522 46.9281 1.936167 74.00 79.09 9.00
2523 46.9427 1.935596 65.00 78.91 8.00
2524 46.9574 1.935026 69.00 78.92 8.00
2525 46.9721 1.934456 70.00 79.07 8.00
2526 46.9867 1.933886 74.00 79.40 9.00
2527 47.0014 1.933317 79.00 79.83 9.00
2528 47.0161 1.932748 74.00 80.30 9.00
2529 47.0307 1.932180 88.00 80.74 9.00
2530 47.0454 1.931612 70.00 81.05 8.00
2531 47.0601 1.931044 68.00 81.15 8.00
2532 47.0747 1.930476 77.00 81.01 9.00
2533 47.0894 1.929909 82.00 80.63 9.00
2534 47.1041 1.929342 71.00 80.04 8.00
2535 47.1187 1.928776 80.00 79.31 9.00
2536 47.1334 1.928210 84.00 78.49 9.00
2537 47.1481 1.927644 68.00 77.64 8.00
2538 47.1627 1.927079 76.00 76.75 9.00
2539 47.1774 1.926514 80.00 75.83 9.00
2540 47.1921 1.925949 53.00 74.86 7.00
2541 47.2067 1.925385 69.00 73.83 8.00
2542 47.2214 1.924821 71.00 72.76 8.00
2543 47.2361 1.924258 64.00 71.71 8.00
2544 47.2508 1.923695 63.00 70.35 8.00
2545 47.2654 1.923132 64.00 69.04 8.00
2546 47.2801 1.922570 65.00 67.78 8.00
2547 47.2948 1.922007 52.00 66.59 7.00
2548 47.3094 1.921446 59.00 65.49 8.00
2549 47.3241 1.920885 57.00 64.47 8.00
2550 47.3388 1.920324 53.00 63.51 7.00
2551 47.3534 1.919763 67.00 62.67 8.00
2552 47.3681 1.919203 58.00 61.85 8.00
2553 47.3828 1.918643 65.00 61.08 8.00
2554 47.3974 1.918084 62.00 60.36 8.00
2555 47.4121 1.917524 50.00 59.68 7.00
2556 47.4268 1.916965 57.00 59.04 8.00
2557 47.4414 1.916407 50.00 58.43 7.00
2558 47.4561 1.915849 45.00 57.85 7.00
2559 47.4708 1.915291 47.00 57.29 7.00
2560 47.4854 1.914734 43.00 56.75 7.00
2561 47.5001 1.914177 45.00 56.23 7.00
2562 47.5148 1.913620 49.00 55.73 7.00
2563 47.5294 1.913064 33.00 55.24 6.00
2564 47.5441 1.912508 49.00 54.76 7.00
2565 47.5588 1.911952 57.00 54.30 8.00
2566 47.5734 1.911397 48.00 53.85 7.00
2567 47.5881 1.910842 55.00 53.41 7.00
2568 47.6028 1.910288 58.00 52.98 8.00
2569 47.6175 1.909733 55.00 52.55 7.00
2570 47.6321 1.909179 42.00 52.13 6.00
2571 47.6468 1.908626 50.00 51.72 7.00
2572 47.6614 1.908073 57.00 51.32 8.00
2573 47.6761 1.907520 50.00 50.92 7.00
2574 47.6908 1.906968 44.00 50.53 7.00
2575 47.7055 1.906416 52.00 50.14 7.00
2576 47.7201 1.905864 44.00 49.76 7.00
2577 47.7348 1.905313 52.00 49.38 7.00
2578 47.7495 1.904762 50.00 49.00 7.00
2579 47.7641 1.904211 59.00 48.63 8.00
2580 47.7788 1.903660 47.00 48.26 7.00
2581 47.7935 1.903110 52.00 47.89 7.00
2582 47.8081 1.902561 47.00 47.53 7.00
2583 47.8228 1.902012 57.00 47.17 8.00
2584 47.8375 1.901463 49.00 46.81 7.00
2585 47.8521 1.900914 43.00 46.46 7.00
2586 47.8668 1.900366 38.00 46.11 6.00
2587 47.8815 1.899818 58.00 45.76 8.00
2588 47.8961 1.899270 44.00 45.41 7.00
2589 47.9108 1.898723 58.00 45.06 8.00
2590 47.9255 1.898176 42.00 44.72 6.00
2591 47.9401 1.897630 58.00 44.72 8.00
2592 47.9548 1.897084 45.00 44.75 7.00
2593 47.9695 1.896538 37.00 44.77 6.00
2594 47.9841 1.895992 66.00 44.80 8.00
2595 47.9988 1.895447 51.00 44.83 7.00
2596 48.0135 1.894903 42.00 44.86 6.00
2597 48.0281 1.894358 54.00 44.89 7.00
2598 48.0428 1.893814 53.00 44.93 7.00
2599 48.0575 1.893270 45.00 44.96 7.00
2600 48.0722 1.892727 54.00 45.00 7.00
2601 48.0868 1.892184 44.00 45.04 7.00
2602 48.1015 1.891641 45.00 45.09 7.00
2603 48.1162 1.891099 50.00 45.13 7.00
2604 48.1308 1.890557 49.00 45.18 7.00
2605 48.1455 1.890015 53.00 45.23 7.00
2606 48.1602 1.889474 40.00 45.28 6.00
2607 48.1748 1.888933 41.00 45.33 6.00
2608 48.1895 1.888392 46.00 45.39 7.00
2609 48.2042 1.887852 63.00 45.45 8.00
2610 48.2188 1.887312 48.00 45.51 7.00
2611 48.2335 1.886772 48.00 45.58 7.00
2612 48.2482 1.886233 43.00 45.65 7.00
2613 48.2628 1.885694 45.00 45.23 7.00
2614 48.2775 1.885155 49.00 45.32 7.00
2615 48.2922 1.884617 60.00 45.40 8.00
2616 48.3068 1.884079 53.00 45.50 7.00
2617 48.3215 1.883541 60.00 45.60 8.00
2618 48.3362 1.883004 55.00 45.70 7.00
2619 48.3508 1.882467 57.00 45.81 8.00
2620 48.3655 1.881931 46.00 45.93 7.00
2621 48.3802 1.881394 40.00 45.81 6.00
2622 48.3949 1.880858 42.00 45.95 6.00
2623 48.4095 1.880323 49.00 46.10 7.00
2624 48.4242 1.879787 58.00 46.25 8.00
2625 48.4389 1.879253 51.00 46.43 7.00
2626 48.4535 1.878718 51.00 46.61 7.00
2627 48.4682 1.878184 61.00 46.81 8.00
2628 48.4829 1.877650 50.00 47.03 7.00
2629 48.4975 1.877116 63.00 47.26 8.00
2630 48.5122 1.876583 60.00 47.52 8.00
2631 48.5269 1.876050 41.00 47.80 6.00
2632 48.5415 1.875517 54.00 48.11 7.00
2633 48.5562 1.874985 56.00 48.45 7.00
2634 48.5709 1.874453 48.00 48.83 7.00
2635 48.5855 1.873922 47.00 49.26 7.00
2636 48.6002 1.873390 69.00 50.00 8.00
2637 48.6149 1.872859 59.00 50.79 8.00
2638 48.6295 1.872329 58.00 51.66 8.00
2639 48.6442 1.871799 50.00 52.60 7.00
2640 48.6589 1.871269 72.00 53.65 8.00
2641 48.6735 1.870739 48.00 54.82 7.00
2642 48.6882 1.870210 50.00 56.12 7.00
2643 48.7029 1.869681 56.00 57.60 7.00
2644 48.7175 1.869152 63.00 59.25 8.00
2645 48.7322 1.868624 49.00 61.11 7.00
2646 48.7469 1.868096 75.00 64.73 9.00
2647 48.7616 1.867568 67.00 67.38 8.00
2648 48.7762 1.867041 60.00 70.30 8.00
2649 48.7909 1.866514 82.00 73.24 9.00
2650 48.8055 1.865988 78.00 75.98 9.00
2651 48.8202 1.865461 74.00 78.36 9.00
2652 48.8349 1.864935 91.00 80.32 10.00
2653 48.8496 1.864409 87.00 81.90 9.00
2654 48.8642 1.863884 97.00 83.29 10.00
2655 48.8789 1.863359 79.00 87.27 9.00
2656 48.8936 1.862835 92.00 90.26 10.00
2657 48.9082 1.862310 98.00 98.58 10.00
2658 48.9229 1.861786 87.00 108.06 9.00
2659 48.9376 1.861262 106.00 119.10 10.00
2660 48.9522 1.860739 122.00 137.60 11.00
2661 48.9669 1.860216 157.00 171.43 13.00
2662 48.9816 1.859693 238.00 237.59 15.00
2663 48.9962 1.859171 349.00 364.38 19.00
2664 49.0109 1.858649 588.00 554.92 24.00
2665 49.0256 1.858127 673.00 693.39 26.00
2666 49.0402 1.857605 618.00 623.81 25.00
2667 49.0549 1.857084 411.00 427.83 20.00
2668 49.0696 1.856564 281.00 274.86 17.00
2669 49.0842 1.856043 196.00 202.47 14.00
2670 49.0989 1.855523 158.00 181.89 13.00
2671 49.1136 1.855003 182.00 196.84 13.00
2672 49.1283 1.854484 242.00 248.41 16.00
2673 49.1429 1.853965 307.00 326.57 18.00
2674 49.1576 1.853446 346.00 373.42 19.00
2675 49.1722 1.852927 337.00 330.01 18.00
2676 49.1869 1.852409 219.00 238.33 15.00
2677 49.2016 1.851891 148.00 164.05 12.00
2678 49.2163 1.851374 104.00 123.45 10.00
2679 49.2309 1.850856 89.00 103.86 9.00
2680 49.2456 1.850339 80.00 93.42 9.00
2681 49.2603 1.849823 56.00 87.25 7.00
2682 49.2749 1.849306 80.00 83.36 9.00
2683 49.2896 1.848791 66.00 80.83 8.00
2684 49.3043 1.848275 75.00 79.19 9.00
2685 49.3189 1.847759 76.00 78.17 9.00
2686 49.3336 1.847244 54.00 74.93 7.00
2687 49.3483 1.846730 72.00 75.31 8.00
2688 49.3629 1.846215 55.00 76.54 7.00
2689 49.3776 1.845701 65.00 78.74 8.00
2690 49.3923 1.845187 65.00 82.15 8.00
2691 49.4069 1.844674 74.00 89.26 9.00
2692 49.4216 1.844161 105.00 102.83 10.00
2693 49.4363 1.843648 125.00 120.88 11.00
2694 49.4509 1.843136 136.00 127.74 12.00
2695 49.4656 1.842623 116.00 115.69 11.00
2696 49.4803 1.842111 92.00 98.63 10.00
2697 49.4949 1.841600 90.00 88.55 9.00
2698 49.5096 1.841089 69.00 85.07 8.00
2699 49.5243 1.840578 72.00 85.39 8.00
2700 49.5390 1.840067 97.00 88.76 10.00
2701 49.5536 1.839557 75.00 95.62 9.00
2702 49.5683 1.839047 114.00 104.45 11.00
2703 49.5830 1.838537 130.00 109.01 11.00
2704 49.5976 1.838028 93.00 105.49 10.00
2705 49.6123 1.837519 102.00 99.69 10.00
2706 49.6270 1.837010 82.00 97.00 9.00
2707 49.6416 1.836502 86.00 97.85 9.00
2708 49.6563 1.835994 97.00 100.87 10.00
2709 49.6710 1.835486 111.00 105.37 11.00
2710 49.6856 1.834978 77.00 111.21 9.00
2711 49.7003 1.834471 105.00 118.41 10.00
2712 49.7150 1.833964 105.00 127.04 10.00
2713 49.7296 1.833458 134.00 136.85 12.00
2714 49.7443 1.832951 125.00 147.99 11.00
2715 49.7590 1.832446 116.00 159.67 11.00
2716 49.7736 1.831940 167.00 171.05 13.00
2717 49.7883 1.831435 184.00 180.69 14.00
2718 49.8030 1.830930 197.00 187.21 14.00
2719 49.8176 1.830425 210.00 189.72 14.00
2720 49.8323 1.829920 179.00 188.28 13.00
2721 49.8470 1.829417 174.00 183.88 13.00
2722 49.8616 1.828913 155.00 177.86 12.00
2723 49.8763 1.828409 181.00 171.70 13.00
2724 49.8910 1.827906 147.00 166.07 12.00
2725 49.9057 1.827403 180.00 161.06 13.00
2726 49.9203 1.826901 155.00 156.26 12.00
2727 49.9350 1.826398 130.00 151.03 11.00
2728 49.9496 1.825897 141.00 144.82 12.00
2729 49.9643 1.825395 115.00 137.46 11.00
2730 49.9790 1.824893 128.00 129.20 11.00
2731 49.9936 1.824393 139.00 120.57 12.00
2732 50.0083 1.823892 109.00 112.11 10.00
2733 50.0230 1.823391 108.00 104.22 10.00
2734 50.0377 1.822891 105.00 97.14 10.00
2735 50.0523 1.822392 85.00 90.91 9.00
2736 50.0670 1.821892 80.00 85.50 9.00
2737 50.0817 1.821393 77.00 80.84 9.00
2738 50.0963 1.820894 90.00 76.82 9.00
2739 50.1110 1.820395 79.00 73.34 9.00
2740 50.1257 1.819897 70.00 70.33 8.00
2741 50.1403 1.819399 62.00 67.69 8.00
2742 50.1550 1.818901 67.00 65.38 8.00
2743 50.1697 1.818404 83.00 63.33 9.00
2744 50.1843 1.817907 76.00 61.51 9.00
2745 50.1990 1.817410 80.00 59.87 9.00
2746 50.2137 1.816914 66.00 58.39 8.00
2747 50.2283 1.816417 66.00 57.05 8.00
2748 50.2430 1.815921 79.00 55.83 9.00
2749 50.2577 1.815426 62.00 54.71 8.00
2750 50.2723 1.814931 51.00 53.67 7.00
2751 50.2870 1.814436 62.00 52.71 8.00
2752 50.3017 1.813941 64.00 51.82 8.00
2753 50.3163 1.813447 52.00 50.98 7.00
2754 50.3310 1.812953 59.00 50.19 8.00
2755 50.3457 1.812459 52.00 49.45 7.00
2756 50.3604 1.811965 53.00 48.75 7.00
2757 50.3750 1.811472 52.00 48.09 7.00
2758 50.3897 1.810979 44.00 47.45 7.00
2759 50.4044 1.810487 45.00 46.85 7.00
2760 50.4190 1.809994 45.00 46.28 7.00
2761 50.4337 1.809502 62.00 45.72 8.00
2762 50.4484 1.809011 43.00 45.11 7.00
2763 50.4630 1.808519 49.00 44.62 7.00
2764 50.4777 1.808028 65.00 44.54 8.00
2765 50.4924 1.807538 51.00 44.48 7.00
2766 50.5070 1.807047 50.00 44.42 7.00
2767 50.5217 1.806557 47.00 44.38 7.00
2768 50.5364 1.806067 45.00 44.36 7.00
2769 50.5510 1.805577 45.00 44.34 7.00
2770 50.5657 1.805088 54.00 44.33 7.00
2771 50.5804 1.804599 50.00 44.29 7.00
2772 50.5950 1.804110 35.00 44.29 6.00
2773 50.6097 1.803621 57.00 44.31 8.00
2774 50.6244 1.803133 43.00 44.33 7.00
2775 50.6390 1.802646 43.00 44.36 7.00
2776 50.6537 1.802158 47.00 44.39 7.00
2777 50.6684 1.801671 49.00 44.43 7.00
2778 50.6830 1.801184 50.00 44.47 7.00
2779 50.6977 1.800697 47.00 44.52 7.00
2780 50.7124 1.800211 48.00 44.57 7.00
2781 50.7271 1.799725 44.00 44.62 7.00
2782 50.7417 1.799239 40.00 44.68 6.00
2783 50.7564 1.798754 51.00 44.74 7.00
2784 50.7710 1.798268 56.00 44.81 7.00
2785 50.7857 1.797783 41.00 44.88 6.00
2786 50.8004 1.797299 56.00 44.95 7.00
2787 50.8151 1.796814 38.00 45.02 6.00
2788 50.8297 1.796330 39.00 45.10 6.00
2789 50.8444 1.795846 43.00 45.18 7.00
2790 50.8591 1.795363 43.00 45.26 7.00
2791 50.8737 1.794880 39.00 45.34 6.00
2792 50.8884 1.794397 45.00 45.43 7.00
2793 50.9031 1.793914 48.00 45.52 7.00
2794 50.9177 1.793432 42.00 45.61 6.00
2795 50.9324 1.792950 51.00 45.70 7.00
2796 50.9471 1.792468 39.00 45.79 6.00
2797 50.9617 1.791987 53.00 45.89 7.00
2798 50.9764 1.791506 48.00 45.99 7.00
2799 50.9911 1.791025 47.00 46.09 7.00
2800 51.0057 1.790544 44.00 46.19 7.00
2801 51.0204 1.790064 40.00 46.29 6.00
2802 51.0351 1.789583 42.00 46.40 6.00
2803 51.0497 1.789104 49.00 46.51 7.00
2804 51.0644 1.788625 48.00 46.62 7.00
2805 51.0791 1.788145 59.00 46.73 8.00
2806 51.0938 1.787666 41.00 46.85 6.00
2807 51.1084 1.787188 53.00 46.97 7.00
2808 51.1231 1.786710 60.00 47.09 8.00
2809 51.1377 1.786232 51.00 47.21 7.00
2810 51.1524 1.785754 49.00 47.34 7.00
2811 51.1671 1.785276 56.00 47.47 7.00
2812 51.1818 1.784799 58.00 47.61 8.00
2813 51.1964 1.784322 48.00 47.75 7.00
2814 51.2111 1.783846 64.00 47.72 8.00
2815 51.2258 1.783369 54.00 47.70 7.00
2816 51.2404 1.782893 37.00 47.68 6.00
2817 51.2551 1.782418 47.00 47.66 7.00
2818 51.2698 1.781942 47.00 48.51 7.00
2819 51.2844 1.781467 55.00 48.85 7.00
2820 51.2991 1.780992 64.00 49.32 8.00
2821 51.3138 1.780517 56.00 49.82 7.00
2822 51.3284 1.780043 45.00 50.32 7.00
2823 51.3431 1.779569 61.00 50.82 8.00
2824 51.3578 1.779095 52.00 51.41 7.00
2825 51.3724 1.778622 48.00 52.12 7.00
2826 51.3871 1.778148 49.00 53.03 7.00
2827 51.4018 1.777676 51.00 54.03 7.00
2828 51.4164 1.777203 59.00 56.54 8.00
2829 51.4311 1.776731 57.00 60.67 8.00
2830 51.4458 1.776258 66.00 69.10 8.00
2831 51.4604 1.775787 62.00 76.39 8.00
2832 51.4751 1.775315 79.00 86.26 9.00
2833 51.4898 1.774844 91.00 102.48 10.00
2834 51.5045 1.774373 145.00 131.68 12.00
2835 51.5191 1.773902 187.00 188.05 14.00
2836 51.5338 1.773432 329.00 295.61 18.00
2837 51.5485 1.772962 490.00 460.47 22.00
2838 51.5631 1.772492 552.00 594.91 23.00
2839 51.5778 1.772022 576.00 560.96 24.00
2840 51.5925 1.771553 389.00 398.03 20.00
2841 51.6071 1.771084 274.00 252.61 17.00
2842 51.6218 1.770615 196.00 175.78 14.00
2843 51.6365 1.770147 151.00 146.91 12.00
2844 51.6511 1.769679 163.00 147.54 13.00
2845 51.6658 1.769211 193.00 175.69 14.00
2846 51.6805 1.768743 227.00 234.00 15.00
2847 51.6951 1.768276 276.00 300.58 17.00
2848 51.7098 1.767809 321.00 317.03 18.00
2849 51.7245 1.767342 269.00 259.13 16.00
2850 51.7391 1.766875 159.00 179.52 13.00
2851 51.7538 1.766409 121.00 122.57 11.00
2852 51.7685 1.765943 101.00 92.81 10.00
2853 51.7831 1.765477 81.00 77.63 9.00
2854 51.7978 1.765012 60.00 68.98 8.00
2855 51.8125 1.764547 61.00 63.50 8.00
2856 51.8271 1.764082 68.00 59.75 8.00
2857 51.8418 1.763617 49.00 57.02 7.00
2858 51.8565 1.763153 52.00 54.94 7.00
2859 51.8712 1.762689 58.00 51.23 8.00
2860 51.8858 1.762225 48.00 49.54 7.00
2861 51.9005 1.761762 59.00 47.83 8.00
2862 51.9151 1.761298 42.00 47.07 6.00
2863 51.9298 1.760835 47.00 46.61 7.00
2864 51.9445 1.760373 56.00 46.32 7.00
2865 51.9591 1.759910 40.00 46.09 6.00
2866 51.9738 1.759448 51.00 45.92 7.00
2867 51.9885 1.758986 47.00 45.78 7.00
2868 52.0032 1.758525 47.00 45.68 7.00
2869 52.0178 1.758063 64.00 44.67 8.00
2870 52.0325 1.757602 51.00 44.70 7.00
2871 52.0472 1.757141 53.00 44.74 7.00
2872 52.0618 1.756681 44.00 44.78 7.00
2873 52.0765 1.756220 45.00 44.83 7.00
2874 52.0912 1.755760 49.00 44.88 7.00
2875 52.1058 1.755301 46.00 44.93 7.00
2876 52.1205 1.754841 44.00 44.99 7.00
2877 52.1352 1.754382 53.00 45.05 7.00
2878 52.1498 1.753923 41.00 45.11 6.00
2879 52.1645 1.753465 40.00 45.17 6.00
2880 52.1792 1.753006 46.00 45.24 7.00
2881 52.1938 1.752548 52.00 45.30 7.00
2882 52.2085 1.752090 50.00 45.37 7.00
2883 52.2232 1.751633 50.00 45.44 7.00
2884 52.2378 1.751176 61.00 45.51 8.00
2885 52.2525 1.750718 49.00 45.58 7.00
2886 52.2672 1.750262 48.00 45.65 7.00
2887 52.2818 1.749805 63.00 45.72 8.00
2888 52.2965 1.749349 50.00 45.80 7.00
2889 52.3112 1.748893 40.00 45.87 6.00
2890 52.3259 1.748437 58.00 45.94 8.00
2891 52.3405 1.747982 39.00 46.02 6.00
2892 52.3552 1.747527 50.00 46.09 7.00
2893 52.3699 1.747072 54.00 46.17 7.00
2894 52.3845 1.746617 46.00 46.24 7.00
2895 52.3992 1.746163 50.00 46.32 7.00
2896 52.4139 1.745709 65.00 46.39 8.00
2897 52.4285 1.745255 51.00 46.47 7.00
2898 52.4432 1.744801 61.00 46.54 8.00
2899 52.4579 1.744348 75.00 46.62 9.00
2900 52.4725 1.743895 59.00 46.70 8.00
2901 52.4872 1.743442 55.00 46.77 7.00
2902 52.5019 1.742989 65.00 46.85 8.00
2903 52.5165 1.742537 74.00 46.93 9.00
2904 52.5312 1.742085 53.00 47.00 7.00
2905 52.5459 1.741633 59.00 47.08 8.00
2906 52.5605 1.741182 53.00 47.16 7.00
2907 52.5752 1.740731 54.00 47.24 7.00
2908 52.5899 1.740280 57.00 47.31 8.00
2909 52.6045 1.739829 52.00 47.39 7.00
2910 52.6192 1.739379 51.00 47.47 7.00
2911 52.6339 1.738929 55.00 47.55 7.00
2912 52.6485 1.738479 37.00 47.62 6.00
2913 52.6632 1.738029 46.00 47.70 7.00
2914 52.6779 1.737580 54.00 47.78 7.00
2915 52.6926 1.737131 46.00 47.87 7.00
2916 52.7072 1.736682 61.00 47.97 8.00
2917 52.7219 1.736233 50.00 48.07 7.00
2918 52.7365 1.735785 55.00 48.16 7.00
2919 52.7512 1.735337 57.00 53.54 8.00
2920 52.7659 1.734889 74.00 55.04 9.00
2921 52.7806 1.734441 63.00 56.69 8.00
2922 52.7952 1.733994 73.00 58.29 9.00
2923 52.8099 1.733547 71.00 59.97 8.00
2924 52.8246 1.733100 65.00 61.88 8.00
2925 52.8392 1.732654 82.00 64.18 9.00
2926 52.8539 1.732207 98.00 67.07 10.00
2927 52.8686 1.731761 97.00 70.85 10.00
2928 52.8832 1.731316 84.00 78.24 9.00
2929 52.8979 1.730870 95.00 88.40 10.00
2930 52.9126 1.730425 95.00 112.92 10.00
2931 52.9272 1.729980 119.00 135.85 11.00
2932 52.9419 1.729535 139.00 161.91 12.00
2933 52.9566 1.729091 177.00 202.26 13.00
2934 52.9712 1.728647 243.00 271.38 16.00
2935 52.9859 1.728203 404.00 400.21 20.00
2936 53.0006 1.727759 642.00 651.05 25.00
2937 53.0152 1.727316 1098.00 1093.72 33.00
2938 53.0299 1.726872 1656.00 1635.32 41.00
2939 53.0446 1.726429 1842.00 1863.09 43.00
2940 53.0592 1.725987 1421.00 1515.34 38.00
2941 53.0739 1.725544 929.00 970.26 30.00
2942 53.0886 1.725102 623.00 594.80 25.00
2943 53.1032 1.724660 406.00 416.23 20.00
2944 53.1179 1.724218 336.00 357.58 18.00
2945 53.1326 1.723777 397.00 380.42 20.00
2946 53.1473 1.723336 497.00 490.28 22.00
2947 53.1619 1.722895 667.00 691.97 26.00
2948 53.1766 1.722455 875.00 895.79 30.00
2949 53.1913 1.722014 907.00 915.22 30.00
2950 53.2059 1.721574 719.00 712.30 27.00
2951 53.2206 1.721134 448.00 461.35 21.00
2952 53.2353 1.720695 293.00 288.38 17.00
2953 53.2499 1.720255 205.00 198.63 14.00
2954 53.2646 1.719816 159.00 152.24 13.00
2955 53.2793 1.719377 125.00 125.70 11.00
2956 53.2939 1.718938 116.00 109.03 11.00
2957 53.3086 1.718500 85.00 97.91 9.00
2958 53.3233 1.718062 89.00 90.13 9.00
2959 53.3379 1.717624 78.00 84.23 9.00
2960 53.3526 1.717186 65.00 72.77 8.00
2961 53.3673 1.716749 76.00 67.27 9.00
2962 53.3819 1.716312 73.00 62.25 9.00
2963 53.3966 1.715875 75.00 60.36 9.00
2964 53.4113 1.715438 53.00 59.23 7.00
2965 53.4259 1.715002 71.00 58.43 8.00
2966 53.4406 1.714566 75.00 57.82 9.00
2967 53.4553 1.714130 53.00 57.35 7.00
2968 53.4700 1.713695 49.00 56.97 7.00
2969 53.4846 1.713259 65.00 56.67 8.00
2970 53.4993 1.712824 52.00 53.36 7.00
2971 53.5140 1.712389 54.00 53.45 7.00
2972 53.5286 1.711955 46.00 53.53 7.00
2973 53.5433 1.711520 58.00 53.63 8.00
2974 53.5580 1.711086 54.00 53.73 7.00
2975 53.5726 1.710652 57.00 53.83 8.00
2976 53.5873 1.710219 48.00 53.90 7.00
2977 53.6020 1.709786 56.00 53.87 7.00
2978 53.6166 1.709352 64.00 53.84 8.00
2979 53.6313 1.708919 56.00 53.81 7.00
2980 53.6460 1.708487 53.00 53.78 7.00
2981 53.6606 1.708055 54.00 53.75 7.00
2982 53.6753 1.707622 48.00 53.72 7.00
2983 53.6900 1.707191 63.00 53.70 8.00
2984 53.7046 1.706759 50.00 53.67 7.00
2985 53.7193 1.706328 56.00 53.64 7.00
2986 53.7340 1.705896 66.00 53.61 8.00
2987 53.7486 1.705465 50.00 53.59 7.00
2988 53.7633 1.705035 61.00 53.79 8.00
2989 53.7780 1.704604 62.00 53.82 8.00
2990 53.7926 1.704174 55.00 53.87 7.00
2991 53.8073 1.703744 54.00 53.94 7.00
2992 53.8220 1.703315 50.00 54.00 7.00
2993 53.8367 1.702885 56.00 54.07 7.00
2994 53.8513 1.702456 61.00 54.16 8.00
2995 53.8660 1.702027 59.00 54.27 8.00
2996 53.8806 1.701598 62.00 54.43 8.00
2997 53.8953 1.701170 61.00 54.66 8.00
2998 53.9100 1.700742 66.00 55.60 8.00
2999 53.9247 1.700314 57.00 56.70 8.00
3000 53.9393 1.699886 70.00 58.30 8.00
3001 53.9540 1.699459 64.00 59.81 8.00
3002 53.9687 1.699031 74.00 62.12 9.00
3003 53.9833 1.698604 58.00 66.15 8.00
3004 53.9980 1.698177 90.00 73.89 9.00
3005 54.0127 1.697751 103.00 89.31 10.00
3006 54.0273 1.697325 100.00 116.37 10.00
3007 54.0420 1.696899 135.00 146.74 12.00
3008 54.0567 1.696473 127.00 153.93 11.00
3009 54.0713 1.696048 144.00 129.07 12.00
3010 54.0860 1.695622 102.00 98.72 10.00
3011 54.1007 1.695197 89.00 80.00 9.00
3012 54.1153 1.694772 74.00 71.64 9.00
3013 54.1300 1.694348 78.00 69.07 9.00
3014 54.1447 1.693923 88.00 75.75 9.00
3015 54.1593 1.693499 96.00 83.16 10.00
3016 54.1740 1.693075 109.00 96.38 10.00
3017 54.1887 1.692652 127.00 110.47 11.00
3018 54.2034 1.692228 118.00 114.16 11.00
3019 54.2180 1.691805 123.00 104.74 11.00
3020 54.2327 1.691382 100.00 92.56 10.00
3021 54.2473 1.690960 89.00 85.85 9.00
3022 54.2620 1.690537 105.00 84.59 10.00
3023 54.2767 1.690115 99.00 86.89 10.00
3024 54.2914 1.689693 107.00 94.87 10.00
3025 54.3060 1.689271 107.00 107.98 10.00
3026 54.3207 1.688850 123.00 138.99 11.00
3027 54.3354 1.688429 135.00 167.00 12.00
3028 54.3500 1.688008 169.00 200.88 13.00
3029 54.3647 1.687587 229.00 255.02 15.00
3030 54.3794 1.687166 357.00 349.37 19.00
3031 54.3940 1.686746 511.00 528.35 23.00
3032 54.4087 1.686326 917.00 873.33 30.00
3033 54.4234 1.685906 1500.00 1445.98 39.00
3034 54.4380 1.685487 2125.00 2050.51 46.00
3035 54.4527 1.685067 2228.00 2176.52 47.00
3036 54.4674 1.684648 1696.00 1679.62 41.00
3037 54.4820 1.684229 995.00 1057.91 32.00
3038 54.4967 1.683811 676.00 658.41 26.00
3039 54.5114 1.683393 465.00 471.68 22.00
3040 54.5260 1.682974 373.00 411.38 19.00
3041 54.5407 1.682556 394.00 439.53 20.00
3042 54.5554 1.682139 585.00 565.32 24.00
3043 54.5700 1.681721 844.00 798.09 29.00
3044 54.5847 1.681304 1004.00 1046.22 32.00
3045 54.5994 1.680887 1102.00 1098.24 33.00
3046 54.6141 1.680470 907.00 882.06 30.00
3047 54.6287 1.680054 610.00 584.26 25.00
3048 54.6434 1.679638 348.00 368.33 19.00
3049 54.6581 1.679222 230.00 253.10 15.00
3050 54.6727 1.678805 177.00 193.47 13.00
3051 54.6874 1.678390 155.00 159.73 12.00
3052 54.7021 1.677974 146.00 146.36 12.00
3053 54.7167 1.677560 126.00 133.92 11.00
3054 54.7314 1.677145 140.00 126.09 12.00
3055 54.7461 1.676730 130.00 120.99 11.00
3056 54.7607 1.676316 121.00 109.59 11.00
3057 54.7754 1.675901 134.00 105.66 12.00
3058 54.7901 1.675488 130.00 102.34 11.00
3059 54.8047 1.675074 125.00 103.63 11.00
3060 54.8194 1.674660 111.00 107.01 11.00
3061 54.8341 1.674247 125.00 112.55 11.00
3062 54.8487 1.673834 147.00 125.29 12.00
3063 54.8634 1.673421 171.00 146.16 13.00
3064 54.8781 1.673009 168.00 192.89 13.00
3065 54.8927 1.672596 203.00 234.28 14.00
3066 54.9074 1.672184 265.00 282.96 16.00
3067 54.9221 1.671772 344.00 367.65 19.00
3068 54.9367 1.671361 500.00 517.43 22.00
3069 54.9514 1.670949 832.00 803.60 29.00
3070 54.9661 1.670538 1465.00 1350.63 38.00
3071 54.9808 1.670127 2338.00 2222.85 48.00
3072 54.9954 1.669717 2995.00 3060.12 55.00
3073 55.0101 1.669306 2997.00 3116.52 55.00
3074 55.0247 1.668896 2315.00 2328.97 48.00
3075 55.0394 1.668486 1513.00 1444.45 39.00
3076 55.0541 1.668076 915.00 897.24 30.00
3077 55.0687 1.667666 638.00 644.66 25.00
3078 55.0834 1.667257 561.00 565.18 24.00
3079 55.0981 1.666848 581.00 610.52 24.00
3080 55.1128 1.666439 769.00 796.97 28.00
3081 55.1274 1.666030 1176.00 1138.44 34.00
3082 55.1421 1.665622 1455.00 1498.84 38.00
3083 55.1568 1.665214 1607.00 1572.69 40.00
3084 55.1714 1.664806 1271.00 1257.28 36.00
3085 55.1861 1.664398 801.00 820.38 28.00
3086 55.2008 1.663991 505.00 501.82 22.00
3087 55.2154 1.663583 359.00 329.91 19.00
3088 55.2301 1.663176 239.00 240.10 15.00
3089 55.2448 1.662769 188.00 188.98 14.00
3090 55.2594 1.662362 151.00 156.86 12.00
3091 55.2741 1.661956 117.00 135.18 11.00
3092 55.2888 1.661550 107.00 119.71 10.00
3093 55.3034 1.661144 95.00 108.19 10.00
3094 55.3181 1.660738 92.00 99.21 10.00
3095 55.3328 1.660333 83.00 80.83 9.00
3096 55.3474 1.659928 74.00 70.75 9.00
3097 55.3621 1.659523 80.00 65.51 9.00
3098 55.3768 1.659118 87.00 63.11 9.00
3099 55.3914 1.658713 83.00 61.40 9.00
3100 55.4061 1.658309 64.00 60.06 8.00
3101 55.4208 1.657905 76.00 58.97 9.00
3102 55.4355 1.657501 72.00 58.07 8.00
3103 55.4501 1.657097 58.00 57.30 8.00
3104 55.4648 1.656693 66.00 56.65 8.00
3105 55.4795 1.656290 60.00 51.00 8.00
3106 55.4941 1.655887 51.00 50.97 7.00
3107 55.5088 1.655485 46.00 50.95 7.00
3108 55.5235 1.655082 62.00 50.93 8.00
3109 55.5381 1.654679 62.00 50.93 8.00
3110 55.5528 1.654278 50.00 50.93 7.00
3111 55.5675 1.653876 43.00 50.93 7.00
3112 55.5821 1.653474 54.00 50.94 7.00
3113 55.5968 1.653072 59.00 50.95 8.00
3114 55.6115 1.652671 56.00 50.96 7.00
3115 55.6261 1.652270 58.00 50.90 8.00
3116 55.6408 1.651869 50.00 50.79 7.00
3117 55.6555 1.651469 42.00 50.66 6.00
3118 55.6701 1.651068 41.00 50.52 6.00
3119 55.6848 1.650668 62.00 50.37 8.00
3120 55.6995 1.650268 58.00 50.21 8.00
3121 55.7141 1.649869 47.00 50.06 7.00
3122 55.7288 1.649469 55.00 49.92 7.00
3123 55.7435 1.649070 52.00 49.78 7.00
3124 55.7581 1.648671 48.00 49.65 7.00
3125 55.7728 1.648272 55.00 49.52 7.00
3126 55.7875 1.647873 43.00 49.38 7.00
3127 55.8022 1.647475 62.00 49.23 8.00
3128 55.8168 1.647077 68.00 49.08 8.00
3129 55.8315 1.646679 57.00 48.93 8.00
3130 55.8461 1.646281 42.00 48.78 6.00
3131 55.8608 1.645884 57.00 48.62 8.00
3132 55.8755 1.645486 53.00 48.47 7.00
3133 55.8902 1.645089 49.00 48.33 7.00
3134 55.9048 1.644692 60.00 48.19 8.00
3135 55.9195 1.644296 56.00 48.05 7.00
3136 55.9342 1.643900 53.00 47.92 7.00
3137 55.9488 1.643503 53.00 47.78 7.00
3138 55.9635 1.643107 37.00 47.65 6.00
3139 55.9782 1.642712 56.00 47.53 7.00
3140 55.9928 1.642316 48.00 47.40 7.00
3141 56.0075 1.641921 47.00 48.36 7.00
3142 56.0222 1.641526 39.00 48.29 6.00
3143 56.0368 1.641131 44.00 48.23 7.00
3144 56.0515 1.640736 43.00 48.18 7.00
3145 56.0662 1.640342 36.00 48.13 6.00
3146 56.0808 1.639947 51.00 48.09 7.00
3147 56.0955 1.639553 47.00 48.06 7.00
3148 56.1102 1.639160 51.00 48.06 7.00
3149 56.1248 1.638766 57.00 48.06 8.00
3150 56.1395 1.638373 54.00 48.08 7.00
3151 56.1542 1.637980 44.00 48.09 7.00
3152 56.1688 1.637587 43.00 48.09 7.00
3153 56.1835 1.637194 38.00 48.12 6.00
3154 56.1982 1.636801 57.00 48.18 8.00
3155 56.2128 1.636409 47.00 48.27 7.00
3156 56.2275 1.636017 60.00 48.40 8.00
3157 56.2422 1.635625 42.00 48.56 6.00
3158 56.2569 1.635233 52.00 48.75 7.00
3159 56.2715 1.634842 52.00 48.98 7.00
3160 56.2862 1.634451 56.00 49.29 7.00
3161 56.3009 1.634060 47.00 49.69 7.00
3162 56.3155 1.633669 49.00 50.12 7.00
3163 56.3302 1.633279 45.00 50.60 7.00
3164 56.3449 1.632888 51.00 51.15 7.00
3165 56.3595 1.632498 48.00 51.78 7.00
3166 56.3742 1.632108 50.00 52.52 7.00
3167 56.3889 1.631718 65.00 53.42 8.00
3168 56.4035 1.631329 60.00 54.48 8.00
3169 56.4182 1.630939 42.00 55.65 6.00
3170 56.4329 1.630550 55.00 56.94 7.00
3171 56.4475 1.630162 58.00 58.51 8.00
3172 56.4622 1.629773 64.00 60.54 8.00
3173 56.4769 1.629385 55.00 63.17 7.00
3174 56.4915 1.628996 60.00 66.53 8.00
3175 56.5062 1.628608 80.00 70.79 9.00
3176 56.5209 1.628220 75.00 76.12 9.00
3177 56.5355 1.627833 74.00 82.57 9.00
3178 56.5502 1.627445 101.00 89.95 10.00
3179 56.5649 1.627058 107.00 97.61 10.00
3180 56.5796 1.626671 103.00 104.26 10.00
3181 56.5942 1.626284 109.00 108.34 10.00
3182 56.6089 1.625898 124.00 108.82 11.00
3183 56.6236 1.625512 111.00 105.88 11.00
3184 56.6382 1.625125 100.00 100.86 10.00
3185 56.6529 1.624739 104.00 95.42 10.00
3186 56.6676 1.624354 79.00 90.79 9.00
3187 56.6822 1.623968 103.00 87.58 10.00
3188 56.6969 1.623583 79.00 85.88 9.00
3189 56.7116 1.623198 83.00 85.39 9.00
3190 56.7262 1.622813 104.00 85.47 10.00
3191 56.7409 1.622428 105.00 85.36 10.00
3192 56.7556 1.622044 85.00 84.22 9.00
3193 56.7702 1.621660 86.00 81.71 9.00
3194 56.7849 1.621276 77.00 78.01 9.00
3195 56.7996 1.620892 80.00 73.78 9.00
3196 56.8142 1.620508 69.00 69.61 8.00
3197 56.8289 1.620125 52.00 65.90 7.00
3198 56.8436 1.619742 68.00 62.77 8.00
3199 56.8582 1.619359 67.00 60.22 8.00
3200 56.8729 1.618976 63.00 58.19 8.00
3201 56.8876 1.618593 57.00 56.57 8.00
3202 56.9022 1.618211 66.00 55.32 8.00
3203 56.9169 1.617829 55.00 55.91 7.00
3204 56.9316 1.617447 54.00 55.25 7.00
3205 56.9463 1.617065 59.00 54.85 8.00
3206 56.9609 1.616683 43.00 54.59 7.00
3207 56.9756 1.616302 50.00 54.41 7.00
3208 56.9902 1.615921 40.00 54.36 6.00
3209 57.0049 1.615540 61.00 54.48 8.00
3210 57.0196 1.615159 53.00 54.92 7.00
3211 57.0342 1.614779 45.00 56.00 7.00
3212 57.0489 1.614398 54.00 58.20 7.00
3213 57.0636 1.614018 47.00 61.52 7.00
3214 57.0783 1.613638 63.00 64.14 8.00
3215 57.0929 1.613259 55.00 63.47 7.00
3216 57.1076 1.612879 65.00 60.16 8.00
3217 57.1223 1.612500 41.00 56.96 6.00
3218 57.1369 1.612121 44.00 55.10 7.00
3219 57.1516 1.611742 54.00 54.27 7.00
3220 57.1663 1.611363 67.00 54.07 8.00
3221 57.1809 1.610985 54.00 54.32 7.00
3222 57.1956 1.610607 48.00 55.09 7.00
3223 57.2103 1.610229 43.00 56.47 7.00
3224 57.2249 1.609851 54.00 58.15 7.00
3225 57.2396 1.609473 63.00 59.09 8.00
3226 57.2543 1.609096 65.00 58.58 8.00
3227 57.2689 1.608718 44.00 57.37 7.00
3228 57.2836 1.608341 46.00 56.52 7.00
3229 57.2983 1.607964 66.00 56.38 8.00
3230 57.3130 1.607588 55.00 56.79 7.00
3231 57.3276 1.607212 64.00 57.50 8.00
3232 57.3423 1.606835 61.00 58.49 8.00
3233 57.3569 1.606459 57.00 59.78 8.00
3234 57.3716 1.606083 54.00 61.48 7.00
3235 57.3863 1.605708 52.00 63.79 7.00
3236 57.4010 1.605332 62.00 67.03 8.00
3237 57.4156 1.604957 61.00 71.23 8.00
3238 57.4303 1.604582 64.00 75.31 8.00
3239 57.4450 1.604207 70.00 77.53 8.00
3240 57.4596 1.603833 71.00 78.30 8.00
3241 57.4743 1.603458 69.00 79.18 8.00
3242 57.4890 1.603084 79.00 80.67 9.00
3243 57.5036 1.602710 80.00 82.37 9.00
3244 57.5183 1.602336 89.00 83.93 9.00
3245 57.5330 1.601963 90.00 85.38 9.00
3246 57.5476 1.601589 73.00 87.39 9.00
3247 57.5623 1.601216 79.00 89.37 9.00
3248 57.5770 1.600843 91.00 90.20 10.00
3249 57.5916 1.600470 82.00 88.30 9.00
3250 57.6063 1.600098 70.00 84.58 8.00
3251 57.6210 1.599725 99.00 80.99 10.00
3252 57.6356 1.599353 81.00 78.43 9.00
3253 57.6503 1.598981 76.00 76.52 9.00
3254 57.6650 1.598609 85.00 75.29 9.00
3255 57.6796 1.598238 85.00 74.25 9.00
3256 57.6943 1.597866 82.00 73.34 9.00
3257 57.7090 1.597495 72.00 72.73 8.00
3258 57.7237 1.597124 60.00 71.92 8.00
3259 57.7383 1.596753 62.00 70.45 8.00
3260 57.7530 1.596382 69.00 68.15 8.00
3261 57.7677 1.596012 75.00 65.74 9.00
3262 57.7823 1.595642 64.00 63.78 8.00
3263 57.7970 1.595272 72.00 62.24 8.00
3264 57.8116 1.594902 62.00 61.21 8.00
3265 57.8263 1.594532 58.00 60.47 8.00
3266 57.8410 1.594163 56.00 59.98 7.00
3267 57.8557 1.593794 72.00 59.70 8.00
3268 57.8703 1.593424 60.00 59.61 8.00
3269 57.8850 1.593056 54.00 59.68 7.00
3270 57.8997 1.592687 61.00 60.03 8.00
3271 57.9143 1.592319 48.00 60.38 7.00
3272 57.9290 1.591950 68.00 60.82 8.00
3273 57.9437 1.591582 62.00 61.30 8.00
3274 57.9583 1.591215 69.00 61.74 8.00
3275 57.9730 1.590847 73.00 62.09 9.00
3276 57.9877 1.590479 62.00 62.28 8.00
3277 58.0023 1.590112 78.00 62.29 9.00
3278 58.0170 1.589745 53.00 62.12 7.00
3279 58.0317 1.589378 62.00 61.78 8.00
3280 58.0463 1.589011 68.00 61.33 8.00
3281 58.0610 1.588645 71.00 60.88 8.00
3282 58.0757 1.588279 58.00 60.37 8.00
3283 58.0904 1.587912 57.00 59.86 8.00
3284 58.1050 1.587547 59.00 59.38 8.00
3285 58.1197 1.587181 77.00 58.91 9.00
3286 58.1343 1.586815 54.00 58.43 7.00
3287 58.1490 1.586450 69.00 57.92 8.00
3288 58.1637 1.586085 54.00 57.37 7.00
3289 58.1783 1.585720 64.00 56.77 8.00
3290 58.1930 1.585355 65.00 56.13 8.00
3291 58.2077 1.584991 56.00 55.47 7.00
3292 58.2224 1.584626 61.00 54.82 8.00
3293 58.2370 1.584262 54.00 54.20 7.00
3294 58.2517 1.583898 56.00 53.61 7.00
3295 58.2664 1.583534 38.00 53.07 6.00
3296 58.2810 1.583171 56.00 52.59 7.00
3297 58.2957 1.582807 50.00 52.17 7.00
3298 58.3104 1.582444 46.00 51.80 7.00
3299 58.3250 1.582081 43.00 51.48 7.00
3300 58.3397 1.581719 57.00 51.21 8.00
3301 58.3544 1.581356 39.00 50.99 6.00
3302 58.3690 1.580993 46.00 50.80 7.00
3303 58.3837 1.580631 45.00 50.65 7.00
3304 58.3984 1.580269 49.00 50.54 7.00
3305 58.4130 1.579907 53.00 50.45 7.00
3306 58.4277 1.579546 52.00 50.40 7.00
3307 58.4424 1.579184 53.00 50.37 7.00
3308 58.4570 1.578823 46.00 50.61 7.00
3309 58.4717 1.578462 49.00 50.84 7.00
3310 58.4864 1.578101 51.00 51.09 7.00
3311 58.5010 1.577740 39.00 51.36 6.00
3312 58.5157 1.577380 52.00 51.67 7.00
3313 58.5304 1.577020 50.00 52.00 7.00
3314 58.5451 1.576659 46.00 52.37 7.00
3315 58.5597 1.576299 52.00 52.77 7.00
3316 58.5744 1.575940 54.00 53.21 7.00
3317 58.5891 1.575580 53.00 53.69 7.00
3318 58.6037 1.575221 45.00 54.27 7.00
3319 58.6184 1.574862 43.00 54.85 7.00
3320 58.6331 1.574502 50.00 55.49 7.00
3321 58.6477 1.574144 54.00 56.19 7.00
3322 58.6624 1.573785 53.00 56.93 7.00
3323 58.6771 1.573427 53.00 57.74 7.00
3324 58.6917 1.573068 46.00 58.59 7.00
3325 58.7064 1.572710 61.00 59.48 8.00
3326 58.7211 1.572353 56.00 60.39 7.00
3327 58.7357 1.571995 47.00 61.32 7.00
3328 58.7504 1.571637 58.00 62.27 8.00
3329 58.7651 1.571280 58.00 63.22 8.00
3330 58.7797 1.570923 50.00 64.08 7.00
3331 58.7944 1.570566 61.00 65.00 8.00
3332 58.8091 1.570210 52.00 66.04 7.00
3333 58.8237 1.569853 55.00 67.23 7.00
3334 58.8384 1.569497 73.00 68.61 9.00
3335 58.8531 1.569140 65.00 70.21 8.00
3336 58.8677 1.568784 68.00 72.09 8.00
3337 58.8824 1.568429 68.00 74.28 8.00
3338 58.8971 1.568073 77.00 76.86 9.00
3339 58.9118 1.567718 85.00 79.91 9.00
3340 58.9264 1.567362 76.00 83.50 9.00
3341 58.9411 1.567007 84.00 87.74 9.00
3342 58.9557 1.566653 66.00 92.69 8.00
3343 58.9704 1.566298 116.00 98.41 11.00
3344 58.9851 1.565943 100.00 104.87 10.00
3345 58.9998 1.565589 107.00 111.90 10.00
3346 59.0144 1.565235 94.00 119.12 10.00
3347 59.0291 1.564881 120.00 125.97 11.00
3348 59.0438 1.564527 126.00 131.66 11.00
3349 59.0584 1.564174 132.00 135.44 11.00
3350 59.0731 1.563820 140.00 136.84 12.00
3351 59.0878 1.563467 144.00 135.91 12.00
3352 59.1024 1.563114 125.00 133.18 11.00
3353 59.1171 1.562761 127.00 129.44 11.00
3354 59.1318 1.562409 121.00 125.51 11.00
3355 59.1464 1.562056 118.00 121.99 11.00
3356 59.1611 1.561704 103.00 119.15 10.00
3357 59.1758 1.561352 101.00 117.02 10.00
3358 59.1904 1.561000 108.00 115.35 10.00
3359 59.2051 1.560648 113.00 113.80 11.00
3360 59.2198 1.560297 101.00 111.86 10.00
3361 59.2344 1.559946 101.00 109.25 10.00
3362 59.2491 1.559594 96.00 105.77 10.00
3363 59.2638 1.559243 92.00 101.79 10.00
3364 59.2785 1.558892 96.00 97.49 10.00
3365 59.2931 1.558542 87.00 93.20 9.00
3366 59.3078 1.558192 93.00 89.15 10.00
3367 59.3224 1.557841 63.00 85.54 8.00
3368 59.3371 1.557491 70.00 82.43 8.00
3369 59.3518 1.557141 79.00 79.85 9.00
3370 59.3665 1.556792 77.00 77.82 9.00
3371 59.3811 1.556442 82.00 76.28 9.00
3372 59.3958 1.556093 79.00 75.24 9.00
3373 59.4105 1.555744 68.00 74.63 8.00
3374 59.4251 1.555395 74.00 74.58 9.00
3375 59.4398 1.555046 77.00 75.06 9.00
3376 59.4545 1.554697 81.00 76.12 9.00
3377 59.4691 1.554349 77.00 77.78 9.00
3378 59.4838 1.554001 76.00 80.07 9.00
3379 59.4985 1.553653 98.00 82.91 10.00
3380 59.5131 1.553305 86.00 86.07 9.00
3381 59.5278 1.552957 74.00 89.11 9.00
3382 59.5425 1.552610 86.00 91.40 9.00
3383 59.5571 1.552262 94.00 92.44 10.00
3384 59.5718 1.551915 84.00 92.07 9.00
3385 59.5865 1.551568 93.00 90.67 10.00
3386 59.6011 1.551221 86.00 88.89 9.00
3387 59.6158 1.550875 93.00 87.35 10.00
3388 59.6305 1.550528 96.00 86.45 10.00
3389 59.6451 1.550182 81.00 86.37 9.00
3390 59.6598 1.549836 88.00 87.12 9.00
3391 59.6745 1.549490 88.00 88.58 9.00
3392 59.6892 1.549144 80.00 90.49 9.00
3393 59.7038 1.548799 74.00 92.53 9.00
3394 59.7185 1.548454 97.00 94.34 10.00
3395 59.7332 1.548108 102.00 95.73 10.00
3396 59.7478 1.547763 89.00 96.67 9.00
3397 59.7625 1.547418 89.00 97.25 9.00
3398 59.7772 1.547074 102.00 97.56 10.00
3399 59.7918 1.546729 82.00 97.58 9.00
3400 59.8065 1.546385 100.00 97.25 10.00
3401 59.8212 1.546041 113.00 96.53 11.00
3402 59.8358 1.545697 95.00 95.43 10.00
3403 59.8505 1.545353 103.00 94.07 10.00
3404 59.8652 1.545010 89.00 92.59 9.00
3405 59.8798 1.544667 79.00 91.16 9.00
3406 59.8945 1.544323 79.00 89.91 9.00
3407 59.9092 1.543980 91.00 88.91 10.00
3408 59.9238 1.543637 78.00 88.16 9.00
3409 59.9385 1.543295 72.00 87.58 8.00
3410 59.9532 1.542952 66.00 87.03 8.00
3411 59.9678 1.542610 82.00 86.32 9.00
3412 59.9825 1.542268 76.00 85.25 9.00
3413 59.9972 1.541926 93.00 83.64 10.00
3414 60.0118 1.541584 82.00 81.59 9.00
3415 60.0265 1.541242 56.00 79.17 7.00
3416 60.0412 1.540901 79.00 76.60 9.00
3417 60.0559 1.540560 74.00 74.09 9.00
3418 60.0705 1.540219 55.00 71.78 7.00
3419 60.0852 1.539878 76.00 69.73 9.00
3420 60.0998 1.539537 73.00 67.98 9.00
3421 60.1145 1.539196 64.00 66.50 8.00
3422 60.1292 1.538856 65.00 65.21 8.00
3423 60.1438 1.538516 66.00 64.04 8.00
3424 60.1585 1.538176 72.00 62.88 8.00
3425 60.1732 1.537836 49.00 61.72 7.00
3426 60.1879 1.537496 71.00 60.55 8.00
3427 60.2025 1.537157 50.00 59.38 7.00
3428 60.2172 1.536818 47.00 58.28 7.00
3429 60.2319 1.536479 57.00 57.28 8.00
3430 60.2465 1.536139 49.00 56.40 7.00
3431 60.2612 1.535801 50.00 55.63 7.00
3432 60.2759 1.535462 42.00 54.98 6.00
3433 60.2905 1.535124 53.00 54.44 7.00
3434 60.3052 1.534785 34.00 53.98 6.00
3435 60.3199 1.534447 51.00 53.62 7.00
3436 60.3345 1.534109 48.00 53.33 7.00
3437 60.3492 1.533772 50.00 53.10 7.00
3438 60.3639 1.533434 62.00 52.93 8.00
3439 60.3785 1.533096 61.00 52.77 8.00
3440 60.3932 1.532759 46.00 52.61 7.00
3441 60.4079 1.532422 63.00 52.41 8.00
3442 60.4225 1.532086 54.00 52.12 7.00
3443 60.4372 1.531749 46.00 51.80 7.00
3444 60.4519 1.531412 40.00 51.49 6.00
3445 60.4665 1.531076 49.00 51.20 7.00
3446 60.4812 1.530739 51.00 50.96 7.00
3447 60.4959 1.530404 46.00 50.76 7.00
3448 60.5106 1.530068 48.00 50.60 7.00
3449 60.5252 1.529732 45.00 50.49 7.00
3450 60.5399 1.529397 39.00 50.40 6.00
3451 60.5546 1.529061 49.00 50.32 7.00
3452 60.5692 1.528726 55.00 50.26 7.00
3453 60.5839 1.528391 42.00 50.18 6.00
3454 60.5986 1.528056 46.00 49.81 7.00
3455 60.6132 1.527722 56.00 49.75 7.00
3456 60.6279 1.527387 48.00 49.72 7.00
3457 60.6426 1.527053 59.00 49.73 8.00
3458 60.6572 1.526719 43.00 49.79 7.00
3459 60.6719 1.526385 49.00 49.78 7.00
3460 60.6866 1.526051 48.00 49.95 7.00
3461 60.7012 1.525717 42.00 50.19 6.00
3462 60.7159 1.525384 57.00 50.50 8.00
3463 60.7306 1.525051 59.00 50.90 8.00
3464 60.7452 1.524717 48.00 51.40 7.00
3465 60.7599 1.524384 48.00 51.85 7.00
3466 60.7746 1.524052 38.00 52.56 6.00
3467 60.7892 1.523719 57.00 53.37 8.00
3468 60.8039 1.523387 48.00 54.28 7.00
3469 60.8186 1.523054 46.00 55.24 7.00
3470 60.8332 1.522722 80.00 56.15 9.00
3471 60.8479 1.522391 55.00 57.02 7.00
3472 60.8626 1.522059 60.00 57.72 8.00
3473 60.8773 1.521727 61.00 58.14 8.00
3474 60.8919 1.521396 54.00 58.23 7.00
3475 60.9066 1.521065 58.00 58.02 8.00
3476 60.9212 1.520734 80.00 57.56 9.00
3477 60.9359 1.520403 56.00 56.94 7.00
3478 60.9506 1.520072 72.00 56.28 8.00
3479 60.9653 1.519741 69.00 55.64 8.00
3480 60.9799 1.519411 60.00 55.08 8.00
3481 60.9946 1.519081 62.00 54.60 8.00
3482 61.0093 1.518751 63.00 54.17 8.00
3483 61.0239 1.518421 55.00 53.77 7.00
3484 61.0386 1.518091 60.00 53.33 8.00
3485 61.0533 1.517761 52.00 52.81 7.00
3486 61.0679 1.517432 62.00 52.20 8.00
3487 61.0826 1.517103 70.00 51.49 8.00
3488 61.0973 1.516774 54.00 50.73 7.00
3489 61.1119 1.516445 50.00 49.95 7.00
3490 61.1266 1.516116 48.00 49.18 7.00
3491 61.1413 1.515788 60.00 48.46 8.00
3492 61.1559 1.515459 57.00 47.80 8.00
3493 61.1706 1.515131 55.00 47.21 7.00
3494 61.1853 1.514803 59.00 46.69 8.00
3495 61.1999 1.514475 41.00 46.23 6.00
3496 61.2146 1.514148 49.00 45.81 7.00
3497 61.2293 1.513820 41.00 45.47 6.00
3498 61.2439 1.513493 56.00 45.17 7.00
3499 61.2586 1.513165 45.00 44.89 7.00
3500 61.2733 1.512838 49.00 44.64 7.00
3501 61.2879 1.512511 39.00 44.39 6.00
3502 61.3026 1.512185 49.00 44.14 7.00
3503 61.3173 1.511858 42.00 43.89 6.00
3504 61.3320 1.511532 41.00 43.65 6.00
3505 61.3466 1.511206 35.00 43.44 6.00
3506 61.3613 1.510880 44.00 43.25 7.00
3507 61.3760 1.510554 59.00 43.07 8.00
3508 61.3906 1.510228 60.00 42.89 8.00
3509 61.4053 1.509902 43.00 42.75 7.00
3510 61.4200 1.509577 50.00 42.61 7.00
3511 61.4346 1.509252 48.00 42.49 7.00
3512 61.4493 1.508927 58.00 46.36 8.00
3513 61.4640 1.508602 53.00 47.14 7.00
3514 61.4786 1.508277 46.00 48.01 7.00
3515 61.4933 1.507953 55.00 48.84 7.00
3516 61.5080 1.507628 59.00 49.68 8.00
3517 61.5226 1.507304 57.00 50.63 8.00
3518 61.5373 1.506980 74.00 51.77 9.00
3519 61.5520 1.506656 59.00 53.18 8.00
3520 61.5666 1.506332 78.00 54.95 9.00
3521 61.5813 1.506009 73.00 57.27 9.00
3522 61.5960 1.505685 68.00 60.45 8.00
3523 61.6106 1.505362 72.00 67.65 8.00
3524 61.6253 1.505039 88.00 81.85 9.00
3525 61.6400 1.504716 89.00 98.69 9.00
3526 61.6547 1.504393 90.00 113.00 9.00
3527 61.6693 1.504071 107.00 131.87 10.00
3528 61.6840 1.503748 136.00 159.99 12.00
3529 61.6987 1.503426 174.00 205.39 13.00
3530 61.7133 1.503104 278.00 285.73 17.00
3531 61.7280 1.502782 466.00 437.16 22.00
3532 61.7427 1.502460 684.00 711.48 26.00
3533 61.7573 1.502138 1062.00 1108.25 33.00
3534 61.7720 1.501817 1498.00 1446.51 39.00
3535 61.7867 1.501496 1461.00 1445.06 38.00
3536 61.8013 1.501174 1042.00 1112.20 32.00
3537 61.8160 1.500853 744.00 728.56 27.00
3538 61.8307 1.500533 421.00 466.86 21.00
3539 61.8453 1.500212 317.00 327.99 18.00
3540 61.8600 1.499892 250.00 265.22 16.00
3541 61.8747 1.499571 225.00 248.13 15.00
3542 61.8893 1.499251 259.00 270.10 16.00
3543 61.9040 1.498931 286.00 341.87 17.00
3544 61.9187 1.498611 438.00 476.39 21.00
3545 61.9333 1.498292 637.00 645.49 25.00
3546 61.9480 1.497972 762.00 746.14 28.00
3547 61.9627 1.497653 655.00 685.02 26.00
3548 61.9773 1.497334 486.00 508.86 22.00
3549 61.9920 1.497015 346.00 335.11 19.00
3550 62.0067 1.496696 235.00 221.62 15.00
3551 62.0214 1.496377 112.00 158.10 11.00
3552 62.0360 1.496058 132.00 122.75 11.00
3553 62.0507 1.495740 103.00 101.55 10.00
3554 62.0653 1.495422 92.00 87.71 10.00
3555 62.0800 1.495104 71.00 78.09 8.00
3556 62.0947 1.494786 92.00 71.18 10.00
3557 62.1094 1.494468 62.00 65.90 8.00
3558 62.1240 1.494150 64.00 61.75 8.00
3559 62.1387 1.493833 49.00 53.61 7.00
3560 62.1534 1.493516 64.00 48.95 8.00
3561 62.1680 1.493198 45.00 45.70 7.00
3562 62.1827 1.492881 57.00 44.41 8.00
3563 62.1974 1.492565 42.00 43.57 6.00
3564 62.2120 1.492248 52.00 42.93 7.00
3565 62.2267 1.491932 49.00 42.44 7.00
3566 62.2414 1.491615 38.00 42.05 6.00
3567 62.2560 1.491299 44.00 41.78 7.00
3568 62.2707 1.490983 44.00 41.80 7.00
3569 62.2854 1.490667 55.00 42.18 7.00
3570 62.3000 1.490351 43.00 40.17 7.00
3571 62.3147 1.490036 47.00 40.80 7.00
3572 62.3294 1.489721 44.00 41.73 7.00
3573 62.3440 1.489405 56.00 43.21 7.00
3574 62.3587 1.489090 59.00 45.86 8.00
3575 62.3734 1.488775 58.00 50.91 8.00
3576 62.3881 1.488461 58.00 59.95 8.00
3577 62.4027 1.488146 85.00 72.12 9.00
3578 62.4174 1.487832 89.00 80.37 9.00
3579 62.4320 1.487517 83.00 76.99 9.00
3580 62.4467 1.487203 66.00 65.83 8.00
3581 62.4614 1.486889 60.00 55.61 8.00
3582 62.4761 1.486575 59.00 49.43 8.00
3583 62.4907 1.486262 47.00 46.43 7.00
3584 62.5054 1.485948 52.00 45.22 7.00
3585 62.5201 1.485635 36.00 45.12 6.00
3586 62.5347 1.485322 50.00 46.08 7.00
3587 62.5494 1.485009 48.00 48.50 7.00
3588 62.5641 1.484696 60.00 52.80 8.00
3589 62.5787 1.484383 57.00 57.93 8.00
3590 62.5934 1.484071 75.00 60.69 9.00
3591 62.6081 1.483758 72.00 58.48 8.00
3592 62.6227 1.483446 65.00 53.31 8.00
3593 62.6374 1.483134 47.00 48.81 7.00
3594 62.6521 1.482822 41.00 46.13 6.00
3595 62.6667 1.482510 44.00 44.83 7.00
3596 62.6814 1.482199 45.00 44.27 7.00
3597 62.6961 1.481887 47.00 44.09 7.00
3598 62.7107 1.481576 51.00 44.14 7.00
3599 62.7254 1.481265 38.00 44.34 6.00
3600 62.7401 1.480954 50.00 45.00 7.00
3601 62.7547 1.480643 47.00 45.34 7.00
3602 62.7694 1.480332 55.00 45.97 7.00
3603 62.7841 1.480021 57.00 46.67 8.00
3604 62.7988 1.479711 46.00 47.37 7.00
3605 62.8134 1.479401 47.00 48.24 7.00
3606 62.8281 1.479091 33.00 49.25 6.00
3607 62.8428 1.478781 43.00 50.40 7.00
3608 62.8574 1.478471 52.00 51.66 7.00
3609 62.8721 1.478162 49.00 53.03 7.00
3610 62.8868 1.477852 45.00 54.48 7.00
3611 62.9014 1.477543 51.00 55.97 7.00
3612 62.9161 1.477234 61.00 58.01 8.00
3613 62.9308 1.476925 57.00 60.38 8.00
3614 62.9454 1.476616 51.00 62.58 7.00
3615 62.9601 1.476307 60.00 64.33 8.00
3616 62.9748 1.475999 75.00 66.36 9.00
3617 62.9894 1.475690 70.00 69.29 8.00
3618 63.0041 1.475382 77.00 74.25 9.00
3619 63.0188 1.475074 104.00 83.59 10.00
3620 63.0334 1.474766 131.00 101.67 11.00
3621 63.0481 1.474458 136.00 133.18 12.00
3622 63.0628 1.474151 174.00 173.80 13.00
3623 63.0774 1.473843 217.00 200.07 15.00
3624 63.0921 1.473536 202.00 188.27 14.00
3625 63.1068 1.473229 191.00 150.38 14.00
3626 63.1214 1.472922 136.00 113.64 12.00
3627 63.1361 1.472615 110.00 89.85 10.00
3628 63.1508 1.472308 71.00 77.11 8.00
3629 63.1655 1.472001 66.00 70.95 8.00
3630 63.1801 1.471695 88.00 68.88 9.00
3631 63.1948 1.471389 80.00 70.54 9.00
3632 63.2094 1.471083 97.00 77.17 10.00
3633 63.2241 1.470777 116.00 90.05 11.00
3634 63.2388 1.470471 114.00 106.38 11.00
3635 63.2534 1.470165 120.00 116.10 11.00
3636 63.2681 1.469860 115.00 109.99 11.00
3637 63.2828 1.469555 92.00 92.25 10.00
3638 63.2975 1.469249 79.00 74.07 9.00
3639 63.3121 1.468944 77.00 61.77 9.00
3640 63.3268 1.468640 69.00 54.68 8.00
3641 63.3415 1.468335 58.00 50.60 8.00
3642 63.3561 1.468030 45.00 48.08 7.00
3643 63.3708 1.467726 52.00 46.38 7.00
3644 63.3855 1.467422 49.00 45.15 7.00
3645 63.4001 1.467117 44.00 44.23 7.00
3646 63.4148 1.466813 46.00 43.52 7.00
3647 63.4295 1.466509 41.00 42.94 6.00
3648 63.4441 1.466206 54.00 41.97 7.00
3649 63.4588 1.465902 44.00 41.37 7.00
3650 63.4735 1.465599 43.00 40.93 7.00
3651 63.4881 1.465296 41.00 40.72 6.00
3652 63.5028 1.464992 45.00 40.56 7.00
3653 63.5175 1.464689 39.00 40.53 6.00
3654 63.5321 1.464387 46.00 40.53 7.00
3655 63.5468 1.464084 46.00 40.55 7.00
3656 63.5615 1.463782 49.00 40.60 7.00
3657 63.5761 1.463479 52.00 40.66 7.00
3658 63.5908 1.463177 39.00 40.74 6.00
3659 63.6055 1.462875 49.00 40.84 7.00
3660 63.6202 1.462573 42.00 40.74 6.00
3661 63.6348 1.462271 63.00 40.90 8.00
3662 63.6495 1.461970 46.00 41.07 7.00
3663 63.6642 1.461668 43.00 41.36 7.00
3664 63.6788 1.461367 51.00 41.59 7.00
3665 63.6935 1.461066 50.00 41.85 7.00
3666 63.7082 1.460765 54.00 42.13 7.00
3667 63.7228 1.460464 46.00 42.44 7.00
3668 63.7375 1.460163 49.00 42.77 7.00
3669 63.7522 1.459863 37.00 43.15 6.00
3670 63.7668 1.459562 50.00 43.58 7.00
3671 63.7815 1.459262 41.00 44.08 6.00
3672 63.7962 1.458962 50.00 44.65 7.00
3673 63.8108 1.458662 47.00 45.33 7.00
3674 63.8255 1.458362 41.00 46.14 6.00
3675 63.8402 1.458062 49.00 47.37 7.00
3676 63.8548 1.457763 56.00 48.92 7.00
3677 63.8695 1.457464 57.00 50.47 8.00
3678 63.8842 1.457164 60.00 52.31 8.00
3679 63.8988 1.456865 50.00 54.67 7.00
3680 63.9135 1.456566 60.00 57.90 8.00
3681 63.9282 1.456267 64.00 62.81 8.00
3682 63.9428 1.455969 60.00 70.91 8.00
3683 63.9575 1.455670 84.00 83.52 9.00
3684 63.9722 1.455372 88.00 98.03 9.00
3685 63.9869 1.455074 95.00 105.22 10.00
3686 64.0015 1.454775 100.00 98.71 10.00
3687 64.0162 1.454478 90.00 85.38 9.00
3688 64.0309 1.454180 87.00 74.10 9.00
3689 64.0455 1.453882 78.00 67.07 9.00
3690 64.0602 1.453585 65.00 63.20 8.00
3691 64.0749 1.453287 72.00 61.19 8.00
3692 64.0895 1.452990 61.00 60.43 8.00
3693 64.1042 1.452693 59.00 60.89 8.00
3694 64.1189 1.452396 52.00 63.00 7.00
3695 64.1335 1.452099 68.00 67.22 8.00
3696 64.1482 1.451803 76.00 72.62 9.00
3697 64.1629 1.451507 80.00 75.74 9.00
3698 64.1775 1.451210 82.00 73.31 9.00
3699 64.1922 1.450914 78.00 66.89 9.00
3700 64.2069 1.450618 76.00 60.57 9.00
3701 64.2215 1.450322 69.00 56.90 8.00
3702 64.2362 1.450026 60.00 54.22 8.00
3703 64.2509 1.449731 56.00 52.53 7.00
3704 64.2655 1.449435 45.00 51.38 7.00
3705 64.2802 1.449140 56.00 50.53 7.00
3706 64.2949 1.448845 44.00 49.90 7.00
3707 64.3095 1.448550 49.00 49.45 7.00
3708 64.3242 1.448255 38.00 49.01 6.00
3709 64.3389 1.447960 62.00 48.89 8.00
3710 64.3536 1.447666 62.00 48.77 8.00
3711 64.3682 1.447371 50.00 48.78 7.00
3712 64.3829 1.447077 55.00 49.10 7.00
3713 64.3976 1.446783 52.00 50.27 7.00
3714 64.4122 1.446489 60.00 52.75 8.00
3715 64.4269 1.446194 63.00 56.79 8.00
3716 64.4416 1.445901 71.00 59.92 8.00
3717 64.4562 1.445607 60.00 63.72 8.00
3718 64.4709 1.445314 60.00 69.27 8.00
3719 64.4856 1.445020 101.00 77.96 10.00
3720 64.5002 1.444727 97.00 92.66 10.00
3721 64.5149 1.444435 109.00 119.78 10.00
3722 64.5296 1.444142 167.00 170.23 13.00
3723 64.5442 1.443849 265.00 252.41 16.00
3724 64.5589 1.443556 317.00 347.65 18.00
3725 64.5736 1.443264 387.00 395.75 20.00
3726 64.5882 1.442972 356.00 354.05 19.00
3727 64.6029 1.442679 259.00 263.02 16.00
3728 64.6176 1.442387 190.00 181.56 14.00
3729 64.6322 1.442095 132.00 130.81 11.00
3730 64.6469 1.441804 94.00 104.44 10.00
3731 64.6616 1.441512 105.00 92.41 10.00
3732 64.6762 1.441221 79.00 89.40 9.00
3733 64.6909 1.440929 97.00 94.62 10.00
3734 64.7056 1.440638 122.00 110.71 11.00
3735 64.7203 1.440347 134.00 140.98 12.00
3736 64.7349 1.440056 189.00 180.90 14.00
3737 64.7496 1.439765 217.00 209.52 15.00
3738 64.7643 1.439475 222.00 203.21 15.00
3739 64.7789 1.439184 181.00 165.85 13.00
3740 64.7936 1.438894 130.00 122.68 11.00
3741 64.8083 1.438604 92.00 91.66 10.00
3742 64.8229 1.438314 77.00 73.41 9.00
3743 64.8376 1.438024 66.00 63.06 8.00
3744 64.8523 1.437734 65.00 56.95 8.00
3745 64.8669 1.437445 37.00 53.01 6.00
3746 64.8816 1.437155 50.00 50.30 7.00
3747 64.8963 1.436866 44.00 48.32 7.00
3748 64.9109 1.436577 48.00 46.83 7.00
3749 64.9256 1.436287 41.00 45.76 6.00
3750 64.9403 1.435999 49.00 44.22 7.00
3751 64.9549 1.435710 40.00 43.78 6.00
3752 64.9696 1.435421 49.00 43.10 7.00
3753 64.9843 1.435132 49.00 43.02 7.00
3754 64.9989 1.434844 56.00 43.21 7.00
3755 65.0136 1.434556 40.00 43.49 6.00
3756 65.0283 1.434268 49.00 43.76 7.00
3757 65.0430 1.433980 61.00 44.10 8.00
3758 65.0576 1.433692 43.00 44.46 7.00
3759 65.0723 1.433404 51.00 44.83 7.00
3760 65.0869 1.433117 58.00 45.21 8.00
3761 65.1016 1.432829 58.00 47.73 8.00
3762 65.1163 1.432542 49.00 48.01 7.00
3763 65.1310 1.432255 57.00 49.02 8.00
3764 65.1456 1.431968 62.00 50.08 8.00
3765 65.1603 1.431681 49.00 51.11 7.00
3766 65.1750 1.431394 51.00 52.14 7.00
3767 65.1896 1.431108 53.00 53.23 7.00
3768 65.2043 1.430822 48.00 54.42 7.00
3769 65.2190 1.430535 62.00 55.76 8.00
3770 65.2336 1.430249 53.00 57.30 7.00
3771 65.2483 1.429963 49.00 58.64 7.00
3772 65.2630 1.429677 50.00 60.37 7.00
3773 65.2776 1.429392 62.00 64.05 8.00
3774 65.2923 1.429106 58.00 70.66 8.00
3775 65.3070 1.428820 55.00 81.87 7.00
3776 65.3216 1.428535 72.00 90.68 8.00
3777 65.3363 1.428250 72.00 100.76 8.00
3778 65.3510 1.427965 104.00 115.03 10.00
3779 65.3656 1.427680 116.00 136.78 11.00
3780 65.3803 1.427395 166.00 172.87 13.00
3781 65.3950 1.427111 213.00 237.99 15.00
3782 65.4097 1.426826 347.00 358.85 19.00
3783 65.4243 1.426542 578.00 560.85 24.00
3784 65.4390 1.426257 759.00 811.60 28.00
3785 65.4536 1.425973 1050.00 970.26 32.00
3786 65.4683 1.425689 920.00 902.20 30.00
3787 65.4830 1.425406 637.00 677.01 25.00
3788 65.4977 1.425122 453.00 455.65 21.00
3789 65.5123 1.424839 272.00 307.94 16.00
3790 65.5270 1.424555 208.00 228.51 14.00
3791 65.5417 1.424272 178.00 190.90 13.00
3792 65.5563 1.423988 176.00 178.24 13.00
3793 65.5710 1.423706 162.00 185.70 13.00
3794 65.5857 1.423423 202.00 217.84 14.00
3795 65.6003 1.423140 248.00 284.33 16.00
3796 65.6150 1.422857 400.00 384.30 20.00
3797 65.6297 1.422575 468.00 479.85 22.00
3798 65.6443 1.422292 511.00 504.37 23.00
3799 65.6590 1.422010 448.00 434.76 21.00
3800 65.6737 1.421728 333.00 323.70 18.00
3801 65.6883 1.421446 233.00 238.27 15.00
3802 65.7030 1.421165 163.00 193.09 13.00
3803 65.7177 1.420883 187.00 171.31 14.00
3804 65.7323 1.420601 153.00 164.08 12.00
3805 65.7470 1.420320 145.00 168.76 12.00
3806 65.7617 1.420039 184.00 185.47 14.00
3807 65.7763 1.419758 222.00 221.97 15.00
3808 65.7910 1.419477 259.00 286.81 16.00
3809 65.8057 1.419196 421.00 410.91 21.00
3810 65.8203 1.418915 659.00 631.93 26.00
3811 65.8350 1.418635 1018.00 959.90 32.00
3812 65.8497 1.418354 1314.00 1264.21 36.00
3813 65.8643 1.418074 1494.00 1321.56 39.00
3814 65.8790 1.417794 1137.00 1084.56 34.00
3815 65.8937 1.417514 828.00 756.05 29.00
3816 65.9084 1.417234 514.00 501.62 23.00
3817 65.9230 1.416954 363.00 353.49 19.00
3818 65.9377 1.416674 285.00 279.62 17.00
3819 65.9523 1.416395 222.00 251.52 15.00
3820 65.9670 1.416115 240.00 256.64 15.00
3821 65.9817 1.415836 280.00 295.94 17.00
3822 65.9964 1.415557 363.00 371.85 19.00
3823 66.0110 1.415279 499.00 498.88 22.00
3824 66.0257 1.414999 711.00 663.44 27.00
3825 66.0404 1.414721 846.00 791.83 29.00
3826 66.0550 1.414442 918.00 815.16 30.00
3827 66.0697 1.414164 820.00 773.40 29.00
3828 66.0844 1.413885 902.00 791.32 30.00
3829 66.0990 1.413607 1008.00 954.34 32.00
3830 66.1137 1.413329 1081.00 1202.41 33.00
3831 66.1284 1.413051 1209.00 1327.84 35.00
3832 66.1430 1.412773 1121.00 1178.09 33.00
3833 66.1577 1.412496 899.00 868.64 30.00
3834 66.1724 1.412218 596.00 585.80 24.00
3835 66.1870 1.411941 418.00 402.72 20.00
3836 66.2017 1.411664 303.00 303.02 17.00
3837 66.2164 1.411387 241.00 253.73 16.00
3838 66.2310 1.411110 239.00 231.26 15.00
3839 66.2457 1.410833 247.00 238.20 16.00
3840 66.2604 1.410556 259.00 274.90 16.00
3841 66.2750 1.410280 371.00 355.30 19.00
3842 66.2897 1.410003 435.00 478.70 21.00
3843 66.3044 1.409727 550.00 596.47 23.00
3844 66.3191 1.409451 588.00 625.20 24.00
3845 66.3337 1.409175 534.00 534.85 23.00
3846 66.3484 1.408899 421.00 390.21 21.00
3847 66.3631 1.408623 314.00 267.97 18.00
3848 66.3777 1.408347 198.00 189.57 14.00
3849 66.3924 1.408071 147.00 144.24 12.00
3850 66.4071 1.407796 126.00 117.69 11.00
3851 66.4217 1.407521 108.00 99.13 10.00
3852 66.4364 1.407246 91.00 87.97 10.00
3853 66.4511 1.406971 74.00 80.00 9.00
3854 66.4657 1.406696 59.00 74.07 8.00
3855 66.4804 1.406421 61.00 69.50 8.00
3856 66.4951 1.406147 58.00 65.87 8.00
3857 66.5097 1.405872 59.00 59.29 8.00
3858 66.5244 1.405598 48.00 55.70 7.00
3859 66.5391 1.405323 62.00 52.19 8.00
3860 66.5537 1.405049 56.00 50.69 7.00
3861 66.5684 1.404775 63.00 49.79 8.00
3862 66.5831 1.404502 40.00 49.79 6.00
3863 66.5977 1.404228 61.00 49.75 8.00
3864 66.6124 1.403954 47.00 49.82 7.00
3865 66.6271 1.403681 56.00 49.97 7.00
3866 66.6417 1.403407 63.00 50.18 8.00
3867 66.6564 1.403134 60.00 50.44 8.00
3868 66.6711 1.402861 40.00 50.75 6.00
3869 66.6858 1.402588 57.00 49.32 8.00
3870 66.7004 1.402315 39.00 49.89 6.00
3871 66.7151 1.402043 35.00 50.52 6.00
3872 66.7298 1.401770 66.00 51.21 8.00
3873 66.7444 1.401498 54.00 52.01 7.00
3874 66.7591 1.401226 57.00 52.97 8.00
3875 66.7738 1.400953 59.00 54.75 8.00
3876 66.7884 1.400681 49.00 57.48 7.00
3877 66.8031 1.400409 42.00 59.84 6.00
3878 66.8178 1.400138 56.00 62.28 7.00
3879 66.8324 1.399866 51.00 65.27 7.00
3880 66.8471 1.399595 57.00 69.21 8.00
3881 66.8618 1.399323 68.00 75.50 8.00
3882 66.8764 1.399052 65.00 86.41 8.00
3883 66.8911 1.398780 114.00 106.44 11.00
3884 66.9058 1.398510 136.00 141.43 12.00
3885 66.9204 1.398239 218.00 190.71 15.00
3886 66.9351 1.397968 238.00 234.24 15.00
3887 66.9498 1.397697 252.00 239.98 16.00
3888 66.9644 1.397427 203.00 203.98 14.00
3889 66.9791 1.397157 159.00 156.26 13.00
3890 66.9938 1.396887 143.00 119.65 12.00
3891 67.0085 1.396616 95.00 98.23 10.00
3892 67.0231 1.396346 76.00 87.48 9.00
3893 67.0378 1.396076 74.00 82.98 9.00
3894 67.0524 1.395807 76.00 82.65 9.00
3895 67.0671 1.395537 65.00 86.37 8.00
3896 67.0818 1.395268 78.00 95.56 9.00
3897 67.0965 1.394998 93.00 112.01 10.00
3898 67.1111 1.394729 109.00 133.99 10.00
3899 67.1258 1.394460 142.00 151.80 12.00
3900 67.1405 1.394191 125.00 153.04 11.00
3901 67.1551 1.393922 135.00 137.09 12.00
3902 67.1698 1.393654 121.00 116.11 11.00
3903 67.1845 1.393385 96.00 100.47 10.00
3904 67.1991 1.393116 81.00 91.86 9.00
3905 67.2138 1.392848 83.00 88.23 9.00
3906 67.2285 1.392580 62.00 87.51 8.00
3907 67.2431 1.392312 73.00 88.46 9.00
3908 67.2578 1.392044 83.00 90.45 9.00
3909 67.2725 1.391776 78.00 93.15 9.00
3910 67.2871 1.391508 71.00 96.34 8.00
3911 67.3018 1.391241 93.00 99.81 10.00
3912 67.3165 1.390973 94.00 102.76 10.00
3913 67.3311 1.390706 93.00 106.26 10.00
3914 67.3458 1.390439 106.00 109.36 10.00
3915 67.3605 1.390172 80.00 112.17 9.00
3916 67.3751 1.389905 113.00 114.86 11.00
3917 67.3898 1.389638 110.00 117.24 10.00
3918 67.4045 1.389371 114.00 119.38 11.00
3919 67.4191 1.389105 101.00 121.43 10.00
3920 67.4338 1.388838 121.00 123.26 11.00
3921 67.4485 1.388572 125.00 124.11 11.00
3922 67.4632 1.388305 112.00 123.02 11.00
3923 67.4778 1.388039 122.00 120.15 11.00
3924 67.4925 1.387773 108.00 116.61 10.00
3925 67.5072 1.387508 107.00 112.84 10.00
3926 67.5218 1.387242 105.00 109.78 10.00
3927 67.5365 1.386976 115.00 106.97 11.00
3928 67.5512 1.386711 95.00 104.31 10.00
3929 67.5658 1.386446 94.00 101.73 10.00
3930 67.5805 1.386180 117.00 99.26 11.00
3931 67.5952 1.385915 95.00 96.90 10.00
3932 67.6098 1.385650 88.00 94.71 9.00
3933 67.6245 1.385386 99.00 92.58 10.00
3934 67.6392 1.385121 78.00 90.18 9.00
3935 67.6538 1.384856 99.00 87.12 10.00
3936 67.6685 1.384592 83.00 83.40 9.00
3937 67.6832 1.384327 93.00 79.49 10.00
3938 67.6978 1.384063 78.00 75.74 9.00
3939 67.7125 1.383799 66.00 72.35 8.00
3940 67.7272 1.383535 78.00 69.26 9.00
3941 67.7418 1.383271 74.00 66.45 9.00
3942 67.7565 1.383008 67.00 63.89 8.00
3943 67.7712 1.382744 60.00 61.57 8.00
3944 67.7858 1.382481 54.00 59.47 7.00
3945 67.8005 1.382217 53.00 57.58 7.00
3946 67.8152 1.381954 58.00 55.87 8.00
3947 67.8298 1.381691 49.00 54.32 7.00
3948 67.8445 1.381428 63.00 52.94 8.00
3949 67.8592 1.381165 46.00 51.68 7.00
3950 67.8739 1.380902 38.00 50.54 6.00
3951 67.8885 1.380640 56.00 49.52 7.00
3952 67.9032 1.380377 47.00 48.60 7.00
3953 67.9178 1.380115 52.00 47.75 7.00
3954 67.9325 1.379852 54.00 46.97 7.00
3955 67.9472 1.379590 38.00 46.24 6.00
3956 67.9619 1.379328 43.00 45.57 7.00
3957 67.9765 1.379067 35.00 44.94 6.00
3958 67.9912 1.378805 53.00 44.35 7.00
3959 68.0059 1.378543 63.00 43.80 8.00
3960 68.0205 1.378282 44.00 43.27 7.00
3961 68.0352 1.378020 45.00 42.77 7.00
3962 68.0499 1.377759 48.00 42.31 7.00
3963 68.0645 1.377498 40.00 41.88 6.00
3964 68.0792 1.377237 46.00 41.44 7.00
3965 68.0939 1.376976 45.00 41.02 7.00
3966 68.1085 1.376715 37.00 40.62 6.00
3967 68.1232 1.376454 39.00 40.23 6.00
3968 68.1379 1.376194 42.00 39.87 6.00
3969 68.1525 1.375933 38.00 39.51 6.00
3970 68.1672 1.375673 36.00 39.16 6.00
3971 68.1819 1.375413 35.00 38.83 6.00
3972 68.1965 1.375153 38.00 38.50 6.00
3973 68.2112 1.374893 38.00 38.18 6.00
3974 68.2259 1.374633 42.00 37.88 6.00
3975 68.2405 1.374373 41.00 37.58 6.00
3976 68.2552 1.374114 45.00 37.28 7.00
3977 68.2699 1.373854 44.00 37.00 7.00
3978 68.2846 1.373595 43.00 36.72 7.00
3979 68.2992 1.373336 33.00 36.45 6.00
3980 68.3139 1.373076 46.00 36.19 7.00
3981 68.3286 1.372818 46.00 35.94 7.00
3982 68.3432 1.372559 41.00 35.69 6.00
3983 68.3579 1.372300 36.00 35.44 6.00
3984 68.3726 1.372041 34.00 35.20 6.00
3985 68.3872 1.371783 37.00 34.96 6.00
3986 68.4019 1.371525 37.00 34.73 6.00
3987 68.4166 1.371267 38.00 34.51 6.00
3988 68.4312 1.371008 34.00 34.28 6.00
3989 68.4459 1.370750 46.00 34.06 7.00
3990 68.4606 1.370492 38.00 33.84 6.00
3991 68.4752 1.370235 41.00 33.63 6.00
3992 68.4899 1.369977 39.00 33.42 6.00
3993 68.5046 1.369719 35.00 33.21 6.00
3994 68.5192 1.369462 41.00 33.01 6.00
3995 68.5339 1.369205 38.00 32.80 6.00
3996 68.5486 1.368947 34.00 32.60 6.00
3997 68.5632 1.368690 41.00 32.40 6.00
3998 68.5779 1.368434 32.00 32.21 6.00
3999 68.5926 1.368177 55.00 32.02 7.00
4000 68.6072 1.367920 29.00 31.82 5.00
4001 68.6219 1.367663 46.00 31.64 7.00
4002 68.6366 1.367407 35.00 31.45 6.00
4003 68.6513 1.367151 37.00 31.26 6.00
4004 68.6659 1.366894 32.00 31.08 6.00
4005 68.6806 1.366638 28.00 30.90 5.00
4006 68.6953 1.366382 29.00 30.72 5.00
4007 68.7099 1.366126 28.00 30.54 5.00
4008 68.7246 1.365871 29.00 30.37 5.00
4009 68.7393 1.365615 37.00 30.19 6.00
4010 68.7539 1.365360 48.00 30.02 7.00
4011 68.7686 1.365104 44.00 29.86 7.00
4012 68.7833 1.364849 40.00 29.69 6.00
4013 68.7979 1.364593 30.00 29.53 5.00
4014 68.8126 1.364338 38.00 29.37 6.00
4015 68.8273 1.364084 37.00 29.21 6.00
4016 68.8419 1.363829 41.00 29.05 6.00
4017 68.8566 1.363574 33.00 28.90 6.00
4018 68.8713 1.363319 31.00 28.79 6.00
4019 68.8859 1.363065 32.00 29.03 6.00
4020 68.9006 1.362811 34.00 29.26 6.00
4021 68.9153 1.362556 29.00 29.51 5.00
4022 68.9299 1.362302 34.00 29.78 6.00
4023 68.9446 1.362048 29.00 30.05 5.00
4024 68.9593 1.361795 41.00 30.34 6.00
4025 68.9740 1.361541 36.00 30.61 6.00
4026 68.9886 1.361287 38.00 30.86 6.00
4027 69.0033 1.361033 38.00 31.09 6.00
4028 69.0180 1.360780 39.00 31.34 6.00
4029 69.0326 1.360527 41.00 31.60 6.00
4030 69.0473 1.360274 39.00 31.88 6.00
4031 69.0620 1.360021 41.00 32.18 6.00
4032 69.0766 1.359768 41.00 32.49 6.00
4033 69.0913 1.359515 27.00 32.81 5.00
4034 69.1060 1.359262 42.00 33.15 6.00
4035 69.1206 1.359010 40.00 33.50 6.00
4036 69.1353 1.358757 38.00 33.88 6.00
4037 69.1500 1.358505 38.00 34.28 6.00
4038 69.1646 1.358252 36.00 34.70 6.00
4039 69.1793 1.358000 25.00 35.13 5.00
4040 69.1940 1.357748 34.00 35.58 6.00
4041 69.2086 1.357496 39.00 35.97 6.00
4042 69.2233 1.357245 32.00 36.46 6.00
4043 69.2380 1.356993 36.00 37.03 6.00
4044 69.2526 1.356741 34.00 37.65 6.00
4045 69.2673 1.356490 41.00 38.32 6.00
4046 69.2820 1.356239 41.00 39.04 6.00
4047 69.2967 1.355987 34.00 39.81 6.00
4048 69.3113 1.355736 48.00 40.62 7.00
4049 69.3260 1.355485 51.00 41.46 7.00
4050 69.3406 1.355235 33.00 42.31 6.00
4051 69.3553 1.354984 53.00 43.13 7.00
4052 69.3700 1.354733 35.00 43.89 6.00
4053 69.3846 1.354483 40.00 44.55 6.00
4054 69.3993 1.354232 46.00 45.05 7.00
4055 69.4140 1.353982 42.00 45.72 6.00
4056 69.4287 1.353732 45.00 45.99 7.00
4057 69.4433 1.353482 30.00 46.11 5.00
4058 69.4580 1.353232 44.00 46.13 7.00
4059 69.4727 1.352982 57.00 46.12 8.00
4060 69.4873 1.352732 58.00 46.11 8.00
4061 69.5020 1.352483 41.00 46.18 6.00
4062 69.5167 1.352233 56.00 46.42 7.00
4063 69.5313 1.351984 52.00 47.65 7.00
4064 69.5460 1.351734 44.00 48.66 7.00
4065 69.5607 1.351485 46.00 49.74 7.00
4066 69.5753 1.351236 46.00 50.26 7.00
4067 69.5900 1.350987 38.00 49.94 6.00
4068 69.6047 1.350739 39.00 49.26 6.00
4069 69.6193 1.350490 54.00 48.70 7.00
4070 69.6340 1.350241 51.00 48.40 7.00
4071 69.6487 1.349993 47.00 48.17 7.00
4072 69.6633 1.349745 52.00 48.05 7.00
4073 69.6780 1.349496 46.00 48.09 7.00
4074 69.6927 1.349248 42.00 48.50 6.00
4075 69.7073 1.349000 54.00 49.04 7.00
4076 69.7220 1.348752 44.00 50.74 7.00
4077 69.7367 1.348505 49.00 54.25 7.00
4078 69.7513 1.348257 60.00 58.49 8.00
4079 69.7660 1.348009 49.00 61.90 7.00
4080 69.7807 1.347762 51.00 65.77 7.00
4081 69.7954 1.347514 57.00 71.04 8.00
4082 69.8100 1.347267 75.00 79.14 9.00
4083 69.8247 1.347020 85.00 92.64 9.00
4084 69.8394 1.346773 102.00 116.75 10.00
4085 69.8540 1.346526 177.00 160.83 13.00
4086 69.8687 1.346280 240.00 234.86 15.00
4087 69.8833 1.346033 378.00 332.74 19.00
4088 69.8980 1.345786 452.00 410.98 21.00
4089 69.9127 1.345540 389.00 412.81 20.00
4090 69.9274 1.345294 354.00 339.30 19.00
4091 69.9420 1.345047 251.00 246.09 16.00
4092 69.9567 1.344801 161.00 173.74 13.00
4093 69.9714 1.344555 122.00 129.72 11.00
4094 69.9860 1.344310 84.00 106.17 9.00
4095 70.0007 1.344064 100.00 94.74 10.00
4096 70.0154 1.343818 84.00 90.98 9.00
4097 70.0300 1.343572 99.00 93.80 10.00
4098 70.0447 1.343327 97.00 104.91 10.00
4099 70.0594 1.343082 111.00 128.04 11.00
4100 70.0740 1.342836 178.00 164.51 13.00
4101 70.0887 1.342592 201.00 205.29 14.00
4102 70.1034 1.342347 257.00 227.87 16.00
4103 70.1180 1.342102 200.00 214.70 14.00
4104 70.1327 1.341857 191.00 174.91 14.00
4105 70.1474 1.341612 139.00 133.09 12.00
4106 70.1620 1.341368 118.00 102.67 11.00
4107 70.1767 1.341123 82.00 84.25 9.00
4108 70.1914 1.340879 65.00 73.91 8.00
4109 70.2060 1.340635 68.00 68.07 8.00
4110 70.2207 1.340390 55.00 64.70 7.00
4111 70.2354 1.340147 60.00 62.76 8.00
4112 70.2501 1.339903 63.00 61.68 8.00
4113 70.2647 1.339659 61.00 61.18 8.00
4114 70.2794 1.339415 45.00 60.90 7.00
4115 70.2941 1.339172 38.00 59.54 6.00
4116 70.3087 1.338929 46.00 59.34 7.00
4117 70.3234 1.338685 43.00 58.65 7.00
4118 70.3381 1.338442 52.00 57.50 7.00
4119 70.3527 1.338199 59.00 56.73 8.00
4120 70.3674 1.337956 52.00 56.04 7.00
4121 70.3821 1.337713 42.00 55.15 6.00
4122 70.3967 1.337470 52.00 54.29 7.00
4123 70.4114 1.337228 51.00 53.51 7.00
4124 70.4261 1.336985 51.00 52.84 7.00
4125 70.4407 1.336743 43.00 52.28 7.00
4126 70.4554 1.336500 44.00 51.82 7.00
4127 70.4701 1.336258 32.00 51.43 6.00
4128 70.4847 1.336016 50.00 51.06 7.00
4129 70.4994 1.335774 41.00 50.13 6.00
4130 70.5141 1.335532 48.00 49.74 7.00
4131 70.5287 1.335290 40.00 49.26 6.00
4132 70.5434 1.335049 48.00 48.69 7.00
4133 70.5581 1.334807 44.00 48.05 7.00
4134 70.5727 1.334566 43.00 47.36 7.00
4135 70.5874 1.334324 35.00 46.66 6.00
4136 70.6021 1.334083 47.00 45.99 7.00
4137 70.6168 1.333842 48.00 45.36 7.00
4138 70.6314 1.333601 52.00 44.79 7.00
4139 70.6461 1.333360 46.00 44.29 7.00
4140 70.6608 1.333120 46.00 43.87 7.00
4141 70.6754 1.332879 32.00 43.53 6.00
4142 70.6901 1.332638 41.00 43.41 6.00
4143 70.7048 1.332398 27.00 43.23 5.00
4144 70.7194 1.332158 36.00 43.10 6.00
4145 70.7341 1.331917 44.00 43.04 7.00
4146 70.7488 1.331677 45.00 43.04 7.00
4147 70.7634 1.331437 34.00 43.08 6.00
4148 70.7781 1.331197 38.00 43.19 6.00
4149 70.7928 1.330957 37.00 43.35 6.00
4150 70.8074 1.330718 28.00 43.58 5.00
4151 70.8221 1.330478 36.00 43.97 6.00
4152 70.8368 1.330238 50.00 44.46 7.00
4153 70.8514 1.329999 39.00 45.06 6.00
4154 70.8661 1.329760 48.00 45.80 7.00
4155 70.8808 1.329520 46.00 46.69 7.00
4156 70.8954 1.329281 42.00 48.00 6.00
4157 70.9101 1.329043 56.00 49.33 7.00
4158 70.9248 1.328804 54.00 50.94 7.00
4159 70.9395 1.328565 51.00 52.89 7.00
4160 70.9541 1.328326 47.00 55.23 7.00
4161 70.9688 1.328088 50.00 58.02 7.00
4162 70.9835 1.327850 51.00 61.32 7.00
4163 70.9981 1.327611 55.00 65.15 7.00
4164 71.0128 1.327373 53.00 69.45 7.00
4165 71.0275 1.327135 89.00 74.08 9.00
4166 71.0421 1.326897 93.00 78.71 10.00
4167 71.0568 1.326659 70.00 82.87 8.00
4168 71.0715 1.326421 87.00 85.97 9.00
4169 71.0861 1.326184 80.00 87.50 9.00
4170 71.1008 1.325946 95.00 87.26 10.00
4171 71.1155 1.325709 86.00 85.44 9.00
4172 71.1301 1.325471 76.00 82.52 9.00
4173 71.1448 1.325234 92.00 79.12 10.00
4174 71.1595 1.324997 70.00 75.78 8.00
4175 71.1741 1.324760 72.00 72.88 8.00
4176 71.1888 1.324523 78.00 70.62 9.00
4177 71.2035 1.324286 68.00 69.06 8.00
4178 71.2181 1.324050 84.00 68.19 9.00
4179 71.2328 1.323813 72.00 67.87 8.00
4180 71.2475 1.323576 61.00 67.89 8.00
4181 71.2622 1.323340 74.00 67.96 9.00
4182 71.2768 1.323104 83.00 67.76 9.00
4183 71.2915 1.322868 67.00 67.02 8.00
4184 71.3061 1.322632 65.00 65.62 8.00
4185 71.3208 1.322395 64.00 63.59 8.00
4186 71.3355 1.322160 57.00 61.14 8.00
4187 71.3502 1.321924 60.00 58.49 8.00
4188 71.3648 1.321688 64.00 55.88 8.00
4189 71.3795 1.321452 48.00 53.43 7.00
4190 71.3942 1.321217 65.00 51.24 8.00
4191 71.4088 1.320982 55.00 49.34 7.00
4192 71.4235 1.320747 44.00 47.71 7.00
4193 71.4382 1.320511 46.00 46.33 7.00
4194 71.4528 1.320277 47.00 45.18 7.00
4195 71.4675 1.320042 49.00 44.23 7.00
4196 71.4822 1.319807 45.00 43.42 7.00
4197 71.4968 1.319572 53.00 42.80 7.00
4198 71.5115 1.319338 57.00 42.31 8.00
4199 71.5262 1.319103 35.00 41.93 6.00
4200 71.5408 1.318869 43.00 41.66 7.00
4201 71.5555 1.318635 50.00 41.50 7.00
4202 71.5702 1.318400 38.00 41.41 6.00
4203 71.5848 1.318166 32.00 41.39 6.00
4204 71.5995 1.317932 49.00 41.44 7.00
4205 71.6142 1.317699 40.00 41.57 6.00
4206 71.6289 1.317464 34.00 41.78 6.00
4207 71.6435 1.317231 51.00 42.10 7.00
4208 71.6582 1.316998 51.00 42.52 7.00
4209 71.6728 1.316764 45.00 43.03 7.00
4210 71.6875 1.316531 39.00 43.65 6.00
4211 71.7022 1.316297 45.00 44.42 7.00
4212 71.7168 1.316064 37.00 45.33 6.00
4213 71.7315 1.315832 51.00 46.41 7.00
4214 71.7462 1.315598 46.00 47.71 7.00
4215 71.7609 1.315366 60.00 49.31 8.00
4216 71.7755 1.315133 49.00 51.08 7.00
4217 71.7902 1.314900 54.00 53.04 7.00
4218 71.8049 1.314668 60.00 55.26 8.00
4219 71.8195 1.314435 72.00 57.73 8.00
4220 71.8342 1.314203 72.00 60.45 8.00
4221 71.8488 1.313971 68.00 63.47 8.00
4222 71.8635 1.313739 75.00 66.96 9.00
4223 71.8782 1.313507 78.00 71.19 9.00
4224 71.8929 1.313275 75.00 76.16 9.00
4225 71.9075 1.313043 85.00 80.62 9.00
4226 71.9222 1.312811 104.00 82.20 10.00
4227 71.9369 1.312580 104.00 79.92 10.00
4228 71.9515 1.312348 91.00 75.67 10.00
4229 71.9662 1.312117 71.00 71.76 8.00
4230 71.9809 1.311886 65.00 68.96 8.00
4231 71.9955 1.311655 57.00 67.20 8.00
4232 72.0102 1.311424 74.00 66.22 9.00
4233 72.0249 1.311193 66.00 65.85 8.00
4234 72.0395 1.310962 64.00 65.98 8.00
4235 72.0542 1.310731 77.00 66.60 9.00
4236 72.0689 1.310501 73.00 67.76 9.00
4237 72.0835 1.310270 73.00 69.54 9.00
4238 72.0982 1.310040 95.00 72.94 10.00
4239 72.1129 1.309809 83.00 75.54 9.00
4240 72.1276 1.309579 75.00 77.38 9.00
4241 72.1422 1.309349 96.00 77.92 10.00
4242 72.1569 1.309119 94.00 77.76 10.00
4243 72.1715 1.308889 72.00 78.01 8.00
4244 72.1862 1.308659 95.00 79.16 10.00
4245 72.2009 1.308429 78.00 81.29 9.00
4246 72.2156 1.308200 80.00 84.29 9.00
4247 72.2302 1.307970 96.00 87.89 10.00
4248 72.2449 1.307741 100.00 91.59 10.00
4249 72.2596 1.307511 89.00 94.54 9.00
4250 72.2742 1.307282 90.00 96.23 9.00
4251 72.2889 1.307053 112.00 96.66 11.00
4252 72.3036 1.306824 90.00 95.97 9.00
4253 72.3182 1.306595 98.00 94.38 10.00
4254 72.3329 1.306366 95.00 92.08 10.00
4255 72.3476 1.306138 85.00 89.31 9.00
4256 72.3622 1.305909 92.00 86.38 10.00
4257 72.3769 1.305681 86.00 83.63 9.00
4258 72.3916 1.305452 83.00 81.25 9.00
4259 72.4062 1.305224 90.00 79.40 9.00
4260 72.4209 1.304996 73.00 78.15 9.00
4261 72.4356 1.304768 81.00 77.48 9.00
4262 72.4502 1.304540 74.00 77.23 9.00
4263 72.4649 1.304312 68.00 77.00 8.00
4264 72.4796 1.304084 92.00 76.43 10.00
4265 72.4942 1.303856 87.00 75.30 9.00
4266 72.5089 1.303629 80.00 74.03 9.00
4267 72.5236 1.303401 76.00 72.54 9.00
4268 72.5383 1.303174 84.00 70.93 9.00
4269 72.5529 1.302946 94.00 69.41 10.00
4270 72.5676 1.302719 91.00 68.32 10.00
4271 72.5823 1.302492 59.00 68.18 8.00
4272 72.5969 1.302265 79.00 69.37 9.00
4273 72.6116 1.302038 82.00 71.50 9.00
4274 72.6263 1.301812 61.00 72.75 8.00
4275 72.6409 1.301585 99.00 71.28 10.00
4276 72.6556 1.301358 76.00 67.58 9.00
4277 72.6703 1.301132 78.00 63.69 9.00
4278 72.6849 1.300905 65.00 60.92 8.00
4279 72.6996 1.300679 68.00 59.39 8.00
4280 72.7143 1.300453 64.00 59.05 8.00
4281 72.7289 1.300227 74.00 59.32 9.00
4282 72.7436 1.300001 63.00 60.09 8.00
4283 72.7583 1.299775 65.00 61.30 8.00
4284 72.7729 1.299549 78.00 62.99 9.00
4285 72.7876 1.299323 65.00 65.30 8.00
4286 72.8023 1.299098 64.00 68.34 8.00
4287 72.8169 1.298872 73.00 71.95 9.00
4288 72.8316 1.298647 77.00 75.36 9.00
4289 72.8463 1.298422 81.00 77.52 9.00
4290 72.8609 1.298197 85.00 77.95 9.00
4291 72.8756 1.297971 91.00 77.12 10.00
4292 72.8903 1.297746 78.00 75.68 9.00
4293 72.9050 1.297521 72.00 73.92 8.00
4294 72.9196 1.297297 66.00 72.04 8.00
4295 72.9343 1.297072 73.00 70.11 9.00
4296 72.9490 1.296848 63.00 68.08 8.00
4297 72.9636 1.296623 59.00 66.13 8.00
4298 72.9783 1.296399 60.00 64.49 8.00
4299 72.9930 1.296174 63.00 63.31 8.00
4300 73.0076 1.295950 65.00 62.72 8.00
4301 73.0223 1.295726 63.00 62.91 8.00
4302 73.0370 1.295502 64.00 64.19 8.00
4303 73.0516 1.295278 81.00 67.34 9.00
4304 73.0663 1.295054 68.00 73.01 8.00
4305 73.0810 1.294831 94.00 80.81 10.00
4306 73.0956 1.294607 89.00 87.43 9.00
4307 73.1103 1.294383 91.00 87.90 10.00
4308 73.1250 1.294160 82.00 81.03 9.00
4309 73.1396 1.293937 84.00 71.05 9.00
4310 73.1543 1.293714 65.00 62.04 8.00
4311 73.1690 1.293490 60.00 55.45 8.00
4312 73.1836 1.293267 55.00 50.98 7.00
4313 73.1983 1.293045 49.00 47.92 7.00
4314 73.2130 1.292822 59.00 45.79 8.00
4315 73.2277 1.292599 49.00 44.37 7.00
4316 73.2423 1.292376 57.00 43.65 8.00
4317 73.2570 1.292154 57.00 43.88 8.00
4318 73.2716 1.291932 50.00 45.40 7.00
4319 73.2863 1.291709 72.00 48.33 8.00
4320 73.3010 1.291487 65.00 51.76 8.00
4321 73.3157 1.291265 65.00 53.55 8.00
4322 73.3303 1.291043 56.00 51.96 7.00
4323 73.3450 1.290821 44.00 47.66 7.00
4324 73.3597 1.290599 53.00 42.91 7.00
4325 73.3743 1.290377 60.00 39.19 8.00
4326 73.3890 1.290156 45.00 36.71 7.00
4327 73.4037 1.289934 34.00 35.15 6.00
4328 73.4183 1.289713 44.00 34.12 7.00
4329 73.4330 1.289491 35.00 33.41 6.00
4330 73.4477 1.289270 28.00 32.89 5.00
4331 73.4623 1.289049 40.00 32.51 6.00
4332 73.4770 1.288828 34.00 32.25 6.00
4333 73.4917 1.288607 29.00 32.10 5.00
4334 73.5063 1.288386 38.00 32.04 6.00
4335 73.5210 1.288165 37.00 31.91 6.00
4336 73.5357 1.287944 34.00 31.78 6.00
4337 73.5503 1.287724 32.00 31.43 6.00
4338 73.5650 1.287503 31.00 31.00 6.00
4339 73.5797 1.287283 30.00 30.62 5.00
4340 73.5944 1.287063 34.00 30.33 6.00
4341 73.6090 1.286842 33.00 30.15 6.00
4342 73.6237 1.286622 35.00 30.04 6.00
4343 73.6383 1.286402 47.00 29.95 7.00
4344 73.6530 1.286182 36.00 29.88 6.00
4345 73.6677 1.285962 25.00 29.81 5.00
4346 73.6823 1.285743 37.00 29.76 6.00
4347 73.6970 1.285523 39.00 29.70 6.00
4348 73.7117 1.285304 37.00 29.65 6.00
4349 73.7264 1.285084 43.00 29.55 7.00
4350 73.7410 1.284865 30.00 29.51 5.00
4351 73.7557 1.284646 35.00 29.38 6.00
4352 73.7704 1.284427 27.00 29.36 5.00
4353 73.7850 1.284207 28.00 29.35 5.00
4354 73.7997 1.283989 25.00 29.36 5.00
4355 73.8144 1.283770 33.00 29.37 6.00
4356 73.8290 1.283551 34.00 29.40 6.00
4357 73.8437 1.283332 43.00 29.44 7.00
4358 73.8584 1.283114 33.00 29.49 6.00
4359 73.8730 1.282895 26.00 29.56 5.00
4360 73.8877 1.282677 31.00 29.47 6.00
4361 73.9024 1.282459 32.00 29.58 6.00
4362 73.9170 1.282241 35.00 29.70 6.00
4363 73.9317 1.282022 31.00 29.86 6.00
4364 73.9464 1.281804 38.00 30.05 6.00
4365 73.9610 1.281587 37.00 30.29 6.00
4366 73.9757 1.281369 30.00 30.52 5.00
4367 73.9904 1.281151 44.00 30.86 7.00
4368 74.0050 1.280933 43.00 31.26 7.00
4369 74.0197 1.280716 44.00 31.72 7.00
4370 74.0344 1.280499 32.00 32.23 6.00
4371 74.0490 1.280281 40.00 32.79 6.00
4372 74.0637 1.280064 37.00 33.34 6.00
4373 74.0784 1.279847 30.00 33.85 5.00
4374 74.0931 1.279630 36.00 34.25 6.00
4375 74.1077 1.279413 43.00 34.41 7.00
4376 74.1224 1.279196 38.00 34.45 6.00
4377 74.1370 1.278979 31.00 34.31 6.00
4378 74.1517 1.278762 42.00 34.02 6.00
4379 74.1664 1.278546 40.00 33.65 6.00
4380 74.1811 1.278329 28.00 33.25 5.00
4381 74.1957 1.278113 41.00 32.89 6.00
4382 74.2104 1.277897 42.00 32.58 6.00
4383 74.2251 1.277681 41.00 32.34 6.00
4384 74.2397 1.277464 45.00 32.19 7.00
4385 74.2544 1.277249 34.00 32.10 6.00
4386 74.2691 1.277032 33.00 32.08 6.00
4387 74.2837 1.276817 37.00 32.09 6.00
4388 74.2984 1.276601 30.00 32.10 5.00
4389 74.3131 1.276385 32.00 32.08 6.00
4390 74.3277 1.276170 33.00 32.00 6.00
4391 74.3424 1.275954 39.00 31.85 6.00
4392 74.3571 1.275739 46.00 31.62 7.00
4393 74.3717 1.275524 36.00 31.35 6.00
4394 74.3864 1.275309 40.00 30.99 6.00
4395 74.4011 1.275094 20.00 30.68 4.00
4396 74.4157 1.274879 32.00 30.37 6.00
4397 74.4304 1.274664 33.00 30.10 6.00
4398 74.4451 1.274449 33.00 29.85 6.00
4399 74.4597 1.274234 33.00 29.64 6.00
4400 74.4744 1.274020 30.00 29.46 5.00
4401 74.4891 1.273805 23.00 29.84 5.00
4402 74.5038 1.273591 39.00 29.80 6.00
4403 74.5184 1.273376 39.00 29.80 6.00
4404 74.5331 1.273162 37.00 29.82 6.00
4405 74.5478 1.272948 30.00 29.72 5.00
4406 74.5624 1.272734 39.00 29.76 6.00
4407 74.5771 1.272520 41.00 29.82 6.00
4408 74.5918 1.272306 29.00 29.91 5.00
4409 74.6064 1.272092 30.00 30.00 5.00
4410 74.6211 1.271879 38.00 30.15 6.00
4411 74.6358 1.271665 23.00 30.37 5.00
4412 74.6504 1.271452 29.00 30.65 5.00
4413 74.6651 1.271238 27.00 31.00 5.00
4414 74.6798 1.271025 34.00 31.45 6.00
4415 74.6944 1.270812 33.00 32.17 6.00
4416 74.7091 1.270599 34.00 34.12 6.00
4417 74.7238 1.270386 32.00 36.60 6.00
4418 74.7384 1.270173 42.00 38.48 6.00
4419 74.7531 1.269960 44.00 40.43 7.00
4420 74.7678 1.269747 41.00 42.89 6.00
4421 74.7824 1.269534 53.00 46.34 7.00
4422 74.7971 1.269322 43.00 51.32 7.00
4423 74.8118 1.269109 69.00 59.00 8.00
4424 74.8264 1.268897 67.00 71.82 8.00
4425 74.8411 1.268685 122.00 94.37 11.00
4426 74.8558 1.268473 144.00 132.72 12.00
4427 74.8705 1.268260 177.00 188.46 13.00
4428 74.8851 1.268048 213.00 246.84 15.00
4429 74.8998 1.267836 260.00 275.90 16.00
4430 74.9145 1.267625 231.00 255.26 15.00
4431 74.9291 1.267413 187.00 202.23 14.00
4432 74.9438 1.267201 161.00 147.80 13.00
4433 74.9585 1.266990 107.00 107.81 10.00
4434 74.9731 1.266778 90.00 83.34 9.00
4435 74.9878 1.266567 73.00 69.71 9.00
4436 75.0025 1.266356 67.00 62.61 8.00
4437 75.0171 1.266144 59.00 59.64 8.00
4438 75.0318 1.265933 65.00 59.98 8.00
4439 75.0465 1.265722 61.00 64.09 8.00
4440 75.0611 1.265511 75.00 73.61 9.00
4441 75.0758 1.265300 85.00 90.60 9.00
4442 75.0905 1.265090 106.00 114.63 10.00
4443 75.1051 1.264879 116.00 138.41 11.00
4444 75.1198 1.264669 121.00 148.98 11.00
4445 75.1345 1.264458 136.00 138.63 12.00
4446 75.1491 1.264248 113.00 114.00 11.00
4447 75.1638 1.264037 92.00 88.40 10.00
4448 75.1785 1.263827 70.00 68.96 8.00
4449 75.1932 1.263617 54.00 56.49 7.00
4450 75.2078 1.263407 49.00 48.98 7.00
4451 75.2225 1.263197 47.00 44.40 7.00
4452 75.2371 1.262988 47.00 41.45 7.00
4453 75.2518 1.262777 43.00 39.47 7.00
4454 75.2665 1.262568 37.00 38.83 6.00
4455 75.2812 1.262358 29.00 37.85 5.00
4456 75.2958 1.262149 27.00 37.13 5.00
4457 75.3105 1.261940 29.00 36.60 5.00
4458 75.3252 1.261730 30.00 35.53 5.00
4459 75.3398 1.261521 30.00 35.25 5.00
4460 75.3545 1.261312 31.00 34.85 6.00
4461 75.3692 1.261103 30.00 34.94 5.00
4462 75.3838 1.260894 48.00 35.71 7.00
4463 75.3985 1.260685 35.00 37.21 6.00
4464 75.4132 1.260476 36.00 39.31 6.00
4465 75.4278 1.260268 43.00 41.17 7.00
4466 75.4425 1.260059 31.00 41.54 6.00
4467 75.4572 1.259851 44.00 40.16 7.00
4468 75.4718 1.259642 33.00 38.08 6.00
4469 75.4865 1.259434 32.00 36.34 6.00
4470 75.5012 1.259226 31.00 35.20 6.00
4471 75.5158 1.259018 32.00 34.56 6.00
4472 75.5305 1.258810 34.00 34.23 6.00
4473 75.5452 1.258602 32.00 33.75 6.00
4474 75.5598 1.258394 48.00 33.76 7.00
4475 75.5745 1.258186 34.00 33.87 6.00
4476 75.5892 1.257979 23.00 34.11 5.00
4477 75.6038 1.257771 28.00 34.57 5.00
4478 75.6185 1.257563 30.00 35.30 5.00
4479 75.6332 1.257356 34.00 36.25 6.00
4480 75.6479 1.257149 33.00 37.14 6.00
4481 75.6625 1.256942 30.00 37.42 5.00
4482 75.6772 1.256734 33.00 36.97 6.00
4483 75.6919 1.256527 40.00 36.14 6.00
4484 75.7065 1.256320 35.00 35.38 6.00
4485 75.7212 1.256113 39.00 34.87 6.00
4486 75.7359 1.255907 36.00 34.60 6.00
4487 75.7505 1.255700 29.00 34.49 5.00
4488 75.7652 1.255493 27.00 34.48 5.00
4489 75.7799 1.255287 40.00 34.52 6.00
4490 75.7945 1.255080 36.00 34.59 6.00
4491 75.8092 1.254874 32.00 34.69 6.00
4492 75.8239 1.254668 42.00 34.81 6.00
4493 75.8385 1.254462 33.00 34.93 6.00
4494 75.8532 1.254255 37.00 35.07 6.00
4495 75.8679 1.254050 29.00 35.25 5.00
4496 75.8825 1.253844 32.00 35.43 6.00
4497 75.8972 1.253638 38.00 35.63 6.00
4498 75.9119 1.253432 27.00 35.86 5.00
4499 75.9265 1.253226 37.00 36.12 6.00
4500 75.9412 1.253021 26.00 36.40 5.00
4501 75.9559 1.252815 32.00 36.71 6.00
4502 75.9705 1.252610 32.00 37.05 6.00
4503 75.9852 1.252405 42.00 37.42 6.00
4504 75.9999 1.252199 29.00 37.81 5.00
4505 76.0145 1.251995 40.00 38.24 6.00
4506 76.0292 1.251790 48.00 38.71 7.00
4507 76.0439 1.251585 48.00 39.22 7.00
4508 76.0586 1.251379 33.00 39.78 6.00
4509 76.0732 1.251175 40.00 40.43 6.00
4510 76.0879 1.250970 46.00 41.17 7.00
4511 76.1025 1.250766 38.00 42.04 6.00
4512 76.1172 1.250561 33.00 43.06 6.00
4513 76.1319 1.250357 39.00 44.25 6.00
4514 76.1466 1.250152 37.00 45.53 6.00
4515 76.1612 1.249948 33.00 46.77 6.00
4516 76.1759 1.249744 52.00 47.90 7.00
4517 76.1906 1.249540 41.00 49.06 6.00
4518 76.2052 1.249336 42.00 50.42 6.00
4519 76.2199 1.249132 49.00 52.30 7.00
4520 76.2346 1.248928 41.00 54.23 6.00
4521 76.2492 1.248725 51.00 56.38 7.00
4522 76.2639 1.248521 56.00 58.69 7.00
4523 76.2786 1.248317 50.00 61.07 7.00
4524 76.2932 1.248114 49.00 63.40 7.00
4525 76.3079 1.247911 58.00 65.55 8.00
4526 76.3226 1.247707 57.00 67.37 8.00
4527 76.3372 1.247504 78.00 68.76 9.00
4528 76.3519 1.247301 73.00 69.61 9.00
4529 76.3666 1.247098 70.00 69.90 8.00
4530 76.3812 1.246895 83.00 69.63 9.00
4531 76.3959 1.246692 71.00 68.89 8.00
4532 76.4106 1.246489 54.00 67.89 7.00
4533 76.4252 1.246287 46.00 66.89 7.00
4534 76.4399 1.246084 59.00 66.33 8.00
4535 76.4546 1.245882 66.00 66.66 8.00
4536 76.4693 1.245679 59.00 66.90 8.00
4537 76.4839 1.245477 62.00 67.29 8.00
4538 76.4986 1.245275 72.00 68.11 8.00
4539 76.5133 1.245073 61.00 69.48 8.00
4540 76.5279 1.244871 70.00 71.54 8.00
4541 76.5426 1.244668 74.00 74.60 9.00
4542 76.5573 1.244467 71.00 79.37 8.00
4543 76.5719 1.244265 79.00 87.38 9.00
4544 76.5866 1.244063 106.00 101.19 10.00
4545 76.6013 1.243862 153.00 123.35 12.00
4546 76.6159 1.243660 168.00 152.01 13.00
4547 76.6306 1.243458 206.00 176.32 14.00
4548 76.6453 1.243257 203.00 181.18 14.00
4549 76.6599 1.243056 166.00 163.08 13.00
4550 76.6746 1.242854 146.00 134.63 12.00
4551 76.6893 1.242653 119.00 108.72 11.00
4552 76.7039 1.242452 84.00 90.37 9.00
4553 76.7186 1.242251 79.00 78.88 9.00
4554 76.7333 1.242050 78.00 71.95 9.00
4555 76.7479 1.241850 66.00 67.77 8.00
4556 76.7626 1.241649 56.00 65.42 7.00
4557 76.7773 1.241448 67.00 64.62 8.00
4558 76.7919 1.241248 58.00 65.65 8.00
4559 76.8066 1.241047 66.00 69.33 8.00
4560 76.8213 1.240847 84.00 76.64 9.00
4561 76.8360 1.240647 94.00 87.48 10.00
4562 76.8506 1.240447 109.00 98.68 10.00
4563 76.8653 1.240246 118.00 104.16 11.00
4564 76.8800 1.240047 116.00 99.69 11.00
4565 76.8946 1.239846 97.00 87.78 10.00
4566 76.9093 1.239647 79.00 74.55 9.00
4567 76.9240 1.239447 62.00 63.84 8.00
4568 76.9386 1.239247 50.00 56.51 7.00
4569 76.9533 1.239048 54.00 51.76 7.00
4570 76.9680 1.238848 45.00 48.58 7.00
4571 76.9826 1.238648 37.00 46.29 6.00
4572 76.9973 1.238449 39.00 44.53 6.00
4573 77.0120 1.238250 40.00 43.10 6.00
4574 77.0266 1.238051 31.00 41.89 6.00
4575 77.0413 1.237852 33.00 40.85 6.00
4576 77.0560 1.237653 37.00 39.94 6.00
4577 77.0706 1.237454 34.00 38.79 6.00
4578 77.0853 1.237255 54.00 38.08 7.00
4579 77.1000 1.237056 38.00 37.34 6.00
4580 77.1146 1.236858 39.00 36.49 6.00
4581 77.1293 1.236659 29.00 35.84 5.00
4582 77.1440 1.236461 34.00 35.32 6.00
4583 77.1587 1.236262 34.00 34.85 6.00
4584 77.1733 1.236064 38.00 34.41 6.00
4585 77.1880 1.235866 34.00 34.01 6.00
4586 77.2027 1.235667 36.00 33.63 6.00
4587 77.2173 1.235469 39.00 33.27 6.00
4588 77.2320 1.235271 25.00 32.94 5.00
4589 77.2467 1.235073 32.00 32.62 6.00
4590 77.2613 1.234876 41.00 32.31 6.00
4591 77.2760 1.234678 25.00 32.02 5.00
4592 77.2907 1.234480 31.00 31.57 6.00
4593 77.3053 1.234283 36.00 31.32 6.00
4594 77.3200 1.234085 36.00 31.08 6.00
4595 77.3347 1.233888 33.00 30.84 6.00
4596 77.3493 1.233690 29.00 30.62 5.00
4597 77.3640 1.233493 33.00 30.40 6.00
4598 77.3787 1.233296 27.00 30.18 5.00
4599 77.3933 1.233099 20.00 29.97 4.00
4600 77.4080 1.232902 28.00 29.77 5.00
4601 77.4227 1.232705 39.00 29.57 6.00
4602 77.4373 1.232508 31.00 29.38 6.00
4603 77.4520 1.232311 16.00 29.19 4.00
4604 77.4667 1.232115 26.00 29.00 5.00
4605 77.4814 1.231918 20.00 28.82 4.00
4606 77.4960 1.231722 22.00 28.65 5.00
4607 77.5107 1.231525 31.00 28.48 6.00
4608 77.5253 1.231329 24.00 28.33 5.00
4609 77.5400 1.231132 27.00 28.21 5.00
4610 77.5547 1.230936 41.00 28.08 6.00
4611 77.5693 1.230740 45.00 27.95 7.00
4612 77.5840 1.230544 25.00 27.83 5.00
4613 77.5987 1.230348 39.00 27.73 6.00
4614 77.6134 1.230153 32.00 27.65 6.00
4615 77.6280 1.229957 35.00 27.62 6.00
4616 77.6427 1.229761 32.00 27.69 6.00
4617 77.6574 1.229566 27.00 27.93 5.00
4618 77.6720 1.229370 32.00 28.46 6.00
4619 77.6867 1.229175 23.00 29.30 5.00
4620 77.7013 1.228979 35.00 30.17 6.00
4621 77.7160 1.228784 38.00 30.50 6.00
4622 77.7307 1.228589 26.00 29.93 5.00
4623 77.7454 1.228394 36.00 28.80 6.00
4624 77.7600 1.228199 27.00 27.67 5.00
4625 77.7747 1.228004 24.00 26.81 5.00
4626 77.7894 1.227809 23.00 26.22 5.00
4627 77.8040 1.227614 31.00 25.81 6.00
4628 77.8187 1.227419 32.00 25.52 6.00
4629 77.8334 1.227225 31.00 25.50 6.00
4630 77.8480 1.227030 25.00 25.58 5.00
4631 77.8627 1.226836 35.00 25.72 6.00
4632 77.8774 1.226642 35.00 25.92 6.00
4633 77.8920 1.226447 25.00 26.22 5.00
4634 77.9067 1.226253 32.00 26.67 6.00
4635 77.9214 1.226059 37.00 27.21 6.00
4636 77.9360 1.225865 31.00 27.69 6.00
4637 77.9507 1.225671 28.00 27.88 5.00
4638 77.9654 1.225477 33.00 27.71 6.00
4639 77.9801 1.225283 33.00 27.37 6.00
4640 77.9947 1.225090 25.00 27.04 5.00
4641 78.0094 1.224896 32.00 26.83 6.00
4642 78.0241 1.224702 30.00 26.73 5.00
4643 78.0387 1.224509 44.00 26.72 7.00
4644 78.0534 1.224316 29.00 26.75 5.00
4645 78.0680 1.224122 27.00 26.89 5.00
4646 78.0827 1.223929 29.00 26.97 5.00
4647 78.0974 1.223736 22.00 27.07 5.00
4648 78.1121 1.223543 31.00 27.17 6.00
4649 78.1267 1.223350 35.00 27.27 6.00
4650 78.1414 1.223157 32.00 27.38 6.00
4651 78.1561 1.222964 30.00 27.49 5.00
4652 78.1707 1.222772 24.00 27.61 5.00
4653 78.1854 1.222579 27.00 27.72 5.00
4654 78.2001 1.222386 37.00 27.85 6.00
4655 78.2147 1.222194 30.00 27.98 5.00
4656 78.2294 1.222001 39.00 28.12 6.00
4657 78.2441 1.221809 23.00 28.27 5.00
4658 78.2587 1.221617 32.00 28.43 6.00
4659 78.2734 1.221425 35.00 28.61 6.00
4660 78.2881 1.221233 28.00 28.86 5.00
4661 78.3027 1.221041 31.00 30.25 6.00
4662 78.3174 1.220849 35.00 30.61 6.00
4663 78.3321 1.220657 40.00 31.03 6.00
4664 78.3467 1.220465 37.00 31.41 6.00
4665 78.3614 1.220273 37.00 31.84 6.00
4666 78.3761 1.220082 36.00 32.41 6.00
4667 78.3907 1.219890 47.00 33.21 7.00
4668 78.4054 1.219698 40.00 34.40 6.00
4669 78.4201 1.219507 42.00 36.29 6.00
4670 78.4348 1.219316 45.00 39.49 7.00
4671 78.4494 1.219125 57.00 44.85 8.00
4672 78.4641 1.218933 64.00 52.77 8.00
4673 78.4788 1.218743 68.00 61.80 8.00
4674 78.4934 1.218552 63.00 67.96 8.00
4675 78.5081 1.218361 83.00 67.39 9.00
4676 78.5228 1.218170 61.00 60.88 8.00
4677 78.5374 1.217979 58.00 52.65 8.00
4678 78.5521 1.217789 47.00 45.80 7.00
4679 78.5668 1.217598 39.00 41.31 6.00
4680 78.5814 1.217407 35.00 38.74 6.00
4681 78.5961 1.217217 44.00 37.41 7.00
4682 78.6108 1.217027 40.00 36.86 6.00
4683 78.6254 1.216837 41.00 36.84 6.00
4684 78.6401 1.216646 46.00 37.29 7.00
4685 78.6548 1.216456 49.00 38.30 7.00
4686 78.6694 1.216266 37.00 40.59 6.00
4687 78.6841 1.216076 49.00 43.60 7.00
4688 78.6988 1.215886 64.00 47.81 8.00
4689 78.7134 1.215697 56.00 52.49 7.00
4690 78.7281 1.215507 56.00 55.96 7.00
4691 78.7428 1.215317 81.00 56.65 9.00
4692 78.7574 1.215128 67.00 54.80 8.00
4693 78.7721 1.214938 52.00 52.01 7.00
4694 78.7868 1.214749 42.00 49.70 6.00
4695 78.8015 1.214560 54.00 48.51 7.00
4696 78.8161 1.214370 49.00 48.38 7.00
4697 78.8308 1.214181 56.00 48.94 7.00
4698 78.8455 1.213992 57.00 49.87 8.00
4699 78.8601 1.213803 69.00 50.93 8.00
4700 78.8748 1.213614 85.00 51.95 9.00
4701 78.8895 1.213425 45.00 53.06 7.00
4702 78.9041 1.213237 57.00 55.12 8.00
4703 78.9188 1.213048 73.00 56.79 9.00
4704 78.9335 1.212860 72.00 57.58 8.00
4705 78.9481 1.212671 62.00 58.47 8.00
4706 78.9628 1.212483 66.00 59.76 8.00
4707 78.9775 1.212294 59.00 61.75 8.00
4708 78.9921 1.212106 71.00 64.95 8.00
4709 79.0068 1.211918 73.00 70.19 9.00
4710 79.0215 1.211730 77.00 79.27 9.00
4711 79.0361 1.211541 104.00 95.41 10.00
4712 79.0508 1.211354 126.00 123.39 11.00
4713 79.0655 1.211166 196.00 166.59 14.00
4714 79.0801 1.210978 265.00 219.14 16.00
4715 79.0948 1.210790 328.00 260.09 18.00
4716 79.1095 1.210603 332.00 264.51 18.00
4717 79.1242 1.210415 304.00 230.52 17.00
4718 79.1388 1.210227 194.00 180.77 14.00
4719 79.1535 1.210040 157.00 136.36 13.00
4720 79.1682 1.209853 103.00 104.79 10.00
4721 79.1828 1.209665 89.00 85.13 9.00
4722 79.1975 1.209478 80.00 73.46 9.00
4723 79.2122 1.209291 77.00 66.72 9.00
4724 79.2268 1.209104 82.00 63.15 9.00
4725 79.2415 1.208917 65.00 62.16 8.00
4726 79.2562 1.208730 67.00 63.90 8.00
4727 79.2708 1.208544 72.00 69.42 8.00
4728 79.2855 1.208357 97.00 80.41 10.00
4729 79.3002 1.208170 105.00 98.34 10.00
4730 79.3148 1.207984 114.00 119.96 11.00
4731 79.3295 1.207797 152.00 137.39 12.00
4732 79.3442 1.207611 183.00 140.48 14.00
4733 79.3588 1.207424 135.00 126.73 12.00
4734 79.3735 1.207238 125.00 104.38 11.00
4735 79.3882 1.207052 91.00 82.75 10.00
4736 79.4028 1.206866 59.00 66.50 8.00
4737 79.4175 1.206680 59.00 55.84 8.00
4738 79.4322 1.206494 38.00 49.22 6.00
4739 79.4469 1.206308 68.00 45.05 8.00
4740 79.4615 1.206122 50.00 42.27 7.00
4741 79.4762 1.205936 53.00 40.33 7.00
4742 79.4908 1.205751 47.00 38.90 7.00
4743 79.5055 1.205565 31.00 37.80 6.00
4744 79.5202 1.205380 42.00 36.96 6.00
4745 79.5349 1.205194 45.00 36.25 7.00
4746 79.5495 1.205009 42.00 35.03 6.00
4747 79.5642 1.204824 43.00 34.54 7.00
4748 79.5789 1.204638 28.00 33.97 5.00
4749 79.5935 1.204453 31.00 33.24 6.00
4750 79.6082 1.204269 30.00 33.14 5.00
4751 79.6229 1.204083 38.00 33.30 6.00
4752 79.6375 1.203899 36.00 33.53 6.00
4753 79.6522 1.203714 27.00 33.80 5.00
4754 79.6669 1.203529 47.00 34.11 7.00
4755 79.6815 1.203344 26.00 34.44 5.00
4756 79.6962 1.203160 36.00 34.79 6.00
4757 79.7109 1.202975 28.00 35.17 5.00
4758 79.7255 1.202791 39.00 35.56 6.00
4759 79.7402 1.202607 37.00 35.99 6.00
4760 79.7549 1.202422 30.00 36.52 5.00
4761 79.7695 1.202238 24.00 37.06 5.00
4762 79.7842 1.202054 49.00 37.26 7.00
4763 79.7989 1.201870 38.00 37.83 6.00
4764 79.8136 1.201686 28.00 38.44 5.00
4765 79.8282 1.201502 36.00 39.12 6.00
4766 79.8429 1.201318 42.00 39.90 6.00
4767 79.8575 1.201135 35.00 40.86 6.00
4768 79.8722 1.200951 41.00 42.10 6.00
4769 79.8869 1.200767 36.00 43.87 6.00
4770 79.9015 1.200584 28.00 46.48 5.00
4771 79.9162 1.200401 44.00 50.11 7.00
4772 79.9309 1.200217 40.00 54.25 6.00
4773 79.9456 1.200034 52.00 57.46 7.00
4774 79.9602 1.199851 50.00 58.20 7.00
4775 79.9749 1.199668 46.00 56.62 7.00
4776 79.9896 1.199484 58.00 54.27 8.00
4777 80.0042 1.199301 42.00 52.46 6.00
4778 80.0189 1.199118 52.00 51.61 7.00
4779 80.0335 1.198936 37.00 51.64 6.00
4780 80.0482 1.198753 48.00 52.38 7.00
4781 80.0629 1.198570 55.00 53.56 7.00
4782 80.0776 1.198388 45.00 55.13 7.00
4783 80.0922 1.198205 48.00 57.07 7.00
4784 80.1069 1.198023 51.00 59.39 7.00
4785 80.1216 1.197840 57.00 62.13 8.00
4786 80.1362 1.197658 37.00 65.34 6.00
4787 80.1509 1.197476 69.00 68.96 8.00
4788 80.1656 1.197294 51.00 72.64 7.00
4789 80.1802 1.197112 65.00 75.59 8.00
4790 80.1949 1.196930 79.00 76.88 9.00
4791 80.2096 1.196748 62.00 76.20 8.00
4792 80.2242 1.196566 76.00 74.14 9.00
4793 80.2389 1.196384 66.00 71.63 8.00
4794 80.2536 1.196203 68.00 69.34 8.00
4795 80.2682 1.196021 56.00 67.55 7.00
4796 80.2829 1.195839 51.00 68.53 7.00
4797 80.2976 1.195658 50.00 67.66 7.00
4798 80.3122 1.195477 51.00 66.96 7.00
4799 80.3269 1.195295 65.00 66.60 8.00
4800 80.3416 1.195114 47.00 66.69 7.00
4801 80.3562 1.194933 45.00 67.24 7.00
4802 80.3709 1.194752 62.00 68.24 8.00
4803 80.3856 1.194571 55.00 69.63 7.00
4804 80.4003 1.194390 44.00 70.79 7.00
4805 80.4149 1.194209 58.00 72.43 8.00
4806 80.4296 1.194028 56.00 74.78 7.00
4807 80.4443 1.193847 66.00 78.10 8.00
4808 80.4589 1.193667 72.00 82.19 8.00
4809 80.4736 1.193486 82.00 85.81 9.00
4810 80.4883 1.193305 84.00 87.01 9.00
4811 80.5029 1.193125 91.00 85.23 10.00
4812 80.5176 1.192945 80.00 81.76 9.00
4813 80.5323 1.192765 66.00 78.48 8.00
4814 80.5469 1.192584 59.00 76.10 8.00
4815 80.5616 1.192404 66.00 74.43 8.00
4816 80.5763 1.192224 69.00 73.00 8.00
4817 80.5909 1.192044 58.00 71.51 8.00
4818 80.6056 1.191864 63.00 69.98 8.00
4819 80.6203 1.191684 52.00 68.57 7.00
4820 80.6349 1.191504 63.00 67.48 8.00
4821 80.6496 1.191325 41.00 67.00 6.00
4822 80.6643 1.191145 47.00 67.19 7.00
4823 80.6789 1.190966 68.00 67.90 8.00
4824 80.6936 1.190786 57.00 68.87 8.00
4825 80.7083 1.190607 64.00 69.78 8.00
4826 80.7230 1.190427 53.00 70.18 7.00
4827 80.7376 1.190248 67.00 69.57 8.00
4828 80.7523 1.190069 64.00 68.23 8.00
4829 80.7670 1.189890 57.00 66.74 8.00
4830 80.7816 1.189711 62.00 65.57 8.00
4831 80.7963 1.189532 54.00 64.76 7.00
4832 80.8110 1.189353 51.00 64.07 7.00
4833 80.8256 1.189174 66.00 63.26 8.00
4834 80.8403 1.188996 52.00 62.20 7.00
4835 80.8550 1.188817 50.00 60.92 7.00
4836 80.8696 1.188638 45.00 59.54 7.00
4837 80.8843 1.188460 44.00 58.16 7.00
4838 80.8990 1.188281 56.00 56.87 7.00
4839 80.9136 1.188103 41.00 55.63 6.00
4840 80.9283 1.187925 60.00 54.35 8.00
4841 80.9430 1.187746 48.00 52.92 7.00
4842 80.9576 1.187568 43.00 51.54 7.00
4843 80.9723 1.187390 52.00 50.23 7.00
4844 80.9870 1.187212 40.00 49.13 6.00
4845 81.0016 1.187034 49.00 48.24 7.00
4846 81.0163 1.186856 38.00 48.01 6.00
4847 81.0310 1.186679 59.00 47.42 8.00
4848 81.0456 1.186501 48.00 46.88 7.00
4849 81.0603 1.186323 41.00 46.35 6.00
4850 81.0750 1.186146 41.00 45.78 6.00
4851 81.0897 1.185968 47.00 45.18 7.00
4852 81.1043 1.185791 55.00 44.54 7.00
4853 81.1190 1.185613 32.00 43.87 6.00
4854 81.1337 1.185436 31.00 43.22 6.00
4855 81.1483 1.185259 46.00 42.58 7.00
4856 81.1630 1.185082 37.00 41.99 6.00
4857 81.1777 1.184905 38.00 41.42 6.00
4858 81.1923 1.184728 45.00 40.96 7.00
4859 81.2070 1.184551 44.00 40.76 7.00
4860 81.2217 1.184374 45.00 40.73 7.00
4861 81.2363 1.184197 29.00 41.01 5.00
4862 81.2510 1.184021 38.00 42.44 6.00
4863 81.2657 1.183844 52.00 44.33 7.00
4864 81.2803 1.183667 38.00 45.73 6.00
4865 81.2950 1.183491 43.00 47.12 7.00
4866 81.3097 1.183314 45.00 48.94 7.00
4867 81.3243 1.183138 53.00 51.44 7.00
4868 81.3390 1.182962 51.00 55.05 7.00
4869 81.3537 1.182785 63.00 60.33 8.00
4870 81.3683 1.182609 81.00 68.61 9.00
4871 81.3830 1.182433 109.00 82.39 10.00
4872 81.3977 1.182258 110.00 105.84 10.00
4873 81.4124 1.182081 163.00 143.43 13.00
4874 81.4270 1.181906 202.00 194.51 14.00
4875 81.4417 1.181730 220.00 245.56 15.00
4876 81.4563 1.181554 273.00 271.60 17.00
4877 81.4710 1.181378 232.00 256.66 15.00
4878 81.4857 1.181203 219.00 212.38 15.00
4879 81.5004 1.181028 171.00 162.94 13.00
4880 81.5150 1.180852 127.00 123.26 11.00
4881 81.5297 1.180677 105.00 96.72 10.00
4882 81.5444 1.180502 98.00 80.78 10.00
4883 81.5590 1.180326 65.00 71.75 8.00
4884 81.5737 1.180151 75.00 66.99 9.00
4885 81.5884 1.179976 63.00 65.12 8.00
4886 81.6030 1.179801 57.00 65.41 8.00
4887 81.6177 1.179626 64.00 68.12 8.00
4888 81.6324 1.179451 75.00 74.30 9.00
4889 81.6470 1.179277 87.00 85.60 9.00
4890 81.6617 1.179102 121.00 103.27 11.00
4891 81.6764 1.178927 124.00 125.61 11.00
4892 81.6910 1.178753 145.00 145.49 12.00
4893 81.7057 1.178578 155.00 153.25 12.00
4894 81.7204 1.178404 159.00 144.54 13.00
4895 81.7350 1.178230 126.00 126.35 11.00
4896 81.7497 1.178055 110.00 108.14 10.00
4897 81.7644 1.177881 93.00 95.38 10.00
4898 81.7791 1.177707 97.00 87.49 10.00
4899 81.7937 1.177533 87.00 80.66 9.00
4900 81.8084 1.177359 76.00 72.49 9.00
4901 81.8230 1.177185 54.00 63.82 7.00
4902 81.8377 1.177011 56.00 56.34 7.00
4903 81.8524 1.176837 54.00 50.77 7.00
4904 81.8670 1.176664 40.00 46.96 6.00
4905 81.8817 1.176490 47.00 44.40 7.00
4906 81.8964 1.176316 30.00 42.61 5.00
4907 81.9111 1.176143 36.00 40.74 6.00
4908 81.9257 1.175969 43.00 40.03 7.00
4909 81.9404 1.175796 26.00 39.90 5.00
4910 81.9551 1.175623 37.00 40.59 6.00
4911 81.9697 1.175450 35.00 41.33 6.00
4912 81.9844 1.175277 41.00 42.87 6.00
4913 81.9991 1.175104 46.00 45.38 7.00
4914 82.0137 1.174930 42.00 48.55 6.00
4915 82.0284 1.174758 47.00 51.56 7.00
4916 82.0431 1.174585 54.00 53.59 7.00
4917 82.0577 1.174412 73.00 54.86 9.00
4918 82.0724 1.174239 57.00 56.98 8.00
4919 82.0871 1.174067 58.00 62.32 8.00
4920 82.1017 1.173894 62.00 73.58 8.00
4921 82.1164 1.173722 120.00 92.55 11.00
4922 82.1311 1.173549 138.00 117.38 12.00
4923 82.1457 1.173377 161.00 139.25 13.00
4924 82.1604 1.173204 171.00 145.82 13.00
4925 82.1751 1.173032 152.00 133.41 12.00
4926 82.1897 1.172860 129.00 109.97 11.00
4927 82.2044 1.172688 96.00 86.56 10.00
4928 82.2191 1.172516 54.00 68.67 7.00
4929 82.2337 1.172344 72.00 56.91 8.00
4930 82.2484 1.172172 55.00 49.70 7.00
4931 82.2631 1.172000 45.00 45.54 7.00
4932 82.2778 1.171828 31.00 43.22 6.00
4933 82.2924 1.171657 47.00 42.15 7.00
4934 82.3071 1.171485 39.00 42.18 6.00
4935 82.3217 1.171314 45.00 43.49 7.00
4936 82.3364 1.171142 63.00 46.59 8.00
4937 82.3511 1.170971 42.00 52.25 6.00
4938 82.3658 1.170799 65.00 60.96 8.00
4939 82.3804 1.170628 78.00 71.71 9.00
4940 82.3951 1.170457 107.00 80.83 10.00
4941 82.4098 1.170286 94.00 83.52 10.00
4942 82.4244 1.170115 81.00 78.18 9.00
4943 82.4391 1.169944 78.00 67.94 9.00
4944 82.4538 1.169773 60.00 57.05 8.00
4945 82.4684 1.169602 36.00 48.27 6.00
4946 82.4831 1.169431 41.00 42.24 6.00
4947 82.4978 1.169261 45.00 38.36 7.00
4948 82.5124 1.169090 40.00 35.93 6.00
4949 82.5271 1.168919 48.00 34.32 7.00
4950 82.5418 1.168749 34.00 33.20 6.00
4951 82.5564 1.168579 26.00 32.41 5.00
4952 82.5711 1.168408 38.00 31.82 6.00
4953 82.5858 1.168238 37.00 31.38 6.00
4954 82.6004 1.168068 40.00 31.03 6.00
4955 82.6151 1.167897 29.00 30.53 5.00
4956 82.6298 1.167727 34.00 30.54 6.00
4957 82.6444 1.167557 31.00 30.56 6.00
4958 82.6591 1.167387 37.00 30.50 6.00
4959 82.6738 1.167217 30.00 30.46 5.00
4960 82.6885 1.167048 35.00 30.59 6.00
4961 82.7031 1.166878 37.00 30.81 6.00
4962 82.7178 1.166708 37.00 31.09 6.00
4963 82.7325 1.166539 29.00 31.43 5.00
4964 82.7471 1.166369 23.00 31.80 5.00
4965 82.7618 1.166200 36.00 32.16 6.00
4966 82.7765 1.166030 36.00 32.56 6.00
4967 82.7911 1.165861 37.00 32.98 6.00
4968 82.8058 1.165692 41.00 34.11 6.00
4969 82.8205 1.165522 34.00 34.77 6.00
4970 82.8351 1.165353 40.00 35.55 6.00
4971 82.8498 1.165184 34.00 36.52 6.00
4972 82.8645 1.165015 33.00 37.65 6.00
4973 82.8791 1.164846 40.00 39.43 6.00
4974 82.8938 1.164678 40.00 41.61 6.00
4975 82.9085 1.164509 36.00 43.78 6.00
4976 82.9231 1.164340 53.00 44.99 7.00
4977 82.9378 1.164171 42.00 44.74 6.00
4978 82.9525 1.164003 40.00 43.49 6.00
4979 82.9671 1.163834 36.00 42.10 6.00
4980 82.9818 1.163666 45.00 41.11 7.00
4981 82.9965 1.163497 42.00 40.61 6.00
4982 83.0111 1.163329 34.00 40.50 6.00
4983 83.0258 1.163161 33.00 40.74 6.00
4984 83.0405 1.162993 41.00 41.36 6.00
4985 83.0552 1.162825 41.00 43.60 6.00
4986 83.0698 1.162657 48.00 45.83 7.00
4987 83.0845 1.162489 38.00 47.54 6.00
4988 83.0992 1.162321 45.00 49.45 7.00
4989 83.1138 1.162153 71.00 52.02 8.00
4990 83.1285 1.161985 54.00 55.57 7.00
4991 83.1432 1.161817 49.00 60.47 7.00
4992 83.1578 1.161650 82.00 67.28 9.00
4993 83.1725 1.161482 95.00 76.97 10.00
4994 83.1872 1.161315 99.00 91.90 10.00
4995 83.2018 1.161147 125.00 116.68 11.00
4996 83.2165 1.160980 180.00 157.36 13.00
4997 83.2312 1.160813 223.00 216.69 15.00
4998 83.2458 1.160645 305.00 284.17 17.00
4999 83.2605 1.160478 413.00 332.40 20.00
5000 83.2752 1.160311 384.00 333.83 20.00
5001 83.2898 1.160144 315.00 289.12 18.00
5002 83.3045 1.159977 233.00 225.28 15.00
5003 83.3192 1.159810 194.00 167.20 14.00
5004 83.3338 1.159643 151.00 124.72 12.00
5005 83.3485 1.159477 106.00 97.41 10.00
5006 83.3632 1.159310 88.00 80.86 9.00
5007 83.3779 1.159143 81.00 71.17 9.00
5008 83.3925 1.158977 74.00 65.81 9.00
5009 83.4072 1.158810 74.00 63.54 9.00
5010 83.4218 1.158644 66.00 64.02 8.00
5011 83.4365 1.158477 86.00 67.80 9.00
5012 83.4512 1.158311 92.00 76.29 10.00
5013 83.4659 1.158145 97.00 91.53 10.00
5014 83.4805 1.157979 126.00 114.74 11.00
5015 83.4952 1.157813 145.00 142.96 12.00
5016 83.5099 1.157647 182.00 166.82 13.00
5017 83.5245 1.157481 198.00 174.13 14.00
5018 83.5392 1.157315 149.00 160.29 12.00
5019 83.5539 1.157149 148.00 133.29 12.00
5020 83.5685 1.156983 102.00 104.42 10.00
5021 83.5832 1.156818 106.00 80.79 10.00
5022 83.5979 1.156652 63.00 64.27 8.00
5023 83.6125 1.156486 57.00 53.56 8.00
5024 83.6272 1.156321 54.00 46.69 7.00
5025 83.6419 1.156156 46.00 42.11 7.00
5026 83.6565 1.155990 43.00 38.89 7.00
5027 83.6712 1.155825 34.00 36.53 6.00
5028 83.6859 1.155660 35.00 34.72 6.00
5029 83.7005 1.155494 47.00 33.29 7.00
5030 83.7152 1.155329 29.00 32.13 5.00
5031 83.7299 1.155164 36.00 31.17 6.00
5032 83.7445 1.154999 37.00 29.53 6.00
5033 83.7592 1.154834 38.00 28.84 6.00
5034 83.7739 1.154670 31.00 28.05 6.00
5035 83.7885 1.154505 36.00 27.03 6.00
5036 83.8032 1.154340 40.00 26.41 6.00
5037 83.8179 1.154175 27.00 26.21 5.00
5038 83.8326 1.154011 34.00 26.12 6.00
5039 83.8472 1.153846 32.00 26.05 6.00
5040 83.8619 1.153682 28.00 26.00 5.00
5041 83.8766 1.153518 23.00 25.95 5.00
5042 83.8912 1.153353 32.00 25.91 6.00
5043 83.9059 1.153189 36.00 25.88 6.00
5044 83.9206 1.153025 25.00 25.86 5.00
5045 83.9352 1.152861 25.00 25.84 5.00
5046 83.9499 1.152697 34.00 25.83 6.00
5047 83.9646 1.152533 18.00 25.82 4.00
5048 83.9792 1.152369 24.00 25.82 5.00
5049 83.9939 1.152205 33.00 25.43 6.00
5050 84.0086 1.152041 42.00 25.47 6.00
5051 84.0232 1.151878 27.00 25.53 5.00
5052 84.0379 1.151714 28.00 25.59 5.00
5053 84.0526 1.151550 22.00 25.65 5.00
5054 84.0672 1.151387 31.00 25.70 6.00
5055 84.0819 1.151223 22.00 25.77 5.00
5056 84.0966 1.151060 26.00 26.19 5.00
5057 84.1112 1.150897 40.00 26.31 6.00
5058 84.1259 1.150733 44.00 26.45 7.00
5059 84.1406 1.150570 27.00 26.61 5.00
5060 84.1552 1.150407 37.00 26.80 6.00
5061 84.1699 1.150244 37.00 27.06 6.00
5062 84.1846 1.150081 28.00 27.41 5.00
5063 84.1992 1.149918 37.00 27.88 6.00
5064 84.2139 1.149755 41.00 28.37 6.00
5065 84.2286 1.149592 32.00 28.73 6.00
5066 84.2433 1.149429 27.00 28.82 5.00
5067 84.2579 1.149267 25.00 28.69 5.00
5068 84.2726 1.149104 39.00 28.55 6.00
5069 84.2872 1.148942 34.00 28.43 6.00
5070 84.3019 1.148779 34.00 28.39 6.00
5071 84.3166 1.148617 35.00 28.49 6.00
5072 84.3313 1.148454 27.00 28.84 5.00
5073 84.3459 1.148292 32.00 29.81 6.00
5074 84.3606 1.148130 28.00 31.39 5.00
5075 84.3753 1.147968 32.00 32.48 6.00
5076 84.3899 1.147806 36.00 33.53 6.00
5077 84.4046 1.147644 31.00 34.83 6.00
5078 84.4193 1.147482 44.00 36.54 7.00
5079 84.4339 1.147320 57.00 38.79 8.00
5080 84.4486 1.147158 55.00 41.83 7.00
5081 84.4633 1.146996 58.00 46.14 8.00
5082 84.4779 1.146834 67.00 52.62 8.00
5083 84.4926 1.146673 76.00 63.11 9.00
5084 84.5073 1.146511 87.00 80.47 9.00
5085 84.5219 1.146350 120.00 107.58 11.00
5086 84.5366 1.146188 148.00 143.49 12.00
5087 84.5513 1.146027 191.00 178.86 14.00
5088 84.5659 1.145866 193.00 197.34 14.00
5089 84.5806 1.145704 181.00 188.37 13.00
5090 84.5953 1.145543 181.00 158.54 13.00
5091 84.6099 1.145382 143.00 123.58 12.00
5092 84.6246 1.145221 106.00 94.36 10.00
5093 84.6393 1.145060 77.00 73.81 9.00
5094 84.6540 1.144899 76.00 60.83 9.00
5095 84.6686 1.144738 66.00 53.06 8.00
5096 84.6833 1.144577 69.00 48.58 8.00
5097 84.6980 1.144417 51.00 46.24 7.00
5098 84.7126 1.144256 57.00 45.47 8.00
5099 84.7273 1.144095 52.00 46.24 7.00
5100 84.7420 1.143935 60.00 48.63 8.00
5101 84.7566 1.143774 57.00 53.58 8.00
5102 84.7713 1.143614 68.00 62.24 8.00
5103 84.7860 1.143454 89.00 75.23 9.00
5104 84.8006 1.143293 98.00 90.99 10.00
5105 84.8153 1.143133 113.00 104.56 11.00
5106 84.8300 1.142973 97.00 109.47 10.00
5107 84.8446 1.142813 102.00 103.38 10.00
5108 84.8593 1.142653 92.00 90.40 10.00
5109 84.8740 1.142493 95.00 76.56 10.00
5110 84.8886 1.142333 75.00 65.67 9.00
5111 84.9033 1.142173 70.00 58.09 8.00
5112 84.9180 1.142013 62.00 52.22 8.00
5113 84.9326 1.141853 47.00 46.86 7.00
5114 84.9473 1.141694 45.00 42.04 7.00
5115 84.9620 1.141534 44.00 38.18 7.00
5116 84.9766 1.141375 42.00 35.38 6.00
5117 84.9913 1.141215 38.00 33.43 6.00
5118 85.0060 1.141056 31.00 32.20 6.00
5119 85.0207 1.140896 30.00 31.26 5.00
5120 85.0353 1.140737 37.00 30.58 6.00
5121 85.0500 1.140578 32.00 29.63 6.00
5122 85.0647 1.140419 36.00 29.29 6.00
5123 85.0793 1.140260 28.00 28.97 5.00
5124 85.0940 1.140101 33.00 28.65 6.00
5125 85.1087 1.139942 34.00 28.68 6.00
5126 85.1233 1.139783 33.00 29.16 6.00
5127 85.1380 1.139624 40.00 29.98 6.00
5128 85.1527 1.139465 46.00 30.90 7.00
5129 85.1673 1.139306 27.00 31.52 5.00
5130 85.1820 1.139148 33.00 31.51 6.00
5131 85.1967 1.138989 33.00 30.86 6.00
5132 85.2113 1.138831 38.00 29.90 6.00
5133 85.2260 1.138672 44.00 29.04 7.00
5134 85.2407 1.138514 24.00 28.54 5.00
5135 85.2553 1.138355 37.00 28.50 6.00
5136 85.2700 1.138197 40.00 28.53 6.00
5137 85.2847 1.138039 32.00 28.60 6.00
5138 85.2993 1.137881 33.00 28.79 6.00
5139 85.3140 1.137723 33.00 28.88 6.00
5140 85.3287 1.137565 40.00 29.45 6.00
5141 85.3434 1.137407 27.00 30.24 5.00
5142 85.3580 1.137249 28.00 31.34 5.00
5143 85.3727 1.137091 47.00 32.92 7.00
5144 85.3874 1.136933 49.00 35.44 7.00
5145 85.4020 1.136775 51.00 39.53 7.00
5146 85.4167 1.136618 56.00 46.13 7.00
5147 85.4314 1.136460 69.00 55.71 8.00
5148 85.4460 1.136303 68.00 67.10 8.00
5149 85.4607 1.136145 89.00 76.38 9.00
5150 85.4754 1.135988 91.00 78.89 10.00
5151 85.4900 1.135831 81.00 73.44 9.00
5152 85.5047 1.135673 65.00 63.58 8.00
5153 85.5194 1.135516 59.00 53.71 8.00
5154 85.5340 1.135359 58.00 46.01 8.00
5155 85.5487 1.135202 41.00 40.85 6.00
5156 85.5634 1.135045 44.00 37.69 7.00
5157 85.5780 1.134888 39.00 35.84 6.00
5158 85.5927 1.134731 30.00 34.85 5.00
5159 85.6074 1.134574 35.00 34.41 6.00
5160 85.6220 1.134417 38.00 34.41 6.00
5161 85.6367 1.134261 27.00 34.85 5.00
5162 85.6514 1.134104 25.00 35.87 5.00
5163 85.6661 1.133947 40.00 37.72 6.00
5164 85.6807 1.133791 39.00 40.73 6.00
5165 85.6954 1.133634 46.00 45.00 7.00
5166 85.7100 1.133478 63.00 49.93 8.00
5167 85.7247 1.133322 68.00 53.94 8.00
5168 85.7394 1.133165 61.00 55.16 8.00
5169 85.7540 1.133009 41.00 53.11 6.00
5170 85.7687 1.132853 49.00 49.07 7.00
5171 85.7834 1.132697 46.00 44.77 7.00
5172 85.7981 1.132541 48.00 41.29 7.00
5173 85.8127 1.132385 47.00 38.99 7.00
5174 85.8274 1.132229 35.00 37.69 6.00
5175 85.8421 1.132073 37.00 37.08 6.00
5176 85.8567 1.131917 33.00 36.94 6.00
5177 85.8714 1.131761 33.00 37.10 6.00
5178 85.8860 1.131606 37.00 37.50 6.00
5179 85.9007 1.131450 42.00 38.10 6.00
5180 85.9154 1.131295 50.00 38.86 7.00
5181 85.9301 1.131139 38.00 39.78 6.00
5182 85.9447 1.130984 38.00 40.85 6.00
5183 85.9594 1.130828 44.00 41.92 7.00
5184 85.9741 1.130673 43.00 43.25 7.00
5185 85.9887 1.130518 47.00 44.66 7.00
5186 86.0034 1.130363 45.00 46.08 7.00
5187 86.0181 1.130208 46.00 47.47 7.00
5188 86.0327 1.130052 46.00 48.76 7.00
5189 86.0474 1.129897 53.00 49.78 7.00
5190 86.0621 1.129743 45.00 50.36 7.00
5191 86.0767 1.129588 44.00 50.42 7.00
5192 86.0914 1.129433 52.00 49.98 7.00
5193 86.1061 1.129278 49.00 49.13 7.00
5194 86.1207 1.129123 56.00 48.04 7.00
5195 86.1354 1.128969 44.00 46.86 7.00
5196 86.1501 1.128814 56.00 45.73 7.00
5197 86.1648 1.128660 49.00 44.73 7.00
5198 86.1794 1.128505 50.00 43.90 7.00
5199 86.1941 1.128351 40.00 43.28 6.00
5200 86.2088 1.128196 58.00 42.85 8.00
5201 86.2234 1.128042 45.00 42.55 7.00
5202 86.2381 1.127888 38.00 42.49 6.00
5203 86.2527 1.127734 34.00 42.57 6.00
5204 86.2674 1.127580 39.00 42.76 6.00
5205 86.2821 1.127426 41.00 43.09 6.00
5206 86.2968 1.127272 38.00 43.34 6.00
5207 86.3114 1.127118 42.00 43.49 6.00
5208 86.3261 1.126964 50.00 43.45 7.00
5209 86.3408 1.126810 41.00 43.20 6.00
5210 86.3554 1.126657 43.00 42.75 7.00
5211 86.3701 1.126503 40.00 42.11 6.00
5212 86.3848 1.126349 42.00 41.35 6.00
5213 86.3994 1.126196 43.00 40.53 7.00
5214 86.4141 1.126042 38.00 39.71 6.00
5215 86.4288 1.125889 29.00 38.94 5.00
5216 86.4434 1.125736 39.00 38.24 6.00
5217 86.4581 1.125582 42.00 37.62 6.00
5218 86.4728 1.125429 38.00 37.09 6.00
5219 86.4874 1.125276 36.00 36.63 6.00
5220 86.5021 1.125123 42.00 36.25 6.00
5221 86.5168 1.124970 23.00 35.94 5.00
5222 86.5314 1.124817 31.00 35.69 6.00
5223 86.5461 1.124664 37.00 35.52 6.00
5224 86.5608 1.124511 27.00 35.37 5.00
5225 86.5754 1.124358 37.00 35.25 6.00
5226 86.5901 1.124205 33.00 35.21 6.00
5227 86.6048 1.124053 33.00 35.16 6.00
5228 86.6195 1.123900 28.00 35.16 5.00
5229 86.6341 1.123747 32.00 35.17 6.00
5230 86.6488 1.123595 41.00 35.22 6.00
5231 86.6635 1.123442 32.00 35.29 6.00
5232 86.6781 1.123290 34.00 35.40 6.00
5233 86.6928 1.123138 25.00 35.55 5.00
5234 86.7075 1.122985 33.00 35.74 6.00
5235 86.7221 1.122833 28.00 35.96 5.00
5236 86.7368 1.122681 40.00 36.24 6.00
5237 86.7515 1.122529 31.00 36.57 6.00
5238 86.7661 1.122377 45.00 36.96 7.00
5239 86.7808 1.122225 25.00 37.40 5.00
5240 86.7955 1.122073 36.00 37.91 6.00
5241 86.8101 1.121921 32.00 38.46 6.00
5242 86.8248 1.121769 28.00 39.06 5.00
5243 86.8395 1.121617 30.00 39.68 5.00
5244 86.8541 1.121466 38.00 40.27 6.00
5245 86.8688 1.121314 47.00 40.79 7.00
5246 86.8835 1.121163 37.00 41.19 6.00
5247 86.8981 1.121011 46.00 41.44 7.00
5248 86.9128 1.120860 49.00 41.49 7.00
5249 86.9275 1.120708 46.00 41.37 7.00
5250 86.9421 1.120557 30.00 41.10 5.00
5251 86.9568 1.120406 38.00 40.72 6.00
5252 86.9715 1.120254 45.00 40.25 7.00
5253 86.9862 1.120103 26.00 39.78 5.00
5254 87.0008 1.119952 33.00 39.34 6.00
5255 87.0155 1.119801 35.00 38.96 6.00
5256 87.0302 1.119650 29.00 38.65 5.00
5257 87.0448 1.119499 34.00 38.41 6.00
5258 87.0595 1.119348 28.00 38.25 5.00
5259 87.0742 1.119197 29.00 38.16 5.00
5260 87.0888 1.119047 48.00 38.13 7.00
5261 87.1035 1.118896 34.00 38.15 6.00
5262 87.1182 1.118746 36.00 38.20 6.00
5263 87.1328 1.118595 47.00 38.25 7.00
5264 87.1475 1.118444 27.00 38.28 5.00
5265 87.1622 1.118294 31.00 38.27 6.00
5266 87.1768 1.118144 38.00 38.19 6.00
5267 87.1915 1.117993 36.00 38.03 6.00
5268 87.2062 1.117843 37.00 37.81 6.00
5269 87.2208 1.117693 35.00 37.54 6.00
5270 87.2355 1.117543 34.00 37.24 6.00
5271 87.2502 1.117392 24.00 36.93 5.00
5272 87.2648 1.117242 33.00 36.63 6.00
5273 87.2795 1.117093 28.00 36.35 5.00
5274 87.2942 1.116943 30.00 36.09 5.00
5275 87.3089 1.116793 33.00 35.87 6.00
5276 87.3235 1.116643 35.00 35.68 6.00
5277 87.3382 1.116493 38.00 35.52 6.00
5278 87.3529 1.116343 22.00 35.39 5.00
5279 87.3675 1.116194 31.00 35.29 6.00
5280 87.3822 1.116044 33.00 35.22 6.00
5281 87.3969 1.115895 32.00 35.17 6.00
5282 87.4115 1.115745 34.00 35.15 6.00
5283 87.4262 1.115596 27.00 35.15 5.00
5284 87.4409 1.115447 38.00 35.16 6.00
5285 87.4555 1.115297 25.00 35.20 5.00
5286 87.4702 1.115148 27.00 35.26 5.00
5287 87.4849 1.114999 42.00 35.34 6.00
5288 87.4995 1.114850 43.00 35.43 7.00
5289 87.5142 1.114701 24.00 35.55 5.00
5290 87.5289 1.114552 32.00 35.69 6.00
5291 87.5435 1.114403 33.00 35.85 6.00
5292 87.5582 1.114254 25.00 36.04 5.00
5293 87.5729 1.114105 32.00 36.18 6.00
5294 87.5875 1.113957 31.00 36.42 6.00
5295 87.6022 1.113808 36.00 36.69 6.00
5296 87.6169 1.113659 35.00 37.00 6.00
5297 87.6316 1.113511 28.00 37.34 5.00
5298 87.6462 1.113362 44.00 37.72 7.00
5299 87.6609 1.113214 44.00 38.15 7.00
5300 87.6755 1.113065 26.00 38.62 5.00
5301 87.6902 1.112917 40.00 39.13 6.00
5302 87.7049 1.112769 38.00 39.69 6.00
5303 87.7195 1.112620 43.00 40.29 7.00
5304 87.7342 1.112472 40.00 40.91 6.00
5305 87.7489 1.112324 43.00 41.55 7.00
5306 87.7636 1.112176 50.00 42.18 7.00
5307 87.7782 1.112028 41.00 42.79 6.00
5308 87.7929 1.111880 37.00 43.55 6.00
5309 87.8076 1.111732 33.00 44.28 6.00
5310 87.8222 1.111584 51.00 44.90 7.00
5311 87.8369 1.111437 29.00 45.36 5.00
5312 87.8516 1.111289 49.00 45.73 7.00
5313 87.8662 1.111141 48.00 45.98 7.00
5314 87.8809 1.110994 47.00 46.16 7.00
5315 87.8956 1.110846 49.00 46.28 7.00
5316 87.9102 1.110699 46.00 46.37 7.00
5317 87.9249 1.110551 48.00 46.47 7.00
5318 87.9396 1.110404 42.00 46.60 6.00
5319 87.9542 1.110257 35.00 46.78 6.00
5320 87.9689 1.110109 50.00 47.03 7.00
5321 87.9836 1.109962 43.00 47.35 7.00
5322 87.9983 1.109815 37.00 47.74 6.00
5323 88.0129 1.109668 46.00 48.22 7.00
5324 88.0276 1.109521 47.00 48.77 7.00
5325 88.0422 1.109374 38.00 49.39 6.00
5326 88.0569 1.109227 45.00 50.07 7.00
5327 88.0716 1.109080 55.00 50.83 7.00
5328 88.0862 1.108933 52.00 51.61 7.00
5329 88.1009 1.108787 52.00 52.44 7.00
5330 88.1156 1.108640 48.00 53.31 7.00
5331 88.1303 1.108493 57.00 54.23 8.00
5332 88.1449 1.108347 46.00 55.21 7.00
5333 88.1596 1.108200 52.00 56.27 7.00
5334 88.1743 1.108054 44.00 57.43 7.00
5335 88.1889 1.107907 52.00 58.69 7.00
5336 88.2036 1.107761 53.00 60.05 7.00
5337 88.2182 1.107615 61.00 61.50 8.00
5338 88.2329 1.107468 55.00 63.01 7.00
5339 88.2476 1.107322 78.00 64.51 9.00
5340 88.2623 1.107176 58.00 65.93 8.00
5341 88.2769 1.107030 30.00 67.19 5.00
5342 88.2916 1.106884 67.00 68.22 8.00
5343 88.3063 1.106738 60.00 68.98 8.00
5344 88.3209 1.106592 59.00 69.47 8.00
5345 88.3356 1.106447 74.00 69.79 9.00
5346 88.3503 1.106301 61.00 70.23 8.00
5347 88.3649 1.106155 60.00 70.07 8.00
5348 88.3796 1.106009 68.00 69.84 8.00
5349 88.3943 1.105864 61.00 69.60 8.00
5350 88.4089 1.105718 65.00 69.38 8.00
5351 88.4236 1.105573 56.00 69.24 7.00
5352 88.4383 1.105427 63.00 69.24 8.00
5353 88.4529 1.105282 46.00 69.47 7.00
5354 88.4676 1.105137 55.00 70.09 7.00
5355 88.4823 1.104991 64.00 71.28 8.00
5356 88.4969 1.104846 59.00 73.08 8.00
5357 88.5116 1.104701 67.00 75.12 8.00
5358 88.5263 1.104556 61.00 76.58 8.00
5359 88.5409 1.104411 85.00 76.68 9.00
5360 88.5556 1.104266 64.00 75.45 8.00
5361 88.5703 1.104121 59.00 73.65 8.00
5362 88.5850 1.103976 59.00 72.03 8.00
5363 88.5996 1.103831 55.00 71.18 7.00
5364 88.6143 1.103686 73.00 71.51 9.00
5365 88.6290 1.103542 51.00 72.48 7.00
5366 88.6436 1.103397 46.00 72.69 7.00
5367 88.6583 1.103253 56.00 72.66 7.00
5368 88.6730 1.103108 55.00 73.01 7.00
5369 88.6876 1.102963 67.00 73.88 8.00
5370 88.7023 1.102819 70.00 75.48 8.00
5371 88.7170 1.102675 60.00 78.12 8.00
5372 88.7316 1.102530 64.00 82.42 8.00
5373 88.7463 1.102386 79.00 89.53 9.00
5374 88.7610 1.102242 104.00 101.54 10.00
5375 88.7756 1.102098 115.00 121.71 11.00
5376 88.7903 1.101954 170.00 153.31 13.00
5377 88.8050 1.101810 183.00 196.68 14.00
5378 88.8196 1.101666 277.00 244.07 17.00
5379 88.8343 1.101522 275.00 278.27 17.00
5380 88.8490 1.101378 287.00 281.97 17.00
5381 88.8636 1.101234 241.00 253.61 16.00
5382 88.8783 1.101090 206.00 208.49 14.00
5383 88.8930 1.100947 159.00 163.92 13.00
5384 88.9077 1.100803 125.00 128.72 11.00
5385 88.9223 1.100659 89.00 104.11 9.00
5386 88.9370 1.100516 83.00 88.08 9.00
5387 88.9517 1.100372 81.00 77.92 9.00
5388 88.9663 1.100229 71.00 71.57 8.00
5389 88.9810 1.100085 64.00 67.71 8.00
5390 88.9957 1.099942 54.00 65.70 7.00
5391 89.0103 1.099799 67.00 65.31 8.00
5392 89.0250 1.099656 69.00 66.81 8.00
5393 89.0397 1.099513 75.00 70.85 9.00
5394 89.0543 1.099370 82.00 78.63 9.00
5395 89.0690 1.099227 112.00 91.33 11.00
5396 89.0837 1.099084 104.00 109.01 10.00
5397 89.0983 1.098941 141.00 128.62 12.00
5398 89.1130 1.098798 151.00 143.33 12.00
5399 89.1277 1.098655 136.00 146.10 12.00
5400 89.1423 1.098512 127.00 135.76 11.00
5401 89.1570 1.098369 111.00 116.92 11.00
5402 89.1717 1.098227 100.00 96.21 10.00
5403 89.1863 1.098084 90.00 78.46 9.00
5404 89.2010 1.097942 59.00 65.34 8.00
5405 89.2157 1.097799 53.00 56.35 7.00
5406 89.2303 1.097657 53.00 50.75 7.00
5407 89.2450 1.097514 49.00 46.64 7.00
5408 89.2597 1.097372 51.00 43.70 7.00
5409 89.2744 1.097230 42.00 41.50 6.00
5410 89.2890 1.097088 43.00 39.77 7.00
5411 89.3037 1.096945 39.00 38.36 6.00
5412 89.3184 1.096803 38.00 37.19 6.00
5413 89.3330 1.096661 41.00 36.19 6.00
5414 89.3477 1.096519 39.00 34.72 6.00
5415 89.3624 1.096377 36.00 34.01 6.00
5416 89.3770 1.096236 35.00 33.36 6.00
5417 89.3917 1.096094 41.00 32.64 6.00
5418 89.4064 1.095952 36.00 31.82 6.00
5419 89.4210 1.095810 41.00 31.31 6.00
5420 89.4357 1.095669 34.00 31.29 6.00
5421 89.4504 1.095527 31.00 31.71 6.00
5422 89.4650 1.095385 36.00 32.38 6.00
5423 89.4797 1.095244 32.00 33.44 6.00
5424 89.4944 1.095102 46.00 35.13 7.00
5425 89.5090 1.094961 41.00 37.15 6.00
5426 89.5237 1.094820 42.00 38.21 6.00
5427 89.5384 1.094678 49.00 38.88 7.00
5428 89.5530 1.094537 39.00 39.71 6.00
5429 89.5677 1.094396 48.00 40.97 7.00
5430 89.5824 1.094255 45.00 42.87 7.00
5431 89.5971 1.094114 61.00 45.65 8.00
5432 89.6117 1.093973 48.00 49.70 7.00
5433 89.6264 1.093832 57.00 55.44 8.00
5434 89.6410 1.093691 79.00 64.94 9.00
5435 89.6557 1.093550 79.00 80.32 9.00
5436 89.6704 1.093409 107.00 104.74 10.00
5437 89.6851 1.093269 145.00 140.22 12.00
5438 89.6997 1.093128 196.00 183.64 14.00
5439 89.7144 1.092987 248.00 223.16 16.00
5440 89.7291 1.092847 270.00 241.72 16.00
5441 89.7437 1.092706 276.00 230.22 17.00
5442 89.7584 1.092566 232.00 196.31 15.00
5443 89.7731 1.092425 163.00 156.04 13.00
5444 89.7877 1.092285 126.00 121.07 11.00
5445 89.8024 1.092145 91.00 95.23 10.00
5446 89.8171 1.092004 83.00 77.94 9.00
5447 89.8317 1.091864 60.00 67.02 8.00
5448 89.8464 1.091724 62.00 60.39 8.00
5449 89.8611 1.091584 71.00 56.59 8.00
5450 89.8757 1.091444 63.00 54.77 8.00
5451 89.8904 1.091304 56.00 54.55 7.00
5452 89.9051 1.091164 59.00 55.95 8.00
5453 89.9197 1.091024 73.00 59.17 9.00
5454 89.9344 1.090884 57.00 65.02 8.00
5455 89.9491 1.090744 79.00 74.58 9.00
5456 89.9638 1.090605 105.00 88.76 10.00
5457 89.9784 1.090465 110.00 106.89 10.00
5458 89.9931 1.090326 140.00 125.31 12.00
5459 90.0077 1.090186 160.00 137.38 13.00
5460 90.0224 1.090046 150.00 137.82 12.00
5461 90.0371 1.089907 136.00 127.02 12.00
5462 90.0517 1.089768 140.00 109.81 12.00
5463 90.0664 1.089628 100.00 91.83 10.00
5464 90.0811 1.089489 87.00 76.79 9.00
5465 90.0958 1.089350 78.00 65.71 9.00
5466 90.1104 1.089211 54.00 58.00 7.00
5467 90.1251 1.089072 62.00 52.67 8.00
5468 90.1398 1.088932 58.00 48.87 8.00
5469 90.1544 1.088793 60.00 46.03 8.00
5470 90.1691 1.088654 50.00 43.97 7.00
5471 90.1838 1.088516 63.00 42.48 8.00
5472 90.1984 1.088377 40.00 41.28 6.00
5473 90.2131 1.088238 45.00 40.34 7.00
5474 90.2278 1.088099 49.00 39.65 7.00
5475 90.2424 1.087960 58.00 38.61 8.00
5476 90.2571 1.087822 50.00 38.37 7.00
5477 90.2718 1.087683 56.00 38.29 7.00
5478 90.2864 1.087545 40.00 38.31 6.00
5479 90.3011 1.087406 57.00 38.36 8.00
5480 90.3158 1.087268 71.00 38.80 8.00
5481 90.3304 1.087129 56.00 40.03 7.00
5482 90.3451 1.086991 49.00 42.22 7.00
5483 90.3598 1.086853 55.00 45.79 7.00
5484 90.3744 1.086714 63.00 50.62 8.00
5485 90.3891 1.086576 74.00 55.69 9.00
5486 90.4038 1.086438 72.00 58.96 8.00
5487 90.4184 1.086300 76.00 58.62 9.00
5488 90.4331 1.086162 56.00 54.69 7.00
5489 90.4478 1.086024 72.00 48.97 8.00
5490 90.4625 1.085886 69.00 43.40 8.00
5491 90.4771 1.085748 46.00 38.91 7.00
5492 90.4918 1.085611 36.00 35.65 6.00
5493 90.5064 1.085473 52.00 33.42 7.00
5494 90.5211 1.085335 37.00 31.90 6.00
5495 90.5358 1.085197 31.00 30.57 6.00
5496 90.5505 1.085060 35.00 29.87 6.00
5497 90.5651 1.084923 31.00 29.41 6.00
5498 90.5798 1.084785 27.00 29.16 5.00
5499 90.5945 1.084648 42.00 29.20 6.00
5500 90.6091 1.084510 31.00 29.55 6.00
5501 90.6238 1.084373 32.00 30.30 6.00
5502 90.6385 1.084235 45.00 31.55 7.00
5503 90.6531 1.084098 52.00 33.46 7.00
5504 90.6678 1.083961 46.00 35.77 7.00
5505 90.6825 1.083824 64.00 37.89 8.00
5506 90.6971 1.083687 42.00 38.93 6.00
5507 90.7118 1.083550 47.00 38.43 7.00
5508 90.7265 1.083413 42.00 36.67 6.00
5509 90.7411 1.083276 57.00 34.34 8.00
5510 90.7558 1.083139 45.00 32.13 7.00
5511 90.7705 1.083002 52.00 30.40 7.00
5512 90.7851 1.082866 42.00 29.20 6.00
5513 90.7998 1.082729 36.00 28.43 6.00
5514 90.8145 1.082592 32.00 27.95 6.00
5515 90.8291 1.082456 38.00 27.65 6.00
5516 90.8438 1.082319 28.00 27.48 5.00
5517 90.8585 1.082183 31.00 27.40 6.00
5518 90.8732 1.082046 35.00 27.37 6.00
5519 90.8878 1.081910 21.00 27.39 5.00
5520 90.9025 1.081774 35.00 27.45 6.00
5521 90.9172 1.081637 38.00 27.54 6.00
5522 90.9318 1.081501 28.00 27.59 5.00
5523 90.9465 1.081365 27.00 27.74 5.00
5524 90.9612 1.081229 36.00 27.92 6.00
5525 90.9758 1.081093 44.00 28.11 7.00
5526 90.9905 1.080957 37.00 28.30 6.00
5527 91.0052 1.080821 34.00 28.54 6.00
5528 91.0198 1.080685 36.00 28.83 6.00
5529 91.0345 1.080549 40.00 29.43 6.00
5530 91.0492 1.080413 35.00 29.84 6.00
5531 91.0638 1.080277 31.00 30.27 6.00
5532 91.0785 1.080142 32.00 30.74 6.00
5533 91.0932 1.080006 37.00 31.22 6.00
5534 91.1078 1.079870 33.00 31.73 6.00
5535 91.1225 1.079735 45.00 32.23 7.00
5536 91.1372 1.079599 30.00 32.88 5.00
5537 91.1518 1.079464 30.00 33.35 5.00
5538 91.1665 1.079329 30.00 33.76 5.00
5539 91.1812 1.079193 30.00 34.11 5.00
5540 91.1958 1.079058 42.00 34.37 6.00
5541 91.2105 1.078923 45.00 34.54 7.00
5542 91.2252 1.078787 39.00 34.61 6.00
5543 91.2399 1.078652 44.00 34.65 7.00
5544 91.2545 1.078517 32.00 34.66 6.00
5545 91.2692 1.078382 37.00 34.70 6.00
5546 91.2839 1.078247 35.00 34.90 6.00
5547 91.2985 1.078112 32.00 35.50 6.00
5548 91.3132 1.077977 39.00 36.34 6.00
5549 91.3279 1.077843 26.00 36.82 5.00
5550 91.3425 1.077708 44.00 37.17 7.00
5551 91.3572 1.077573 29.00 37.61 5.00
5552 91.3719 1.077438 46.00 38.25 7.00
5553 91.3865 1.077304 43.00 39.17 7.00
5554 91.4012 1.077169 42.00 40.46 6.00
5555 91.4159 1.077035 45.00 42.30 7.00
5556 91.4305 1.076900 42.00 44.96 6.00
5557 91.4452 1.076766 58.00 48.99 8.00
5558 91.4599 1.076631 58.00 55.33 8.00
5559 91.4745 1.076497 69.00 65.49 8.00
5560 91.4892 1.076363 97.00 81.08 10.00
5561 91.5039 1.076228 105.00 102.42 10.00
5562 91.5185 1.076094 149.00 126.32 12.00
5563 91.5332 1.075960 148.00 145.09 12.00
5564 91.5479 1.075826 147.00 150.23 12.00
5565 91.5626 1.075692 161.00 139.42 13.00
5566 91.5772 1.075558 138.00 118.65 12.00
5567 91.5919 1.075424 81.00 96.33 9.00
5568 91.6065 1.075291 84.00 77.60 9.00
5569 91.6212 1.075157 74.00 63.89 9.00
5570 91.6359 1.075023 70.00 54.65 8.00
5571 91.6506 1.074889 65.00 48.69 8.00
5572 91.6652 1.074756 55.00 44.90 7.00
5573 91.6799 1.074622 37.00 42.55 6.00
5574 91.6946 1.074488 55.00 41.19 7.00
5575 91.7092 1.074355 61.00 40.64 8.00
5576 91.7239 1.074221 41.00 40.86 6.00
5577 91.7386 1.074088 42.00 42.03 6.00
5578 91.7532 1.073955 52.00 44.48 7.00
5579 91.7679 1.073821 57.00 48.78 8.00
5580 91.7826 1.073688 62.00 55.48 8.00
5581 91.7972 1.073555 72.00 64.54 8.00
5582 91.8119 1.073422 82.00 74.50 9.00
5583 91.8266 1.073289 114.00 82.42 11.00
5584 91.8412 1.073156 91.00 84.66 10.00
5585 91.8559 1.073023 102.00 80.57 10.00
5586 91.8706 1.072890 92.00 72.07 10.00
5587 91.8852 1.072757 70.00 62.18 8.00
5588 91.8999 1.072624 76.00 53.28 9.00
5589 91.9146 1.072491 50.00 46.41 7.00
5590 91.9292 1.072358 36.00 41.55 6.00
5591 91.9439 1.072226 54.00 38.26 7.00
5592 91.9586 1.072093 55.00 36.01 7.00
5593 91.9732 1.071961 48.00 34.46 7.00
5594 91.9879 1.071828 50.00 34.13 7.00
5595 92.0026 1.071695 43.00 33.49 7.00
5596 92.0173 1.071563 49.00 33.09 7.00
5597 92.0319 1.071431 43.00 32.86 7.00
5598 92.0466 1.071298 36.00 32.78 6.00
5599 92.0613 1.071166 36.00 32.82 6.00
5600 92.0759 1.071034 50.00 32.71 7.00
5601 92.0906 1.070902 45.00 33.18 7.00
5602 92.1053 1.070769 37.00 34.11 6.00
5603 92.1199 1.070637 30.00 35.54 5.00
5604 92.1346 1.070505 42.00 36.74 6.00
5605 92.1493 1.070373 21.00 38.13 5.00
5606 92.1639 1.070241 30.00 39.77 5.00
5607 92.1786 1.070110 62.00 41.74 8.00
5608 92.1933 1.069978 61.00 43.99 8.00
5609 92.2079 1.069846 55.00 46.58 7.00
5610 92.2226 1.069714 55.00 49.70 7.00
5611 92.2373 1.069582 58.00 53.85 8.00
5612 92.2519 1.069451 71.00 60.07 8.00
5613 92.2666 1.069319 58.00 68.91 8.00
5614 92.2813 1.069188 80.00 80.71 9.00
5615 92.2959 1.069056 103.00 95.92 10.00
5616 92.3106 1.068925 110.00 114.60 10.00
5617 92.3253 1.068793 152.00 133.27 12.00
5618 92.3399 1.068662 165.00 145.94 13.00
5619 92.3546 1.068531 162.00 148.22 13.00
5620 92.3693 1.068399 161.00 141.44 13.00
5621 92.3839 1.068268 143.00 132.11 12.00
5622 92.3986 1.068137 132.00 126.50 11.00
5623 92.4133 1.068006 158.00 129.20 13.00
5624 92.4280 1.067875 162.00 143.90 13.00
5625 92.4426 1.067744 186.00 174.37 14.00
5626 92.4573 1.067613 254.00 222.60 16.00
5627 92.4719 1.067482 287.00 284.36 17.00
5628 92.4866 1.067351 325.00 343.95 18.00
5629 92.5013 1.067221 407.00 377.62 20.00
5630 92.5160 1.067090 370.00 369.48 19.00
5631 92.5306 1.066959 328.00 325.75 18.00
5632 92.5453 1.066828 288.00 267.84 17.00
5633 92.5600 1.066698 197.00 214.75 14.00
5634 92.5746 1.066567 211.00 175.19 15.00
5635 92.5893 1.066437 158.00 150.38 13.00
5636 92.6040 1.066306 129.00 137.56 11.00
5637 92.6186 1.066176 134.00 132.28 12.00
5638 92.6333 1.066046 118.00 130.13 11.00
5639 92.6480 1.065915 134.00 126.63 12.00
5640 92.6626 1.065785 132.00 121.04 11.00
5641 92.6773 1.065655 88.00 114.53 9.00
5642 92.6920 1.065525 102.00 109.32 10.00
5643 92.7066 1.065395 103.00 107.59 10.00
5644 92.7213 1.065265 104.00 111.10 10.00
5645 92.7360 1.065135 112.00 121.33 11.00
5646 92.7506 1.065005 132.00 139.14 11.00
5647 92.7653 1.064875 178.00 163.48 13.00
5648 92.7800 1.064745 190.00 189.11 14.00
5649 92.7946 1.064615 198.00 207.09 14.00
5650 92.8093 1.064485 188.00 209.54 14.00
5651 92.8240 1.064356 174.00 195.80 13.00
5652 92.8387 1.064226 163.00 171.60 13.00
5653 92.8533 1.064096 111.00 144.94 11.00
5654 92.8680 1.063967 107.00 121.79 10.00
5655 92.8827 1.063837 96.00 104.27 10.00
5656 92.8973 1.063708 76.00 92.68 9.00
5657 92.9120 1.063578 60.00 85.71 8.00
5658 92.9267 1.063449 53.00 81.83 7.00
5659 92.9413 1.063320 75.00 79.55 9.00
5660 92.9560 1.063190 61.00 78.08 8.00
5661 92.9707 1.063061 58.00 77.52 8.00
5662 92.9853 1.062932 65.00 77.71 8.00
5663 93.0000 1.062803 63.00 77.77 8.00
5664 93.0147 1.062674 59.00 78.57 8.00
5665 93.0293 1.062545 62.00 80.28 8.00
5666 93.0440 1.062416 64.00 82.47 8.00
5667 93.0587 1.062287 69.00 87.88 8.00
5668 93.0733 1.062158 72.00 95.64 8.00
5669 93.0880 1.062029 101.00 108.02 10.00
5670 93.1027 1.061900 125.00 127.64 11.00
5671 93.1173 1.061772 182.00 156.83 13.00
5672 93.1320 1.061643 190.00 193.82 14.00
5673 93.1467 1.061514 254.00 230.24 16.00
5674 93.1613 1.061386 271.00 252.53 16.00
5675 93.1760 1.061257 283.00 250.50 17.00
5676 93.1907 1.061129 223.00 226.79 15.00
5677 93.2054 1.061000 204.00 193.43 14.00
5678 93.2200 1.060872 174.00 162.43 13.00
5679 93.2347 1.060744 140.00 139.85 12.00
5680 93.2494 1.060615 123.00 126.83 11.00
5681 93.2640 1.060487 108.00 121.23 10.00
5682 93.2787 1.060359 86.00 119.03 9.00
5683 93.2934 1.060231 108.00 116.06 10.00
5684 93.3080 1.060103 91.00 110.23 10.00
5685 93.3227 1.059975 92.00 102.33 10.00
5686 93.3374 1.059847 73.00 94.24 9.00
5687 93.3520 1.059718 73.00 88.62 9.00
5688 93.3667 1.059591 78.00 85.92 9.00
5689 93.3814 1.059463 83.00 86.66 9.00
5690 93.3960 1.059335 75.00 91.36 9.00
5691 93.4107 1.059207 89.00 100.54 9.00
5692 93.4254 1.059080 110.00 113.98 10.00
5693 93.4400 1.058952 143.00 129.51 12.00
5694 93.4547 1.058824 141.00 142.46 12.00
5695 93.4694 1.058697 155.00 147.71 12.00
5696 93.4840 1.058569 135.00 143.39 12.00
5697 93.4987 1.058442 124.00 131.74 11.00
5698 93.5134 1.058314 115.00 117.37 11.00
5699 93.5281 1.058187 108.00 104.57 10.00
5700 93.5427 1.058059 84.00 95.61 9.00
5701 93.5574 1.057932 99.00 90.65 10.00
5702 93.5721 1.057805 96.00 88.45 10.00
5703 93.5867 1.057678 77.00 87.19 9.00
5704 93.6014 1.057551 76.00 85.43 9.00
5705 93.6161 1.057424 86.00 82.80 9.00
5706 93.6307 1.057297 64.00 79.69 8.00
5707 93.6454 1.057169 72.00 76.52 8.00
5708 93.6601 1.057042 74.00 73.31 9.00
5709 93.6747 1.056916 57.00 69.74 8.00
5710 93.6894 1.056789 74.00 65.83 9.00
5711 93.7041 1.056662 59.00 61.50 8.00
5712 93.7187 1.056535 42.00 58.23 6.00
5713 93.7334 1.056409 52.00 55.69 7.00
5714 93.7481 1.056282 50.00 53.79 7.00
5715 93.7627 1.056155 52.00 52.27 7.00
5716 93.7774 1.056029 49.00 51.15 7.00
5717 93.7921 1.055902 40.00 50.57 6.00
5718 93.8067 1.055776 47.00 50.36 7.00
5719 93.8214 1.055649 54.00 50.38 7.00
5720 93.8361 1.055523 36.00 50.48 6.00
5721 93.8508 1.055396 34.00 50.93 6.00
5722 93.8654 1.055270 48.00 51.64 7.00
5723 93.8801 1.055144 39.00 52.38 6.00
5724 93.8947 1.055018 64.00 53.10 8.00
5725 93.9094 1.054892 58.00 53.85 8.00
5726 93.9241 1.054766 63.00 54.65 8.00
5727 93.9387 1.054640 60.00 55.42 8.00
5728 93.9534 1.054514 61.00 55.94 8.00
5729 93.9681 1.054388 68.00 55.99 8.00
5730 93.9828 1.054262 65.00 55.42 8.00
5731 93.9974 1.054136 48.00 54.30 7.00
5732 94.0121 1.054010 47.00 52.63 7.00
5733 94.0268 1.053884 53.00 51.17 7.00
5734 94.0414 1.053759 49.00 49.83 7.00
5735 94.0561 1.053633 48.00 48.65 7.00
5736 94.0708 1.053507 47.00 47.67 7.00
5737 94.0854 1.053382 44.00 46.86 7.00
5738 94.1001 1.053256 42.00 46.17 6.00
5739 94.1148 1.053131 36.00 45.60 6.00
5740 94.1294 1.053005 42.00 45.14 6.00
5741 94.1441 1.052880 50.00 44.72 7.00
5742 94.1588 1.052755 46.00 44.43 7.00
5743 94.1734 1.052629 34.00 44.20 6.00
5744 94.1881 1.052504 40.00 44.01 6.00
5745 94.2028 1.052379 44.00 43.87 7.00
5746 94.2174 1.052254 49.00 43.76 7.00
5747 94.2321 1.052129 28.00 43.64 5.00
5748 94.2468 1.052004 43.00 43.50 7.00
5749 94.2614 1.051879 36.00 43.33 6.00
5750 94.2761 1.051754 40.00 43.12 6.00
5751 94.2908 1.051629 33.00 42.88 6.00
5752 94.3054 1.051504 39.00 42.61 6.00
5753 94.3201 1.051379 45.00 42.30 7.00
5754 94.3348 1.051254 34.00 41.97 6.00
5755 94.3494 1.051130 28.00 41.63 5.00
5756 94.3641 1.051005 36.00 41.28 6.00
5757 94.3788 1.050880 33.00 40.96 6.00
5758 94.3935 1.050756 47.00 40.66 7.00
5759 94.4081 1.050631 35.00 40.40 6.00
5760 94.4228 1.050507 35.00 40.16 6.00
5761 94.4374 1.050382 43.00 39.97 7.00
5762 94.4521 1.050258 38.00 39.81 6.00
5763 94.4668 1.050133 36.00 39.70 6.00
5764 94.4815 1.050009 30.00 39.62 5.00
5765 94.4961 1.049885 48.00 39.57 7.00
5766 94.5108 1.049761 24.00 39.57 5.00
5767 94.5255 1.049636 28.00 39.61 5.00
5768 94.5401 1.049512 30.00 39.67 5.00
5769 94.5548 1.049388 29.00 39.75 5.00
5770 94.5695 1.049264 35.00 39.84 6.00
5771 94.5841 1.049140 47.00 39.93 7.00
5772 94.5988 1.049016 32.00 39.99 6.00
5773 94.6135 1.048892 32.00 39.93 6.00
5774 94.6281 1.048769 39.00 39.82 6.00
5775 94.6428 1.048645 53.00 39.66 7.00
5776 94.6575 1.048521 27.00 39.43 5.00
5777 94.6721 1.048397 42.00 39.16 6.00
5778 94.6868 1.048274 41.00 38.86 6.00
5779 94.7015 1.048150 31.00 38.52 6.00
5780 94.7161 1.048027 28.00 38.17 5.00
5781 94.7308 1.047903 36.00 37.83 6.00
5782 94.7455 1.047780 45.00 37.49 7.00
5783 94.7601 1.047656 33.00 37.16 6.00
5784 94.7748 1.047533 34.00 36.86 6.00
5785 94.7895 1.047410 39.00 36.59 6.00
5786 94.8042 1.047286 36.00 36.34 6.00
5787 94.8188 1.047163 27.00 36.12 5.00
5788 94.8335 1.047040 38.00 35.92 6.00
5789 94.8482 1.046917 40.00 35.75 6.00
5790 94.8628 1.046793 33.00 35.59 6.00
5791 94.8775 1.046670 33.00 35.45 6.00
5792 94.8922 1.046547 32.00 35.31 6.00
5793 94.9068 1.046424 39.00 35.17 6.00
5794 94.9215 1.046302 29.00 35.01 5.00
5795 94.9362 1.046179 39.00 34.85 6.00
5796 94.9508 1.046056 30.00 34.66 5.00
5797 94.9655 1.045933 31.00 34.45 6.00
5798 94.9802 1.045810 33.00 34.21 6.00
5799 94.9948 1.045688 38.00 33.97 6.00
5800 95.0095 1.045565 40.00 33.70 6.00
5801 95.0242 1.045442 26.00 33.43 5.00
5802 95.0388 1.045320 29.00 33.16 5.00
5803 95.0535 1.045197 36.00 33.15 6.00
5804 95.0682 1.045075 28.00 32.92 5.00
5805 95.0828 1.044953 34.00 32.70 6.00
5806 95.0975 1.044830 26.00 32.49 5.00
5807 95.1122 1.044708 34.00 32.29 6.00
5808 95.1268 1.044586 34.00 32.11 6.00
5809 95.1415 1.044463 33.00 31.93 6.00
5810 95.1562 1.044341 33.00 31.76 6.00
5811 95.1709 1.044219 35.00 31.61 6.00
5812 95.1855 1.044097 41.00 31.46 6.00
5813 95.2002 1.043975 29.00 31.33 5.00
5814 95.2149 1.043853 39.00 31.21 6.00
5815 95.2295 1.043731 26.00 31.10 5.00
5816 95.2442 1.043609 27.00 31.01 5.00
5817 95.2589 1.043487 28.00 30.89 5.00
5818 95.2735 1.043365 35.00 30.84 6.00
5819 95.2882 1.043244 37.00 30.81 6.00
5820 95.3029 1.043122 31.00 30.82 6.00
5821 95.3175 1.043000 38.00 30.92 6.00
5822 95.3322 1.042879 29.00 31.27 5.00
5823 95.3469 1.042757 37.00 32.07 6.00
5824 95.3615 1.042635 31.00 33.28 6.00
5825 95.3762 1.042514 32.00 33.89 6.00
5826 95.3909 1.042392 42.00 34.48 6.00
5827 95.4055 1.042271 20.00 35.18 4.00
5828 95.4202 1.042150 38.00 36.05 6.00
5829 95.4349 1.042028 44.00 37.16 7.00
5830 95.4495 1.041907 47.00 38.60 7.00
5831 95.4642 1.041786 50.00 40.54 7.00
5832 95.4789 1.041665 50.00 43.28 7.00
5833 95.4936 1.041543 55.00 47.28 7.00
5834 95.5082 1.041422 66.00 53.80 8.00
5835 95.5229 1.041301 82.00 63.40 9.00
5836 95.5376 1.041180 83.00 77.94 9.00
5837 95.5522 1.041059 94.00 98.14 10.00
5838 95.5669 1.040938 115.00 122.22 11.00
5839 95.5816 1.040818 145.00 144.54 12.00
5840 95.5962 1.040697 138.00 157.04 12.00
5841 95.6109 1.040576 141.00 154.52 12.00
5842 95.6256 1.040455 144.00 139.04 12.00
5843 95.6402 1.040335 128.00 117.60 11.00
5844 95.6549 1.040214 97.00 96.67 10.00
5845 95.6696 1.040093 89.00 79.53 9.00
5846 95.6842 1.039973 71.00 66.84 8.00
5847 95.6989 1.039852 61.00 58.10 8.00
5848 95.7136 1.039732 51.00 52.35 7.00
5849 95.7282 1.039612 42.00 48.71 6.00
5850 95.7429 1.039491 42.00 46.51 6.00
5851 95.7576 1.039371 56.00 45.39 7.00
5852 95.7722 1.039251 44.00 45.24 7.00
5853 95.7869 1.039130 50.00 46.27 7.00
5854 95.8016 1.039010 43.00 48.39 7.00
5855 95.8163 1.038890 58.00 51.48 8.00
5856 95.8309 1.038770 65.00 55.57 8.00
5857 95.8456 1.038650 80.00 61.67 9.00
5858 95.8602 1.038530 64.00 70.27 8.00
5859 95.8749 1.038410 80.00 81.10 9.00
5860 95.8896 1.038290 81.00 92.57 9.00
5861 95.9042 1.038170 87.00 101.84 9.00
5862 95.9189 1.038050 96.00 106.60 10.00
5863 95.9336 1.037930 107.00 106.55 10.00
5864 95.9483 1.037811 114.00 103.86 11.00
5865 95.9629 1.037691 99.00 102.34 10.00
5866 95.9776 1.037571 126.00 106.06 11.00
5867 95.9923 1.037452 136.00 118.29 12.00
5868 96.0069 1.037332 137.00 140.35 12.00
5869 96.0216 1.037213 158.00 169.68 13.00
5870 96.0363 1.037093 165.00 198.35 13.00
5871 96.0509 1.036974 184.00 214.71 14.00
5872 96.0656 1.036854 172.00 210.66 13.00
5873 96.0803 1.036735 168.00 188.08 13.00
5874 96.0949 1.036616 132.00 156.53 11.00
5875 96.1096 1.036497 118.00 125.62 11.00
5876 96.1243 1.036377 100.00 100.44 10.00
5877 96.1389 1.036258 78.00 81.95 9.00
5878 96.1536 1.036139 76.00 69.23 9.00
5879 96.1683 1.036020 67.00 60.48 8.00
5880 96.1829 1.035901 64.00 54.94 8.00
5881 96.1976 1.035782 39.00 51.33 6.00
5882 96.2123 1.035663 56.00 48.99 7.00
5883 96.2269 1.035544 45.00 47.60 7.00
5884 96.2416 1.035425 45.00 47.22 7.00
5885 96.2563 1.035306 58.00 47.95 8.00
5886 96.2709 1.035188 51.00 49.98 7.00
5887 96.2856 1.035069 72.00 53.83 8.00
5888 96.3003 1.034950 63.00 60.22 8.00
5889 96.3150 1.034832 80.00 69.78 9.00
5890 96.3296 1.034713 81.00 82.37 9.00
5891 96.3443 1.034595 100.00 96.20 10.00
5892 96.3590 1.034476 97.00 107.40 10.00
5893 96.3736 1.034357 104.00 111.81 10.00
5894 96.3883 1.034239 98.00 107.91 10.00
5895 96.4029 1.034121 103.00 97.20 10.00
5896 96.4176 1.034002 88.00 83.24 9.00
5897 96.4323 1.033884 80.00 69.58 9.00
5898 96.4470 1.033766 65.00 58.28 8.00
5899 96.4616 1.033648 63.00 49.90 8.00
5900 96.4763 1.033530 44.00 43.86 7.00
5901 96.4910 1.033412 47.00 39.81 7.00
5902 96.5056 1.033293 43.00 36.98 7.00
5903 96.5203 1.033175 44.00 34.94 7.00
5904 96.5350 1.033057 38.00 33.42 6.00
5905 96.5496 1.032939 34.00 32.24 6.00
5906 96.5643 1.032822 38.00 31.31 6.00
5907 96.5790 1.032704 30.00 30.58 5.00
5908 96.5936 1.032586 35.00 29.95 6.00
5909 96.6083 1.032468 26.00 29.42 5.00
5910 96.6230 1.032351 30.00 28.52 5.00
5911 96.6376 1.032233 30.00 28.15 5.00
5912 96.6523 1.032115 33.00 27.82 6.00
5913 96.6670 1.031998 21.00 27.46 5.00
5914 96.6816 1.031880 28.00 26.99 5.00
5915 96.6963 1.031763 20.00 26.48 4.00
5916 96.7110 1.031645 26.00 26.18 5.00
5917 96.7256 1.031528 42.00 26.01 6.00
5918 96.7403 1.031410 40.00 25.89 6.00
5919 96.7550 1.031293 43.00 25.78 7.00
5920 96.7697 1.031176 34.00 25.68 6.00
5921 96.7843 1.031059 40.00 25.59 6.00
5922 96.7990 1.030941 33.00 25.50 6.00
5923 96.8137 1.030824 18.00 25.42 4.00
5924 96.8283 1.030707 34.00 25.34 6.00
5925 96.8430 1.030590 22.00 25.28 5.00
5926 96.8577 1.030473 28.00 25.21 5.00
5927 96.8723 1.030356 30.00 25.15 5.00
5928 96.8870 1.030239 24.00 25.17 5.00
5929 96.9017 1.030122 25.00 25.21 5.00
5930 96.9163 1.030005 23.00 25.24 5.00
5931 96.9310 1.029889 30.00 25.28 5.00
5932 96.9457 1.029772 26.00 25.11 5.00
5933 96.9603 1.029655 19.00 25.16 4.00
5934 96.9750 1.029539 27.00 25.23 5.00
5935 96.9897 1.029422 31.00 25.29 6.00
5936 97.0043 1.029305 27.00 25.35 5.00
5937 97.0190 1.029189 25.00 25.42 5.00
5938 97.0337 1.029072 26.00 25.50 5.00
5939 97.0483 1.028956 29.00 25.57 5.00
5940 97.0630 1.028839 28.00 25.65 5.00
5941 97.0777 1.028723 26.00 25.74 5.00
5942 97.0923 1.028607 22.00 25.83 5.00
5943 97.1070 1.028491 36.00 25.92 6.00
5944 97.1217 1.028374 30.00 26.02 5.00
5945 97.1364 1.028258 30.00 26.13 5.00
5946 97.1510 1.028142 22.00 26.24 5.00
5947 97.1657 1.028026 24.00 26.37 5.00
5948 97.1804 1.027910 18.00 26.50 4.00
5949 97.1950 1.027794 26.00 26.64 5.00
5950 97.2097 1.027678 34.00 26.79 6.00
5951 97.2244 1.027562 25.00 26.95 5.00
5952 97.2390 1.027446 26.00 27.12 5.00
5953 97.2537 1.027330 20.00 27.30 4.00
5954 97.2684 1.027214 26.00 27.49 5.00
5955 97.2830 1.027099 23.00 27.72 5.00
5956 97.2977 1.026983 27.00 27.92 5.00
5957 97.3124 1.026867 23.00 28.12 5.00
5958 97.3270 1.026752 37.00 28.31 6.00
5959 97.3417 1.026636 34.00 28.49 6.00
5960 97.3564 1.026520 33.00 28.65 6.00
5961 97.3710 1.026405 27.00 28.78 5.00
5962 97.3857 1.026290 31.00 28.89 6.00
5963 97.4004 1.026174 26.00 28.97 5.00
5964 97.4150 1.026059 30.00 29.02 5.00
5965 97.4297 1.025943 32.00 29.03 6.00
5966 97.4444 1.025828 31.00 29.01 6.00
5967 97.4591 1.025713 38.00 28.97 6.00
5968 97.4737 1.025598 30.00 28.92 5.00
5969 97.4884 1.025482 32.00 28.85 6.00
5970 97.5031 1.025367 33.00 28.78 6.00
5971 97.5177 1.025252 24.00 28.71 5.00
5972 97.5324 1.025137 31.00 28.64 6.00
5973 97.5471 1.025022 29.00 28.59 5.00
5974 97.5617 1.024907 29.00 28.53 5.00
5975 97.5764 1.024792 29.00 28.49 5.00
5976 97.5911 1.024678 31.00 28.45 6.00
5977 97.6057 1.024563 25.00 28.44 5.00
5978 97.6204 1.024448 22.00 28.42 5.00
5979 97.6351 1.024333 28.00 28.42 5.00
5980 97.6497 1.024219 34.00 28.42 6.00
5981 97.6644 1.024104 21.00 28.42 5.00
5982 97.6791 1.023989 31.00 28.45 6.00
5983 97.6937 1.023875 24.00 28.50 5.00
5984 97.7084 1.023760 35.00 28.56 6.00
5985 97.7231 1.023646 34.00 28.67 6.00
5986 97.7377 1.023531 32.00 28.84 6.00
5987 97.7524 1.023417 26.00 29.07 5.00
5988 97.7671 1.023303 34.00 29.29 6.00
5989 97.7818 1.023188 24.00 29.44 5.00
5990 97.7964 1.023074 31.00 29.42 6.00
5991 97.8111 1.022960 36.00 29.21 6.00
5992 97.8257 1.022846 32.00 28.86 6.00
5993 97.8404 1.022731 34.00 28.48 6.00
5994 97.8551 1.022617 29.00 28.13 5.00
5995 97.8698 1.022503 28.00 27.84 5.00
5996 97.8844 1.022389 21.00 27.61 5.00
5997 97.8991 1.022275 33.00 27.53 6.00
5998 97.9138 1.022161 41.00 27.40 6.00
5999 97.9284 1.022047 27.00 27.30 5.00
6000 97.9431 1.021934 26.00 27.22 5.00
6001 97.9578 1.021820 21.00 27.15 5.00
6002 97.9724 1.021706 23.00 27.10 5.00
6003 97.9871 1.021592 20.00 27.06 4.00
6004 98.0018 1.021479 33.00 27.03 6.00
6005 98.0164 1.021365 25.00 27.03 5.00
6006 98.0311 1.021251 17.00 27.05 4.00
6007 98.0458 1.021138 27.00 27.09 5.00
6008 98.0604 1.021024 24.00 27.18 5.00
6009 98.0751 1.020911 28.00 27.29 5.00
6010 98.0898 1.020797 30.00 27.43 5.00
6011 98.1044 1.020684 24.00 27.56 5.00
6012 98.1191 1.020571 26.00 27.64 5.00
6013 98.1338 1.020457 24.00 27.66 5.00
6014 98.1485 1.020344 28.00 27.64 5.00
6015 98.1631 1.020231 32.00 27.59 6.00
6016 98.1778 1.020118 29.00 27.59 5.00
6017 98.1924 1.020005 29.00 27.70 5.00
6018 98.2071 1.019891 29.00 27.99 5.00
6019 98.2218 1.019778 27.00 28.36 5.00
6020 98.2364 1.019665 32.00 28.63 6.00
6021 98.2511 1.019553 29.00 28.94 5.00
6022 98.2658 1.019439 27.00 29.32 5.00
6023 98.2805 1.019327 27.00 29.79 5.00
6024 98.2951 1.019214 34.00 30.34 6.00
6025 98.3098 1.019101 25.00 31.03 5.00
6026 98.3245 1.018988 32.00 31.89 6.00
6027 98.3391 1.018876 34.00 33.00 6.00
6028 98.3538 1.018763 40.00 34.47 6.00
6029 98.3685 1.018650 43.00 36.53 7.00
6030 98.3831 1.018538 37.00 39.54 6.00
6031 98.3978 1.018425 51.00 44.00 7.00
6032 98.4125 1.018313 59.00 50.46 8.00
6033 98.4271 1.018200 66.00 59.09 8.00
6034 98.4418 1.018088 81.00 69.11 9.00
6035 98.4565 1.017975 94.00 78.32 10.00
6036 98.4711 1.017863 100.00 83.68 10.00
6037 98.4858 1.017751 98.00 83.20 10.00
6038 98.5005 1.017638 77.00 77.48 9.00
6039 98.5151 1.017526 72.00 69.07 8.00
6040 98.5298 1.017414 66.00 60.56 8.00
6041 98.5445 1.017302 70.00 53.40 8.00
6042 98.5591 1.017190 47.00 47.94 7.00
6043 98.5738 1.017078 48.00 44.02 7.00
6044 98.5885 1.016966 43.00 41.27 7.00
6045 98.6031 1.016854 41.00 39.33 6.00
6046 98.6178 1.016742 54.00 37.94 7.00
6047 98.6325 1.016630 38.00 36.95 6.00
6048 98.6472 1.016518 45.00 36.27 7.00
6049 98.6618 1.016406 48.00 35.87 7.00
6050 98.6765 1.016295 29.00 35.75 5.00
6051 98.6911 1.016183 48.00 35.95 7.00
6052 98.7058 1.016071 31.00 36.58 6.00
6053 98.7205 1.015960 43.00 37.81 7.00
6054 98.7352 1.015848 54.00 39.83 7.00
6055 98.7498 1.015736 42.00 42.79 6.00
6056 98.7645 1.015625 62.00 46.54 8.00
6057 98.7792 1.015513 63.00 50.48 8.00
6058 98.7938 1.015402 60.00 53.52 8.00
6059 98.8085 1.015291 70.00 54.68 8.00
6060 98.8232 1.015179 60.00 53.54 8.00
6061 98.8378 1.015068 48.00 50.53 7.00
6062 98.8525 1.014957 43.00 46.60 7.00
6063 98.8672 1.014845 46.00 42.70 7.00
6064 98.8818 1.014734 49.00 39.39 7.00
6065 98.8965 1.014623 45.00 36.83 7.00
6066 98.9112 1.014512 50.00 34.94 7.00
6067 98.9258 1.014401 45.00 33.57 7.00
6068 98.9405 1.014290 35.00 32.54 6.00
6069 98.9552 1.014179 41.00 31.74 6.00
6070 98.9698 1.014068 41.00 31.09 6.00
6071 98.9845 1.013957 24.00 30.57 5.00
6072 98.9992 1.013846 31.00 30.13 6.00
6073 99.0138 1.013735 38.00 29.92 6.00
6074 99.0285 1.013625 34.00 29.87 6.00
6075 99.0432 1.013514 28.00 29.87 5.00
6076 99.0579 1.013403 34.00 29.79 6.00
6077 99.0725 1.013292 30.00 30.31 5.00
6078 99.0872 1.013182 31.00 30.48 6.00
6079 99.1019 1.013071 36.00 30.69 6.00
6080 99.1165 1.012961 36.00 30.89 6.00
6081 99.1312 1.012850 41.00 31.08 6.00
6082 99.1459 1.012740 39.00 31.32 6.00
6083 99.1605 1.012630 35.00 31.62 6.00
6084 99.1752 1.012519 27.00 31.96 5.00
6085 99.1899 1.012409 36.00 32.33 6.00
6086 99.2045 1.012298 39.00 32.72 6.00
6087 99.2192 1.012188 29.00 33.13 5.00
6088 99.2339 1.012078 35.00 33.56 6.00
6089 99.2485 1.011968 42.00 34.03 6.00
6090 99.2632 1.011858 32.00 34.53 6.00
6091 99.2779 1.011747 34.00 35.07 6.00
6092 99.2925 1.011638 38.00 35.67 6.00
6093 99.3072 1.011528 39.00 36.31 6.00
6094 99.3219 1.011418 34.00 37.03 6.00
6095 99.3365 1.011308 43.00 37.84 7.00
6096 99.3512 1.011198 36.00 38.79 6.00
6097 99.3659 1.011088 45.00 40.09 7.00
6098 99.3805 1.010978 41.00 41.96 6.00
6099 99.3952 1.010868 44.00 43.98 7.00
6100 99.4099 1.010759 40.00 45.97 6.00
6101 99.4246 1.010649 44.00 47.63 7.00
6102 99.4392 1.010539 37.00 49.34 6.00
6103 99.4539 1.010430 53.00 51.17 7.00
6104 99.4686 1.010320 48.00 53.18 7.00
6105 99.4832 1.010211 53.00 55.42 7.00
6106 99.4979 1.010101 49.00 58.03 7.00
6107 99.5126 1.009992 61.00 61.22 8.00
6108 99.5272 1.009882 56.00 65.35 7.00
6109 99.5419 1.009773 59.00 71.08 8.00
6110 99.5566 1.009664 78.00 79.49 9.00
6111 99.5712 1.009554 78.00 92.31 9.00
6112 99.5859 1.009445 104.00 111.65 10.00
6113 99.6006 1.009336 149.00 139.18 12.00
6114 99.6152 1.009227 167.00 174.10 13.00
6115 99.6299 1.009118 244.00 210.95 16.00
6116 99.6446 1.009009 263.00 239.46 16.00
6117 99.6592 1.008900 282.00 249.13 17.00
6118 99.6739 1.008791 277.00 236.40 17.00
6119 99.6886 1.008682 219.00 207.46 15.00
6120 99.7032 1.008573 183.00 172.83 14.00
6121 99.7179 1.008464 148.00 140.98 12.00
6122 99.7326 1.008355 125.00 115.62 11.00
6123 99.7473 1.008246 79.00 97.11 9.00
6124 99.7619 1.008137 83.00 84.34 9.00
6125 99.7766 1.008029 61.00 75.84 8.00
6126 99.7912 1.007920 65.00 70.26 8.00
6127 99.8059 1.007811 54.00 66.65 7.00
6128 99.8206 1.007703 60.00 64.42 8.00
6129 99.8353 1.007594 49.00 63.22 7.00
6130 99.8499 1.007486 52.00 62.90 7.00
6131 99.8646 1.007377 51.00 63.48 7.00
6132 99.8793 1.007269 60.00 65.13 8.00
6133 99.8939 1.007160 48.00 68.27 7.00
6134 99.9086 1.007052 60.00 73.54 8.00
6135 99.9233 1.006944 79.00 81.71 9.00
6136 99.9379 1.006835 63.00 93.30 8.00
6137 99.9526 1.006727 114.00 107.82 11.00
loop_
_refln_index_h
_refln_index_k
_refln_index_l
_refln_index_m_1
_refln_F_squared_calc
_refln_F_squared_meas
_refln_F_squared_sigma
_refln_observed_status
_refln_d_spacing
0 0 0 1 7.20 10.20 5.29 < 8.354146
1 1 0 -1 2164.64 2146.38 43.65 o 4.419571
0 0 1 1 2742.96 2749.41 54.15 o 4.270788
0 2 0 -1 2281.57 2271.26 45.45 o 4.196438
1 1 0 0 6207.10 6415.16 128.04 o 3.541718
1 1 1 -1 760.48 785.06 19.05 o 3.302403
0 2 1 -1 294.42 291.50 15.76 o 3.206134
1 0 1 1 0.46 0.34 0.33 < 3.123387
1 1 1 0 13144.84 13150.53 248.25 o 2.884130
0 2 0 0 3660.29 3683.45 96.92 o 2.793309
1 1 0 1 1391.91 1403.14 36.74 o 2.702683
1 2 1 -1 0.11 0.07 0.07 < 2.626463
0 0 2 0 11128.14 10666.72 234.09 o 2.484602
0 2 1 0 7811.67 7533.69 157.39 o 2.434971
0 0 2 1 1.15 1.16 0.06 o 2.381508
1 1 1 1 434.55 443.89 19.46 o 2.374237
2 0 0 0 7915.24 7917.53 189.26 o 2.289819
2 0 0 1 3.22 2.91 0.46 o 2.208367
1 0 2 0 1100.42 1115.44 43.83 o 2.183898
1 1 2 -1 1026.48 1119.60 31.28 o 2.165813
1 2 1 0 1021.55 1083.70 33.87 o 2.149964
0 2 2 -1 1101.78 1112.40 26.72 o 2.137968
1 3 0 -1 34.08 32.69 1.40 o 2.123259
1 0 2 1 1.27 0.84 0.22 o 2.112896
0 2 0 1 1091.60 896.11 78.44 o 2.093367
2 1 1 -1 4.09 2.00 1.04 < 2.064010
1 1 2 0 3121.06 3064.96 72.03 o 2.034007
2 0 1 1 1547.62 1579.34 34.57 o 2.018056
2 2 0 -1 1313.88 1407.27 34.72 o 2.010050
1 3 1 -1 1311.81 1252.71 38.78 o 1.952493
2 1 1 0 32.90 32.80 1.58 o 1.948986
1 2 2 -1 0.11 0.10 0.00 o 1.937260
0 2 1 1 292.80 228.77 17.43 o 1.929172
2 2 1 -1 227.00 218.25 5.99 o 1.863378
0 2 2 0 3065.23 3001.95 92.49 o 1.856466
1 1 2 1 1199.94 1069.68 37.49 o 1.829125
1 2 1 1 7.01 7.03 0.22 o 1.777868
2 2 0 0 3146.45 3204.44 102.37 o 1.770859
2 1 1 1 18.99 18.97 0.58 o 1.766553
1 3 0 0 11147.52 10925.77 249.46 o 1.725044
1 2 2 0 6.98 6.90 0.20 o 1.720479
2 0 2 0 14076.79 14297.46 318.69 o 1.683802
0 4 0 -1 774.84 775.30 14.57 o 1.677020
2 1 2 -1 25.70 25.59 0.55 o 1.675471
2 2 1 0 10626.32 10682.16 224.99 o 1.668102
2 0 2 1 6.36 8.14 1.90 o 1.650609
1 3 1 0 0.89 0.65 0.25 o 1.629642
0 0 3 1 1252.12 1291.43 73.84 o 1.624773
1 3 2 -1 28.89 25.95 2.21 o 1.614151
2 1 2 0 39.42 22.24 8.51 < 1.612168
0 2 2 1 1033.25 884.60 59.15 o 1.600900
0 4 1 -1 443.02 417.13 32.75 o 1.588972
2 3 1 -1 31.05 26.27 1.80 o 1.570661
2 2 2 -1 1206.16 1039.50 44.87 o 1.562699
1 1 3 -1 353.13 317.91 18.00 o 1.551045
2 2 0 1 1287.16 1122.89 54.71 o 1.545026
0 2 3 -1 208.10 172.78 10.78 o 1.540721
1 0 3 1 13.33 7.84 2.72 < 1.531258
3 1 0 -1 519.20 506.08 78.16 o 1.520330
1 2 2 1 13.68 14.95 1.80 o 1.511225
2 1 2 1 4.24 4.07 0.10 o 1.504258
1 4 1 -1 16.48 15.88 0.38 o 1.501180
1 1 3 0 7026.97 6880.13 160.75 o 1.500418
2 2 1 1 339.18 373.59 15.30 o 1.475358
3 1 0 0 1594.33 1787.62 87.86 o 1.472561
1 2 3 -1 0.05 0.05 0.01 o 1.460295
3 1 1 -1 335.00 329.24 22.42 o 1.453809
1 3 0 1 16.75 16.88 0.54 o 1.444982
2 2 2 0 1958.69 1917.88 69.73 o 1.442065
3 0 1 1 1.23 1.23 0.04 o 1.437477
0 2 3 0 10227.37 10008.14 263.59 o 1.424740
1 3 2 0 7523.77 7947.82 186.36 o 1.416999
1 1 3 1 355.70 360.97 7.10 o 1.412269
3 1 1 0 6944.44 6914.78 157.76 o 1.411873
0 4 0 0 4391.53 4430.18 219.71 o 1.396654
0 4 2 -1 528.63 470.89 14.80 o 1.390018
3 1 0 1 1080.32 925.09 32.65 o 1.388965
1 3 1 1 1167.33 986.58 35.32 o 1.387510
2 3 1 0 32.34 29.93 1.88 o 1.387305
3 2 1 -1 4.54 4.32 0.37 o 1.378289
2 3 2 -1 0.63 0.61 0.06 o 1.377711
1 2 3 0 0.89 1.24 1.36 < 1.360426
2 4 0 -1 548.42 360.93 52.10 o 1.352972
0 4 1 0 5300.17 5345.09 182.51 o 1.344556
2 1 3 -1 0.84 0.78 0.04 o 1.337845
3 1 1 1 357.85 333.78 12.71 o 1.337692
1 4 2 -1 0.99 0.82 0.06 o 1.330100
2 0 3 1 1115.37 1037.80 55.56 o 1.325085
2 2 2 1 825.35 871.53 37.48 o 1.312039
1 3 3 -1 1046.57 1097.21 40.86 o 1.305999
2 4 1 -1 408.56 436.11 15.13 o 1.305449
2 1 3 0 1.95 1.97 0.12 o 1.304948
3 0 2 0 188.05 216.89 18.45 o 1.300665
0 2 3 1 270.08 285.71 11.36 o 1.298950
3 1 2 -1 896.88 958.11 39.39 o 1.296814
3 2 1 0 228.61 245.67 19.28 o 1.293388
1 4 1 0 14.24 19.09 2.57 o 1.290104
3 3 0 -1 30.49 34.93 2.50 o 1.287504
3 0 2 1 7.80 9.33 1.48 o 1.285182
2 2 3 -1 166.32 180.38 47.72 o 1.278294
3 1 2 0 2078.73 1972.29 80.10 o 1.266786
1 2 3 1 0.03 0.02 0.00 o 1.249656
1 3 2 1 1.99 1.56 0.11 o 1.249100
2 3 2 0 9.88 5.56 1.40 o 1.248950
3 3 1 -1 1074.60 1030.54 41.02 o 1.246349
2 1 3 1 0.82 0.79 0.04 o 1.245707
3 2 2 -1 2.16 2.16 0.08 o 1.242359
0 0 4 0 4611.87 4987.79 223.65 o 1.242301
1 5 0 -1 860.11 846.44 30.19 o 1.241530
0 0 4 1 0.71 0.49 0.42 < 1.228789
2 3 1 1 3.64 2.95 2.22 < 1.228617
0 4 2 0 797.71 887.66 94.47 o 1.217485
3 1 2 1 666.34 788.01 25.37 o 1.212382
2 2 3 0 2401.89 2864.41 102.02 o 1.209694
1 5 1 -1 60.55 69.77 2.17 o 1.204505
1 0 4 0 243.94 120.00 40.90 < 1.198971
3 2 1 1 13.38 7.79 0.87 o 1.197098
0 4 0 1 720.98 425.52 37.65 o 1.196605
1 1 4 -1 526.37 272.36 32.21 o 1.195952
1 3 3 0 13.35 7.28 1.44 o 1.194783
2 4 0 0 454.09 297.19 33.64 o 1.192360
0 2 4 -1 773.88 456.35 41.67 o 1.191200
2 4 2 -1 420.23 257.67 21.66 o 1.188223
1 0 4 1 0.30 0.18 0.03 o 1.186810
3 3 0 0 5112.13 5132.33 197.32 o 1.180573
3 2 2 0 2.71 2.81 0.15 o 1.179106
0 4 3 -1 426.12 423.30 13.41 o 1.178475
1 4 2 0 222.68 223.27 13.50 o 1.176617
1 1 4 0 1267.00 1422.34 75.80 o 1.172277
2 3 3 -1 0.78 0.83 0.04 o 1.170947
0 4 1 1 362.37 401.39 12.96 o 1.163351
2 4 1 0 3480.43 3954.95 131.16 o 1.159449
1 2 4 -1 4.52 5.00 0.46 o 1.152840
3 3 1 0 17.83 15.33 18.18 < 1.148602
4 0 0 0 7806.61 8431.10 370.56 o 1.144910
3 3 2 -1 18.14 19.75 0.71 o 1.143139
1 4 3 -1 5.63 6.10 0.25 o 1.141293
0 2 4 0 1232.47 1484.31 124.21 o 1.135104
4 0 0 1 29.17 31.42 2.43 o 1.134307
2 2 3 1 112.05 103.55 8.15 o 1.129822
2 3 2 1 2.10 1.94 0.18 o 1.129411
1 1 4 1 594.45 530.14 49.37 o 1.128766
1 4 1 1 6.21 5.79 0.55 o 1.127540
3 1 3 -1 295.71 157.40 54.11 < 1.120056
4 1 1 -1 1.52 1.08 0.24 o 1.113246
3 0 3 1 1.57 1.08 0.26 o 1.112536
1 5 2 -1 502.22 340.45 39.36 o 1.110596
4 0 1 1 910.92 548.18 44.67 o 1.105862
3 2 2 1 8.38 6.68 0.35 o 1.104782
4 2 0 -1 594.16 500.42 19.45 o 1.104539
1 2 4 0 2.76 2.48 0.14 o 1.101765
3 4 1 -1 1.24 1.13 0.04 o 1.100839
3 1 3 0 3105.66 3022.07 114.41 o 1.100538
2 5 1 -1 0.16 0.17 0.01 o 1.096125
4 1 1 0 29.22 33.93 5.48 o 1.094076
2 0 4 0 5567.41 6114.09 231.68 o 1.091949
2 1 4 -1 7.62 8.53 0.31 o 1.089667
1 3 3 1 650.15 737.32 21.52 o 1.088882
2 3 3 0 0.11 0.12 0.01 o 1.088783
1 5 0 0 764.47 1104.18 98.77 o 1.085484
3 2 3 -1 0.24 0.34 0.03 o 1.084408
2 0 4 1 2.45 3.51 0.31 o 1.082739
4 2 1 -1 155.64 163.95 7.78 o 1.078224
3 3 0 1 0.24 0.26 0.02 o 1.078093
0 4 2 1 403.00 430.37 19.27 o 1.078089
2 4 2 0 1609.93 1741.11 86.20 o 1.074982
1 3 4 -1 16.74 18.73 0.79 o 1.072252
2 1 4 0 8.78 11.20 0.96 o 1.071670
0 2 4 1 676.19 704.37 19.60 o 1.068341
0 4 3 0 2481.77 2717.51 104.58 o 1.067748
3 3 2 0 4596.08 4765.12 145.57 o 1.066320
3 1 3 1 100.52 96.67 2.36 o 1.064300
2 4 0 1 312.53 280.31 7.52 o 1.060527
1 5 1 0 2809.74 2751.80 108.18 o 1.060477
4 2 0 0 1094.97 986.00 46.33 o 1.059376
4 1 1 1 12.65 11.48 0.42 o 1.058452
2 2 4 -1 435.17 367.96 15.19 o 1.056759
3 3 1 1 640.54 541.15 29.72 o 1.053582
1 4 2 1 7.16 5.27 0.88 o 1.049404
0 6 0 -1 105.17 56.19 16.06 o 1.047895
2 4 3 -1 192.55 96.41 32.68 < 1.047844
3 2 3 0 1.21 1.65 0.31 o 1.041576
1 2 4 1 0.34 0.33 0.02 o 1.040406
1 4 3 0 0.47 0.47 0.02 o 1.039859
4 0 2 0 3867.24 3820.52 181.83 o 1.039822
2 1 4 1 1.94 1.80 0.06 o 1.038125
4 1 2 -1 12.03 11.17 0.40 o 1.037851
2 4 1 1 169.06 158.68 4.40 o 1.037170
4 2 1 0 2773.34 2510.13 95.51 o 1.036093
4 0 2 1 1.02 1.04 0.07 o 1.031860
3 4 2 -1 1.09 1.04 0.52 < 1.027776
0 6 1 -1 427.28 379.14 141.75 < 1.025345
2 5 2 -1 11.90 10.31 4.54 < 1.023937
4 1 2 0 19.64 18.54 14.66 < 1.022266
2 2 4 0 832.83 986.49 67.41 o 1.017004
3 3 3 -1 365.84 429.45 22.78 o 1.016534
4 3 1 -1 25.84 26.98 1.15 o 1.011435
4 2 2 -1 523.07 497.49 16.98 o 1.009299
3 4 1 0 1.49 1.53 0.08 o 1.008985
1 3 4 0 3330.76 3432.60 125.51 o 1.008095
2 3 3 1 0.40 0.38 0.01 o 1.006845
loop_
_restr_angle_atom_site_label_1
_restr_angle_site_symmetry_1
_restr_angle_atom_site_label_2
_restr_angle_site_symmetry_2
_restr_angle_atom_site_label_3
_restr_angle_site_symmetry_3
_restr_angle_target
_restr_angle_target_weight_param
? ? ? ? ? ? ? ?
loop_
_restr_distance_atom_site_label_1
_restr_distance_site_symmetry_1
_restr_distance_atom_site_label_2
_restr_distance_site_symmetry_2
_restr_distance_target
_restr_distance_target_weight_param
? ? ? ? ? ?
loop_
_restr_equal_angle_atom_site_label_1
_restr_equal_angle_site_symmetry_1
_restr_equal_angle_atom_site_label_2
_restr_equal_angle_site_symmetry_2
_restr_equal_angle_atom_site_label_3
_restr_equal_angle_site_symmetry_3
_restr_equal_angle_class_class_id
_restr_equal_angle_class_target_weight_param
? ? ? ? ? ? ? ?
loop_
_restr_equal_distance_atom_site_label_1
_restr_equal_distance_site_symmetry_1
_restr_equal_distance_atom_site_label_2
_restr_equal_distance_site_symmetry_2
_restr_equal_distance_class_class_id
_restr_equal_distance_class_target_weight_param
? ? ? ? ? ?
loop_
_restr_equal_torsion_atom_site_label_1
_restr_equal_torsion_site_symmetry_1
_restr_equal_torsion_atom_site_label_2
_restr_equal_torsion_site_symmetry_2
_restr_equal_torsion_atom_site_label_3
_restr_equal_torsion_site_symmetry_3
_restr_equal_torsion_atom_site_label_4
_restr_equal_torsion_site_symmetry_4
_restr_equal_torsion_class_class_id
_restr_equal_torsion_class_target_weight_param
? ? ? ? ? ? ? ? ? ?
loop_
_restr_torsion_atom_site_label_1
_restr_torsion_site_symmetry_1
_restr_torsion_atom_site_label_2
_restr_torsion_site_symmetry_2
_restr_torsion_atom_site_label_3
_restr_torsion_site_symmetry_3
_restr_torsion_atom_site_label_4
_restr_torsion_site_symmetry_4
_restr_torsion_angle_target
_restr_torsion_weight_param
? ? ? ? ? ? ? ? ? ?
loop_
_jana_atom_site_adp_c_label
_jana_atom_site_adp_c_type_symbol
_jana_atom_site_adp_c_111
_jana_atom_site_adp_c_112
_jana_atom_site_adp_c_113
_jana_atom_site_adp_c_122
_jana_atom_site_adp_c_123
_jana_atom_site_adp_c_133
_jana_atom_site_adp_c_222
_jana_atom_site_adp_c_223
_jana_atom_site_adp_c_233
_jana_atom_site_adp_c_333
? ? ? ? ? ? ? ? ? ? ? ?
loop_
_jana_atom_site_adp_d_label
_jana_atom_site_adp_d_type_symbol
_jana_atom_site_adp_d_1111
_jana_atom_site_adp_d_1112
_jana_atom_site_adp_d_1113
_jana_atom_site_adp_d_1122
_jana_atom_site_adp_d_1123
_jana_atom_site_adp_d_1133
_jana_atom_site_adp_d_1222
_jana_atom_site_adp_d_1223
_jana_atom_site_adp_d_1233
_jana_atom_site_adp_d_1333
_jana_atom_site_adp_d_2222
_jana_atom_site_adp_d_2223
_jana_atom_site_adp_d_2233
_jana_atom_site_adp_d_2333
_jana_atom_site_adp_d_3333
? ? ? ? ? ? ? ? ? ? ? ? ? ? ? ? ?
loop_
_jana_atom_site_adp_e_label
_jana_atom_site_adp_e_type_symbol
_jana_atom_site_adp_e_11111
_jana_atom_site_adp_e_11112
_jana_atom_site_adp_e_11113
_jana_atom_site_adp_e_11122
_jana_atom_site_adp_e_11123
_jana_atom_site_adp_e_11133
_jana_atom_site_adp_e_11222
_jana_atom_site_adp_e_11223
_jana_atom_site_adp_e_11233
_jana_atom_site_adp_e_11333
_jana_atom_site_adp_e_12222
_jana_atom_site_adp_e_12223
_jana_atom_site_adp_e_12233
_jana_atom_site_adp_e_12333
_jana_atom_site_adp_e_13333
_jana_atom_site_adp_e_22222
_jana_atom_site_adp_e_22223
_jana_atom_site_adp_e_22233
_jana_atom_site_adp_e_22333
_jana_atom_site_adp_e_23333
_jana_atom_site_adp_e_33333
? ? ? ? ? ? ? ? ? ? ? ? ? ? ? ? ? ? ? ? ? ? ?
loop_
_jana_atom_site_adp_f_label
_jana_atom_site_adp_f_type_symbol
_jana_atom_site_adp_f_111111
_jana_atom_site_adp_f_111112
_jana_atom_site_adp_f_111113
_jana_atom_site_adp_f_111122
_jana_atom_site_adp_f_111123
_jana_atom_site_adp_f_111133
_jana_atom_site_adp_f_111222
_jana_atom_site_adp_f_111223
_jana_atom_site_adp_f_111233
_jana_atom_site_adp_f_111333
_jana_atom_site_adp_f_112222
_jana_atom_site_adp_f_112223
_jana_atom_site_adp_f_112233
_jana_atom_site_adp_f_112333
_jana_atom_site_adp_f_113333
_jana_atom_site_adp_f_122222
_jana_atom_site_adp_f_122223
_jana_atom_site_adp_f_122233
_jana_atom_site_adp_f_122333
_jana_atom_site_adp_f_123333
_jana_atom_site_adp_f_133333
_jana_atom_site_adp_f_222222
_jana_atom_site_adp_f_222223
_jana_atom_site_adp_f_222233
_jana_atom_site_adp_f_222333
_jana_atom_site_adp_f_223333
_jana_atom_site_adp_f_233333
_jana_atom_site_adp_f_333333
? ? ? ? ? ? ? ? ? ? ? ? ? ? ? ? ? ? ? ? ? ? ? ? ? ? ? ? ? ?
loop_
_jana_atom_site_crenel_ortho_func_id
_jana_atom_site_crenel_ortho_func_c
_jana_atom_site_crenel_ortho_func_w
_jana_atom_site_crenel_ortho_func_eps
? ? ? ?
loop_
_jana_atom_site_occ_fourier_absolute_site_label
_jana_atom_site_occ_fourier_absolute
? ?
loop_
_jana_atom_site_occ_legendre_atom_site_label
_jana_atom_site_occ_legendre_param_order
_jana_atom_site_occ_legendre_param_coeff
? ? ?
loop_
_jana_atom_site_occ_xharm_atom_site_label
_jana_atom_site_occ_xharm_param_order
_jana_atom_site_occ_xharm_param_coeff
? ? ?
loop_
_jana_atom_site_occ_crenel_ortho_atom_site_label
_jana_atom_site_occ_crenel_ortho_param_order
_jana_atom_site_occ_crenel_ortho_id
_jana_atom_site_occ_crenel_ortho_param_coeff
? ? ? ?
loop_
_jana_atom_site_displace_legendre_atom_site_label
_jana_atom_site_displace_legendre_axis
_jana_atom_site_displace_legendre_param_order
_jana_atom_site_displace_legendre_param_coeff
? ? ? ?
loop_
_jana_atom_site_displace_xharm_site_label
_jana_atom_site_displace_xharm_axis
_jana_atom_site_displace_xharm_param_order
_jana_atom_site_displace_xharm_param_coeff
? ? ? ?
loop_
_jana_atom_site_displace_crenel_ortho_atom_site_label
_jana_atom_site_displace_crenel_ortho_axis
_jana_atom_site_displace_crenel_ortho_id
_jana_atom_site_displace_crenel_ortho_param_order
_jana_atom_site_displace_crenel_ortho_param_coeff
? ? ? ? ?
loop_
_jana_atom_site_u_legendre_atom_site_label
_jana_atom_site_u_legendre_tens_elem
_jana_atom_site_u_legendre_param_order
_jana_atom_site_u_legendre_param_coeff
? ? ? ?
loop_
_jana_atom_site_u_xharm_atom_site_label
_jana_atom_site_u_xharm_tens_elem
_jana_atom_site_u_xharm_param_order
_jana_atom_site_u_xharm_param_coeff
? ? ? ?
loop_
_jana_atom_site_u_crenel_ortho_atom_site_label
_jana_atom_site_u_crenel_ortho_tens_elem
_jana_atom_site_u_crenel_ortho_id
_jana_atom_site_u_crenel_ortho_param_order
_jana_atom_site_u_crenel_ortho_param_coeff
? ? ? ? ?
loop_
_jana_atom_site_adp_c_fourier_atom_site_label
_jana_atom_site_adp_c_fourier_tens_elem
_jana_atom_site_adp_c_fourier_wave_vector_seq_id
_jana_atom_site_adp_c_fourier_param_cos
_jana_atom_site_adp_c_fourier_param_sin
? ? ? ? ?
loop_
_jana_atom_site_adp_d_fourier_atom_site_label
_jana_atom_site_adp_d_fourier_tens_elem
_jana_atom_site_adp_d_fourier_wave_vector_seq_id
_jana_atom_site_adp_d_fourier_param_cos
_jana_atom_site_adp_d_fourier_param_sin
? ? ? ? ?
loop_
_jana_atom_site_adp_e_fourier_atom_site_label
_jana_atom_site_adp_e_fourier_tens_elem
_jana_atom_site_adp_e_fourier_wave_vector_seq_id
_jana_atom_site_adp_e_fourier_param_cos
_jana_atom_site_adp_e_fourier_param_sin
? ? ? ? ?
loop_
_jana_atom_site_adp_f_fourier_atom_site_label
_jana_atom_site_adp_f_fourier_tens_elem
_jana_atom_site_adp_f_fourier_wave_vector_seq_id
_jana_atom_site_adp_f_fourier_param_cos
_jana_atom_site_adp_f_fourier_param_sin
? ? ? ? ?
