#------------------------------------------------------------------------------
#$Date: 2022-03-05 01:31:18 +0200 (Sat, 05 Mar 2022) $
#$Revision: 273441 $
#$URL: file:///home/coder/svn-repositories/cod/cif/7/24/45/7244568.cif $
#------------------------------------------------------------------------------
#
# This file is available in the Crystallography Open Database (COD),
# http://www.crystallography.net/
#
# All data on this site have been placed in the public domain by the
# contributors.
#
data_7244568
loop_
_publ_author_name
'Cao, Ming-Yang'
'Hu, Chun-Li'
'Chen, Peng-Fei'
'Wang, Qian'
'Li, Bing-Xuan'
'Lin, Yuan'
'Mao, Jiang-Gao'
_publ_section_title
;
 Cd4REO(BO3)3 (RE = Sm, Eu, Tb): three new cadmium--rare earth oxyborates
 with both good NLO and luminescence properties
;
_journal_name_full               CrystEngComm
_journal_paper_doi               10.1039/D2CE00080F
_journal_year                    2022
_chemical_formula_moiety         '0.5(B6 Cd8 O20 Sm2)'
_chemical_formula_sum            'B3 Cd4 O10 Sm'
_chemical_formula_weight         792.38
_space_group_crystal_system      monoclinic
_space_group_IT_number           8
_space_group_name_Hall           'C -2y'
_space_group_name_H-M_alt        'C 1 m 1'
_atom_sites_solution_primary     iterative
_audit_creation_date             2021-09-29
_audit_creation_method
;
Olex2 1.2-alpha
(compiled 2018.07.26 svn.r3523 for OlexSys, GUI svn.r5532)
;
_audit_update_record
;
2022-01-03 deposited with the CCDC.	2022-02-11 downloaded from the CCDC.
;
_cell_angle_alpha                90
_cell_angle_beta                 100.208(10)
_cell_angle_gamma                90
_cell_formula_units_Z            2
_cell_length_a                   7.9798(8)
_cell_length_b                   15.7654(16)
_cell_length_c                   3.5051(4)
_cell_measurement_reflns_used    2319
_cell_measurement_temperature    293(2)
_cell_measurement_theta_max      29.7950
_cell_measurement_theta_min      2.8550
_cell_volume                     433.98(8)
_computing_molecular_graphics    'Olex2 (Dolomanov et al., 2009)'
_computing_publication_material  'Olex2 (Dolomanov et al., 2009)'
_computing_structure_refinement  'olex2.refine (Bourhis et al., 2015)'
_computing_structure_solution    'olex2.solve (Bourhis et al., 2015)'
_diffrn_ambient_temperature      293(2)
_diffrn_measured_fraction_theta_full 0.998
_diffrn_measured_fraction_theta_max 0.998
_diffrn_measurement_device_type  'multiwire proportional'
_diffrn_measurement_method       'phi and omega scans'
_diffrn_radiation_monochromator  graphite
_diffrn_radiation_type           MoK\a
_diffrn_radiation_wavelength     0.71073
_diffrn_reflns_av_R_equivalents  0.0531
_diffrn_reflns_av_unetI/netI     0.0423
_diffrn_reflns_Laue_measured_fraction_full 0.998
_diffrn_reflns_Laue_measured_fraction_max 0.998
_diffrn_reflns_limit_h_max       10
_diffrn_reflns_limit_h_min       -10
_diffrn_reflns_limit_k_max       20
_diffrn_reflns_limit_k_min       -20
_diffrn_reflns_limit_l_max       4
_diffrn_reflns_limit_l_min       -4
_diffrn_reflns_number            3875
_diffrn_reflns_point_group_measured_fraction_full 0.999
_diffrn_reflns_point_group_measured_fraction_max 0.999
_diffrn_reflns_theta_full        25.242
_diffrn_reflns_theta_max         27.099
_diffrn_reflns_theta_min         2.898
_exptl_absorpt_coefficient_mu    16.344
_exptl_absorpt_correction_T_max  1.00000
_exptl_absorpt_correction_T_min  0.61977
_exptl_absorpt_correction_type   multi-scan
_exptl_absorpt_process_details
;
CrysAlisPro 1.171.39.9f (Rigaku Oxford Diffraction, 2015)
Empirical absorption correction using spherical harmonics,
 implemented in SCALE3 ABSPACK scaling algorithm.
;
_exptl_crystal_colour            yellow
_exptl_crystal_colour_primary    yellow
_exptl_crystal_density_diffrn    6.064
_exptl_crystal_description       block
_exptl_crystal_F_000             698
_exptl_crystal_size_max          0.5
_exptl_crystal_size_mid          0.3
_exptl_crystal_size_min          0.3
_refine_diff_density_max         1.490
_refine_diff_density_min         -1.956
_refine_diff_density_rms         0.276
_refine_ls_abs_structure_details
;
 Refined as an inversion twin.
;
_refine_ls_abs_structure_Flack   0.15(4)
_refine_ls_extinction_coef       0.0105(9)
_refine_ls_extinction_expression Fc^*^=kFc[1+0.001xFc^2^\l^3^/sin(2\q)]^-1/4^
_refine_ls_extinction_method     'SHELXL-2014/7 (Sheldrick 2014'
_refine_ls_goodness_of_fit_ref   1.025
_refine_ls_hydrogen_treatment    undef
_refine_ls_matrix_type           full
_refine_ls_number_parameters     90
_refine_ls_number_reflns         997
_refine_ls_number_restraints     20
_refine_ls_restrained_S_all      1.015
_refine_ls_R_factor_all          0.0301
_refine_ls_R_factor_gt           0.0296
_refine_ls_shift/su_max          0.000
_refine_ls_shift/su_mean         0.000
_refine_ls_structure_factor_coef Fsqd
_refine_ls_weighting_details
'w=1/[\s^2^(Fo^2^)+(0.0396P)^2^+10.5974P] where P=(Fo^2^+2Fc^2^)/3'
_refine_ls_weighting_scheme      calc
_refine_ls_wR_factor_gt          0.0731
_refine_ls_wR_factor_ref         0.0735
_reflns_Friedel_coverage         0.982
_reflns_Friedel_fraction_full    1.000
_reflns_Friedel_fraction_max     1.000
_reflns_number_gt                983
_reflns_number_total             997
_reflns_threshold_expression     'I > 2\s(I)'
_cod_data_source_file            d2ce00080f1.cif
_cod_data_source_block           Cd4SmO(BO3)3
_cod_database_code               7244568
_shelx_shelxl_version_number     2014/7
_shelx_space_group_comment
;
The symmetry employed for this shelxl refinement is uniquely defined
by the following loop, which should always be used as a source of
symmetry information in preference to the above space-group names.
They are only intended as comments.
;
_shelx_estimated_absorpt_t_max   0.084
_shelx_estimated_absorpt_t_min   0.045
_olex2_refinement_description
;
1. Twinned data refinement
 Scales: 0.85(4)
 0.15(4)
2. Uiso/Uaniso restraints and constraints
Uanis(O4) \\sim Ueq, Uanis(B2) \\sim Ueq, Uanis(B1) \\sim Ueq: with sigma of
0.003 and sigma for terminal atoms of 0.006
;
_shelx_res_file
;
    C.res created by SHELXL-2014/7


TITL SmCd4O(BO3)3 in Cm
REM Old TITL C in Cm
REM SHELXT solution in Cm
REM R1 0.053, Rweak 0.042, Alpha 0.001, Orientation as input
REM Flack x = 0.190 ( 0.022 ) from Parsons' quotients
REM Formula found by SHELXT: B2 O8 Cd4 Sm
CELL 0.71073 7.9798 15.7654 3.5051 90 100.208 90
ZERR 2 0.0008 0.0016 0.0004 0 0.01 0
LATT -7
SYMM +X,-Y,+Z
SFAC B Cd Sm O
UNIT 6 8 2 20
ISOR 0.003 0.006 O4 B2 B1
omit  0   2   0
L.S. 10 0 0
PLAN  10
SIZE 0.3 0.3 0.5
list 4
fmap 2 53
acta
TWIN -1 0 0 0 -1 0 0 0 -1 2
REM <olex2.extras>
REM <HklSrc "%.\\A.hkl">
REM </olex2.extras>
eqiv $1 x, y, -1+z
bind cd1 O2_$1
eqiv $2 0.5+x, 0.5-y, z
bind cd1 O2_$2
bind cd1 o4
WGHT    0.039600   10.597400
EXTI    0.010472
BASF   0.15497
FVAR       0.32745
SM1   3    0.848369    0.500000    0.495705    10.50000    0.01285    0.02641 =
         0.01630    0.00000    0.00264    0.00000
CD1   2    0.617386    0.178275    0.144217    11.00000    0.01096    0.01250 =
         0.01054   -0.00079    0.00406    0.00131
CD2   2    0.498343    0.387666    0.835915    11.00000    0.00963    0.01002 =
         0.01160    0.00018    0.00152   -0.00113
B1    1    0.307104    0.196305    0.593595    11.00000    0.01040    0.00844 =
         0.00951   -0.00091    0.00179    0.00168
B2    1    0.732250    0.000000    0.209728    10.50000    0.01047    0.01085 =
         0.00837    0.00000    0.00363    0.00000
O1    4    0.147317    0.176571    0.389610    11.00000    0.02074    0.04778 =
         0.02110   -0.00842    0.00624   -0.01891
O2    4    0.323721    0.271272    0.796332    11.00000    0.03880    0.02263 =
         0.02907   -0.01293    0.02427   -0.01278
O3    4    0.444236    0.145493    0.584389    11.00000    0.01849    0.02285 =
         0.02314    0.00123    0.00704    0.00892
O4    4    0.558013    0.000000    0.092321    10.50000    0.01837    0.02095 =
         0.01935    0.00000    0.00315    0.00000
O5    4    0.815675    0.075176    0.265883    11.00000    0.02216    0.00857 =
         0.00537   -0.00066    0.00025   -0.00670
O6    4    0.672398    0.500000    0.916980    10.50000    0.01266    0.02158 =
         0.01136    0.00000    0.00177    0.00000
HKLF 4

REM  SmCd4O(BO3)3 in Cm
REM R1 =  0.0296 for     983 Fo > 4sig(Fo)  and  0.0301 for all     997 data
REM     90 parameters refined using     20 restraints

END

WGHT      0.0395     10.6271

REM Highest difference peak  1.490,  deepest hole -1.956,  1-sigma level  0.276
Q1    1   0.7249  0.5000  0.5135  10.50000  0.05    1.49
Q2    1   0.7857  0.5000  0.7495  10.50000  0.05    1.09
Q3    1   0.7155  0.1680  0.1392  11.00000  0.05    1.01
Q4    1   0.3822  0.3849  0.8548  11.00000  0.05    1.01
Q5    1   0.9648  0.5000  0.4465  10.50000  0.05    0.95
Q6    1   0.5573  0.3932  1.1586  11.00000  0.05    0.86
Q7    1   0.6283  0.1769  0.3184  11.00000  0.05    0.86
Q8    1   0.5514  0.1798  0.1914  11.00000  0.05    0.84
Q9    1   0.9142  0.5000  0.2485  10.50000  0.05    0.83
Q10   1   0.6404  0.5000  0.7482  10.50000  0.05    0.83
;
_shelx_res_checksum              36712
_shelx_hkl_file
;
 -10   2   1   31.84   14.42
 -10  -4   1  312.18   44.30
 -10   4   1  306.82   48.55
  -9   1   0  315.86   47.39
  -9  -1   0  389.24   47.01
  -9   1   1  124.91   28.58
  -9  -1   1  156.50   26.10
  -9   1   2  976.45   78.96
  -9  -1   2 1026.46   77.56
  -9   3  -1  314.67   55.30
  -9   3   0  691.71   71.74
  -9  -3   1 1239.83   75.11
  -9   3   1 1009.57   84.77
  -9  -3   1  994.10   79.60
  -9   3   2  616.47   64.62
  -9  -3   2  621.39   59.66
  -9  -3   2  681.11   56.29
  -9   5  -1  393.13   68.11
  -9  -5   0  559.33   52.93
  -9   5   0  631.65   75.36
  -9  -5   1 1691.46  110.23
  -9   5   1 1565.64  117.11
  -9  -5   2  198.82   35.77
  -9   5   2  211.20   39.70
  -9   7   0  268.65   54.16
  -9  -7   0  306.99   38.73
  -9   7   1  118.22   33.23
  -9  -7   1   90.79   21.63
  -9  -7   2  298.72   43.82
  -9   7   2  245.05   47.81
  -9  -9   0 1788.34  116.39
  -9   9   0 1606.92  144.52
  -9  -9   0 1969.72  122.53
  -9   9   1  213.91   47.83
  -9  -9   1  149.36   29.80
  -9  -9   1  195.06   29.62
  -8   0   0 2913.46  165.24
  -8   0   1  514.66   47.40
  -8   0   2  533.60   50.98
  -8   0   2  472.41   47.76
  -8   0   3 1977.85  127.88
  -8   2  -2  559.97   74.78
  -8   2  -1  136.64   40.68
  -8   2  -1  200.55   33.03
  -8  -2   0  196.00   30.31
  -8   2   0  158.01   32.08
  -8  -2   1 1754.32  110.07
  -8   2   1 1714.89  112.31
  -8  -2   1 1899.55  104.99
  -8  -2   2  131.16   25.67
  -8  -2   2   81.24   21.30
  -8   2   2  124.33   28.62
  -8   2   3  211.38   37.09
  -8  -2   3  239.30   34.81
  -8  -2   3  226.28   32.66
  -8   4  -1 1280.26   98.15
  -8   4  -1 1345.25  119.95
  -8  -4   0  729.44   51.87
  -8  -4   0  749.48   59.46
  -8   4   0  839.67   76.62
  -8  -4   1  453.52   48.38
  -8   4   1  485.42   54.08
  -8  -4   1  534.82   40.53
  -8  -4   2 1298.89   80.42
  -8  -4   2 1239.30   89.28
  -8   4   2 1130.91   90.89
  -8  -4   3  530.18   55.49
  -8   4   3  579.20   64.94
  -8  -4   3  639.49   60.30
  -8   6  -1 1088.77  110.57
  -8   6  -1  953.04   84.26
  -8  -6   0  511.64   47.78
  -8   6   0  350.42   35.94
  -8   6   0  463.75   60.14
  -8   6   1  247.70   45.12
  -8  -6   1  308.22   24.70
  -8  -6   1  298.86   37.71
  -8  -6   2 1560.32   90.88
  -8  -6   2 1517.79  104.66
  -8   6   2 1486.14  113.15
  -8  -6   3  239.69   33.10
  -8   6   3  209.88   41.46
  -8  -6   3  224.83   35.90
  -8   8  -1  151.74   52.88
  -8  -8  -1  149.82   23.83
  -8   8  -1  127.78   32.81
  -8   8   0   72.16   33.24
  -8  -8   0   93.53   22.77
  -8  -8   0  114.39   23.18
  -8   8   1 2302.42  156.32
  -8  -8   1 2340.31  139.06
  -8  -8   1 2573.89  145.33
  -8  -8   2  316.45   37.03
  -8   8   2  322.75   52.79
  -8  -8   2  390.44   47.11
  -8 -10  -1   33.91   11.56
  -8 -10  -1   52.03   18.24
  -8  10  -1   60.83   41.71
  -8 -10   0  619.56   56.60
  -8 -10   0  661.82   60.24
  -8  10   0  721.36   86.83
  -8  10   1  460.21   64.11
  -8 -10   1  494.79   54.31
  -8 -10   1  550.03   52.04
  -8 -10   2   37.95   13.33
  -8  10   2   52.55   28.72
  -8 -10   2   25.18   23.26
  -8  12   0  202.13   53.52
  -8 -12   0  291.02   39.94
  -8 -12   0  220.85   35.09
  -8 -12   1  176.21   33.60
  -8 -12   1  182.48   30.47
  -8  12   1  112.63   39.89
  -7   1  -2  738.40   84.96
  -7   1  -1  683.94   71.53
  -7   1  -1  677.56   65.17
  -7  -1   0  289.11   34.44
  -7   1   0  397.53   43.82
  -7  -1   1 1279.20   87.49
  -7  -1   1 1500.87   87.41
  -7   1   1 1550.64   91.81
  -7  -1   2  940.23   69.95
  -7  -1   2 1001.81   69.95
  -7   1   2  924.81   70.83
  -7   1   3  133.21   27.15
  -7  -1   3  108.05   20.24
  -7  -1   3  145.90   27.33
  -7   3  -2  738.87   83.98
  -7   3  -1 1270.68  111.39
  -7   3  -1 1378.86   98.43
  -7  -3   0  872.36   57.93
  -7   3   0  824.76   70.12
  -7   3   0  839.72   53.64
  -7  -3   0  738.36   57.67
  -7  -3   1 1513.48  100.57
  -7   3   1 1712.91  107.83
  -7  -3   1 1855.28   95.43
  -7  -3   2 1627.83  107.27
  -7  -3   2 1874.20  104.91
  -7   3   2 1823.01  114.54
  -7   3   3   61.71   25.54
  -7  -3   3  110.82   22.88
  -7   5  -2  277.24   49.71
  -7   5  -1  424.74   50.67
  -7   5  -1  536.22   56.35
  -7   5  -1  556.26   71.02
  -7  -5   0 2800.90  147.59
  -7   5   0 2957.55  165.87
  -7  -5   0 2575.69  143.50
  -7   5   0 2715.63  140.32
  -7   5   0 2545.54  139.39
  -7  -5   1  341.24   27.13
  -7  -5   1  232.40   30.95
  -7   5   1  251.98   39.02
  -7  -5   1  280.19   34.94
  -7  -5   2  275.73   36.39
  -7  -5   2  341.46   33.93
  -7   5   2  331.15   43.33
  -7  -5   3 1747.82  117.96
  -7   5   3 2040.19  132.43
  -7   7  -2  106.77   38.65
  -7  -7  -2  154.57   30.13
  -7  -7  -1  368.43   41.13
  -7   7  -1  363.55   48.09
  -7   7  -1  375.39   64.76
  -7  -7  -1  343.75   34.12
  -7  -7   0  184.32   28.85
  -7   7   0  204.80   28.03
  -7   7   0  191.72   27.06
  -7  -7   0  202.50   30.75
  -7   7   0  232.81   43.71
  -7   7   1  374.39   27.79
  -7   7   1  415.91   52.41
  -7  -7   1  390.00   42.65
  -7  -7   1  426.25   26.71
  -7   7   1  313.83   26.46
  -7  -7   1  383.20   39.38
  -7  -7   2  324.17   34.78
  -7   7   2  402.30   50.37
  -7   7   2  317.18   24.14
  -7   7   2  307.17   28.11
  -7  -7   2  463.92   35.83
  -7  -7   2  428.31   45.73
  -7   7   3  111.24   30.59
  -7  -7   3    4.05   13.95
  -7  -9  -2   67.09   25.97
  -7   9  -2   96.40   41.14
  -7  -9  -2   96.76   23.81
  -7  -9  -1 2376.23  127.15
  -7  -9  -1 2483.46  140.16
  -7   9  -1 2108.79  174.17
  -7  -9  -1 2189.64  135.89
  -7   9  -1 2114.39  147.60
  -7   9   0  501.09   64.65
  -7  -9   0  468.65   46.66
  -7  -9   0  503.68   48.39
  -7   9   0  426.89   46.74
  -7   9   1  505.35   41.77
  -7  -9   1  530.57   50.64
  -7   9   1  511.95   64.51
  -7  -9   1  493.08   50.45
  -7  -9   2 1782.48  113.55
  -7  -9   2 2221.00  131.49
  -7   9   2 2112.39  140.67
  -7   9   3  672.87   74.57
  -7  -9   3  694.59   67.38
  -7 -11  -1   14.33    9.35
  -7  11  -1   47.60   21.21
  -7 -11  -1    0.43   10.54
  -7 -11  -1   25.89   16.37
  -7  11  -1   25.51   42.04
  -7 -11   0 1028.33   76.87
  -7  11   0  759.76   69.90
  -7  11   0  871.27   93.85
  -7 -11   0  898.18   70.05
  -7  11   1  622.56   54.33
  -7  11   1  682.79   74.18
  -7 -11   1  738.46   65.96
  -7 -11   1  706.67   61.05
  -7  11   2  178.45   42.13
  -7 -11   2  103.76   22.89
  -7 -11   2  176.33   35.95
  -7  13   0  744.31   92.24
  -7  13   0  584.43   65.76
  -7 -13   0  611.64   57.56
  -7 -13   0  713.64   64.06
  -7  13   1  735.04   66.63
  -7 -13   1  884.80   75.81
  -7 -13   1  864.14   70.82
  -7  13   1  748.71   88.25
  -7 -13   2  289.12   38.76
  -7 -13   2  312.62   46.04
  -7  13   2  350.07   61.00
  -6   0  -3  357.24   71.20
  -6   0  -2  873.95   90.87
  -6   0  -1 2768.06  162.48
  -6   0  -1 2670.90  161.54
  -6   0   0 3304.50  168.81
  -6   0   1 1032.71   66.60
  -6   0   1 1017.93   66.78
  -6   0   2 3617.59  187.10
  -6   0   2 3828.46  191.31
  -6   0   3 1551.99   95.23
  -6   2  -3  657.03   92.21
  -6   2  -2   37.26   30.18
  -6   2  -1  458.77   51.97
  -6   2  -1  450.10   55.86
  -6  -2   0 1662.64   99.69
  -6   2   0 1792.18   97.67
  -6   2   0 2012.57  112.78
  -6  -2   0 1959.60  101.69
  -6  -2   1   17.18   17.20
  -6  -2   1   12.61   11.00
  -6   2   1   20.58   18.49
  -6  -2   2  982.15   68.66
  -6   2   2  904.91   46.54
  -6   2   2 1027.46   47.68
  -6  -2   2 1188.86   71.66
  -6   2   2 1131.13   75.43
  -6  -2   3  539.13   48.49
  -6  -2   3  499.73   42.61
  -6   2   3  565.86   56.92
  -6  -2   4   12.30   11.07
  -6   4  -3  119.45   47.68
  -6  -4  -2 1054.43   86.96
  -6   4  -2  806.30   87.77
  -6   4  -1 1234.70  103.40
  -6   4  -1 1198.03   90.18
  -6   4  -1 1189.52   90.30
  -6  -4   0  641.94   39.13
  -6   4   0  507.27   41.57
  -6   4   0  520.19   42.29
  -6  -4   0  534.15   45.83
  -6   4   0  622.61   56.83
  -6  -4   0  512.76   44.17
  -6  -4   1 1400.96   73.49
  -6  -4   1 1221.27   77.75
  -6   4   1 1387.91   89.75
  -6  -4   1 1285.01   84.11
  -6   4   2 1325.12   70.40
  -6   4   2 1317.39   91.68
  -6   4   2 1350.67   71.10
  -6  -4   2 1375.58   88.35
  -6  -4   3  305.99   32.45
  -6  -4   3  283.87   36.26
  -6   4   3  349.66   44.19
  -6   4   3  288.21   33.93
  -6  -6  -2 1638.50  115.74
  -6   6  -2 1407.29  122.93
  -6   6  -1  273.26   39.49
  -6  -6  -1  305.80   38.12
  -6   6  -1  318.46   41.42
  -6  -6  -1  344.14   37.17
  -6  -6  -1  310.83   30.21
  -6   6  -1  352.80   58.78
  -6  -6   0  276.67   32.42
  -6   6   0  261.77   43.89
  -6   6   0  258.45   29.25
  -6   6   0  225.05   27.54
  -6  -6   0  294.31   33.57
  -6  -6   1 3118.59  130.99
  -6   6   1 2826.67  156.94
  -6   6   1 2589.39  131.03
  -6  -6   1 2840.98  150.39
  -6  -6   1 2623.91  143.27
  -6   6   1 2459.01  130.09
  -6   6   2  149.55   20.21
  -6   6   2  139.85   31.05
  -6  -6   2  138.68   28.13
  -6   6   2  158.24   19.12
  -6  -6   2  112.48   18.81
  -6   6   2  125.48   19.21
  -6   6   3   86.08   22.02
  -6  -6   3   84.19   24.24
  -6   6   3  105.82   31.85
  -6  -6   3   76.37   19.77
  -6  -8  -2  286.15   46.82
  -6   8  -2  229.72   48.59
  -6  -8  -2  268.27   35.77
  -6   8  -1  366.51   64.88
  -6  -8  -1  462.60   45.45
  -6   8  -1  347.71   46.00
  -6  -8  -1  366.44   43.80
  -6  -8  -1  397.69   36.08
  -6  -8   0 2910.75  147.66
  -6   8   0 2943.14  168.30
  -6  -8   0 2720.83  142.58
  -6   8   0 2242.27  139.84
  -6   8   0 2398.20  141.01
  -6  -8   1 1330.37   88.55
  -6   8   1 1117.58   72.83
  -6  -8   1 1375.15   64.29
  -6  -8   1 1198.36   80.85
  -6   8   1 1235.79   93.60
  -6  -8   1 1297.49   73.26
  -6   8   1 1212.74   75.51
  -6   8   2  982.56   82.46
  -6   8   2  888.98   61.79
  -6  -8   2  947.66   65.15
  -6  -8   2  881.38   73.21
  -6   8   3 1265.97   98.66
  -6  -8   3 1382.14   98.17
  -6   8   3 1443.36  109.38
  -6  -8   3 1442.96   91.78
  -6  -8   3 1214.96   76.38
  -6  10  -2  101.36   39.71
  -6 -10  -2   56.30   20.10
  -6 -10  -2   75.73   21.00
  -6 -10  -1  837.64   66.25
  -6 -10  -1  787.55   65.18
  -6  10  -1  686.27   86.61
  -6 -10  -1  779.27   55.94
  -6 -10   0 1136.32   65.48
  -6  10   0 1103.41   96.78
  -6 -10   0 1055.76   74.42
  -6  10   0  877.04   73.72
  -6  10   0  877.35   73.29
  -6 -10   0 1072.71   76.57
  -6 -10   1  116.77    9.36
  -6 -10   1  130.33   10.58
  -6  10   1  118.75   22.34
  -6  10   1  127.08   36.61
  -6 -10   1   72.16   19.80
  -6 -10   1  114.30   27.58
  -6  10   1  106.41   21.94
  -6 -10   2  660.49   63.33
  -6  10   2  705.13   72.70
  -6 -10   2  656.69   53.71
  -6 -10   3  587.68   48.38
  -6  10   3  570.85   69.18
  -6 -10   3  721.67   67.09
  -6  10   3  709.66   75.15
  -6 -12  -1  112.58   22.66
  -6  12  -1   84.41   32.51
  -6 -12  -1  122.39   27.26
  -6 -12  -1  108.73   24.10
  -6  12  -1  123.18   52.36
  -6 -12   0   84.47   22.15
  -6  12   0   61.85   25.08
  -6 -12   0   56.93   18.16
  -6  12   0   61.87   37.27
  -6 -12   1 1760.94  108.53
  -6  12   1 1535.17  103.97
  -6  12   1 1587.42  125.73
  -6 -12   1 1822.76  114.76
  -6  12   2   76.12   29.78
  -6 -12   2  109.06   26.07
  -6 -12   2   69.48   17.97
  -6 -14  -1 1685.92  111.73
  -6  14  -1 1638.26  159.10
  -6 -14  -1 1752.44  111.80
  -6 -14  -1 1660.55  100.83
  -6  14   0  559.74   67.12
  -6 -14   0  795.64   67.01
  -6 -14   0  700.84   63.11
  -6  14   0  640.33   84.99
  -6 -14   1  204.24   33.99
  -6 -14   1  183.06   34.95
  -6  14   1  186.71   33.99
  -6  14   1  230.20   43.65
  -6  14   2 1193.57  108.30
  -6 -14   2 1111.03   84.32
  -6 -14   2 1286.80   97.94
  -6  16   0  142.71   38.55
  -6  16   0  120.81   37.00
  -6 -16   0  161.05   31.36
  -6 -16   0  164.85   32.09
  -6 -16   1  286.87   43.15
  -6 -16   1  274.08   39.41
  -6  16   1  189.52   35.79
  -6  16   1  255.68   56.52
  -5  -1  -3  624.63   87.13
  -5   1  -3  503.78   78.88
  -5   1  -2 1327.28  112.28
  -5  -1  -2 1288.54  112.19
  -5  -1  -1  457.74   51.42
  -5   1  -1  449.58   53.14
  -5   1  -1  428.59   47.58
  -5   1   0 2326.77  121.04
  -5  -1   0 2082.48  113.40
  -5   1   0 2199.17  113.27
  -5  -1   0 2425.88  116.54
  -5   1   1 2230.01  112.88
  -5   1   1 1936.68  108.52
  -5  -1   1 2017.65  110.58
  -5  -1   1 2196.29  108.61
  -5   1   2  159.85   27.06
  -5  -1   2  172.08   17.96
  -5   1   2  164.54   23.59
  -5   1   2  161.00   19.36
  -5  -1   2  176.73   25.27
  -5   1   2  181.48   19.94
  -5  -1   2  212.28   20.61
  -5  -1   3  856.05   60.69
  -5   1   3  785.02   63.93
  -5   1   3  891.48   66.31
  -5   1   3  887.55   58.91
  -5  -1   3  711.44   59.68
  -5  -1   3  851.20   64.27
  -5   1   4  759.01   78.28
  -5  -1   4  823.01   59.62
  -5  -1   4  736.90   72.25
  -5  -3  -3 1287.55  109.05
  -5   3  -3 1008.73  114.30
  -5   3  -2 1130.36   68.54
  -5   3  -2 1175.96  103.48
  -5  -3  -2 1262.11   96.41
  -5   3  -1  172.56   29.72
  -5  -3  -1  153.03   27.08
  -5   3  -1  142.23   29.92
  -5   3  -1  148.27   37.40
  -5   3  -1  148.85   18.67
  -5  -3   0 4114.56  177.47
  -5  -3   0 3681.60  182.49
  -5   3   0 3484.68  179.68
  -5   3   0 3581.56  180.06
  -5  -3   0 3648.32  183.11
  -5  -3   1 1831.33   89.36
  -5  -3   1 1566.89   90.49
  -5   3   1 1799.56  100.87
  -5  -3   1 1664.30   96.80
  -5  -3   2   58.27   15.58
  -5  -3   2   74.94   19.08
  -5   3   2   51.93   22.77
  -5   3   2   67.13   13.34
  -5   3   2   51.52   13.89
  -5  -3   3 2525.30  132.16
  -5  -3   3 2044.08  123.95
  -5   3   3 2251.31  134.27
  -5   3   3 2482.92  137.90
  -5  -3   3 2160.11  126.49
  -5   3   4  496.29   62.05
  -5  -3   4  564.06   49.92
  -5  -3   4  573.90   59.79
  -5  -5  -3  207.21   50.59
  -5   5  -3  159.15   51.41
  -5   5  -2  225.06   24.69
  -5   5  -2  196.75   44.43
  -5  -5  -2  250.88   41.66
  -5   5  -1 4036.80  186.21
  -5   5  -1 3661.83  203.59
  -5   5  -1 3770.27  220.92
  -5  -5  -1 3882.28  189.81
  -5  -5  -1 3603.95  195.51
  -5  -5  -1 3690.50  179.43
  -5   5  -1 3714.51  202.49
  -5   5   0  286.81   30.19
  -5  -5   0  371.46   34.94
  -5  -5   0  332.39   33.88
  -5   5   0  408.19   34.84
  -5   5   0  313.74   30.60
  -5   5   0  450.86   46.47
  -5  -5   1  190.80   18.73
  -5   5   1  202.88   34.72
  -5  -5   1  171.55   27.70
  -5  -5   1  170.86   22.97
  -5   5   1  150.44   15.88
  -5   5   1  181.21   17.12
  -5  -5   2 4232.07  196.94
  -5   5   2 3862.07  208.68
  -5  -5   2 4182.63  207.41
  -5   5   2 4308.75  205.83
  -5   5   2 3624.38  201.77
  -5  -5   2 4007.59  192.09
  -5   5   3  155.66   29.72
  -5   5   3  175.12   30.93
  -5  -5   3  163.14   28.08
  -5   5   3  198.83   36.73
  -5  -5   3  162.69   29.19
  -5   5   4   38.04   28.72
  -5   5   4   13.99   16.37
  -5  -5   4   37.11   15.68
  -5  -5   4   34.49   13.39
  -5   7  -3  119.14   45.73
  -5  -7  -3  159.21   45.72
  -5  -7  -2  278.81   43.42
  -5   7  -2  253.24   47.33
  -5  -7  -2  253.44   31.76
  -5   7  -1   63.17   25.18
  -5   7  -1  132.78   26.39
  -5  -7  -1   81.34   21.37
  -5  -7  -1  105.21   18.70
  -5   7  -1   59.53   30.55
  -5  -7  -1   78.37   22.15
  -5   7   0  553.83   46.53
  -5  -7   0  598.63   47.80
  -5   7   0  540.88   46.60
  -5   7   0  606.41   61.61
  -5  -7   0  565.93   47.72
  -5  -7   0  597.38   41.36
  -5  -7   1  511.57   43.74
  -5   7   1  463.35   50.36
  -5  -7   1  474.26   47.75
  -5   7   1  510.68   38.86
  -5  -7   2  136.85   30.11
  -5   7   2  155.34   33.38
  -5  -7   2  124.20   20.10
  -5   7   3  390.24   48.41
  -5  -7   3  341.02   28.14
  -5   7   3  306.79   45.70
  -5  -7   3  268.57   37.55
  -5  -7   3  297.32   38.75
  -5   9  -2 2115.95  155.83
  -5  -9  -2 2089.84  140.45
  -5  -9  -2 2085.39  123.87
  -5  -9  -1 1331.10   77.61
  -5  -9  -1 1232.80   87.68
  -5   9  -1 1128.14   93.13
  -5  -9  -1 1376.63   87.51
  -5   9  -1 1144.23  110.68
  -5   9   0 1043.95   77.68
  -5  -9   0 1253.41   69.76
  -5  -9   0 1135.39   77.78
  -5   9   0 1221.49   95.33
  -5   9   0  977.78   76.49
  -5  -9   0 1121.17   76.02
  -5  -9   1 2649.23  126.58
  -5  -9   1 2323.20  139.85
  -5  -9   1 2438.60  135.21
  -5   9   1 2326.97  132.81
  -5   9   1 2623.62  150.47
  -5  -9   2 1172.13   84.34
  -5  -9   2 1094.81   71.44
  -5   9   2  872.27   83.58
  -5   9   2 1170.69   88.29
  -5  -9   2 1085.63   90.82
  -5  -9   3  854.57   73.80
  -5  -9   3  841.84   72.18
  -5  -9   3  882.23   59.12
  -5   9   3  896.40   89.79
  -5   9   3  997.40   85.18
  -5 -11  -2  248.16   43.88
  -5  11  -2  239.71   52.27
  -5 -11  -2  266.55   36.43
  -5  11  -1 1198.67  104.04
  -5 -11  -1 1500.96   87.63
  -5 -11  -1 1495.22   96.55
  -5  11  -1 1253.87  123.50
  -5  11   0  517.82   53.76
  -5 -11   0  552.57   51.17
  -5  11   0  468.24   52.53
  -5 -11   0  572.91   51.44
  -5  11   0  577.65   69.06
  -5 -11   1  979.44   52.88
  -5  11   1  848.58   68.53
  -5 -11   1  869.79   66.95
  -5 -11   1  928.80   71.78
  -5  11   1  806.32   78.32
  -5 -11   2 1276.42   90.44
  -5 -11   2 1090.75   77.77
  -5 -11   2 1103.96   89.83
  -5  11   2 1267.26   97.79
  -5  11   3  154.15   37.65
  -5 -11   3  138.48   28.65
  -5  11   3  167.33   38.54
  -5 -11   3  157.33   23.49
  -5 -11   3  139.67   34.55
  -5  13  -2  199.21   47.65
  -5 -13  -2  187.27   33.88
  -5 -13  -1  633.39   57.81
  -5  13  -1  449.24   70.65
  -5 -13  -1  494.11   46.16
  -5  13  -1  512.17   65.48
  -5  13   0  856.43   79.69
  -5 -13   0  983.59   75.23
  -5 -13   0 1163.94   79.96
  -5  13   0  948.75   92.17
  -5  13   1  553.58   66.51
  -5 -13   1  617.36   57.14
  -5 -13   1  691.51   63.09
  -5  13   2  530.72   63.30
  -5 -13   2  513.85   50.00
  -5 -13   2  560.62   58.73
  -5 -15  -1   81.96   24.66
  -5 -15  -1   88.09   19.51
  -5  15  -1  114.85   34.36
  -5  15  -1  111.25   32.58
  -5 -15   0  717.19   62.87
  -5  15   0  456.11   62.51
  -5  15   0  578.91   80.32
  -5 -15   0  583.40   57.20
  -5 -15   1  117.92   29.36
  -5  15   1  138.24   35.58
  -5 -15   1  115.42   26.55
  -5 -15   2   35.48   20.05
  -5  15   2  100.79   38.23
  -5 -15   2   50.58   17.18
  -5 -17   0 1108.55   83.61
  -5  17   0  861.03  100.69
  -5 -17   0 1035.78   80.99
  -5  17   1  950.19   99.79
  -5 -17   1 1021.17   80.78
  -5 -17   1 1043.14   85.25
  -5  17   1  968.34   87.90
  -4   0  -3  585.98   79.83
  -4   0  -2 2594.73  169.69
  -4   0  -2 2578.39  156.29
  -4   0  -1 4152.17  216.50
  -4   0   0 1536.60   79.15
  -4   0   0 1389.69   76.06
  -4   0   1 4287.74  197.52
  -4   0   1 4113.55  197.42
  -4   0   2 3787.89  174.21
  -4   0   2 3316.49  172.53
  -4   0   2 3581.02  174.49
  -4   0   3  232.10   33.75
  -4   0   3  254.38   26.92
  -4   0   3  200.86   31.55
  -4   0   4  404.18   34.47
  -4   0   4  350.20   54.53
  -4  -2  -3   -8.86   14.76
  -4  -2  -3   46.00   34.83
  -4   2  -3   31.07   28.32
  -4  -2  -2 1099.12  100.45
  -4   2  -2  955.45   91.42
  -4  -2  -2 1070.88   84.46
  -4   2  -1  784.55   59.41
  -4   2  -1  720.51   58.42
  -4   2  -1  795.38   67.22
  -4   2  -1  827.11   43.33
  -4  -2  -1  747.27   64.58
  -4   2   0  438.95   36.19
  -4   2   0  302.53   26.25
  -4  -2   0  369.65   30.38
  -4  -2   0  443.82   27.42
  -4   2   0  339.51   27.29
  -4  -2   0  345.28   29.01
  -4   2   1 3104.94  142.68
  -4  -2   1 3259.73  136.30
  -4   2   1 2726.47  125.58
  -4   2   1 2708.08  124.18
  -4  -2   1 2909.57  140.53
  -4   2   1 2743.30  125.91
  -4  -2   2  776.15   51.52
  -4   2   2  863.53   50.41
  -4  -2   2  632.55   47.48
  -4  -2   2  700.00   52.12
  -4   2   2  739.75   52.58
  -4   2   2  756.52   54.66
  -4  -2   3  158.92   31.63
  -4   2   3  185.51   29.86
  -4  -2   3  240.46   27.50
  -4   2   3  166.50   32.64
  -4  -2   3  163.82   29.10
  -4   2   4  685.01   75.76
  -4  -2   4  544.68   65.71
  -4  -2   4  775.72   54.70
  -4  -4  -3  786.11   81.10
  -4   4  -3  611.76   85.17
  -4   4  -2 1830.76   97.25
  -4  -4  -2 1903.07  124.44
  -4   4  -2 1807.02  133.27
  -4   4  -1  484.45   34.12
  -4  -4  -1  431.80   37.22
  -4   4  -1  393.79   54.47
  -4   4  -1  479.24   47.44
  -4  -4  -1  386.45   39.55
  -4  -4  -1  405.58   29.73
  -4   4  -1  473.50   45.99
  -4  -4   0 2503.95   87.00
  -4  -4   0 2680.25   94.82
  -4   4   0 2232.34   89.24
  -4  -4   0 2664.63   96.30
  -4   4   0 2234.04   89.22
  -4   4   0 2798.54  107.33
  -4  -4   1 3740.19  174.97
  -4   4   1 3555.24  175.35
  -4   4   1 3437.82  160.78
  -4  -4   1 3333.14  166.65
  -4   4   2  402.01   42.95
  -4   4   2  576.92   48.55
  -4  -4   2  487.82   41.25
  -4  -4   2  503.79   44.97
  -4   4   2  533.23   49.38
  -4  -4   2  513.28   34.62
  -4  -4   3 1269.65   89.58
  -4  -4   3 1277.54   88.02
  -4   4   3 1310.76   98.41
  -4  -4   3 1292.14   83.77
  -4   4   3 1333.65  100.12
  -4  -4   4  541.87   66.92
  -4   4   4  529.19   67.66
  -4  -4   4  679.56   54.14
  -4  -6  -3 1725.06  131.78
  -4   6  -3 1440.35  136.59
  -4  -6  -2  100.33   19.39
  -4  -6  -2  151.50   30.62
  -4   6  -2  160.50   37.31
  -4   6  -2  102.63   18.43
  -4   6  -1  515.37   39.27
  -4  -6  -1  513.85   47.89
  -4   6  -1  538.30   65.45
  -4  -6  -1  474.70   42.23
  -4  -6  -1  498.52   35.79
  -4   6  -1  430.63   48.84
  -4   6  -1  520.54   51.03
  -4  -6   0 4270.06  203.20
  -4  -6   0 4267.50  195.37
  -4   6   0 4422.20  201.35
  -4  -6   0 4204.31  201.95
  -4   6   0 4493.06  214.30
  -4   6   0 3915.96  201.65
  -4   6   0 3730.07  200.35
  -4   6   1   70.00   15.72
  -4  -6   1   67.49   17.33
  -4   6   1   69.23   15.86
  -4   6   1   65.08   24.59
  -4  -6   1   59.15   21.18
  -4   6   2  651.28   58.46
  -4  -6   2  689.40   56.54
  -4  -6   2  660.55   45.07
  -4  -6   2  629.97   51.22
  -4   6   3 2133.78  135.78
  -4  -6   3 2143.95  129.04
  -4  -6   3 1979.41  130.06
  -4  -6   3 2369.16  107.85
  -4   6   3 2002.19  144.60
  -4   6   4   71.31   30.84
  -4   6   4  191.76   39.01
  -4  -6   4   74.88   20.57
  -4  -6   4  155.10   34.88
  -4  -8  -3  673.19   53.73
  -4  -8  -3  831.80   85.03
  -4   8  -3  639.69   89.03
  -4  -8  -2  746.33   57.07
  -4   8  -2  619.08   71.11
  -4  -8  -2  721.00   39.35
  -4  -8  -1 2085.20  107.97
  -4   8  -1 2037.62  147.10
  -4   8  -1 1936.06  127.45
  -4   8  -1 1762.37  124.46
  -4  -8  -1 2295.20  119.14
  -4   8   0 1980.81  122.79
  -4  -8   0 1901.39  106.87
  -4  -8   0 2155.35  108.14
  -4  -8   0 1894.48  107.70
  -4   8   0 1926.47  104.54
  -4   8   0 1880.98  110.27
  -4   8   0 1611.00  105.95
  -4  -8   1 1939.91  112.50
  -4   8   1 1971.08  117.01
  -4  -8   1 2049.12  107.93
  -4   8   1 1993.03  106.68
  -4   8   1 1902.89  107.79
  -4  -8   1 1676.84  104.70
  -4  -8   2 1337.29   90.72
  -4  -8   2 1380.97   81.12
  -4   8   2 1441.70   95.28
  -4  -8   2 1364.72   89.33
  -4   8   2 1256.49  102.20
  -4  -8   3  522.18   54.87
  -4  -8   3  544.99   39.67
  -4  -8   3  596.05   56.53
  -4   8   3  477.77   62.83
  -4   8   3  653.31   62.77
  -4 -10  -3   91.20   38.40
  -4 -10  -3  117.73   22.46
  -4  10  -3  178.67   46.05
  -4  10  -2  597.26   75.88
  -4 -10  -2  692.52   58.63
  -4 -10  -2  722.08   42.27
  -4 -10  -1 1724.70  103.13
  -4  10  -1 1588.64  133.18
  -4 -10  -1 1742.31   96.14
  -4  10  -1 1467.66  112.99
  -4  10   0  229.51   34.30
  -4  10   0  233.30   41.67
  -4 -10   0  267.26   33.21
  -4  10   0  236.14   35.50
  -4 -10   0  252.64   32.91
  -4  10   1  531.14   50.61
  -4  10   1  543.30   55.17
  -4 -10   1  548.99   41.81
  -4 -10   1  588.03   53.01
  -4 -10   1  580.00   47.81
  -4 -10   2 1290.31   89.03
  -4  10   2 1349.50   95.16
  -4 -10   2 1249.45   78.93
  -4 -10   2 1144.65   96.87
  -4  10   2 1257.75  106.87
  -4 -10   3   18.87    7.81
  -4  10   3   49.17   22.25
  -4  10   3   15.65   17.08
  -4 -10   3   11.86   11.05
  -4 -10   3    5.71   21.45
  -4 -12  -2   51.34   18.88
  -4  12  -2   49.11   23.73
  -4 -12  -1  157.01   28.81
  -4  12  -1  190.66   40.91
  -4  12  -1  117.82   33.52
  -4 -12  -1  167.85   25.11
  -4  12   0 2363.44  150.22
  -4  12   0 2033.70  133.28
  -4 -12   0 2350.66  129.77
  -4 -12   0 2184.59  125.92
  -4 -12   1   35.40   18.55
  -4 -12   1   18.77   15.80
  -4 -12   1   70.21   12.62
  -4  12   1   34.81   25.65
  -4 -12   2   43.37   21.06
  -4  12   2   15.70   20.90
  -4 -12   2   42.43   14.79
  -4 -12   2   31.47   17.05
  -4 -12   3 1047.42   92.06
  -4 -12   3 1119.22   75.44
  -4 -12   3 1129.72   89.47
  -4  12   3 1338.00  101.52
  -4  14  -2 1428.04  133.28
  -4 -14  -2 1695.71  109.59
  -4 -14  -1  819.30   61.74
  -4  14  -1  673.14   88.78
  -4 -14  -1  903.43   70.18
  -4  14  -1  753.25   83.34
  -4 -14   0   97.20   20.69
  -4  14   0   89.56   35.39
  -4 -14   0  100.39   22.68
  -4  14   0   72.25   22.29
  -4  14   1 2144.06  148.51
  -4 -14   1 2467.25  138.86
  -4 -14   1 2149.45  130.14
  -4 -14   2 1036.06   77.24
  -4 -14   2 1248.18   90.58
  -4  14   2 1232.79   97.88
  -4 -16  -1  488.87   52.37
  -4 -16  -1  435.77   45.59
  -4  16  -1  443.06   71.51
  -4  16  -1  407.90   76.07
  -4 -16   0  320.77   40.02
  -4  16   0  307.52   54.40
  -4  16   0  339.56   57.17
  -4 -16   0  356.97   41.50
  -4 -16   1  129.53   29.01
  -4 -16   1   74.69   21.25
  -4  16   1  109.51   30.03
  -4  16   2  460.96   60.57
  -4 -16   2  521.63   56.43
  -4 -16   2  433.62   47.28
  -4 -18   0   93.23   25.02
  -4  18   0  103.95   32.78
  -4 -18   0  116.29   27.40
  -4  18   0  120.19   42.36
  -4  18   1  417.09   63.38
  -4 -18   1  375.83   46.92
  -4 -18   1  449.02   51.93
  -3   1  -3 1305.28  119.44
  -3   1  -3 1190.89   95.85
  -3  -1  -3 1440.87  104.96
  -3  -1  -3 1278.15  119.79
  -3   1  -2  374.61   46.04
  -3  -1  -2  386.43   44.80
  -3  -1  -2  315.59   52.80
  -3   1  -2  394.33   51.73
  -3   1  -2  363.84   25.11
  -3   1  -2  420.66   56.59
  -3   1  -1 1756.09  110.88
  -3  -1  -1 1907.79  103.97
  -3  -1  -1 1801.18  111.07
  -3   1  -1 1751.97   86.79
  -3   1  -1 1652.65  106.06
  -3   1  -1 1907.97  110.20
  -3   1   0 3124.04  150.28
  -3   1   0 3012.88  146.71
  -3  -1   0 3439.60  148.90
  -3  -1   0 3498.50  148.91
  -3   1   0 2962.64  146.64
  -3  -1   0 3146.37  145.67
  -3   1   1  210.71   22.53
  -3  -1   1  213.18   15.72
  -3   1   1  175.53   15.21
  -3  -1   1  186.91   14.53
  -3  -1   1  196.68   16.48
  -3   1   1  233.81   20.05
  -3  -1   1  205.18   21.56
  -3   1   1  160.68   15.13
  -3  -1   2  441.91   39.92
  -3   1   2  448.64   40.92
  -3  -1   2  420.38   37.88
  -3   1   2  453.83   32.33
  -3  -1   2  438.72   34.49
  -3   1   2  413.98   40.78
  -3  -1   3 2495.67  158.74
  -3  -1   3 2634.54  159.59
  -3   1   3 3057.47  135.30
  -3  -1   3 2675.16  136.77
  -3   1   3 2389.50  159.02
  -3   1   3 2582.44  160.77
  -3  -1   4   -8.42   23.92
  -3   1   4  -15.81   24.34
  -3  -1   4   16.24    5.63
  -3   3  -3  394.92   30.37
  -3  -3  -3  545.20   86.96
  -3  -3  -3  474.18   61.89
  -3   3  -3  488.35   72.79
  -3  -3  -2  162.35   35.35
  -3   3  -2  216.83   39.27
  -3  -3  -2  186.48   43.14
  -3   3  -2  145.98   41.70
  -3   3  -2  161.98   17.37
  -3   3  -1 5452.56  279.02
  -3   3  -1 5808.21  249.49
  -3   3  -1 5780.88  270.61
  -3  -3  -1 5194.47  251.59
  -3  -3  -1 5407.18  244.30
  -3   3  -1 5565.17  270.32
  -3   3   0 1516.84   83.08
  -3   3   0 1720.85   84.45
  -3  -3   0 1724.24   75.41
  -3   3   0 1618.32   83.68
  -3   3   0 1738.47   91.08
  -3  -3   0 1641.65   85.87
  -3  -3   0 1554.52   81.49
  -3  -3   0 1622.58   84.88
  -3  -3   1 1430.45   78.24
  -3  -3   1 1313.49   70.31
  -3  -3   1 1345.24   70.76
  -3   3   1 1246.22   74.96
  -3   3   1 1507.19   78.55
  -3  -3   2 3513.19  150.34
  -3  -3   2 3284.78  164.31
  -3  -3   2 2974.76  164.15
  -3   3   2 3117.88  174.90
  -3  -3   2 3078.57  165.88
  -3   3   2 3377.65  177.51
  -3  -3   3  979.92   79.55
  -3   3   3 1075.87   86.85
  -3  -3   3  915.35   77.95
  -3   3   3  980.56   86.66
  -3  -3   3  996.57   66.32
  -3  -3   4  362.28   54.69
  -3   3   4  360.97   61.63
  -3  -3   4  426.33   37.48
  -3  -5  -3  156.71   43.05
  -3   5  -3  117.88   17.09
  -3   5  -3  106.70   38.36
  -3  -5  -2 3968.57  199.78
  -3   5  -2 4257.89  236.29
  -3   5  -2 4388.01  199.46
  -3  -5  -1  924.39   58.74
  -3   5  -1  914.47   79.26
  -3  -5  -1 1068.28   58.87
  -3   5  -1  915.81   68.99
  -3  -5  -1  871.59   50.86
  -3   5  -1  901.90   68.33
  -3   5   0  607.18   47.01
  -3  -5   0  617.84   39.27
  -3   5   0  496.99   38.05
  -3  -5   0  537.24   39.49
  -3   5   0  495.71   38.59
  -3  -5   0  455.23   37.78
  -3  -5   1 6960.19  309.84
  -3  -5   1 6320.29  302.21
  -3   5   1 6988.49  304.90
  -3   5   1 6549.14  309.05
  -3  -5   2 1425.93   64.40
  -3  -5   2 1593.93   50.26
  -3   5   2 1584.37   71.57
  -3  -5   3  123.57   24.37
  -3  -5   3  141.56   32.34
  -3  -5   3  172.06   12.73
  -3   5   3   98.89   26.91
  -3  -5   4 1290.62  110.47
  -3   5   4 1317.04  122.67
  -3  -5   4 1552.95   93.43
  -3  -7  -3  276.14   28.73
  -3  -7  -3  255.39   48.20
  -3   7  -3  249.99   58.08
  -3  -7  -2   68.74   14.73
  -3  -7  -2   22.97   13.45
  -3   7  -2   65.32   14.41
  -3   7  -2   75.87   28.96
  -3   7  -1  307.61   38.91
  -3  -7  -1  358.25   34.66
  -3  -7  -1  381.82   32.23
  -3  -7  -1  338.83   28.35
  -3   7  -1  313.08   42.32
  -3   7  -1  380.36   54.31
  -3   7  -1  335.19   30.21
  -3  -7   0 1236.29   67.40
  -3   7   0  961.26   65.65
  -3   7   0 1060.86   74.34
  -3   7   0 1044.95   68.71
  -3  -7   0 1097.51   66.40
  -3  -7   0 1100.93   67.40
  -3   7   1  388.79   39.59
  -3   7   1  446.25   35.29
  -3  -7   1  463.72   36.54
  -3  -7   1  397.05   39.39
  -3  -7   1  480.87   40.84
  -3  -7   2  378.26   40.06
  -3  -7   2  387.83   31.56
  -3   7   2  356.77   47.48
  -3  -7   2  350.97   40.56
  -3   7   2  325.74   39.85
  -3  -7   3  678.98   40.47
  -3  -7   3  566.00   59.32
  -3  -7   3  515.88   50.90
  -3   7   3  638.72   76.71
  -3   7   3  615.69   60.14
  -3  -7   4  172.13   38.31
  -3  -7   4  183.20   28.31
  -3   7   4  108.62   39.01
  -3   9  -3 1196.75  121.92
  -3  -9  -3 1219.88   78.43
  -3   9  -2 1328.78  113.24
  -3  -9  -2 1327.84   87.62
  -3  -9  -2 1519.36   72.23
  -3   9  -1 1545.24  112.38
  -3  -9  -1 1735.46   93.94
  -3   9  -1 1737.29   97.24
  -3   9  -1 1550.92  123.39
  -3  -9  -1 1776.75  101.47
  -3   9  -1 1545.39  112.39
  -3  -9  -1 1950.76  100.11
  -3   9   0 2190.01  129.51
  -3   9   0 2110.25  122.35
  -3  -9   0 2292.71  115.57
  -3  -9   0 2215.39  116.09
  -3  -9   0 2173.14   96.98
  -3  -9   0 2027.35  115.16
  -3   9   0 1974.96  117.61
  -3   9   0 2092.91  113.30
  -3  -9   1 1722.41  102.04
  -3   9   1 1754.48  109.39
  -3  -9   1 1897.59   99.78
  -3  -9   1 1815.92  100.20
  -3   9   1 1747.97   98.59
  -3  -9   1 1909.83  105.92
  -3  -9   2 1912.74  103.37
  -3   9   2 1895.18  116.50
  -3   9   2 1943.21  139.45
  -3  -9   2 1947.89  135.27
  -3  -9   2 1869.67  112.79
  -3  -9   2 1803.95  114.99
  -3   9   3  504.89   54.29
  -3   9   3  386.30   69.17
  -3  -9   3  423.31   46.76
  -3  -9   3  465.46   54.28
  -3  -9   3  505.43   37.90
  -3 -11  -3  655.01   54.97
  -3  11  -3  586.41   82.55
  -3 -11  -2 1326.44   70.25
  -3 -11  -2 1271.64   85.54
  -3  11  -2 1141.81  107.48
  -3  11  -1  216.90   46.45
  -3 -11  -1  213.68   26.34
  -3 -11  -1  241.62   30.81
  -3  11  -1  158.43   41.75
  -3 -11   0 1986.43  110.61
  -3 -11   0 1945.35  111.44
  -3 -11   0 2020.97   92.95
  -3  11   0 1987.82  119.29
  -3  11   0 1879.65  126.29
  -3  11   0 1774.30  119.82
  -3  11   1  898.86   76.44
  -3  11   1 1100.15   81.48
  -3 -11   1 1163.53   76.71
  -3  11   1 1064.05   69.28
  -3 -11   1 1030.73   69.68
  -3 -11   1 1111.76   69.19
  -3 -11   1 1027.27   67.04
  -3 -11   2  218.67   27.04
  -3 -11   2  293.45   26.91
  -3 -11   2  297.66   43.95
  -3  11   2  254.86   28.89
  -3  11   2  222.05   35.90
  -3 -11   2  228.02   33.57
  -3 -11   2  272.06   37.36
  -3 -11   3 1200.14   95.51
  -3  11   3 1299.33   95.73
  -3 -11   3 1059.46   85.13
  -3 -11   3 1223.43   75.13
  -3 -13  -2  445.99   36.77
  -3 -13  -2  514.10   50.46
  -3  13  -2  413.48   64.10
  -3  13  -1 1518.36  131.94
  -3 -13  -1 1688.47  102.82
  -3  13  -1 1433.77  119.11
  -3 -13  -1 1676.32   95.44
  -3 -13   0 1013.00   73.40
  -3  13   0  819.20   84.27
  -3  13   0  918.76   80.50
  -3 -13   0 1059.06   76.10
  -3 -13   1 1162.79   75.50
  -3  13   1 1101.85   83.66
  -3 -13   1 1022.78   68.30
  -3 -13   2 1482.22   97.16
  -3  13   2 1456.34  102.36
  -3 -13   2 1218.87   83.65
  -3 -13   3  349.41   45.00
  -3 -13   3  339.17   50.64
  -3 -13   3  298.51   33.87
  -3  13   3  363.43   48.73
  -3 -15  -2  129.72   27.53
  -3  15  -2  144.65   45.50
  -3 -15  -1  875.00   68.63
  -3 -15  -1  855.12   62.32
  -3  15  -1  733.39   93.04
  -3  15  -1  742.26   84.07
  -3 -15   0  188.29   29.50
  -3 -15   0  199.47   19.23
  -3  15   0  137.14   42.90
  -3 -15   0  216.12   29.86
  -3  15   0  150.77   37.70
  -3  15   1  203.27   38.86
  -3 -15   1  276.49   37.73
  -3 -15   1  237.30   27.87
  -3 -15   1  219.52   31.11
  -3  15   2  570.35   62.94
  -3 -15   2  484.43   47.84
  -3 -15   2  540.26   57.16
  -3  17  -1  495.36   74.36
  -3 -17  -1  617.11   57.94
  -3 -17  -1  600.66   52.77
  -3  17   0 1376.88  130.47
  -3  17   0 1585.42  123.72
  -3 -17   0 1841.45  111.97
  -3 -17   0 1701.70  108.01
  -3 -17   1  126.20   26.17
  -3  17   1  100.42   37.51
  -3 -17   1  140.36   28.80
  -3 -17   2  271.99   35.88
  -3  17   2  293.51   48.32
  -3 -17   2  366.55   45.47
  -3 -19   0  425.32   47.15
  -3  19   0  398.98   67.10
  -3 -19   0  385.86   46.01
  -3  19   0  358.23   62.11
  -3  19   1  345.82   57.60
  -3 -19   1  430.28   51.78
  -3 -19   1  412.62   46.72
  -2   0  -4  256.30   53.71
  -2   0  -4  291.44   68.01
  -2   0  -3 1573.84  110.42
  -2   0  -3 1243.28   61.50
  -2   0  -3 1384.50  126.09
  -2   0  -2 3916.06  175.40
  -2   0  -2 4069.51  208.66
  -2   0  -2 3990.08  224.15
  -2   0  -1  543.43   42.61
  -2   0  -1  483.20   27.09
  -2   0  -1  526.48   47.69
  -2   0  -1  474.67   44.07
  -2   0   0 1511.62   73.67
  -2   0   0 1506.25   74.22
  -2   0   0 1602.11   73.57
  -2   0   1 9769.17  425.54
  -2   0   1 9438.47  427.55
  -2   0   1 9925.15  427.88
  -2   0   2  186.58   27.92
  -2   0   2  228.80   20.47
  -2   0   2  225.46   30.82
  -2   0   3  130.21   35.09
  -2   0   3  169.67   18.42
  -2   0   4 3929.71  243.65
  -2  -2  -4  250.90   50.54
  -2  -2  -4  245.07   62.95
  -2   2  -4  273.50   69.37
  -2  -2  -3 1168.27   95.70
  -2   2  -3 1048.65  108.25
  -2   2  -3 1059.40   57.90
  -2   2  -3 1013.85   88.80
  -2  -2  -3 1006.96  108.94
  -2   2  -2  431.25   28.53
  -2  -2  -2  428.70   57.95
  -2   2  -2  405.45   58.57
  -2  -2  -2  513.91   52.18
  -2   2  -2  419.12   47.22
  -2   2  -2  442.03   54.87
  -2   2  -1 2123.40  111.87
  -2   2  -1 1854.24   91.05
  -2  -2  -1 2151.69  119.90
  -2  -2  -1 1850.79   93.60
  -2   2  -1 2003.45  110.93
  -2  -2   0 2480.23  117.67
  -2  -2   0 2406.40  115.18
  -2   2   0 2407.58  116.30
  -2  -2   0 2573.53  118.55
  -2   2   0 2571.10  116.78
  -2   2   0 2709.25  121.35
  -2   2   0 2522.36  116.67
  -2   2   1 1339.18   79.18
  -2  -2   1 1514.80   74.78
  -2  -2   1 1434.76   69.28
  -2  -2   1 1325.38   72.63
  -2  -2   1 1544.36   76.96
  -2  -2   2  981.68   61.14
  -2  -2   2 1036.92   47.59
  -2   2   2 1028.33   75.10
  -2   2   2 1041.76   54.23
  -2  -2   3  738.71   73.21
  -2  -2   3  919.65   56.29
  -2   2   3  801.61   80.32
  -2  -2   4   65.16   28.76
  -2   2   4   23.69   24.68
  -2  -2   4   58.14   10.82
  -2   4  -4  457.90   82.43
  -2  -4  -4  503.01   72.70
  -2   4  -3 1645.55  144.18
  -2   4  -3 1863.34   97.27
  -2  -4  -3 2070.40  139.13
  -2  -4  -2  290.74   24.53
  -2   4  -2  255.73   39.41
  -2  -4  -2  263.15   24.32
  -2   4  -2  293.10   46.70
  -2   4  -1 3430.16  151.93
  -2  -4  -1 3240.24  154.80
  -2  -4  -1 3388.31  153.06
  -2   4  -1 3199.15  167.83
  -2   4  -1 3218.88  178.21
  -2  -4  -1 3070.22  145.97
  -2   4  -1 3271.51  168.83
  -2  -4   0 4495.48  200.11
  -2   4   0 4252.95  200.63
  -2  -4   0 4130.05  198.60
  -2   4   0 4249.08  204.81
  -2  -4   0 4607.35  201.23
  -2   4   0 4438.84  199.07
  -2  -4   1  883.37   52.53
  -2   4   1  782.74   51.42
  -2  -4   1  808.83   51.37
  -2  -4   1  854.75   47.15
  -2   4   1  829.52   47.85
  -2  -4   2 2013.92  109.09
  -2  -4   2 2039.29   96.56
  -2  -4   3 1027.20   88.85
  -2  -4   3 1105.04   70.90
  -2   4   3 1037.68   94.60
  -2   4   4  149.69   44.53
  -2  -4   4  131.64   43.30
  -2  -4   4  163.82   23.06
  -2   6  -3   43.54   12.44
  -2  -6  -3   59.60   12.54
  -2   6  -3   79.53   35.05
  -2  -6  -3   64.63   13.47
  -2  -6  -2  892.08   52.75
  -2  -6  -2  709.41   51.21
  -2   6  -2  828.69   51.82
  -2   6  -2  762.69   76.78
  -2   6  -1 5048.17  241.65
  -2  -6  -1 5226.87  222.83
  -2   6  -1 4282.40  247.52
  -2  -6  -1 4527.25  216.02
  -2  -6  -1 4792.63  223.82
  -2   6  -1 4837.58  239.60
  -2  -6   0 1388.06   75.00
  -2   6   0 1397.19   80.86
  -2  -6   0 1466.34   76.76
  -2  -6   0 1427.48   66.02
  -2  -6   0 1466.32   77.39
  -2   6   0 1391.65   82.94
  -2  -6   1 2363.65  119.70
  -2  -6   1 2116.93  125.33
  -2  -6   1 2360.72  117.08
  -2   6   1 2286.46  111.36
  -2   6   1 2199.68  117.31
  -2  -6   1 2126.36  110.33
  -2  -6   1 2350.46  111.85
  -2  -6   2 2735.82  155.99
  -2   6   2 2762.02  152.51
  -2   6   2 3031.40  178.01
  -2  -6   2 3121.79  155.91
  -2  -6   2 2982.33  139.54
  -2  -6   2 2908.27  150.08
  -2  -6   3  636.21   66.26
  -2  -6   3  709.32   39.26
  -2  -6   3  674.01   54.23
  -2   6   3  665.60   77.03
  -2  -6   4  608.10   52.40
  -2  -6   4  577.80   69.13
  -2   6   4  543.47   78.22
  -2   8  -3  815.94   93.44
  -2  -8  -3  868.50   57.54
  -2   8  -2 1083.99   68.83
  -2   8  -2 1047.73   93.06
  -2  -8  -2 1130.57   68.06
  -2  -8  -2 1009.77   69.22
  -2  -8  -2 1155.47   54.64
  -2   8  -1 2055.12  128.07
  -2  -8  -1 2360.36  111.96
  -2  -8  -1 2154.10  106.27
  -2   8  -1 2121.06  111.40
  -2   8  -1 1968.01  137.18
  -2   8  -1 1882.52  126.14
  -2  -8  -1 2129.76  113.59
  -2   8   0 3764.46  100.68
  -2  -8   0 3392.61   53.30
  -2  -8   0 3995.56   83.93
  -2   8   0 3605.59  101.76
  -2  -8   0 3840.66   84.51
  -2  -8   0 4038.86   82.10
  -2  -8   1 1014.64   63.63
  -2  -8   1  910.57   65.95
  -2  -8   1  987.66   57.89
  -2  -8   1  961.24   58.67
  -2   8   1  954.16   65.57
  -2   8   1  980.73   57.65
  -2  -8   2 1722.72  100.35
  -2  -8   2 1726.28  125.84
  -2   8   2 1800.01  104.30
  -2   8   2 1664.29  127.23
  -2  -8   2 1660.81   90.01
  -2  -8   2 1629.66   94.36
  -2  -8   2 1780.82  109.41
  -2  -8   3 1933.84  131.33
  -2  -8   3 2130.07  103.24
  -2   8   3 2044.60  125.28
  -2  -8   3 1846.97  116.90
  -2   8   3 1818.33  150.63
  -2  -8   4  140.45   38.37
  -2  -8   4  117.63   22.90
  -2   8   4  108.21   47.41
  -2 -10  -3  294.85   32.66
  -2  10  -3  320.01   60.88
  -2 -10  -2 1744.68   84.75
  -2  10  -2 1491.64  124.09
  -2 -10  -2 1557.43   97.17
  -2  10  -1  404.12   47.33
  -2 -10  -1  360.10   32.13
  -2  10  -1  385.14   59.29
  -2  10  -1  338.63   32.95
  -2 -10  -1  450.33   39.20
  -2  10  -1  309.97   49.51
  -2 -10  -1  351.42   32.07
  -2 -10   0  295.27   27.04
  -2  10   0  245.87   34.78
  -2 -10   0  234.29   27.25
  -2 -10   0  221.13   19.86
  -2  10   0  245.60   38.76
  -2 -10   0  226.89   27.31
  -2  10   0  263.62   26.88
  -2  10   1 2540.10  128.62
  -2  10   1 2367.62  138.20
  -2 -10   1 2481.73  129.07
  -2 -10   1 2652.90  135.18
  -2 -10   1 2539.66  128.33
  -2 -10   2   97.21   15.82
  -2 -10   2   89.46   28.10
  -2  10   2  122.53   18.76
  -2 -10   2  124.51   28.20
  -2 -10   2  116.95   19.46
  -2  10   2  128.11   26.91
  -2 -10   2  109.87   24.44
  -2 -10   2  102.48   18.50
  -2 -10   3  137.52   38.21
  -2  10   3  127.04   28.38
  -2 -10   3  138.68   28.38
  -2 -10   3  148.95   19.35
  -2 -12  -3   96.91   21.11
  -2  12  -3  107.63   38.42
  -2 -12  -2  213.27   22.59
  -2  12  -2  165.41   39.52
  -2 -12  -2  153.38   26.53
  -2 -12  -1 1650.47   99.52
  -2 -12  -1 1820.65   95.36
  -2  12  -1 1518.88  125.84
  -2  12  -1 1543.13  118.51
  -2 -12   0  595.38   39.20
  -2 -12   0  562.09   46.14
  -2  12   0  700.47   63.90
  -2 -12   0  566.49   46.83
  -2  12   1  298.21   30.68
  -2 -12   1  304.83   30.25
  -2 -12   1  289.47   34.94
  -2 -12   1  323.76   32.65
  -2 -12   1  240.40   29.43
  -2  12   1  314.46   41.20
  -2 -12   2 1418.05   93.29
  -2  12   2 1402.17   97.08
  -2  12   2 1353.42   82.96
  -2 -12   2 1369.19   83.89
  -2 -12   2 1421.45  103.69
  -2 -12   2 1501.29   89.08
  -2 -12   2 1433.35   82.84
  -2  12   3  418.43   50.30
  -2 -12   3  405.55   37.27
  -2 -12   3  457.58   49.98
  -2 -12   3  444.63   57.43
  -2 -14  -2 1036.33   64.54
  -2 -14  -2  985.99   75.21
  -2  14  -2 1044.51  106.95
  -2 -14  -1  506.68   42.30
  -2  14  -1  425.16   66.63
  -2 -14  -1  451.46   44.97
  -2  14  -1  426.16   60.89
  -2 -14   0 2736.60  144.95
  -2  14   0 2545.89  163.85
  -2 -14   0 2705.87  145.61
  -2 -14   1 1272.71   84.37
  -2  14   1 1197.23   91.51
  -2 -14   1 1286.48   82.17
  -2 -14   1 1185.46   78.84
  -2 -14   2  705.52   62.15
  -2 -14   2  587.58   50.41
  -2  14   2  663.43   65.21
  -2  14   3  779.89   74.90
  -2 -14   3  758.02   59.51
  -2 -14   3  948.68   88.67
  -2 -14   3  815.48   72.26
  -2 -16  -2  555.09   55.11
  -2  16  -2  599.19   84.51
  -2 -16  -1  195.23   28.49
  -2 -16  -1  216.79   32.36
  -2  16  -1  173.39   43.45
  -2  16  -1  205.84   47.81
  -2 -16   0   36.10   10.29
  -2 -16   0   28.41   14.44
  -2 -16   0   25.41   13.89
  -2  16   1  957.44   83.41
  -2 -16   1 1094.01   78.56
  -2 -16   1  941.94   70.82
  -2  16   2   74.33   27.82
  -2 -16   2   53.23   20.19
  -2 -16   2   49.87   17.62
  -2 -18  -1  120.34   23.52
  -2 -18  -1  119.39   27.43
  -2  18  -1  108.71   41.45
  -2  18  -1  124.28   48.96
  -2 -18   0  359.09   42.40
  -2  18   0  247.24   45.95
  -2 -18   0  309.02   39.13
  -2  18   0  324.25   51.39
  -2 -18   1 1126.46   83.34
  -2 -18   1  916.80   73.67
  -2  18   1 1007.93   90.55
  -1   1  -4  855.97   90.20
  -1  -1  -4  988.23  118.80
  -1   1  -4  992.27  115.09
  -1  -1  -4  890.23   93.24
  -1  -1  -3  162.53   40.57
  -1   1  -3  148.82   34.87
  -1   1  -3  147.60   14.47
  -1  -1  -3  175.65   11.79
  -1  -1  -3  138.98   42.70
  -1   1  -3  101.67   38.81
  -1   1  -2  304.43   20.84
  -1  -1  -2  392.43   41.64
  -1  -1  -2  319.12   17.88
  -1  -1  -2  374.60   47.88
  -1   1  -2  325.91   44.59
  -1   1  -2  406.87   48.58
  -1   1  -2  360.53   40.21
  -1   1  -1 5611.49  251.14
  -1  -1  -1 6295.42  252.50
  -1  -1  -1 6351.72  280.51
  -1   1  -1 6438.45  274.53
  -1   1  -1 6134.37  273.96
  -1  -1   0   94.26    8.72
  -1  -1   0  101.07    8.01
  -1  -1   0   97.10    8.88
  -1   1   0   97.43    8.18
  -1   1   0   93.68    8.38
  -1   1   0   90.23    9.65
  -1   1   1   83.74   18.29
  -1  -1   1   78.77   16.15
  -1  -1   1   77.67    6.69
  -1  -1   1   88.11   12.67
  -1   1   1   68.36   16.18
  -1  -1   1   70.84   14.55
  -1   1   1  102.01    9.71
  -1  -1   2 6022.63  287.57
  -1   1   2 6677.45  282.69
  -1   1   3    7.81   16.11
  -1   1   3   10.61    4.82
  -1  -1   3   19.26    7.30
  -1  -1   3   22.17   13.83
  -1  -1   4  106.88   37.58
  -1   1   4   45.04   26.53
  -1  -3  -4  215.35   53.24
  -1  -3  -4  201.46   52.07
  -1   3  -4  239.86   58.94
  -1  -3  -3  887.04   84.23
  -1   3  -3  828.54   93.95
  -1   3  -3  940.47   79.22
  -1  -3  -3  850.72   96.28
  -1   3  -2 4087.66  199.63
  -1   3  -2 4146.69  215.69
  -1  -3  -2 3794.11  174.85
  -1  -3  -2 4272.55  227.70
  -1   3  -2 3786.81  176.72
  -1   3  -2 4535.14  221.82
  -1  -3  -2 3632.96  173.74
  -1   3  -1 2258.25  113.95
  -1  -3  -1 2075.31   97.53
  -1  -3  -1 1921.14   89.81
  -1  -3  -1 2053.21   95.45
  -1   3  -1 2114.43   96.26
  -1   3  -1 2196.49  113.00
  -1   3   0 2295.65  114.25
  -1  -3   0 2216.60  111.06
  -1  -3   0 2638.41  112.77
  -1   3   0 2456.53  116.04
  -1  -3   0 2610.23  113.30
  -1  -3   1 2187.93  116.58
  -1  -3   1 2607.17  125.17
  -1  -3   1 2612.12  119.56
  -1   3   1 2364.16  132.69
  -1  -3   1 2418.81  123.14
  -1  -3   1 2670.04  113.58
  -1  -3   2 1151.79   75.56
  -1  -3   2 1112.55   72.88
  -1  -3   2 1564.70   47.26
  -1  -3   2 1592.60   63.67
  -1  -3   3 1281.20  105.43
  -1  -3   3 1494.83   82.13
  -1   3   3 1351.65  114.15
  -1  -3   4  803.30   89.90
  -1   3   4  685.35   88.87
  -1  -5  -4  177.82   47.02
  -1   5  -4  131.54   49.80
  -1  -5  -3 3256.70  149.60
  -1   5  -3 2935.60  151.60
  -1   5  -3 2809.45  199.49
  -1  -5  -2 1662.64   90.85
  -1  -5  -2 1934.46   91.32
  -1   5  -2 1750.62  120.74
  -1   5  -2 1754.48  122.05
  -1   5  -1 1158.49   77.44
  -1  -5  -1 1182.36   62.54
  -1   5  -1 1138.88   86.23
  -1   5  -1 1155.97   77.59
  -1   5  -1 1202.52   64.00
  -1  -5  -1 1260.07   58.78
  -1  -5  -1 1179.76   64.83
  -1   5   0 5941.35  272.54
  -1   5   0 5809.52  271.80
  -1  -5   0 6279.52  266.31
  -1   5   0 5987.24  265.38
  -1  -5   0 5806.73  265.05
  -1  -5   0 6070.80  266.30
  -1  -5   0 5874.93  262.21
  -1  -5   1 3955.12  175.36
  -1  -5   1 3278.33  160.22
  -1  -5   1 3195.22  180.38
  -1  -5   1 3889.24  167.60
  -1   5   1 3653.53  161.45
  -1   5   1 3383.10  166.97
  -1  -5   2  623.61   44.96
  -1  -5   2  564.26   55.78
  -1   5   2  667.78   66.56
  -1  -5   2  657.33   56.44
  -1  -5   3 1575.44   96.02
  -1  -5   3 1577.69  118.79
  -1  -5   3 1706.53   78.31
  -1   5   3 1603.73  132.99
  -1  -5   4 1218.49  114.21
  -1   5   4 1157.38  119.67
  -1   7  -4  333.13   68.45
  -1  -7  -3  166.88   20.37
  -1  -7  -3  164.99   19.43
  -1   7  -3  120.89   35.78
  -1  -7  -2   75.38   12.00
  -1  -7  -2   73.10    7.20
  -1  -7  -2   57.99   15.98
  -1   7  -2   67.01   13.46
  -1   7  -2   33.02   30.72
  -1   7  -1 1351.48   89.51
  -1  -7  -1 1484.69   73.23
  -1  -7  -1 1333.54   68.48
  -1  -7  -1 1385.91   74.83
  -1   7  -1 1279.83   88.35
  -1   7  -1 1141.57   93.33
  -1   7   0 1537.91   84.90
  -1  -7   0 1328.92   70.39
  -1  -7   0 1428.03   73.77
  -1   7   0 1360.33   73.13
  -1  -7   0 1373.27   72.37
  -1   7   0 1468.11   82.26
  -1  -7   1  443.50   31.23
  -1  -7   1  514.40   46.24
  -1  -7   1  568.86   38.18
  -1   7   1  488.47   38.92
  -1   7   1  484.50   32.09
  -1  -7   2  904.13   72.09
  -1  -7   2  866.43   84.65
  -1  -7   2  855.69   59.62
  -1   7   2  911.00   86.08
  -1  -7   2  959.23   69.55
  -1   7   2  873.73   62.12
  -1  -7   2  980.11   64.64
  -1  -7   3  156.05   38.81
  -1   7   3  120.00   41.08
  -1  -7   3  173.34   16.91
  -1  -7   3  146.04   25.27
  -1  -7   4  157.27   42.10
  -1  -7   4  204.07   28.06
  -1   7   4  185.49   50.89
  -1  -9  -3 1432.07   83.94
  -1   9  -3 1456.07  127.33
  -1  -9  -2 2169.70   97.13
  -1  -9  -2 1830.40  107.50
  -1  -9  -2 2068.67  106.90
  -1  -9  -1 1600.26   77.92
  -1   9  -1 1431.94   79.37
  -1   9  -1 1390.83   95.41
  -1  -9  -1 1332.30   71.91
  -1  -9  -1 1305.05   77.38
  -1   9  -1 1096.55   91.71
  -1   9  -1 1177.71  100.10
  -1  -9   0 3354.83  170.30
  -1  -9   0 4030.08  174.05
  -1   9   0 3758.04  189.23
  -1   9   0 3359.89  183.31
  -1  -9   0 3707.88  174.11
  -1   9   0 3712.99  174.63
  -1  -9   1 3700.32  173.92
  -1   9   1 3719.82  183.23
  -1  -9   1 3846.98  180.83
  -1  -9   1 3998.11  193.61
  -1   9   1 3450.97  173.58
  -1  -9   2  618.91   41.76
  -1  -9   2  693.87   63.78
  -1  -9   2  628.17   52.14
  -1   9   2  711.07   43.90
  -1  -9   2  726.90   74.33
  -1  -9   2  716.06   52.87
  -1   9   2  664.06   53.84
  -1  -9   3 1269.29  102.33
  -1  -9   3 1247.11   85.43
  -1   9   3 1313.31   90.91
  -1  -9   3 1330.42   72.63
  -1   9   3 1032.03  114.68
  -1  -9   4 1048.67  103.87
  -1  -9   4 1012.76   78.28
  -1   9   4 1192.47   93.30
  -1   9   4  950.07  118.28
  -1 -11  -3  623.47   50.36
  -1  11  -3  538.03   75.87
  -1 -11  -2  374.11   28.17
  -1  11  -2  298.08   51.52
  -1 -11  -2  283.95   33.29
  -1 -11  -1 2511.98  121.55
  -1 -11  -1 2387.89  126.35
  -1  11  -1 2210.00  146.01
  -1  11  -1 2286.59  155.52
  -1  11   0 1043.75   79.03
  -1 -11   0 1079.27   61.66
  -1  11   0 1000.81   75.26
  -1 -11   0  997.62   59.93
  -1 -11   0  909.06   60.90
  -1  11   0  946.93   62.22
  -1 -11   1  911.63   66.16
  -1  11   1  891.66   64.97
  -1 -11   1  938.78   62.27
  -1 -11   1  894.83   55.72
  -1  11   1  855.48   56.15
  -1 -11   2 2217.19  123.28
  -1 -11   2 2274.86  125.92
  -1 -11   2 2032.49  110.48
  -1 -11   2 2223.17  138.88
  -1  11   2 2289.02  126.60
  -1  11   2 2117.21  111.25
  -1 -11   3  524.11   64.41
  -1 -11   3  422.12   46.57
  -1  11   3  464.80   51.66
  -1 -11   3  421.33   36.15
  -1 -13  -3  408.31   42.29
  -1  13  -3  395.67   74.63
  -1 -13  -2 1544.74  100.97
  -1  13  -2 1644.53  135.07
  -1 -13  -2 1851.45   93.36
  -1 -13  -1  472.82   38.62
  -1  13  -1  410.55   60.60
  -1 -13  -1  487.17   43.09
  -1  13  -1  528.73   62.31
  -1  13   0 1045.34   84.39
  -1 -13   0 1057.72   68.90
  -1 -13   0 1078.86   66.49
  -1 -13   1 1336.96   88.62
  -1  13   1 1436.86   93.13
  -1 -13   1 1360.77   85.54
  -1  13   1 1316.88   81.07
  -1 -13   2  171.01   20.86
  -1 -13   2  184.28   29.54
  -1 -13   2  208.91   38.93
  -1  13   2  176.53   31.92
  -1  13   2  176.35   22.41
  -1 -13   2  210.28   30.25
  -1 -13   3  948.14   89.67
  -1 -13   3  761.64   68.94
  -1  13   3  914.96   76.58
  -1 -13   3  863.43   61.13
  -1 -15  -2  598.29   55.97
  -1  15  -2  749.22   85.14
  -1 -15  -2  711.36   49.69
  -1  15  -1   81.26   32.22
  -1 -15  -1  157.29   23.45
  -1 -15  -1  181.37   28.44
  -1  15  -1  133.34   39.39
  -1  15   0  455.06   57.74
  -1 -15   0  618.10   45.46
  -1 -15   0  478.66   44.53
  -1 -15   0  516.29   45.87
  -1 -15   1  688.49   56.83
  -1  15   1  645.57   60.97
  -1 -15   2   27.27   16.67
  -1 -15   2   15.80   10.24
  -1  15   2   12.00   15.28
  -1 -15   3  368.67   58.30
  -1  15   3  396.67   47.79
  -1 -15   3  315.81   35.48
  -1 -15   3  296.48   42.58
  -1 -17  -2  284.21   37.48
  -1  17  -2  250.69   55.77
  -1 -17  -1 2175.15  123.76
  -1  17  -1 1836.54  162.48
  -1 -17  -1 2431.30  133.05
  -1  17  -1 2073.99  159.90
  -1  17   0   -3.11   13.45
  -1 -17   0   45.31   16.41
  -1 -17   0   30.42   14.19
  -1  17   1  190.96   36.59
  -1 -17   1  193.31   27.79
  -1 -17   1  223.87   32.28
  -1  17   2 2085.09  131.96
  -1 -17   2 2318.04  132.20
  -1  19  -1   96.30   40.88
  -1 -19  -1  129.20   24.59
  -1 -19  -1  169.62   30.92
  -1  19  -1   87.25   39.26
  -1  19   0  548.32   74.85
  -1 -19   0  644.13   58.75
  -1 -19   0  666.20   59.83
  -1  19   1  696.08   72.76
  -1 -19   1  736.49   66.32
  -1 -19   1  698.21   62.22
   0   0  -4  399.40   75.57
   0   0  -4  409.11   58.42
   0   0  -3 5038.66  223.99
   0   0  -3 4750.78  286.43
   0   0  -3 4757.81  260.35
   0   0  -2   49.17   18.90
   0   0  -2   49.08    8.05
   0   0  -2   14.97   19.50
   0   0  -1  417.51   21.64
   0   0  -1  422.06   38.84
   0   0  -1  457.47   37.59
   0   0   1  397.09   21.70
   0   0   1  408.49   34.62
   0   0   1  410.88   36.52
   0   0   2   73.82    9.78
   0   0   2   61.65   23.86
   0   0   2   74.29    5.92
   0   0   2   82.80   23.92
   0   0   3 5365.36  235.40
   0   0   3 5177.46  292.76
   0   0   4  364.37   66.23
   0   2  -4  634.93   72.05
   0  -2  -4  608.00   93.47
   0   2  -4  713.93  101.27
   0  -2  -4  691.35   82.46
   0  -2  -3  129.45   11.44
   0   2  -3  125.39   32.04
   0  -2  -3  122.35   11.55
   0  -2  -3  135.96   11.08
   0  -2  -3  150.57   44.65
   0   2  -3   73.17   37.12
   0   2  -2 1568.22  109.26
   0  -2  -2 1707.67  115.71
   0   2  -2 1557.70   95.01
   0   2  -2 1577.11   78.99
   0   2  -2 1654.96  109.51
   0  -2  -2 1528.83   73.68
   0  -2  -1 1440.58   63.48
   0  -2  -1 1607.80   91.60
   0  -2  -1 1431.44   66.07
   0   2  -1 1432.49   81.99
   0   2  -1 1434.91   68.76
   0   2  -1 1442.87   75.73
   0   2  -1 1352.88   80.38
   0  -2  -1 1328.25   65.10
   0  -2   0    8.47    2.60
   0  -2   0    9.10    3.73
   0  -2   0   10.06    2.99
   0   2   0    8.53    2.91
   0  -2   1 1548.60   84.09
   0  -2   1 1441.06   77.34
   0  -2   1 1474.41   70.67
   0   2   1 1461.95   89.36
   0  -2   1 1461.16   82.21
   0  -2   2 1657.47  104.44
   0   2   2 1329.73  103.70
   0  -2   2 1537.18  102.08
   0  -2   2 1502.33   77.33
   0   2   2 1599.00  109.31
   0  -2   3   89.11   28.71
   0   2   3  123.59   39.59
   0  -2   3  144.56   17.20
   0  -2   4  711.37   89.85
   0   2   4  621.39   85.71
   0  -4  -4 1105.64  106.30
   0   4  -4 1127.84  123.51
   0   4  -3  173.24   20.19
   0  -4  -3  164.04   16.52
   0  -4  -3  118.26   43.88
   0   4  -3  138.33   43.82
   0   4  -2 1874.07   91.58
   0  -4  -2 1691.40   85.33
   0  -4  -2 1831.17   85.53
   0   4  -2 1838.21  118.32
   0  -4  -2 1711.53   78.61
   0   4  -2 1948.20  120.35
   0   4  -1 2312.52  129.32
   0  -4  -1 2442.46  110.55
   0  -4  -1 2418.57  113.96
   0   4  -1 2564.19  131.61
   0  -4  -1 2719.10  115.61
   0   4  -1 2484.26  117.89
   0   4   0  596.65   33.74
   0  -4   0  590.03   32.63
   0   4   0  669.54   37.95
   0  -4   0  636.05   36.26
   0  -4   0  663.40   34.28
   0  -4   1 2176.50  125.05
   0   4   1 2274.36   99.63
   0  -4   1 2118.23   99.15
   0  -4   1 2388.68  105.90
   0   4   1 2011.15  126.30
   0  -4   1 2128.32  109.84
   0  -4   1 2220.07  114.58
   0  -4   2 1920.42  117.94
   0  -4   2 1926.89   94.24
   0   4   2 1846.55  128.65
   0  -4   2 1875.39  116.46
   0   4   2 1664.58  126.17
   0   4   3  113.56   39.75
   0  -4   3  131.63   34.74
   0  -4   3  172.41   12.42
   0  -4   3  168.63   22.37
   0  -4   4 1140.11  114.15
   0   4   4 1125.94  118.88
   0   6  -4  344.95   68.42
   0  -6  -3  890.28   53.96
   0   6  -3  883.53   59.62
   0  -6  -3  924.75   50.19
   0   6  -3  823.20   87.75
   0   6  -2 3133.85  142.91
   0  -6  -2 2899.15  125.63
   0  -6  -2 3018.69  135.27
   0  -6  -2 2907.17  125.89
   0  -6  -2 2955.38  136.82
   0   6  -2 2949.71  169.31
   0  -6  -2 2502.44  125.58
   0   6  -2 3007.78  170.25
   0   6  -1 2871.97  131.72
   0   6  -1 2516.85  143.52
   0  -6  -1 2687.03  122.73
   0   6  -1 2546.15  143.52
   0  -6  -1 2735.76  126.51
   0   6   0 3173.89  154.28
   0  -6   0 3261.67  152.42
   0   6   0 3434.26  159.53
   0  -6   0 3506.36  157.16
   0   6   0 3450.90  165.66
   0  -6   0 3449.18  154.44
   0  -6   1 2593.39  136.56
   0   6   1 2488.28  119.40
   0  -6   1 2685.15  120.03
   0   6   1 2385.35  112.67
   0  -6   1 2306.57  112.22
   0  -6   2 2949.63  150.75
   0  -6   2 2932.87  160.12
   0  -6   2 2533.82  171.52
   0  -6   2 2862.96  138.45
   0  -6   2 2665.68  124.10
   0   6   2 2828.10  178.82
   0  -6   2 2835.92  157.42
   0  -6   3  831.53   81.87
   0   6   3  755.27   89.85
   0  -6   3  814.11   58.04
   0   6   4  381.02   75.04
   0  -6   4  303.60   60.54
   0   8  -4  492.07   80.98
   0  -8  -3  430.98   34.46
   0  -8  -3  453.96   35.03
   0   8  -3  404.05   65.62
   0   8  -2 2898.91  146.57
   0  -8  -2 3025.28  139.97
   0  -8  -2 2887.71  130.83
   0  -8  -2 2674.66  140.09
   0   8  -2 2707.88  171.64
   0  -8  -2 2846.30  129.62
   0   8  -1 3999.02  202.16
   0   8  -1 3559.14  207.44
   0   8  -1 3618.80  198.89
   0  -8  -1 4300.75  180.93
   0  -8  -1 3677.93  175.31
   0  -8   0  530.33   36.94
   0   8   0  536.67   45.93
   0   8   0  477.15   34.41
   0   8   0  522.48   40.70
   0  -8   0  507.65   32.92
   0  -8   0  515.34   34.88
   0   8   1 4078.12  185.53
   0  -8   1 4221.25  185.19
   0  -8   1 3731.62  177.07
   0   8   1 3699.18  177.31
   0  -8   2 2602.80  149.68
   0  -8   2 2411.03  118.16
   0  -8   2 2684.00  142.50
   0  -8   2 2410.74  162.07
   0  -8   2 2588.87  131.91
   0   8   2 2648.11  134.87
   0   8   2 2411.31  172.19
   0  -8   3  335.00   35.61
   0   8   3  360.71   67.18
   0  -8   3  476.00   57.27
   0  -8   4  869.95   95.52
   0   8   4  675.00  100.71
   0 -10  -3 1340.50   79.44
   0  10  -3 1168.04  114.82
   0 -10  -2  230.93   20.12
   0 -10  -2  234.93   27.30
   0 -10  -2  263.08   19.82
   0  10  -2  248.82   44.42
   0 -10  -1  172.20   19.09
   0  10  -1  181.63   30.68
   0  10  -1  118.90   36.71
   0  10  -1  127.69   20.58
   0  10  -1  145.27   34.61
   0 -10  -1  125.15   16.17
   0  10   0 3457.42  183.28
   0  10   0 3333.54  165.12
   0  10   0 3261.57  173.41
   0 -10   0 3551.74  162.24
   0 -10   0 3371.63  163.83
   0 -10   1  185.50   18.69
   0  10   1  206.18   26.90
   0 -10   1  174.61   37.02
   0 -10   1  175.41   28.41
   0  10   1  175.20   18.83
   0 -10   1  153.42   23.94
   0 -10   2  220.34   31.94
   0 -10   2  179.04   18.25
   0 -10   2  207.27   41.77
   0  10   2  221.72   28.76
   0  10   2  190.45   17.84
   0 -10   2  144.67   24.38
   0 -10   3 1035.10   76.85
   0 -10   3 1216.04  102.77
   0  10   3 1223.28   83.31
   0 -12  -3  182.97   27.24
   0  12  -3  174.61   42.92
   0 -12  -2  998.97   57.10
   0 -12  -2  850.44   62.91
   0  12  -2  900.10   90.59
   0 -12  -2 1008.81   55.32
   0  12  -1 1208.16  105.62
   0 -12  -1 1384.62   78.11
   0  12  -1 1486.94  105.03
   0 -12  -1 1467.66   78.30
   0 -12   0  765.89   50.03
   0  12   0  764.71   63.62
   0  12   0  772.39   54.00
   0 -12   0  828.53   55.50
   0 -12   0  735.89   52.28
   0 -12   0  765.50   52.63
   0 -12   1 1434.34   77.70
   0 -12   1 1548.34   94.56
   0  12   1 1343.68   84.92
   0 -12   1 1317.27   82.54
   0  12   1 1280.32   77.09
   0 -12   2  966.56   83.34
   0 -12   2  875.69   64.93
   0  12   2  858.23   53.86
   0 -12   2  830.49   54.53
   0 -12   3  189.30   43.37
   0  12   3  181.95   30.74
   0 -12   3  164.80   27.95
   0 -14  -3  702.63   58.15
   0  14  -3  664.49   88.46
   0 -14  -2  748.92   48.78
   0 -14  -2  617.13   53.71
   0  14  -2  691.78   78.96
   0  14  -1 1495.97  124.59
   0 -14  -1 1661.99   93.84
   0  14  -1 1643.84  121.23
   0 -14  -1 1770.70   94.18
   0  14   0  801.97   72.87
   0 -14   0  989.93   65.35
   0 -14   0  896.30   62.42
   0  14   1 1811.07  107.33
   0 -14   1 1646.50  101.34
   0  14   1 1660.61   96.36
   0 -14   2  855.33   82.09
   0 -14   2  714.83   62.56
   0  14   2  914.30   68.41
   0 -14   3  650.33   61.89
   0  14   3  670.26   62.90
   0 -14   3  708.48   80.82
   0 -16  -2   64.22   14.98
   0 -16  -2   43.32   15.89
   0  16  -1   28.81   20.58
   0 -16  -1   68.96   17.15
   0 -16  -1   67.21   18.42
   0  16  -1   49.11   28.20
   0 -16   0 1358.48   87.27
   0  16   0 1322.77  102.74
   0  16   1   81.06   24.34
   0 -16   1   61.41   20.49
   0  16   2   79.54   22.94
   0 -16   2   54.71   23.29
   0 -18  -2  203.93   27.71
   0 -18  -2  213.64   33.38
   0  18  -2  234.66   54.75
   0 -18  -1  251.56   31.90
   0  18  -1  219.05   51.29
   0 -18  -1  231.78   33.76
   0  18  -1  245.48   51.88
   0  18   0 1091.82  100.83
   0 -18   0 1399.49   90.18
   0 -18   1  312.60   40.40
   0  18   1  307.11   42.85
   0  18   2  236.90   37.62
   0 -18   2  232.36   37.81
   0  20   0   34.13   20.27
   0 -20   0   29.10   18.63
   0 -20   0   37.87   18.17
   1   1  -4   99.60   30.27
   1  -1  -4  107.24   35.07
   1  -1  -4   68.27   32.34
   1   1  -4   77.98   36.02
   1   1  -3   29.66   21.79
   1  -1  -3   10.88    3.52
   1  -1  -3    2.28   20.92
   1   1  -3   -9.63   21.47
   1  -1  -2 5254.91  255.52
   1   1  -2 5669.28  257.93
   1  -1  -2 6838.26  302.34
   1   1  -2 6609.65  297.28
   1   1  -2 6664.61  298.23
   1   1  -2 6077.39  275.66
   1  -1  -1   93.84   10.41
   1   1  -1   99.46   12.26
   1   1  -1  136.42   19.73
   1  -1  -1  103.54   21.35
   1   1  -1   99.82   16.50
   1   1   0   57.54    7.29
   1  -1   0   78.08    7.14
   1  -1   0   69.51    7.19
   1  -1   0   73.14    6.76
   1  -1   1 5567.19  265.26
   1   1   1 5793.05  251.45
   1  -1   1 5630.21  276.18
   1   1   1 5475.55  254.06
   1   1   1 5796.91  277.39
   1  -1   1 5955.27  272.46
   1   1   1 6354.01  280.71
   1  -1   1 5756.44  252.31
   1  -1   1 6416.43  274.60
   1  -1   2  423.36   23.06
   1  -1   2  409.08   23.15
   1   1   2  402.72   24.23
   1   1   2  102.36   25.95
   1  -1   2   80.28   23.79
   1  -1   3  157.95   13.68
   1   1   3  184.29   48.19
   1  -1   3  107.82   39.94
   1  -1   3  135.57   12.91
   1  -1   4  859.51  102.28
   1   1   4  931.50  107.51
   1   3  -4  815.72   79.22
   1  -3  -4  833.10   85.64
   1   3  -4  896.02  105.28
   1  -3  -4  691.12   98.95
   1  -3  -3 1605.15   78.23
   1   3  -3 1565.44  104.65
   1  -3  -3 1669.69   74.11
   1  -3  -3 1576.50  133.89
   1   3  -3 1406.78  123.34
   1  -3  -3 1505.92   79.42
   1   3  -3 1525.91   88.29
   1   3  -2 1749.18   91.51
   1   3  -2 1530.78   68.60
   1   3  -2 1554.84   78.78
   1  -3  -2 1702.65  114.24
   1  -3  -2 1441.98   70.02
   1   3  -2 1738.03  106.98
   1  -3  -2 1305.11   73.00
   1  -3  -2 1616.94   75.16
   1   3  -2 1692.66  106.71
   1   3  -1 2472.11  126.94
   1   3  -1 2310.57  112.83
   1  -3  -1 2770.18  114.70
   1   3  -1 2482.35  118.37
   1   3  -1 2820.35  129.74
   1  -3  -1 2407.63  112.40
   1  -3   0 2648.08  116.45
   1  -3   0 2588.84  112.20
   1  -3   1 2372.31  120.28
   1   3   1 2223.62  101.70
   1  -3   1 1958.64  120.70
   1   3   1 2045.94  125.99
   1   3   1 2163.54  104.19
   1  -3   1 2165.17  117.40
   1  -3   1 2226.26  113.17
   1  -3   1 2252.19  103.86
   1  -3   2 3961.44  206.75
   1  -3   2 3712.22  172.88
   1   3   2 3605.02  214.92
   1  -3   2 3902.04  206.32
   1   3   2 3764.52  171.45
   1  -3   2 3476.14  214.05
   1   3   2 3781.13  216.81
   1  -3   3  987.50   92.13
   1  -3   3  938.53   53.99
   1  -3   3  837.73   46.90
   1   3   3  802.66   89.45
   1   3   4  263.47   59.70
   1  -3   4  225.58   55.06
   1   5  -4 1261.45  133.86
   1  -5  -3 1803.77   96.01
   1  -5  -3 1981.95   86.83
   1  -5  -3 1981.89   87.93
   1   5  -3 1767.29  140.33
   1  -5  -3 1848.62   91.29
   1   5  -3 1984.63  107.80
   1   5  -2  658.16   33.03
   1   5  -2  622.33   61.53
   1  -5  -2  697.50   37.72
   1   5  -2  752.40   47.10
   1  -5  -2  618.69   35.68
   1  -5  -2  550.64   34.38
   1   5  -2  675.30   61.72
   1   5  -1 3444.85  175.30
   1   5  -1 3416.64  158.86
   1   5  -1 3705.19  165.46
   1  -5  -1 3472.58  159.07
   1   5  -1 3373.55  175.28
   1   5  -1 3744.09  166.87
   1  -5   0 6315.69  269.59
   1   5   0 6355.46  269.45
   1  -5   0 5939.27  273.44
   1   5   0 5937.79  269.46
   1   5   0 5752.14  268.90
   1  -5   1 1168.19   70.18
   1   5   1  976.02   47.62
   1   5   1 1074.93   54.33
   1  -5   1  972.62   64.09
   1  -5   1  972.11   55.40
   1  -5   2 1652.02  110.98
   1  -5   2 1829.12  103.67
   1  -5   2 1558.54   70.24
   1  -5   2 1536.19  117.81
   1  -5   2 1632.42   83.99
   1   5   2 1384.46  117.53
   1  -5   2 1491.26  105.33
   1  -5   3 2998.36  194.35
   1  -5   3 3159.40  154.11
   1  -5   3 3037.00  142.74
   1   5   3 3019.05  212.08
   1   5   4  158.55   55.55
   1  -5   4   65.21   46.07
   1   7  -4  123.09   40.61
   1  -7  -3  145.23   11.53
   1  -7  -3  164.97   12.88
   1  -7  -3  171.32   18.11
   1  -7  -3  165.87   19.15
   1   7  -3  132.15   35.86
   1   7  -2  975.16   79.85
   1  -7  -2 1071.39   55.77
   1  -7  -2  934.31   50.67
   1   7  -2  935.53   80.10
   1  -7  -2  945.39   54.24
   1  -7  -2  907.97   50.00
   1   7  -2 1015.38   63.70
   1   7  -1  631.31   50.47
   1   7  -1  573.23   34.57
   1  -7  -1  518.61   33.55
   1   7  -1  577.22   50.44
   1  -7   0 1348.65   72.22
   1  -7   0 1497.02   78.37
   1   7   0 1444.53   75.29
   1   7   0 1330.26   72.20
   1  -7   1 1188.67   62.20
   1   7   1 1227.86   62.21
   1   7   1 1350.74   67.70
   1  -7   1 1355.06   71.22
   1  -7   2  114.70   25.42
   1  -7   2   84.05    9.09
   1  -7   2  108.14   33.32
   1  -7   2  101.64   27.75
   1  -7   2   88.13   16.48
   1   7   3  123.98   39.89
   1  -7   3  174.80   36.11
   1  -7   3  155.11   23.14
   1   7   4  275.48   64.45
   1  -7   4  252.56   51.66
   1   9  -4 1252.43  135.19
   1  -9  -3 1273.02   62.40
   1  -9  -3 1230.89   61.14
   1  -9  -3 1359.17   74.49
   1   9  -3 1179.68  112.18
   1  -9  -2  778.69   46.41
   1  -9  -2  644.31   39.90
   1   9  -2  588.88   68.16
   1   9  -1 4170.22  199.48
   1   9  -1 4423.17  215.90
   1  -9  -1 3810.54  189.21
   1   9  -1 3977.51  209.97
   1  -9  -1 4402.77  192.68
   1  -9   0 3404.95  163.31
   1   9   0 3408.71  163.94
   1   9   0 3548.95  181.18
   1  -9   0 3550.20  160.44
   1   9   0 3189.88  167.22
   1   9   0 3436.04  163.11
   1  -9   1 1194.66   65.41
   1  -9   1 1402.26   88.68
   1   9   1 1220.14   66.11
   1   9   1 1395.56   72.11
   1  -9   1 1323.63   88.94
   1  -9   1 1251.70   74.21
   1   9   2 1904.99   88.85
   1  -9   2 2151.72  122.64
   1  -9   2 1863.54   92.63
   1   9   2 2079.55  107.13
   1  -9   2 1732.17  103.97
   1  -9   2 1987.96  128.63
   1  -9   3 1504.88  116.35
   1  -9   3 1227.47   83.00
   1   9   3 1238.80  132.51
   1 -11  -3  540.86   43.31
   1  11  -3  471.60   68.79
   1 -11  -2 2325.52  113.05
   1  11  -2 2128.33  151.62
   1 -11  -1  766.26   49.41
   1  11  -1  807.57   56.97
   1  11  -1  879.50   72.84
   1 -11  -1  795.94   50.64
   1  11  -1  697.42   66.98
   1  11   0  990.68   78.67
   1 -11   0 1061.99   59.63
   1  11   0 1018.17   69.69
   1 -11   0 1076.35   69.08
   1  11   0  967.09   62.41
   1 -11   0  960.76   61.85
   1 -11   1 2494.57  147.06
   1 -11   1 2476.47  121.95
   1 -11   1 2512.74  143.79
   1  11   1 2604.79  128.64
   1  11   1 2369.64  122.60
   1 -11   1 2497.30  131.04
   1 -11   2  237.92   22.05
   1 -11   2  325.84   49.55
   1  11   2  275.54   21.00
   1  11   2  313.08   32.12
   1 -11   2  231.48   29.78
   1 -11   3  664.28   77.04
   1 -11   3  552.96   51.59
   1  11   3  616.82   54.07
   1 -13  -3 1117.57   74.25
   1  13  -3  972.34  107.19
   1 -13  -2  167.94   24.19
   1  13  -2  111.48   44.24
   1 -13  -2  180.33   20.01
   1  13  -1 1231.18   95.67
   1 -13  -1 1246.90   73.33
   1  13   0 1099.55   72.48
   1  13   0 1114.14   81.85
   1 -13   0 1285.45   79.46
   1 -13   0 1183.15   73.09
   1 -13   1  574.38   41.48
   1  13   1  651.22   49.24
   1  13   1  538.11   42.03
   1 -13   1  594.82   47.76
   1 -13   1  575.84   48.53
   1 -13   2 1632.29  119.75
   1 -13   2 1457.83   83.46
   1  13   2 1718.77   96.40
   1 -13   2 1452.59   95.23
   1 -13   3  421.43   63.58
   1 -13   3  363.66   42.79
   1  13   3  453.40   44.91
   1 -15  -3  363.27   40.82
   1  15  -3  425.13   75.81
   1 -15  -2   10.67    9.39
   1 -15  -2   15.72   11.53
   1 -15  -2   30.93   10.89
   1  15  -2   -8.73   35.95
   1  15  -1  456.21   59.05
   1 -15  -1  499.03   41.82
   1  15   0  616.54   59.87
   1 -15   0  570.46   48.78
   1  15   1  152.20   24.73
   1 -15   1  136.85   23.43
   1 -15   2  659.78   77.60
   1  15   2  804.89   60.36
   1 -15   2  650.72   58.85
   1 -17  -2 2107.99  116.86
   1 -17  -2 2084.99  125.25
   1  17  -2 1969.50  166.50
   1 -17  -2 2107.62  115.27
   1 -17  -1  178.02   25.94
   1 -17  -1  196.30   26.96
   1  17  -1  161.44   44.54
   1  17   0   64.17   19.41
   1 -17   0   73.42   21.91
   1 -17   0   52.61   14.82
   1  17   1 2559.01  145.03
   1 -17   1 2282.51  138.69
   1  17   2  338.29   41.03
   1 -17   2  259.12   37.09
   1 -19  -1  659.76   57.74
   1  19  -1  795.57   92.93
   1  19   0  533.56   64.80
   1 -19   0  668.41   58.69
   1 -19   1  178.20   31.36
   2   0  -4 3599.34  214.12
   2   0  -4 3662.94  252.74
   2   0  -3  165.63   18.79
   2   0  -3  134.23   38.81
   2   0  -2  242.62   22.92
   2   0  -2  229.04   37.86
   2   0  -1 8980.81  404.31
   2   0  -1 9030.22  397.81
   2   0  -1 9999.00  411.72
   2   0  -1 9155.91  409.70
   2   0   0 1585.45   73.65
   2   0   0 1388.97   70.92
   2   0   0 1569.80   72.15
   2   0   0 1455.45   71.33
   2   0   0 1541.39   72.12
   2   0   1  697.43   34.70
   2   0   1  578.76   49.45
   2   0   1  617.96   35.54
   2   0   1  601.16   32.11
   2   0   1  657.08   52.29
   2   0   1  556.74   30.88
   2   0   1  595.89   51.94
   2   0   2 3909.77  228.79
   2   0   2 4066.52  184.19
   2   0   2 4226.33  192.36
   2   0   2 4078.96  184.15
   2   0   2 4342.06  232.57
   2   0   2 4336.11  183.08
   2   0   2 3992.43  229.61
   2   0   3 1455.41   78.87
   2   0   3 1617.40  129.39
   2   0   4  241.65   63.68
   2  -2  -4   43.49   25.23
   2   2  -4   66.59   30.13
   2  -2  -4    6.36   30.67
   2   2  -4   27.56   37.15
   2  -2  -4   66.00   12.97
   2  -2  -3  939.54   48.74
   2  -2  -3  914.29   90.97
   2   2  -3  801.19   83.03
   2   2  -3  936.04   67.64
   2   2  -3  916.24   39.84
   2   2  -2 1014.70   60.33
   2  -2  -2  762.26   50.22
   2   2  -2  869.12   53.62
   2  -2  -2  876.04   40.62
   2  -2  -2 1026.39   79.41
   2   2  -2  907.78   71.51
   2   2  -2  858.34   70.42
   2  -2  -1 1715.95   80.09
   2   2  -1 1531.42   81.12
   2   2  -1 1372.79   74.71
   2   2  -1 1696.19   84.15
   2  -2  -1 1692.43   77.06
   2   2  -1 1525.94   82.61
   2   2   0 2516.85  123.40
   2  -2   0 2344.32  123.26
   2  -2   0 2876.62  123.29
   2  -2   0 2809.74  122.03
   2  -2   1 2076.52  112.64
   2   2   1 1954.72   90.86
   2  -2   1 2144.27  107.76
   2   2   1 2072.90   94.73
   2  -2   1 1925.67   93.42
   2  -2   1 1741.58  109.22
   2   2   1 1971.55   97.46
   2   2   1 1886.89  118.09
   2  -2   1 1946.04  110.84
   2   2   1 1988.39  120.26
   2   2   1 1951.90   88.31
   2  -2   2  495.24   25.44
   2  -2   2  470.47   58.36
   2  -2   2  520.29   32.12
   2   2   2  530.90   35.70
   2   2   2  445.08   57.79
   2  -2   2  421.05   52.26
   2   2   2  492.31   29.81
   2   2   2  504.96   62.73
   2  -2   2  493.82   58.51
   2  -2   3 1251.79  108.83
   2  -2   3 1161.82   59.26
   2  -2   3 1063.26   61.07
   2   2   3  995.47   60.52
   2   2   3  971.14  104.99
   2   2   4  162.81   59.21
   2  -2   4  207.55   63.64
   2   4  -4  137.23   44.74
   2   4  -3 1083.91   77.17
   2   4  -3 1113.40   50.71
   2  -4  -3 1091.70   61.44
   2   4  -3 1003.52   65.31
   2   4  -3  846.39   90.51
   2  -4  -3 1057.34   60.00
   2   4  -2 2300.75  110.43
   2   4  -2 2054.74  100.06
   2  -4  -2 2116.23  103.83
   2   4  -2 2274.37  130.22
   2  -4  -2 1980.92  102.09
   2   4  -2 2070.06  127.28
   2   4  -1  859.96   56.44
   2  -4  -1  884.80   49.91
   2   4  -1  901.04   49.70
   2   4  -1  936.56   54.06
   2   4  -1  855.19   57.12
   2  -4   0 4538.00  196.12
   2  -4   0 4560.59  193.51
   2  -4   1 3524.55  178.93
   2  -4   1 3768.05  175.95
   2  -4   1 3575.24  162.90
   2   4   1 3663.55  162.97
   2  -4   1 3366.90  179.36
   2   4   1 3462.06  157.59
   2   4   1 3100.13  189.46
   2   4   1 3497.86  165.93
   2  -4   1 3293.79  176.70
   2  -4   2  364.40   40.56
   2   4   2  302.91   53.57
   2   4   2  326.32   24.46
   2  -4   2  281.96   45.25
   2  -4   2  246.94   41.87
   2   4   2  281.95   26.36
   2  -4   2  307.96   42.18
   2   4   2  255.95   47.51
   2  -4   2  313.28   26.95
   2  -4   3 1835.13  143.61
   2  -4   3 1968.13   99.39
   2  -4   3 1820.81   95.15
   2   4   3 1830.36  153.35
   2   4   4  628.76   95.56
   2  -4   4  607.43   89.83
   2   6  -4  750.86   95.42
   2  -6  -3  737.67   46.80
   2  -6  -3  804.81   42.54
   2   6  -3  733.44   79.32
   2  -6  -3  721.44   46.58
   2  -6  -3  784.64   46.42
   2   6  -2 2775.17  133.51
   2   6  -2 3150.38  146.72
   2   6  -2 2954.00  165.79
   2  -6  -2 2693.25  134.00
   2  -6  -2 2905.69  136.20
   2   6  -2 2925.23  165.54
   2   6  -1 2150.22  106.33
   2   6  -1 2206.23  118.46
   2  -6  -1 2117.98  106.11
   2   6  -1 2267.79  118.20
   2   6   0 1233.78   65.51
   2  -6   0 1385.87   69.98
   2   6   0 1299.01   70.08
   2  -6   1 5213.32  244.46
   2   6   1 5249.73  228.33
   2   6   1 4436.85  261.21
   2   6   1 5038.73  230.87
   2  -6   1 5065.22  229.24
   2  -6   1 4954.32  239.46
   2   6   1 4788.03  219.11
   2  -6   2  718.49   72.45
   2  -6   2  807.99   66.26
   2  -6   2  792.84   39.45
   2  -6   2  743.15   51.54
   2   6   3   71.59   43.04
   2  -6   3   45.81   30.78
   2  -6   3   71.30   14.80
   2   8  -4  112.94   43.76
   2  -8  -3 2287.73  114.99
   2  -8  -3 2296.21  113.17
   2  -8  -3 2482.47  116.35
   2   8  -2 1830.46  119.77
   2   8  -2 1707.52   86.56
   2  -8  -2 1662.78   87.47
   2   8  -2 1629.53  115.99
   2   8  -2 1757.27  101.10
   2   8  -1 1085.08   60.02
   2  -8  -1  981.98   39.07
   2  -8  -1 1155.55   52.05
   2   8  -1 1013.86   56.44
   2   8  -1 1097.98   50.11
   2  -8   0 3823.85   85.71
   2   8   0 4009.04   86.03
   2   8   0 3967.26   88.72
   2   8   0 3981.58   87.70
   2  -8   1 1947.25  105.74
   2   8   1 1889.87   96.69
   2  -8   1 2054.71  120.63
   2   8   1 2090.66  105.18
   2  -8   1 2036.53  121.03
   2   8   1 2191.74   99.29
   2  -8   2 1072.82   88.50
   2  -8   2 1087.11   54.52
   2  -8   2  979.58   67.29
   2  -8   3  923.80   89.53
   2  -8   3  842.20   61.20
   2   8   3  797.76  105.08
   2 -10  -3  217.47   20.13
   2 -10  -3  197.60   23.59
   2  10  -2   71.31   13.49
   2  10  -2  120.81   31.95
   2 -10  -2  107.17   16.09
   2  10  -1 2949.10  153.52
   2  10  -1 2386.50  126.58
   2 -10  -1 2361.63  126.07
   2 -10  -1 2912.87  138.93
   2  10  -1 2456.77  142.99
   2  10  -1 2588.39  135.56
   2 -10   0  251.26   27.61
   2  10   0  306.17   28.89
   2  10   0  269.22   29.94
   2 -10   0  335.75   33.49
   2  10   0  333.91   29.80
   2  10   1  331.13   31.63
   2  10   1  318.98   25.98
   2 -10   1  375.75   50.05
   2 -10   1  356.31   41.31
   2  10   1  356.79   28.22
   2 -10   1  341.59   33.66
   2 -10   2 1513.72   78.48
   2  10   2 1818.08   90.17
   2  10   2 1501.78   71.37
   2 -10   2 1573.84   94.36
   2 -10   2 1574.99  115.58
   2 -10   3  312.74   53.65
   2 -10   3  261.29   32.82
   2  10   3  332.21   36.44
   2  10   3  204.82   65.42
   2 -12  -3  455.92   33.37
   2 -12  -3  482.76   40.39
   2  12  -3  452.47   66.97
   2 -12  -2 1562.13   84.70
   2  12  -2 1428.56  118.43
   2 -12  -1  248.17   26.85
   2  12  -1  284.76   29.07
   2  12  -1  340.73   46.55
   2 -12   0  533.70   43.54
   2  12   0  560.49   43.59
   2  12   0  554.99   43.72
   2  12   0  489.25   45.35
   2 -12   0  564.53   49.70
   2 -12   1 2029.00  126.64
   2 -12   1 1832.70   95.79
   2  12   1 1665.60   95.44
   2  12   1 2045.75   99.62
   2 -12   1 1726.25  104.34
   2 -12   2  123.00   15.83
   2 -12   2  170.30   40.97
   2  12   2  159.30   22.39
   2 -12   2  129.10   23.72
   2 -12   3  140.08   42.63
   2  12   3  107.85   20.25
   2 -12   3   81.45   19.43
   2 -14  -3  865.43   63.09
   2  14  -3  815.03   98.80
   2 -14  -2  741.88   51.24
   2  14  -2  665.61   81.04
   2 -14  -1 1240.77   76.34
   2  14  -1 1254.15   98.06
   2  14   0 2806.97  156.15
   2 -14   0 2779.28  147.48
   2  14   1  504.54   40.93
   2  14   1  435.79   37.99
   2 -14   1  480.00   44.81
   2 -14   2  949.74   76.03
   2 -14   2 1038.47   98.14
   2 -16  -2  103.88   18.64
   2  16  -2   45.40   25.89
   2  16  -1 1046.52   94.40
   2 -16  -1  986.52   68.17
   2 -16   0   27.69   15.07
   2  16   0   20.00   13.31
   2 -16   1  254.67   35.14
   2  16   1  227.16   31.22
   2 -16   2  563.17   71.44
   2 -16   2  630.28   59.15
   2  18  -1 1008.39   98.28
   2 -18  -1  977.91   71.08
   2  18   0  340.03   45.89
   2 -18   0  378.10   43.41
   2 -18   1   97.05   24.04
   2 -18   1   97.78   25.65
   3  -1  -4  -16.41   23.08
   3   1  -4    3.45   24.35
   3  -1  -4   26.88    8.80
   3  -1  -4    4.30   14.66
   3   1  -4   13.17   25.18
   3  -1  -3 2454.63  132.43
   3   1  -3 2377.19  133.32
   3  -1  -3 2702.44  175.76
   3   1  -3 2705.07  174.63
   3  -1  -2  475.97   36.79
   3  -1  -2  460.52   26.74
   3  -1  -2  450.97   47.06
   3   1  -2  515.83   49.38
   3   1  -2  447.26   27.29
   3   1  -2  474.43   47.11
   3   1  -1  167.78   20.18
   3  -1  -1  190.49   15.17
   3   1  -1  196.85   17.41
   3   1  -1  198.03   18.49
   3   1  -1  155.69   16.68
   3  -1  -1  229.89   20.03
   3  -1   0 3418.53  146.65
   3  -1   0 2998.34  147.67
   3   1   0 3073.51  143.40
   3  -1   0 3464.51  150.76
   3   1   0 2936.82  150.80
   3   1   0 2930.05  147.93
   3  -1   0 3326.30  146.47
   3  -1   0 3438.56  147.39
   3   1   0 2922.17  150.46
   3   1   0 3303.21  149.01
   3  -1   1 2164.50  112.23
   3   1   1 2225.93   99.72
   3   1   1 1815.72  106.09
   3  -1   1 1834.90  108.80
   3  -1   1 2076.20   98.20
   3   1   1 2015.78  100.48
   3  -1   1 2021.50   96.34
   3   1   1 1701.28  116.21
   3  -1   1 1835.76  113.86
   3  -1   1 1946.63   93.89
   3   1   1 1932.77  120.37
   3   1   1 2041.59   94.79
   3   1   1 2005.16   94.54
   3  -1   1 1870.13  114.43
   3  -1   2  372.60   25.21
   3   1   2  377.62   26.30
   3   1   2  364.40   54.49
   3  -1   2  368.39   28.99
   3   1   2  331.61   45.97
   3  -1   2  333.31   47.90
   3   1   2  331.78   29.59
   3  -1   2  370.06   49.45
   3  -1   2  353.57   23.32
   3   1   2  338.83   48.95
   3   1   2  392.34   22.88
   3  -1   2  316.07   47.84
   3  -1   2  357.15   25.78
   3   1   2  391.28   22.83
   3  -1   3 1412.32   65.35
   3  -1   3 1243.38   75.14
   3   1   3 1228.48   75.37
   3   1   3 1148.81  115.26
   3  -1   3 1156.21  113.00
   3  -3  -4  439.85   37.63
   3   3  -4  340.06   61.97
   3   3  -4  497.18   55.30
   3   3  -3 1240.58   79.31
   3   3  -3 1182.99   62.40
   3   3  -3 1044.96   71.33
   3   3  -3 1026.23   98.52
   3  -3  -3 1158.39   70.53
   3  -3  -2 3313.17  161.91
   3   3  -2 3588.15  162.02
   3   3  -2 3218.61  157.83
   3   3  -2 3300.27  167.55
   3   3  -2 3794.41  184.43
   3   3  -2 3150.83  179.09
   3  -3  -2 3312.86  163.55
   3   3  -1 1250.72   73.47
   3   3  -1 1253.16   71.31
   3  -3  -1 1446.84   75.38
   3   3  -1 1425.12   75.42
   3  -3  -1 1483.75   71.67
   3  -3   0 1834.96   94.11
   3   3   0 2038.54   96.32
   3   3   0 1769.81   95.46
   3  -3   0 1799.19   96.02
   3  -3   0 1940.40   92.90
   3  -3   1 5711.97  283.48
   3  -3   1 6541.88  282.06
   3   3   1 5968.25  263.06
   3   3   1 6067.38  266.64
   3   3   1 5502.24  270.84
   3  -3   1 5254.70  277.52
   3  -3   1 5972.85  265.22
   3   3   1 5994.26  270.66
   3   3   1 4891.39  292.14
   3   3   1 6048.01  259.90
   3  -3   1 5681.54  282.60
   3  -3   2  175.15   15.16
   3   3   2  164.39   17.63
   3   3   2  159.30   46.26
   3  -3   2  167.16   38.88
   3   3   2  147.69   10.15
   3  -3   2  146.87   17.08
   3   3   2  158.94   29.75
   3  -3   2  196.57   37.81
   3   3   2  190.37   22.39
   3   3   2  142.02   39.30
   3  -3   2  140.01   34.38
   3  -3   2  151.25   17.80
   3  -3   3  593.91   77.72
   3  -3   3  657.27   40.38
   3   3   3  487.20   76.37
   3  -3   3  580.18   42.04
   3   3   3  539.85   42.53
   3   5  -4 1569.06  144.22
   3   5  -3  110.69   13.48
   3  -5  -3  126.16    9.70
   3  -5  -3  118.59   18.27
   3  -5  -3  137.25   11.29
   3   5  -3   93.08   27.96
   3   5  -2 1412.34   79.80
   3  -5  -2 1551.57   83.33
   3   5  -2 1693.88   91.60
   3   5  -2 1424.75   99.19
   3   5  -2 1545.87  100.79
   3  -5  -1 7144.13  317.69
   3   5  -1 6780.58  321.93
   3   5  -1 7074.44  317.66
   3   5  -1 6553.85  315.85
   3   5  -1 7121.74  321.29
   3  -5  -1 7381.38  314.04
   3  -5   0  481.10   37.02
   3   5   0  454.15   34.81
   3  -5   0  485.57   37.66
   3  -5   0  454.39   33.94
   3  -5   1 1015.25   69.68
   3   5   1  933.68   55.32
   3   5   1  842.11   54.88
   3  -5   1  903.71   54.26
   3   5   1  899.31   50.58
   3  -5   1  875.77   65.46
   3   5   1  798.36   77.19
   3   5   1  966.45   58.81
   3  -5   1  890.22   63.78
   3   5   2 4425.39  202.87
   3  -5   2 4259.50  239.14
   3   5   2 4341.62  209.83
   3   5   2 3660.69  251.17
   3  -5   2 4399.78  205.97
   3   5   3   31.95   32.46
   3  -5   3  101.90   47.75
   3  -5   3  110.70   15.62
   3   7  -4  157.09   48.89
   3  -7  -3  576.04   46.15
   3   7  -3  727.23   41.86
   3   7  -3  619.19   72.27
   3  -7  -3  716.91   41.20
   3  -7  -3  652.14   45.93
   3   7  -2  405.54   47.40
   3   7  -2  423.87   39.44
   3   7  -2  382.16   47.93
   3  -7  -2  465.59   32.98
   3  -7  -2  429.99   34.46
   3   7  -1  464.65   38.64
   3  -7  -1  566.58   38.97
   3  -7  -1  516.99   33.27
   3   7  -1  536.28   40.82
   3   7   0 1142.98   67.23
   3  -7   0 1118.56   65.76
   3  -7   1  361.90   44.83
   3  -7   1  366.38   32.27
   3   7   1  375.73   32.91
   3  -7   1  355.77   41.19
   3   7   1  411.85   23.71
   3   7   1  396.16   29.07
   3   7   1  354.99   33.22
   3   7   1  324.14   49.95
   3   7   1  381.02   26.36
   3   7   2   41.89   12.34
   3  -7   2   23.43   12.40
   3   7   2   16.64   11.10
   3   7   3  233.75   70.97
   3  -7   3  340.96   57.04
   3  -7   3  240.60   27.47
   3  -9  -3  570.45   39.63
   3   9  -3  501.48   67.78
   3  -9  -3  483.36   38.55
   3   9  -2 2036.38  133.78
   3   9  -2 1886.82  103.99
   3  -9  -2 1985.72  105.60
   3   9  -2 1955.75  131.97
   3  -9  -2 2160.90  105.39
   3   9  -1 1798.58   99.10
   3   9  -1 1846.54  112.87
   3  -9  -1 2111.36  108.88
   3   9  -1 1775.64  104.56
   3  -9  -1 1763.80   97.78
   3   9  -1 1817.90  109.27
   3   9   0 2094.93  111.75
   3  -9   0 2003.86  110.43
   3  -9   0 2300.47  121.26
   3   9   0 2003.43  111.46
   3   9   0 2173.14  111.36
   3  -9   1 1683.28   99.70
   3  -9   1 1727.02  115.44
   3   9   1 1796.34   99.97
   3   9   1 1951.19   87.58
   3   9   1 1779.98   91.68
   3  -9   2 1432.23  111.07
   3   9   2 1491.25   87.52
   3   9   2 1705.38   84.84
   3  -9   2 1361.85   89.43
   3  -9   3 1299.70  115.78
   3  -9   3 1233.71   81.12
   3   9   3 1076.07  131.10
   3 -11  -3 1236.81   72.11
   3  11  -3 1124.12  110.58
   3  11  -2  231.83   25.92
   3 -11  -2  282.96   27.70
   3  11  -2  194.27   39.04
   3  11  -1 1135.13   86.00
   3  11  -1 1033.27   67.83
   3 -11  -1 1063.13   67.73
   3  11  -1 1197.95   83.47
   3 -11   0 1836.02  104.47
   3  11   0 1947.91  105.80
   3  11   0 1896.73  105.18
   3 -11   1  206.52   27.25
   3  11   1  176.98   20.72
   3  11   1  256.00   30.03
   3  11   1  242.94   19.50
   3 -11   1  171.21   41.05
   3 -11   2 1249.12  105.17
   3 -11   2 1143.89   67.74
   3 -11   2 1193.04   83.08
   3  11   3  490.07   94.97
   3 -11   3  567.08   77.22
   3 -11   3  490.35   48.12
   3 -13  -3  340.96   31.68
   3 -13  -3  391.57   37.32
   3  13  -3  465.25   67.06
   3  13  -2 1251.80   76.68
   3 -13  -2 1292.03   77.01
   3  13  -2 1068.22  101.50
   3 -13  -1 1074.10   70.38
   3  13  -1 1166.97   72.34
   3  13  -1  992.82   83.55
   3  13   0 1126.14   73.30
   3 -13   0 1055.87   71.96
   3  13   1 1460.28   87.83
   3  13   1 1574.68   96.30
   3  13   1 1813.99   87.05
   3 -13   1 1550.17   98.08
   3 -13   2  476.57   66.68
   3  13   2  544.40   40.33
   3 -13   2  488.53   50.48
   3 -15  -2  492.81   43.18
   3  15  -2  573.60   72.86
   3 -15  -1  207.09   28.17
   3  15  -1  228.48   29.59
   3  15  -1  223.57   40.17
   3  15   0  216.55   30.99
   3 -15   0  193.00   29.54
   3 -15   1  980.49   73.31
   3 -15   2   96.94   23.39
   3 -15   2   69.68   40.10
   3 -15   2  115.01   23.50
   3 -17  -2  339.84   37.91
   3  17  -2  383.00   69.28
   3 -17  -1  124.48   25.88
   3  17  -1  151.98   36.37
   3 -17   0 1741.15  109.71
   3 -17   1  550.94   56.15
   3  19  -1  340.93   54.61
   3 -19  -1  400.88   43.18
   3 -19   0  416.10   46.58
   4   0  -4  508.75   55.52
   4   0  -4  422.31   70.01
   4   0  -3  259.64   29.55
   4   0  -3  255.79   43.06
   4   0  -2 3295.44  165.16
   4   0  -2 3720.22  189.11
   4   0  -1 4391.78  201.63
   4   0   0 1297.03   75.54
   4   0   0 1343.00   72.00
   4   0   0 1383.28   73.36
   4   0   0 1530.80   78.86
   4   0   0 1527.72   75.84
   4   0   0 1410.74   73.73
   4   0   1 4682.78  217.94
   4   0   1 3898.61  206.82
   4   0   1 4567.01  204.54
   4   0   1 4104.64  221.79
   4   0   1 4466.67  200.26
   4   0   1 4317.66  197.94
   4   0   1 4200.98  224.06
   4   0   2 2835.74  132.23
   4   0   2 3143.15  137.48
   4   0   2 2543.90  160.88
   4   0   2 2633.55  141.18
   4   0   2 2763.84  130.95
   4   0   2 2530.52  173.98
   4   0   3  440.99   72.85
   4   2  -4  900.65   73.54
   4   2  -4  765.53   93.10
   4  -2  -4  796.96   61.61
   4   2  -3  247.38   30.08
   4  -2  -3  189.72   24.90
   4  -2  -3  212.49   28.32
   4   2  -3  183.88   25.25
   4   2  -3  212.15   41.69
   4  -2  -2  935.19   57.00
   4   2  -2  854.45   58.90
   4  -2  -2  794.01   56.61
   4  -2  -2  770.80   43.88
   4   2  -2  698.82   45.80
   4   2  -2  824.09   63.63
   4   2  -2  751.26   60.75
   4   2  -1 3311.77  156.30
   4   2  -1 3512.68  150.63
   4  -2  -1 3331.46  161.01
   4   2  -1 2939.53  148.77
   4   2   0  383.39   30.30
   4  -2   0  370.93   26.09
   4  -2   0  336.88   29.76
   4  -2   0  349.82   29.37
   4   2   0  322.82   21.93
   4   2   0  288.54   30.40
   4  -2   0  355.40   24.90
   4  -2   0  340.47   26.04
   4  -2   1  956.29   70.15
   4   2   1  882.87   52.12
   4  -2   1  965.29   66.39
   4   2   1 1001.92   56.33
   4   2   1  821.48   49.55
   4   2   1  901.38   55.48
   4  -2   1  864.30   60.94
   4  -2   1  896.83   52.61
   4   2   1 1013.37   58.89
   4   2   1  816.65   71.05
   4  -2   1  828.56   52.14
   4  -2   1  867.73   67.42
   4  -2   1  873.39   49.84
   4   2   1  797.26   71.11
   4  -2   2 1044.53   93.91
   4  -2   2 1038.85   62.00
   4   2   2 1154.72   59.43
   4   2   2 1178.50   56.11
   4  -2   2 1274.35   63.31
   4   2   2 1132.18   64.51
   4   2   2  913.89   79.72
   4  -2   2 1148.37   89.30
   4  -2   2 1090.40   66.07
   4   2   2 1068.32   69.97
   4  -2   2 1029.26   58.96
   4   2   2 1059.87   98.62
   4   2   3   36.09    8.23
   4  -2   3   51.79   30.24
   4  -2   3   34.99    6.93
   4  -4  -4  528.83   45.48
   4   4  -4  487.79   77.96
   4   4  -3 1673.25   80.47
   4  -4  -3 1315.49   78.53
   4  -4  -3 1533.15   60.59
   4   4  -3 1448.68  110.05
   4  -4  -3 1463.99   80.06
   4   4  -3 1394.67  107.44
   4   4  -2  526.96   40.62
   4   4  -2  635.16   51.01
   4  -4  -2  620.81   45.80
   4   4  -2  620.09   52.78
   4   4  -2  489.36   36.88
   4  -4  -2  685.44   44.73
   4   4  -2  493.20   48.42
   4   4  -1 3033.77   79.25
   4  -4  -1 3616.22   90.96
   4   4  -1 3213.66   79.72
   4  -4  -1 3693.93   83.00
   4  -4   0 2743.62  133.01
   4   4   0 2738.22  137.46
   4  -4   0 2638.87  138.23
   4  -4   0 2774.78  136.22
   4  -4   1  567.51   54.20
   4  -4   1  692.64   53.38
   4   4   1  596.24   42.43
   4   4   1  592.13   39.29
   4   4   1  529.89   36.44
   4  -4   1  572.36   48.32
   4  -4   1  530.09   39.45
   4   4   1  621.13   44.99
   4   4   1  483.21   57.41
   4  -4   1  572.88   52.84
   4   4   1  545.73   36.05
   4  -4   2 2136.08  106.07
   4  -4   2 1793.52  135.35
   4   4   2 2001.21  104.62
   4   4   2 1806.75  120.42
   4   4   2 2092.37   95.00
   4  -4   2 1852.97  102.81
   4   4   2 2060.56  112.22
   4   4   2 1615.75  143.65
   4   4   3  584.59   89.40
   4  -4   3  599.86   82.47
   4  -4   3  691.30   45.61
   4   6  -4   81.56   38.14
   4  -6  -3 2164.79  126.29
   4  -6  -3 2465.92  128.22
   4   6  -3 2441.20  121.75
   4   6  -3 2481.13  162.65
   4  -6  -2  626.00   47.36
   4   6  -2  595.15   45.39
   4   6  -2  659.18   58.83
   4  -6  -2  678.65   45.78
   4   6  -2  628.70   58.09
   4   6  -1  127.35   20.86
   4   6  -1   89.81   17.87
   4  -6  -1   91.36   18.30
   4  -6  -1   92.21   13.64
   4  -6  -1   63.95   17.57
   4   6  -1  102.25   19.54
   4   6  -1   80.86   15.41
   4   6  -1  109.73   20.71
   4   6   0 4698.31  219.78
   4  -6   0 4805.14  220.47
   4   6   0 4537.50  219.99
   4  -6   0 4458.07  222.67
   4   6   0 4443.58  221.17
   4  -6   0 4640.76  218.58
   4  -6   1  455.27   48.70
   4   6   1  476.05   39.41
   4   6   1  481.50   36.12
   4   6   1  492.50   28.29
   4  -6   1  451.34   38.00
   4  -6   1  493.28   47.76
   4   6   1  516.33   62.34
   4   6   1  469.48   41.73
   4  -6   1  457.57   45.17
   4   6   2  106.97   33.64
   4   6   2  146.54   20.19
   4  -6   2  106.25   35.58
   4   6   2  133.12   28.39
   4  -6   2  114.40   18.83
   4  -6   3 1337.68  123.93
   4  -6   3 1410.82   82.31
   4   6   3 1242.28  138.03
   4   8  -3  596.87   42.59
   4   8  -3  528.30   67.89
   4  -8  -3  621.92   47.69
   4   8  -2 1367.63  100.27
   4   8  -2 1276.64   81.54
   4   8  -2 1452.54  102.08
   4  -8  -2 1550.14   82.78
   4  -8  -2 1457.06   84.73
   4   8  -1 1928.46  115.24
   4   8  -1 1887.09  108.03
   4   8  -1 2029.19  114.67
   4  -8  -1 2125.83  115.23
   4  -8  -1 2005.80  108.73
   4   8  -1 2027.06  113.25
   4   8   0 1942.26  104.17
   4   8   0 1850.37  103.35
   4  -8   0 1779.66  107.46
   4  -8   0 1834.74  101.73
   4   8   0 1809.14  104.75
   4  -8   1 2300.10  132.42
   4   8   1 2186.69  116.30
   4  -8   1 2140.56  115.95
   4   8   1 2082.38  110.54
   4   8   1 1924.01  149.71
   4  -8   2  782.62   78.61
   4   8   2  820.33   54.99
   4   8   2  633.29   58.19
   4  -8   2  775.13   56.68
   4  -8   3  684.41   84.45
   4   8   3  489.48   90.86
   4  -8   3  700.81   53.43
   4 -10  -3    6.35    8.63
   4  10  -3    9.74    7.40
   4  10  -3   -4.92   16.63
   4  10  -2 1085.02   70.34
   4 -10  -2 1163.46   71.63
   4  10  -2 1079.36   92.24
   4  10  -1  507.83   52.36
   4  10  -1  551.64   46.50
   4 -10  -1  656.11   47.84
   4  10   0  227.07   30.47
   4 -10   0  198.15   27.63
   4  10   0  195.61   26.38
   4 -10   1 1551.47   95.15
   4 -10   1 1621.04  109.90
   4  10   1 1725.55   96.69
   4  10   1 1578.00   86.12
   4 -10   2  713.19   76.23
   4  10   2  733.54   56.25
   4  10   2  891.58   48.13
   4 -10   2  647.11   56.74
   4  10   3  106.54   61.13
   4 -10   3  124.56   40.32
   4 -10   3  138.97   22.68
   4  12  -3 1170.28   72.71
   4 -12  -3 1250.67   76.63
   4  12  -3 1095.34  108.26
   4 -12  -2   27.84   12.14
   4  12  -2   32.20   14.73
   4  12  -2   16.84   29.51
   4 -12  -1   52.23   15.34
   4  12  -1   38.81   11.69
   4  12   0 2325.15  127.60
   4 -12   0 2240.88  126.37
   4  12   1  116.46   23.88
   4 -12   1  134.39   34.12
   4  12   1   98.31   16.86
   4 -12   1  128.34   23.72
   4  12   2   86.00   21.11
   4 -12   2   63.63   32.06
   4 -12   2   28.89   15.70
   4  14  -2 1111.07   75.30
   4 -14  -2 1179.32   76.78
   4  14  -2 1059.13  101.67
   4  14  -1 2120.02  124.29
   4 -14  -1 2257.46  125.30
   4  14  -1 2193.83  141.21
   4  14   0   93.89   22.24
   4 -14   0   82.65   19.80
   4 -14   1  976.23   72.72
   4  14   1  925.39   70.10
   4 -14   2 1448.37  125.01
   4 -14   2 1584.08  105.88
   4 -16  -2  442.80   42.76
   4  16  -2  398.23   41.19
   4  16  -2  456.27   71.09
   4  16  -1  114.10   25.75
   4 -16  -1  137.05   24.07
   4  16  -1  142.18   32.16
   4 -16   0  321.17   38.62
   4  16   0  361.19   41.16
   4 -16   1  495.68   50.99
   4 -18  -1  447.43   47.68
   4  18  -1  503.88   68.48
   4 -18   0   70.29   21.90
   5   1  -4  902.75   71.36
   5  -1  -4  799.47   66.91
   5   1  -4  728.17   90.97
   5   1  -3  872.63   82.71
   5  -1  -3  918.04   50.22
   5  -1  -2  231.39   27.80
   5   1  -2  200.18   28.01
   5   1  -2  171.81   26.40
   5   1  -1 2419.16  121.98
   5  -1  -1 1972.10  118.98
   5  -1  -1 2181.42  111.21
   5   1  -1 2233.24  114.01
   5  -1  -1 2339.02  117.62
   5   1   0 2730.45  127.68
   5  -1   0 2504.63  119.01
   5   1   0 2254.38  123.33
   5  -1   0 2131.20  124.60
   5  -1   0 2761.85  124.42
   5  -1   0 2296.85  125.75
   5  -1   0 2413.30  122.14
   5   1   0 2489.01  117.87
   5   1   0 2682.36  126.70
   5   1   0 2407.92  122.62
   5  -1   0 2405.89  118.24
   5  -1   0 2630.72  124.15
   5   1   0 2201.83  121.99
   5   1   0 2415.83  127.11
   5  -1   1  403.63   46.98
   5   1   1  349.30   31.32
   5  -1   1  477.51   45.12
   5   1   1  448.59   35.58
   5   1   1  376.60   33.07
   5  -1   1  434.90   38.46
   5  -1   1  494.81   36.75
   5   1   1  422.26   36.78
   5   1   1  357.08   45.82
   5  -1   1  426.53   45.69
   5  -1   1  416.90   33.57
   5  -1   1  431.09   31.91
   5   1   1  362.73   48.88
   5   1   1  447.21   33.36
   5   1   2 1384.11   75.35
   5  -1   2 1611.69   81.16
   5   1   2 1578.09   81.72
   5  -1   2 1403.41   76.78
   5   1   2 1447.73   73.73
   5   1   2 1235.73   92.05
   5  -1   2 1251.91   73.33
   5   1   2 1207.43  111.14
   5  -1   2 1344.56  113.04
   5   1   3  471.42   81.65
   5  -1   3  482.92   75.46
   5  -3  -4  505.98   49.68
   5   3  -4  653.47   81.70
   5   3  -3 2847.39  134.40
   5   3  -3 2681.71  134.51
   5  -3  -3 2457.80  122.63
   5   3  -3 2491.49  164.36
   5  -3  -3 2414.82  141.87
   5   3  -2   76.34    8.91
   5   3  -2   37.08   12.76
   5  -3  -2   53.05   19.47
   5  -3  -2   67.09   14.12
   5   3  -2   47.72   12.87
   5   3  -1 1703.13   92.65
   5   3  -1 2063.45  110.74
   5  -3  -1 1805.74  106.33
   5   3  -1 2088.23  105.33
   5   3  -1 1934.48   93.92
   5  -3  -1 2079.36  102.65
   5  -3   0 4015.73  198.63
   5   3   0 4199.74  200.22
   5   3   0 4480.18  200.02
   5  -3   0 4297.02  191.40
   5  -3   0 3870.71  196.61
   5   3   0 4368.89  201.73
   5  -3   0 4241.42  194.09
   5   3   1  184.90   22.04
   5  -3   1  179.89   27.88
   5   3   1  208.47   25.81
   5   3   1  122.02   32.14
   5  -3   1  195.17   34.23
   5   3   1  154.39   18.66
   5  -3   1  178.60   20.80
   5   3   1  176.26   20.72
   5  -3   1  184.48   25.97
   5   3   1  223.55   27.06
   5  -3   1  179.34   22.87
   5  -3   1  202.04   20.37
   5   3   1  160.01   33.41
   5  -3   1  192.45   29.67
   5  -3   2 1218.33  107.61
   5  -3   2 1619.02   81.84
   5  -3   2 1521.41   83.28
   5   3   2 1556.91   78.62
   5   3   2 1515.00   84.61
   5   3   2 1513.12   72.81
   5   3   2 1344.60   92.76
   5  -3   2 1269.11   76.67
   5   3   2 1216.63  117.87
   5  -3   3  949.51  103.98
   5   3   3  967.03  111.08
   5  -5  -4   13.96   12.89
   5   5  -4    5.93   27.13
   5   5  -3  169.10   22.56
   5   5  -3  185.74   36.84
   5  -5  -3  183.49   17.25
   5  -5  -3  106.85   24.40
   5   5  -3  149.09   32.33
   5   5  -2 4089.45  205.29
   5  -5  -2 4275.23  210.85
   5   5  -2 4395.91  217.94
   5   5  -2 3987.09  201.61
   5  -5  -2 4443.95  206.18
   5   5  -2 4165.42  215.53
   5  -5  -1  167.05   26.35
   5   5  -1  168.46   21.67
   5   5  -1  172.29   24.93
   5   5  -1  188.29   24.34
   5   5  -1  191.11   27.19
   5   5  -1  173.23   21.99
   5  -5  -1  161.01   20.91
   5   5   0  378.28   35.40
   5  -5   0  350.11   33.37
   5   5   0  377.98   35.43
   5  -5   0  336.58   33.76
   5   5   0  306.35   39.16
   5   5   0  343.10   33.72
   5  -5   0  311.06   28.36
   5  -5   0  357.83   34.80
   5  -5   1 4163.57  208.13
   5   5   1 4290.53  195.61
   5   5   1 3898.61  189.92
   5  -5   1 3526.50  199.76
   5   5   1 4105.61  176.73
   5  -5   1 3890.92  191.86
   5   5   1 3289.00  220.39
   5  -5   1 3729.77  202.11
   5   5   1 3261.40  220.43
   5   5   1 3991.73  186.88
   5  -5   2  247.16   26.48
   5   5   2  292.83   30.03
   5   5   2  193.02   47.34
   5  -5   2  204.09   44.46
   5   5   2  240.49   29.76
   5   5   2  266.25   21.98
   5   5   2  250.36   16.84
   5   5   3  122.71   49.49
   5  -5   3  207.59   54.58
   5  -7  -3  355.03   37.91
   5   7  -3  353.79   33.94
   5   7  -3  438.54   58.05
   5   7  -2  177.72   25.20
   5   7  -2  174.65   29.35
   5  -7  -2  158.55   24.87
   5   7  -2  126.18   24.10
   5   7  -1  477.49   43.56
   5   7  -1  502.70   43.79
   5   7  -1  430.11   40.46
   5   7  -1  489.87   41.36
   5  -7  -1  484.17   43.00
   5   7   0  635.36   50.09
   5   7   0  655.52   50.29
   5  -7   0  577.57   49.64
   5  -7   0  557.72   47.50
   5   7   1   71.82   19.93
   5  -7   1  108.30   30.20
   5   7   1   68.59   15.17
   5   7   1   76.87   26.87
   5  -7   1   56.43   15.68
   5  -7   2  226.99   29.82
   5   7   2  279.10   31.09
   5   7   2  250.53   58.65
   5  -7   2  354.09   55.67
   5   7   3  136.53   44.19
   5   7   3  160.72   21.59
   5  -7   3  178.77   48.16
   5  -7   3  159.08   25.83
   5   9  -3  919.55   62.14
   5   9  -3  940.65   89.88
   5  -9  -3  865.79   65.35
   5   9  -2 1059.83   85.89
   5   9  -2 1015.26   71.50
   5   9  -2 1125.69   87.61
   5  -9  -2 1240.28   77.29
   5   9  -1 2337.60  139.78
   5   9  -1 2635.92  137.32
   5  -9  -1 2547.99  136.80
   5   9  -1 2447.36  137.41
   5   9   0 1263.36   81.66
   5  -9   0 1259.19   80.91
   5  -9   1 1350.37   94.67
   5   9   1 1352.20   82.83
   5  -9   1 1162.22   79.39
   5   9   1 1186.07   74.82
   5  -9   2 2039.86  120.29
   5  -9   2 1893.51  142.15
   5   9   2 2190.89  118.39
   5   9   2 1935.75  174.06
   5 -11  -3  171.85   25.97
   5  11  -3  140.55   21.30
   5  11  -3  115.41   32.59
   5  11  -2 1066.46   74.46
   5 -11  -2 1162.26   76.16
   5  11  -2 1051.96   90.52
   5  11  -1  734.96   66.04
   5  11  -1  843.38   62.22
   5 -11  -1  783.67   60.23
   5  11   0  567.85   50.15
   5 -11   0  589.00   50.45
   5 -11   1 1422.63   91.25
   5 -11   1 1519.32  107.33
   5  11   1 1487.92   91.78
   5  11   1 1322.24   82.96
   5  11   1 1344.64   80.00
   5  11   2  290.03   35.07
   5 -11   2  361.64   59.07
   5 -11   2  292.24   37.60
   5  13  -2  549.22   49.93
   5 -13  -2  539.69   49.19
   5  13  -2  520.95   66.33
   5  13  -1  654.15   56.04
   5 -13  -1  667.42   56.35
   5  13  -1  675.16   65.73
   5  13   0  992.75   72.72
   5 -13   0  963.29   72.97
   5 -13   1  530.38   51.54
   5  13   1  624.67   53.37
   5  13   2  229.23   32.26
   5 -13   2  170.45   45.14
   5 -13   2  148.96   29.41
   5  15  -2   70.98   19.19
   5 -15  -2   64.19   18.28
   5  15  -2   80.89   26.68
   5  15  -1  181.59   28.10
   5 -15  -1  159.00   28.57
   5  15  -1  183.78   35.11
   5 -15   0  577.00   55.91
   5  15   0  621.35   56.02
   5  15   1  104.30   23.52
   5 -15   1  136.27   25.20
   5 -17  -1 1049.91   80.07
   5  17  -1 1073.02   80.46
   5  17  -1  876.30   87.32
   5 -17   0 1110.24   86.74
   5  17   0 1198.44   87.69
   6   0  -4  156.86   30.15
   6   0  -2 3974.25  192.28
   6   0  -1  728.66   61.87
   6   0  -1  981.66   58.62
   6   0   0 3063.88  144.23
   6   0   0 2726.39  150.39
   6   0   0 2999.78  145.19
   6   0   0 2909.85  154.12
   6   0   0 2931.75  143.18
   6   0   0 3167.75  152.06
   6   0   1 2947.49  145.09
   6   0   1 2601.16  160.79
   6   0   1 2705.19  143.32
   6   0   1 2904.45  142.14
   6   0   1 2765.26  162.69
   6   0   2  961.67   59.85
   6   0   2  843.52   53.56
   6   0   2  749.81   52.74
   6   0   2  809.67   86.02
   6   0   3  303.98   63.93
   6  -2  -4   -7.71   15.33
   6   2  -3  657.50   45.12
   6   2  -3  571.45   62.18
   6  -2  -3  563.39   56.17
   6  -2  -2 1190.86   66.94
   6   2  -2 1123.98   69.68
   6   2  -2 1064.47   66.38
   6  -2  -2 1046.37   79.28
   6   2  -1   30.42    8.05
   6  -2  -1   43.11   17.85
   6  -2  -1   27.62    9.95
   6   2  -1   26.00   12.72
   6   2   0 1780.01  106.62
   6   2   0 2069.24  108.59
   6  -2   0 1852.20  107.17
   6  -2   0 1930.20   95.59
   6  -2   0 1880.39  107.14
   6  -2   0 1916.11  102.93
   6   2   0 1807.97  102.60
   6  -2   0 1837.59  101.28
   6   2   0 1893.24  104.26
   6  -2   1  499.23   53.62
   6   2   1  521.50   41.59
   6   2   1  515.23   40.25
   6   2   1  552.33   44.17
   6  -2   1  478.43   43.92
   6   2   1  575.38   39.16
   6   2   1  428.03   54.63
   6  -2   1  470.41   50.39
   6  -2   1  498.71   41.63
   6  -2   1  466.71   37.58
   6   2   1  489.41   57.73
   6   2   2   58.90   10.27
   6  -2   2  121.61   18.47
   6   2   2   96.63   18.27
   6   2   2   31.29   36.50
   6  -2   2   24.40   28.91
   6   2   2   27.28   11.62
   6  -2   2   43.11   10.28
   6  -2   2   49.70   12.69
   6   2   3  630.63   88.87
   6  -2   3  575.20   84.13
   6   4  -3  289.91   33.02
   6  -4  -3  352.51   39.26
   6   4  -3  280.33   44.52
   6   4  -2 1337.71   82.84
   6  -4  -2 1345.26   74.64
   6  -4  -2 1330.66   88.65
   6   4  -2 1389.63   83.70
   6   4  -2 1259.04   80.35
   6   4  -2 1338.73   83.72
   6   4  -1 1301.85   71.20
   6   4  -1 1459.97   85.00
   6  -4  -1 1237.09   85.22
   6   4  -1 1478.71   85.47
   6   4  -1 1327.06   71.26
   6   4   0  692.59   52.72
   6   4   0  664.40   51.11
   6  -4   0  716.24   44.87
   6  -4   0  642.15   49.96
   6   4   0  512.25   51.81
   6   4   0  511.60   53.08
   6  -4   0  608.81   50.82
   6  -4   1 1361.65   92.82
   6   4   1 1346.15   79.77
   6   4   1 1440.56   83.82
   6   4   1 1348.85   67.12
   6   4   1 1307.68   76.12
   6  -4   1 1173.88   78.46
   6   4   1  985.43   96.32
   6  -4   1 1221.89   89.15
   6   4   1 1203.81  104.04
   6  -4   2  973.25   96.16
   6   4   2 1196.59   74.10
   6  -4   2 1069.54   71.20
   6   4   2 1146.28   60.50
   6   4   2  972.34  103.99
   6   4   3   78.31   49.80
   6  -4   3  133.26   49.60
   6  -6  -3   80.94   21.68
   6   6  -3   85.52   19.44
   6   6  -3   64.94   20.41
   6  -6  -2  104.29   23.39
   6   6  -2  118.24   22.11
   6   6  -2  114.93   20.17
   6   6  -2  132.48   22.19
   6   6  -2   77.45   19.53
   6  -6  -1 2607.19  148.62
   6   6  -1 2688.13  139.77
   6   6  -1 2932.90  149.18
   6   6  -1 2774.60  139.12
   6   6   0  242.40   30.88
   6  -6   0  269.83   32.44
   6   6   0  233.72   38.61
   6  -6   1  335.14   42.58
   6   6   1  330.47   35.22
   6   6   1  228.32   44.85
   6   6   1  320.03   32.39
   6  -6   1  263.93   32.25
   6  -6   1  317.11   37.04
   6   6   1  298.77   49.54
   6   6   1  352.06   31.35
   6  -6   2 1688.35  126.97
   6  -6   2 1705.80  101.22
   6   6   2 1793.86  102.23
   6   6   2 1386.57  140.41
   6   8  -3 1360.50   86.25
   6   8  -3 1343.53  109.05
   6  -8  -3 1287.06   89.04
   6   8  -2  908.95   74.51
   6   8  -2  951.44   67.80
   6   8  -2  966.40   75.97
   6  -8  -2  903.60   68.99
   6   8  -1 1187.38   81.28
   6   8  -1 1382.36   86.06
   6   8  -1 1209.91   78.22
   6  -8  -1 1322.42   85.57
   6   8   0 3139.76  156.66
   6  -8   0 2821.14  153.33
   6  -8   1  473.89   52.84
   6   8   1  534.03   48.03
   6  -8   1  386.05   40.76
   6   8   1  441.25   40.53
   6  -8   2  289.61   33.99
   6   8   2  320.40   35.40
   6  -8   2  389.55   57.10
   6  10  -3  525.06   47.88
   6  10  -3  562.78   69.19
   6 -10  -3  549.90   51.55
   6  10  -2  563.53   52.51
   6  10  -2  750.11   67.75
   6 -10  -2  669.69   56.96
   6  10  -1   85.07   23.67
   6 -10  -1   79.93   21.93
   6  10  -1  121.23   24.95
   6  10  -1  113.65   23.62
   6  10   0 1119.24   77.78
   6 -10   0 1014.66   75.20
   6 -10   1  823.62   74.30
   6  10   1  816.36   63.48
   6 -10   1  755.90   62.48
   6  10   2   24.90   17.20
   6  10   2   61.54   20.84
   6 -10   2   78.21   39.43
   6 -10   2   63.66   17.16
   6 -12  -2   87.86   23.58
   6  12  -2  116.76   23.54
   6  12  -2   41.35   23.74
   6  12  -1 1788.61  109.21
   6 -12  -1 1756.74  109.09
   6  12  -1 1567.00  108.97
   6  12   0   81.28   27.05
   6 -12   0   41.22   12.99
   6  12   1  112.57   24.37
   6 -12   1   95.56   20.11
   6  14  -2 1095.99   78.16
   6 -14  -2 1046.04   79.32
   6  14  -2  849.29   91.44
   6  14  -1  249.39   33.60
   6  14  -1  176.79   34.28
   6 -14  -1  254.92   35.85
   6  14   0  834.37   68.05
   6 -14   0  765.12   67.27
   6 -14   1 1539.25  106.21
   6  14   1 1534.22  103.39
   6  16  -1  308.75   40.70
   6 -16  -1  226.45   35.81
   6  16  -1  274.89   45.50
   6  16   0  193.40   33.06
   6 -16   0  170.41   30.41
   7  -1  -3   76.00   21.18
   7  -1  -2  853.74   71.03
   7   1  -1 1496.91   80.17
   7   1  -1 1479.91   98.24
   7  -1  -1 1405.07   95.62
   7   1   0  288.49   25.63
   7   1   0  235.17   28.37
   7  -1   0  252.71   30.57
   7  -1   0  281.16   22.71
   7  -1   0  227.60   30.53
   7  -1   0  274.74   27.51
   7   1   0  296.47   26.47
   7   1   0  292.89   34.60
   7   1   0  270.06   24.44
   7  -1   1  714.44   65.24
   7   1   1  766.60   56.35
   7  -1   1  703.33   53.04
   7   1   1  773.51   50.25
   7   1   1  675.21   65.72
   7  -1   1  613.34   60.61
   7  -1   1  545.79   49.83
   7   1   1  743.35   68.87
   7   1   1  689.49   52.47
   7  -1   2  839.12   91.14
   7  -1   2 1051.37   67.49
   7   1   2  944.38   66.02
   7  -1   2  942.87   62.72
   7   1   2  894.79   59.69
   7   1   2  812.88   91.39
   7  -3  -3  104.23   26.25
   7   3  -3   90.48   20.95
   7  -3  -2 1732.58  112.21
   7  -3  -1 1617.16  103.52
   7  -3   0  791.00   62.85
   7  -3   0  781.04   62.30
   7   3   0  951.28   65.04
   7  -3   0  887.51   50.45
   7  -3   0  796.98   58.54
   7   3   0  809.37   59.24
   7   3   0  750.23   61.27
   7   3   0  893.57   61.07
   7  -3   1 1570.29  101.43
   7   3   1 1565.51   93.03
   7   3   1 1551.08   88.49
   7   3   1 1530.80   77.37
   7   3   1 1132.76  102.00
   7  -3   1 1360.26   88.92
   7  -3   1 1252.81   93.33
   7   3   1 1299.49  106.01
   7  -3   2  715.43   85.23
   7  -3   2 1003.77   63.97
   7   3   2  922.36   64.37
   7  -3   2  818.32   60.83
   7   3   2  600.75   84.27
   7   5  -3 1844.22  113.84
   7  -5  -3 1955.27  122.76
   7   5  -2  297.69   35.18
   7  -5  -2  330.35   40.76
   7   5  -2  295.80   29.52
   7   5  -1  251.49   22.86
   7  -5  -1  246.55   33.61
   7   5  -1  311.23   35.45
   7   5  -1  234.61   25.29
   7   5  -1  269.43   23.96
   7   5   0 2563.35  156.64
   7  -5   0 2609.17  150.93
   7   5   0 2678.45  157.82
   7  -5   1  668.00   59.33
   7   5   1  656.47   53.62
   7   5   1  645.37   48.41
   7  -5   1  580.71   50.34
   7  -5   1  553.50   52.50
   7   5   1  516.52   66.79
   7   5   2  370.55   38.61
   7  -5   2  296.07   33.94
   7   5   2  231.94   61.87
   7  -5   2  297.57   52.94
   7   7  -3   26.64   11.73
   7  -7  -3   17.50   17.11
   7  -7  -2  381.11   43.43
   7   7  -2  406.88   41.79
   7   7  -2  323.50   36.49
   7   7  -1  359.68   35.28
   7   7  -1  473.07   44.91
   7   7  -1  411.41   36.03
   7  -7  -1  445.08   45.32
   7   7   0  179.05   27.87
   7  -7   0  129.91   24.00
   7   7   0  116.53   30.80
   7  -7   1  392.63   47.36
   7   7   1  374.28   41.87
   7   7   1  398.67   61.04
   7  -7   1  280.94   35.15
   7   7   1  349.40   34.80
   7   7   2  134.06   54.44
   7   7   2  160.50   28.66
   7  -7   2  161.50   42.95
   7  -7   2  127.12   22.42
   7   9  -3  606.43   55.52
   7  -9  -3  660.66   62.26
   7   9  -2 1989.15  119.43
   7   9  -2 1860.38  122.41
   7  -9  -2 2000.42  124.79
   7   9  -1  597.34   53.69
   7  -9  -1  634.89   58.05
   7   9  -1  582.45   49.76
   7   9   0  600.10   54.41
   7  -9   0  570.08   54.08
   7   9   1 2442.18  131.47
   7  -9   1 2355.58  148.67
   7   9   1 2576.66  141.60
   7  -9   1 2175.26  137.18
   7   9   2  127.25   44.94
   7   9   2  113.70   26.75
   7  -9   2   79.68   32.46
   7  -9   2   83.13   21.68
   7  11  -2  145.02   26.04
   7 -11  -2  110.22   27.53
   7  11  -2  166.25   31.14
   7  11  -1  770.95   64.11
   7 -11  -1  810.10   67.44
   7  11  -1  694.66   61.06
   7  11   0  985.72   75.78
   7 -11   0  945.95   76.10
   7  11   1   15.01   16.17
   7 -11   1   24.81   31.79
   7 -11   1   13.07   11.49
   7  13  -2  322.82   41.68
   7 -13  -2  334.83   42.75
   7  13  -1  854.74   69.41
   7 -13  -1  865.45   71.63
   7  13   0  810.52   69.06
   7 -13   0  791.75   69.14
   8   0  -3 1991.60  135.41
   8   0  -2  394.75   48.75
   8   0  -1  464.72   37.84
   8   0  -1  396.02   46.59
   8   0   0 2602.31  140.18
   8   0   0 2446.88  114.82
   8   0   0 2223.59  139.31
   8   0   0 2574.99  129.28
   8   0   1  703.62   63.44
   8   0   1  729.17   57.25
   8   0   1  575.43   51.82
   8   0   2  184.77   26.87
   8   0   2  125.95   38.59
   8  -2  -3  269.41   40.85
   8   2  -2   99.97   23.35
   8  -2  -2   78.56   27.41
   8   2  -1 1582.91  108.85
   8  -2  -1 1667.47  109.68
   8   2   0  195.08   29.72
   8   2   0  133.39   17.68
   8   2   0  135.67   25.91
   8  -2   0  128.25   27.05
   8   2   1  223.83   30.93
   8   2   1  211.71   39.32
   8  -2   1  224.55   33.85
   8  -2   1  190.24   29.32
   8   2   1  192.24   27.80
   8  -2   2  601.52   50.03
   8   2   2  600.47   52.43
   8   2   2  432.15   64.60
   8  -2   2  534.21   73.00
   8   4  -3  481.77   49.13
   8  -4  -3  585.51   61.40
   8   4  -2 1335.36   89.55
   8  -4  -2 1236.71   95.05
   8   4  -1  657.62   54.86
   8  -4  -1  503.11   52.91
   8   4   0  774.48   63.10
   8   4   0  613.22   57.65
   8  -4   0  627.52   59.33
   8   4   0  750.73   56.17
   8  -4   1 1352.42   94.43
   8   4   1 1509.14   94.73
   8   4   1 1395.32   87.44
   8  -4   1 1180.63   87.76
   8   4   1 1272.03  105.52
   8  -6  -3  283.45   42.37
   8   6  -3  196.09   31.89
   8  -6  -2 1410.56  102.32
   8   6  -2 1502.40   98.46
   8   6  -1  452.82   47.05
   8  -6  -1  343.26   41.82
   8   6   0  531.26   50.19
   8   6   0  417.29   45.86
   8  -6   0  456.98   48.74
   8   6   0  479.33   53.49
   8  -6   1 1239.50   89.89
   8   6   1 1279.65   88.31
   8   6   1 1284.43   81.96
   8  -6   1 1104.62   84.13
   8   6   1 1222.06  108.89
   8   8  -2  450.66   46.97
   8  -8  -2  472.48   53.84
   8   8  -1 2612.26  148.49
   8  -8  -1 2430.76  151.26
   8  -8   0   86.49   22.34
   8   8   0   88.82   25.55
   8  -8   1  201.84   32.18
   8   8   1  219.96   45.77
   8   8   1  226.31   33.79
   8  -8   1  178.81   32.73
   8   8   1  169.19   25.17
   8  10  -2   28.95   16.71
   8 -10  -2   -2.01   11.29
   8  10  -1  518.21   53.69
   8 -10  -1  519.29   55.57
   8  10   0  766.21   66.81
   8 -10   0  744.47   67.40
   8  10   1   43.81   39.65
   8  10   1   27.26   17.49
   8 -10   1   59.15   19.07
   8 -12  -1  151.71   31.74
   8  12  -1  115.90   23.63
   8 -12   0  252.94   40.09
   8  12   0  237.43   36.91
   9  -1  -2  987.53   86.75
   9   1  -2 1060.76   88.87
   9   1  -1   86.40   27.01
   9  -1  -1  101.64   24.69
   9   1   0  236.65   35.94
   9  -1   0  219.28   33.53
   9  -1   1 1147.27   80.56
   9   1   1 1165.43   82.66
   9  -1   1 1029.12   79.43
   9   1   1 1051.49   78.65
   9   3  -2  676.33   60.16
   9   3  -2  647.92   68.77
   9  -3  -2  714.89   69.09
   9   3  -1 1290.38   86.57
   9  -3  -1 1046.10   87.70
   9   3  -1 1131.13   90.05
   9   3   0  611.71   56.71
   9   3   0  506.25   52.53
   9  -3   0  549.41   56.34
   9   3   1  302.22   35.75
   9   3   1  354.25   42.92
   9  -3   1  316.22   39.66
   9  -5  -2  174.29   34.81
   9   5  -2  229.79   35.30
   9  -5  -1 1648.00  116.48
   9   5  -1 1946.42  115.84
   9   5  -1 1552.05  115.94
   9   5   0  881.26   69.58
   9   5   0  716.05   65.34
   9  -5   0  747.41   69.03
   9   5   1  399.65   42.21
   9   5   1  393.28   46.84
   9  -5   1  378.88   44.43
   9   7  -2  335.31   41.55
   9  -7  -2  250.32   44.47
   9   7  -1  120.90   27.00
   9  -7  -1  106.47   26.84
   9   7   0  209.59   32.92
   9   7   0  334.33   41.76
   9  -7   0  257.22   39.64
   9   9  -1  284.16   39.34
   9  -9  -1  240.76   39.75
   9   9   0 1796.86  118.18
   9   9   0 1556.61  113.12
   9  -9   0 1772.44  119.80
  10   0  -1 2290.67  149.01
  10   0   0  413.43   52.80
  10   0   0  481.53   51.51
  10   2  -1   45.72   18.07
  10  -2  -1   35.02   18.85
  10   2  -1   28.36   16.33
  10   2   0  380.00   44.23
  10   2   0  343.45   43.98
  10  -2   0  314.35   43.06
  10   4  -1  249.09   38.53
  10  -4  -1  241.18   40.19
  10   4  -1  173.90   34.64
   0   0   0    0.00    0.00


TITL cmy-1-s-2 in Cm
REM Cm (#8 in standard setting)
CELL 0.71073   7.979833  15.765387   3.505118  90.0000 100.2079  90.0000
ZERR    2.00   0.000788   0.001600   0.000390   0.0000   0.0099   0.0000
LATT -7
SYMM  x,-y, z
SFAC C H N O
UNIT 22.00 20.00 2.00 2.00
TREF
HKLF 4
END
_computing_structure_solution     'SHELXT 2014/5 (Sheldrick, 2014)'
;
_shelx_hkl_checksum              70227
_olex2_submission_special_instructions 'No special instructions were received'
loop_
_space_group_symop_operation_xyz
'x, y, z'
'x, -y, z'
'x+1/2, y+1/2, z'
'x+1/2, -y+1/2, z'
loop_
_atom_site_label
_atom_site_type_symbol
_atom_site_fract_x
_atom_site_fract_y
_atom_site_fract_z
_atom_site_U_iso_or_equiv
_atom_site_adp_type
_atom_site_occupancy
_atom_site_site_symmetry_order
_atom_site_calc_flag
_atom_site_refinement_flags_posn
_atom_site_refinement_flags_adp
_atom_site_refinement_flags_occupancy
_atom_site_disorder_assembly
_atom_site_disorder_group
Sm1 Sm 0.84837(16) 0.5000 0.4957(3) 0.0185(4) Uani 1 2 d S T P . .
Cd1 Cd 0.61739(15) 0.17828(7) 0.1442(3) 0.0111(4) Uani 1 1 d . . . . .
Cd2 Cd 0.49834(14) 0.38767(7) 0.8359(3) 0.0105(4) Uani 1 1 d . . . . .
B1 B 0.307(2) 0.1963(12) 0.594(5) 0.009(3) Uani 1 1 d . U . . .
B2 B 0.732(4) 0.0000 0.210(8) 0.010(5) Uani 1 2 d S TU P . .
O1 O 0.147(2) 0.1766(10) 0.390(5) 0.030(4) Uani 1 1 d . . . . .
O2 O 0.324(2) 0.2713(9) 0.796(4) 0.028(4) Uani 1 1 d . . . . .
O3 O 0.4442(17) 0.1455(9) 0.584(4) 0.021(3) Uani 1 1 d . . . . .
O4 O 0.558(3) 0.0000 0.092(6) 0.020(4) Uani 1 2 d S TU P . .
O5 O 0.8157(16) 0.0752(7) 0.266(3) 0.012(3) Uani 1 1 d . . . . .
O6 O 0.672(2) 0.5000 0.917(5) 0.015(4) Uani 1 2 d S T P . .
loop_
_atom_site_aniso_label
_atom_site_aniso_U_11
_atom_site_aniso_U_22
_atom_site_aniso_U_33
_atom_site_aniso_U_23
_atom_site_aniso_U_13
_atom_site_aniso_U_12
Sm1 0.0129(7) 0.0264(8) 0.0163(7) 0.000 0.0026(5) 0.000
Cd1 0.0110(6) 0.0125(6) 0.0105(6) -0.0008(5) 0.0041(5) 0.0013(5)
Cd2 0.0096(6) 0.0100(6) 0.0116(6) 0.0002(5) 0.0015(5) -0.0011(4)
B1 0.010(5) 0.008(5) 0.010(5) -0.001(4) 0.002(4) 0.002(4)
B2 0.010(6) 0.011(6) 0.008(6) 0.000 0.004(4) 0.000
O1 0.021(8) 0.048(10) 0.021(8) -0.008(7) 0.006(6) -0.019(7)
O2 0.039(9) 0.023(7) 0.029(9) -0.013(6) 0.024(7) -0.013(6)
O3 0.018(7) 0.023(7) 0.023(7) 0.001(6) 0.007(6) 0.009(6)
O4 0.018(5) 0.021(6) 0.019(5) 0.000 0.003(4) 0.000
O5 0.022(7) 0.009(6) 0.005(6) -0.001(4) 0.000(5) -0.007(5)
O6 0.013(9) 0.022(9) 0.011(9) 0.000 0.002(7) 0.000
loop_
_atom_type_symbol
_atom_type_description
_atom_type_scat_dispersion_real
_atom_type_scat_dispersion_imag
_atom_type_scat_source
B B 0.0013 0.0007 'International Tables Vol C Tables 4.2.6.8 and 6.1.1.4'
Cd Cd -0.8075 1.2024 'International Tables Vol C Tables 4.2.6.8 and 6.1.1.4'
Sm Sm -0.1638 3.4418 'International Tables Vol C Tables 4.2.6.8 and 6.1.1.4'
O O 0.0106 0.0060 'International Tables Vol C Tables 4.2.6.8 and 6.1.1.4'
loop_
_geom_angle_atom_site_label_1
_geom_angle_atom_site_label_2
_geom_angle_atom_site_label_3
_geom_angle
_geom_angle_site_symmetry_1
_geom_angle_site_symmetry_3
_geom_angle_publ_flag
Sm1 Sm1 Sm1 180.0 1_554 1_556 ?
Sm1 Sm1 Cd2 60.93(3) 1_554 1_554 ?
Sm1 Sm1 Cd2 60.93(3) 1_554 2_564 ?
Sm1 Sm1 Cd2 117.30(3) 1_554 . ?
Sm1 Sm1 Cd2 119.07(3) 1_556 1_554 ?
Sm1 Sm1 Cd2 62.70(3) 1_556 . ?
Sm1 Sm1 Cd2 119.07(3) 1_556 2_564 ?
Sm1 Sm1 Cd2 62.70(3) 1_556 2_565 ?
Sm1 Sm1 Cd2 117.30(3) 1_554 2_565 ?
Cd2 Sm1 Cd2 56.36(2) 2_565 2_564 ?
Cd2 Sm1 Cd2 84.36(4) 2_565 1_554 ?
Cd2 Sm1 Cd2 56.36(2) . 1_554 ?
Cd2 Sm1 Cd2 56.51(4) 1_554 2_564 ?
Cd2 Sm1 Cd2 84.36(4) . 2_564 ?
Cd2 Sm1 Cd2 57.54(4) . 2_565 ?
O3 Sm1 Sm1 85.8(3) 4 1_556 ?
O3 Sm1 Sm1 85.8(3) 3 1_556 ?
O3 Sm1 Sm1 94.2(3) 4 1_554 ?
O3 Sm1 Sm1 94.2(3) 3 1_554 ?
O3 Sm1 Cd2 135.4(3) 3 1_554 ?
O3 Sm1 Cd2 75.1(3) 4 . ?
O3 Sm1 Cd2 130.9(3) 3 . ?
O3 Sm1 Cd2 79.3(3) 4 1_554 ?
O3 Sm1 Cd2 75.1(3) 3 2_565 ?
O3 Sm1 Cd2 79.3(3) 3 2_564 ?
O3 Sm1 Cd2 135.4(3) 4 2_564 ?
O3 Sm1 Cd2 130.9(3) 4 2_565 ?
O3 Sm1 O3 142.8(7) 3 4 ?
O3 Sm1 O4 74.7(3) 4 3_556 ?
O3 Sm1 O4 74.7(3) 3 3_556 ?
O4 Sm1 Sm1 42.5(5) 3_556 1_556 ?
O4 Sm1 Sm1 137.5(5) 3_556 1_554 ?
O4 Sm1 Sm1 43.9(5) 3 1_554 ?
O4 Sm1 Sm1 136.1(5) 3 1_556 ?
O4 Sm1 Cd2 148.73(19) 3_556 1_554 ?
O4 Sm1 Cd2 148.0(2) 3 2_565 ?
O4 Sm1 Cd2 99.2(4) 3 1_554 ?
O4 Sm1 Cd2 148.73(19) 3_556 2_564 ?
O4 Sm1 Cd2 99.2(4) 3 2_564 ?
O4 Sm1 Cd2 148.0(2) 3 . ?
O4 Sm1 Cd2 99.6(4) 3_556 2_565 ?
O4 Sm1 Cd2 99.6(4) 3_556 . ?
O4 Sm1 O3 80.6(3) 3 4 ?
O4 Sm1 O3 80.6(3) 3 3 ?
O4 Sm1 O4 93.6(7) 3 3_556 ?
O6 Sm1 Sm1 38.7(5) . 1_556 ?
O6 Sm1 Sm1 37.8(5) 1_554 1_554 ?
O6 Sm1 Sm1 141.3(5) . 1_554 ?
O6 Sm1 Sm1 142.2(5) 1_554 1_556 ?
O6 Sm1 Cd2 84.5(4) 1_554 . ?
O6 Sm1 Cd2 85.4(4) . 1_554 ?
O6 Sm1 Cd2 34.4(3) . . ?
O6 Sm1 Cd2 84.5(4) 1_554 2_565 ?
O6 Sm1 Cd2 34.4(3) . 2_565 ?
O6 Sm1 Cd2 33.4(2) 1_554 2_564 ?
O6 Sm1 Cd2 33.4(2) 1_554 1_554 ?
O6 Sm1 Cd2 85.4(4) . 2_564 ?
O6 Sm1 O3 97.9(3) . 4 ?
O6 Sm1 O3 97.9(3) . 3 ?
O6 Sm1 O3 104.4(3) 1_554 3 ?
O6 Sm1 O3 104.4(3) 1_554 4 ?
O6 Sm1 O4 81.2(7) . 3_556 ?
O6 Sm1 O4 81.7(7) 1_554 3 ?
O6 Sm1 O4 175.3(7) 1_554 3_556 ?
O6 Sm1 O4 174.8(7) . 3 ?
O6 Sm1 O6 103.5(7) . 1_554 ?
B1 Cd1 O2 101.5(5) 4 1_554 ?
B1 Cd1 O4 143.1(6) 4 . ?
O1 Cd1 B1 29.6(5) 4 4 ?
O1 Cd1 O2 54.3(5) 4 4 ?
O1 Cd1 O2 71.9(5) 4 1_554 ?
O1 Cd1 O4 162.1(5) 4 . ?
O2 Cd1 B1 28.9(5) 4 4 ?
O2 Cd1 B1 72.2(5) 4_554 4 ?
O2 Cd1 O1 80.3(5) 4_554 4 ?
O2 Cd1 O2 87.8(6) 4_554 4 ?
O2 Cd1 O2 123.0(3) 4 1_554 ?
O2 Cd1 O2 101.7(4) 4_554 1_554 ?
O2 Cd1 O4 115.1(5) 4_554 . ?
O2 Cd1 O4 111.4(5) 1_554 . ?
O2 Cd1 O4 114.6(5) 4 . ?
O3 Cd1 B1 96.3(5) . 4 ?
O3 Cd1 B1 147.1(6) 1_554 4 ?
O3 Cd1 O1 121.9(5) 1_554 4 ?
O3 Cd1 O1 90.4(5) . 4 ?
O3 Cd1 O2 54.1(5) 1_554 1_554 ?
O3 Cd1 O2 176.0(5) 1_554 4 ?
O3 Cd1 O2 81.2(5) . 4 ?
O3 Cd1 O2 90.2(6) 1_554 4_554 ?
O3 Cd1 O2 168.5(5) . 4_554 ?
O3 Cd1 O2 81.8(4) . 1_554 ?
O3 Cd1 O3 100.6(6) 1_554 . ?
O3 Cd1 O4 73.1(5) . . ?
O3 Cd1 O4 69.4(6) 1_554 . ?
O3 Cd1 O5 107.5(5) 1_554 . ?
O5 Cd1 B1 96.4(5) . 4 ?
O5 Cd1 O1 126.0(5) . 4 ?
O5 Cd1 O2 79.0(4) . 4_554 ?
O5 Cd1 O2 161.4(4) . 1_554 ?
O5 Cd1 O2 75.5(4) . 4 ?
O5 Cd1 O3 101.3(5) . . ?
O5 Cd1 O4 53.5(5) . . ?
Sm1 Cd2 Sm1 56.36(2) . 1_556 ?
O1 Cd2 Sm1 59.3(4) 4 . ?
O1 Cd2 Sm1 58.3(4) 4_556 1_556 ?
O1 Cd2 Sm1 101.8(4) 4 1_556 ?
O1 Cd2 Sm1 100.1(4) 4_556 . ?
O1 Cd2 O1 97.1(5) 4_556 4 ?
O1 Cd2 O5 167.6(5) 4_556 4_455 ?
O1 Cd2 O5 81.7(4) 4_556 4_456 ?
O2 Cd2 Sm1 142.7(4) . 1_556 ?
O2 Cd2 Sm1 148.6(3) . . ?
O2 Cd2 O1 85.2(7) . 4_556 ?
O2 Cd2 O1 89.3(5) . 4 ?
O2 Cd2 O5 78.4(5) . 4_456 ?
O2 Cd2 O5 82.4(6) . 4_455 ?
O5 Cd2 Sm1 132.9(3) 4_456 . ?
O5 Cd2 Sm1 134.1(3) 4_455 1_556 ?
O5 Cd2 Sm1 88.0(3) 4_456 1_556 ?
O5 Cd2 Sm1 89.8(3) 4_455 . ?
O5 Cd2 O1 167.7(5) 4_456 4 ?
O5 Cd2 O1 81.4(4) 4_455 4 ?
O5 Cd2 O5 97.0(5) 4_455 4_456 ?
O6 Cd2 Sm1 33.9(4) . . ?
O6 Cd2 Sm1 33.7(5) . 1_556 ?
O6 Cd2 O1 92.8(6) . 4 ?
O6 Cd2 O1 91.4(6) . 4_556 ?
O6 Cd2 O2 176.2(7) . . ?
O6 Cd2 O5 99.4(5) . 4_456 ?
O6 Cd2 O5 100.9(5) . 4_455 ?
O1 B1 Cd1 60.7(10) . 4_455 ?
O2 B1 Cd1 71.1(11) . 4_455 ?
O2 B1 O1 117.2(17) . . ?
O3 B1 Cd1 139.4(12) . 4_455 ?
O3 B1 O1 121.8(17) . . ?
O3 B1 O2 121.0(17) . . ?
O5 B2 O4 119.1(12) . . ?
O5 B2 O4 119.1(12) 2 . ?
O5 B2 O5 122(2) . 2 ?
Cd2 O1 Cd1 96.4(6) 4_454 4_455 ?
Cd2 O1 Cd1 127.4(7) 4_455 4_455 ?
Cd2 O1 Cd2 97.1(5) 4_454 4_455 ?
B1 O1 Cd1 89.7(11) . 4_455 ?
B1 O1 Cd2 145.0(13) . 4_454 ?
B1 O1 Cd2 106.3(12) . 4_455 ?
Cd2 O2 Cd1 99.9(5) . 4_456 ?
B1 O2 Cd1 123.1(12) . 4_456 ?
B1 O2 Cd2 136.2(11) . . ?
Cd1 O3 Sm1 109.9(5) . 3_445 ?
Cd1 O3 Sm1 117.4(6) 1_556 3_445 ?
Cd1 O3 Cd1 100.6(6) 1_556 . ?
B1 O3 Sm1 108.9(12) . 3_445 ?
B1 O3 Cd1 117.6(12) . . ?
B1 O3 Cd1 102.5(11) . 1_556 ?
Sm1 O4 Sm1 93.6(7) 3_445 3_444 ?
Sm1 O4 Cd1 95.1(4) 3_445 . ?
Sm1 O4 Cd1 97.8(4) 3_444 . ?
B2 O4 Sm1 127.0(16) . 3_445 ?
B2 O4 Sm1 139.4(16) . 3_444 ?
B2 O4 Cd1 80.4(4) . . ?
Cd1 O5 Cd2 107.0(5) . 4 ?
Cd1 O5 Cd2 101.1(5) . 4_554 ?
Cd2 O5 Cd2 97.0(5) 4 4_554 ?
B2 O5 Cd1 107.0(13) . . ?
B2 O5 Cd2 124.1(14) . 4 ?
B2 O5 Cd2 118.0(13) . 4_554 ?
Sm1 O6 Sm1 103.5(7) . 1_556 ?
Sm1 O6 Cd2 111.6(6) . 2_565 ?
Sm1 O6 Cd2 111.6(6) . . ?
Cd2 O6 Sm1 112.8(6) 2_565 1_556 ?
Cd2 O6 Sm1 112.8(6) . 1_556 ?
Cd2 O6 Cd2 104.7(7) . 2_565 ?
loop_
_geom_bond_atom_site_label_1
_geom_bond_atom_site_label_2
_geom_bond_distance
_geom_bond_site_symmetry_2
_geom_bond_publ_flag
Sm1 Sm1 3.5051(4) 1_554 ?
Sm1 Sm1 3.5051(4) 1_556 ?
Sm1 Cd2 3.7412(16) 1_554 ?
Sm1 Cd2 3.6798(15) 2_565 ?
Sm1 Cd2 3.6798(15) . ?
Sm1 Cd2 3.7412(16) 2_564 ?
Sm1 O3 2.421(15) 3 ?
Sm1 O3 2.421(15) 4 ?
Sm1 O4 2.44(2) 3_556 ?
Sm1 O4 2.37(2) 3 ?
Sm1 O6 2.253(19) 1_554 ?
Sm1 O6 2.211(18) . ?
Cd1 B1 2.800(19) 4 ?
Cd1 O1 2.441(17) 4 ?
Cd1 O2 2.354(14) 4_554 ?
Cd1 O2 2.690(18) 4 ?
Cd1 O2 2.849(18) 1_554 ?
Cd1 O3 2.251(14) 1_554 ?
Cd1 O3 2.305(14) . ?
Cd1 O4 2.851(4) . ?
Cd1 O5 2.256(13) . ?
Cd2 Sm1 3.7412(16) 1_556 ?
Cd2 O1 2.355(15) 4 ?
Cd2 O1 2.321(15) 4_556 ?
Cd2 O2 2.293(14) . ?
Cd2 O5 2.330(12) 4_455 ?
Cd2 O5 2.349(12) 4_456 ?
Cd2 O6 2.237(11) . ?
B1 Cd1 2.800(19) 4_455 ?
B1 O1 1.38(2) . ?
B1 O2 1.37(2) . ?
B1 O3 1.36(2) . ?
B2 O4 1.38(4) . ?
B2 O5 1.357(19) . ?
B2 O5 1.357(19) 2 ?
O1 Cd1 2.441(17) 4_455 ?
O1 Cd2 2.355(15) 4_455 ?
O1 Cd2 2.321(15) 4_454 ?
O2 Cd1 2.354(14) 4_456 ?
O3 Sm1 2.421(15) 3_445 ?
O3 Cd1 2.251(14) 1_556 ?
O4 Sm1 2.37(2) 3_445 ?
O4 Sm1 2.44(2) 3_444 ?
O5 Cd2 2.330(12) 4 ?
O5 Cd2 2.349(12) 4_554 ?
O6 Sm1 2.253(19) 1_556 ?
O6 Cd2 2.238(11) 2_565 ?
loop_
_twin_individual_id
_twin_individual_mass_fraction_refined
1 0.85(4)
2 0.15(4)
