#------------------------------------------------------------------------------
#$Date: 2022-03-05 01:31:18 +0200 (Sat, 05 Mar 2022) $
#$Revision: 273441 $
#$URL: file:///home/coder/svn-repositories/cod/cif/7/24/45/7244569.cif $
#------------------------------------------------------------------------------
#
# This file is available in the Crystallography Open Database (COD),
# http://www.crystallography.net/
#
# All data on this site have been placed in the public domain by the
# contributors.
#
data_7244569
loop_
_publ_author_name
'Cao, Ming-Yang'
'Hu, Chun-Li'
'Chen, Peng-Fei'
'Wang, Qian'
'Li, Bing-Xuan'
'Lin, Yuan'
'Mao, Jiang-Gao'
_publ_section_title
;
 Cd4REO(BO3)3 (RE = Sm, Eu, Tb): three new cadmium--rare earth oxyborates
 with both good NLO and luminescence properties
;
_journal_name_full               CrystEngComm
_journal_paper_doi               10.1039/D2CE00080F
_journal_year                    2022
_chemical_formula_moiety         '0.5(B6 Cd8 O20 Tb2)'
_chemical_formula_sum            'B3 Cd4 O10 Tb'
_chemical_formula_weight         800.95
_space_group_crystal_system      monoclinic
_space_group_IT_number           8
_space_group_name_Hall           'C -2y'
_space_group_name_H-M_alt        'C 1 m 1'
_atom_sites_solution_primary     iterative
_audit_creation_date             2021-09-29
_audit_creation_method
;
Olex2 1.2-alpha
(compiled 2018.07.26 svn.r3523 for OlexSys, GUI svn.r5532)
;
_audit_update_record
;
2022-01-03 deposited with the CCDC.	2022-02-11 downloaded from the CCDC.
;
_cell_angle_alpha                90
_cell_angle_beta                 100.227(9)
_cell_angle_gamma                90
_cell_formula_units_Z            2
_cell_length_a                   7.9549(7)
_cell_length_b                   15.7709(14)
_cell_length_c                   3.4813(3)
_cell_measurement_reflns_used    3037
_cell_measurement_temperature    293(2)
_cell_measurement_theta_max      30.2160
_cell_measurement_theta_min      2.5270
_cell_volume                     429.81(7)
_computing_molecular_graphics    'Olex2 (Dolomanov et al., 2009)'
_computing_publication_material  'Olex2 (Dolomanov et al., 2009)'
_computing_structure_refinement  'olex2.refine (Bourhis et al., 2015)'
_computing_structure_solution    'olex2.solve (Bourhis et al., 2015)'
_diffrn_ambient_temperature      293(2)
_diffrn_measured_fraction_theta_full 0.995
_diffrn_measured_fraction_theta_max 0.996
_diffrn_measurement_device_type  'multiwire proportional'
_diffrn_measurement_method       'phi and omega scans'
_diffrn_radiation_monochromator  graphite
_diffrn_radiation_type           MoK\a
_diffrn_radiation_wavelength     0.71073
_diffrn_reflns_av_R_equivalents  0.0465
_diffrn_reflns_av_unetI/netI     0.0341
_diffrn_reflns_Laue_measured_fraction_full 0.995
_diffrn_reflns_Laue_measured_fraction_max 0.996
_diffrn_reflns_limit_h_max       10
_diffrn_reflns_limit_h_min       -10
_diffrn_reflns_limit_k_max       20
_diffrn_reflns_limit_k_min       -20
_diffrn_reflns_limit_l_max       4
_diffrn_reflns_limit_l_min       -4
_diffrn_reflns_number            4718
_diffrn_reflns_point_group_measured_fraction_full 0.998
_diffrn_reflns_point_group_measured_fraction_max 0.998
_diffrn_reflns_theta_full        25.242
_diffrn_reflns_theta_max         27.102
_diffrn_reflns_theta_min         2.905
_exptl_absorpt_coefficient_mu    17.899
_exptl_absorpt_correction_T_max  1.00000
_exptl_absorpt_correction_T_min  0.61841
_exptl_absorpt_correction_type   multi-scan
_exptl_absorpt_process_details
;
CrysAlisPro 1.171.39.9f (Rigaku Oxford Diffraction, 2015)
Empirical absorption correction using spherical harmonics,
 implemented in SCALE3 ABSPACK scaling algorithm.
;
_exptl_crystal_colour            yellow
_exptl_crystal_colour_primary    yellow
_exptl_crystal_density_diffrn    6.189
_exptl_crystal_description       block
_exptl_crystal_F_000             704
_exptl_crystal_size_max          0.5
_exptl_crystal_size_mid          0.3
_exptl_crystal_size_min          0.3
_refine_diff_density_max         1.019
_refine_diff_density_min         -1.325
_refine_diff_density_rms         0.249
_refine_ls_abs_structure_details
;
 Refined as an inversion twin.
;
_refine_ls_abs_structure_Flack   0.16(3)
_refine_ls_extinction_coef       0.0027(4)
_refine_ls_extinction_expression Fc^*^=kFc[1+0.001xFc^2^\l^3^/sin(2\q)]^-1/4^
_refine_ls_extinction_method     'SHELXL-2014/7 (Sheldrick 2014'
_refine_ls_goodness_of_fit_ref   1.091
_refine_ls_hydrogen_treatment    undef
_refine_ls_matrix_type           full
_refine_ls_number_parameters     90
_refine_ls_number_reflns         983
_refine_ls_number_restraints     20
_refine_ls_restrained_S_all      1.080
_refine_ls_R_factor_all          0.0250
_refine_ls_R_factor_gt           0.0244
_refine_ls_shift/su_max          0.000
_refine_ls_shift/su_mean         0.000
_refine_ls_structure_factor_coef Fsqd
_refine_ls_weighting_details
'w=1/[\s^2^(Fo^2^)+(0.0284P)^2^+7.9315P] where P=(Fo^2^+2Fc^2^)/3'
_refine_ls_weighting_scheme      calc
_refine_ls_wR_factor_gt          0.0601
_refine_ls_wR_factor_ref         0.0608
_reflns_Friedel_coverage         0.984
_reflns_Friedel_fraction_full    1.000
_reflns_Friedel_fraction_max     1.000
_reflns_number_gt                975
_reflns_number_total             983
_reflns_threshold_expression     'I > 2\s(I)'
_cod_data_source_file            d2ce00080f1.cif
_cod_data_source_block           Cd4TbO(BO3)3
_cod_database_code               7244569
_shelx_shelxl_version_number     2014/7
_shelx_space_group_comment
;
The symmetry employed for this shelxl refinement is uniquely defined
by the following loop, which should always be used as a source of
symmetry information in preference to the above space-group names.
They are only intended as comments.
;
_shelx_estimated_absorpt_t_max   0.075
_shelx_estimated_absorpt_t_min   0.040
_olex2_refinement_description
;
1. Twinned data refinement
 Scales: 0.84(3)
 0.16(3)
2. Uiso/Uaniso restraints and constraints
Uanis(O4) \\sim Ueq, Uanis(B2) \\sim Ueq, Uanis(B1) \\sim Ueq: with sigma of
0.003 and sigma for terminal atoms of 0.006
;
_shelx_res_file
;
    A.res created by SHELXL-2014/7


TITL TbCd4O(BO3)3 in Cm
REM Old TITL A in Cm
REM SHELXT solution in Cm
REM R1 0.065, Rweak 0.045, Alpha 0.011, Orientation as input
REM Flack x = 0.173 ( 0.012 ) from Parsons' quotients
REM Formula found by SHELXT: O8 Cd4 Tb
CELL 0.71073 7.9549 15.7709 3.4813 90 100.227 90
ZERR 2 0.0007 0.0014 0.0003 0 0.009 0
LATT -7
SYMM +X,-Y,+Z
SFAC B Cd Tb O
UNIT 6 8 2 20
ISOR 0.003 0.006 O4 B2 B1
omit  0   2   0
omit  0   4   0
L.S. 10 0 0
PLAN  10
SIZE 0.3 0.3 0.5
list 4
fmap 2 53
acta
TWIN -1 0 0 0 -1 0 0 0 -1 2
REM <olex2.extras>
REM <HklSrc "%.\\A.hkl">
REM </olex2.extras>
eqiv $1 x, y, -1+z
bind cd1 O2_$1
eqiv $2 0.5+x, 0.5-y, z
bind cd1 O2_$2
bind cd1 o4
WGHT    0.028400    7.931500
EXTI    0.002673
BASF   0.15564
FVAR       0.25073
TB1   3    0.850161    0.500000    0.498189    10.50000    0.01140    0.02860 =
         0.01230    0.00000    0.00226    0.00000
CD1   2    0.616271    0.178625    0.142012    11.00000    0.01136    0.01248 =
         0.00921   -0.00082    0.00375    0.00066
CD2   2    0.497941    0.387898    0.835921    11.00000    0.00737    0.01038 =
         0.00834   -0.00016    0.00131   -0.00161
B1    1    0.304164    0.195611    0.581753    11.00000    0.00611    0.00457 =
         0.00636    0.00184    0.00220    0.00170
B2    1    0.732715    0.000000    0.207371    10.50000    0.01031    0.01147 =
         0.00894    0.00000    0.00137    0.00000
O1    4    0.146126    0.177057    0.389970    11.00000    0.02030    0.05448 =
         0.01460   -0.00723    0.00472   -0.01852
O2    4    0.327843    0.270134    0.798485    11.00000    0.04446    0.01725 =
         0.03775   -0.01502    0.03232   -0.01495
O3    4    0.442389    0.144492    0.580141    11.00000    0.01829    0.02013 =
         0.01852    0.00263    0.01030    0.01107
O4    4    0.554601    0.000000    0.091476    10.50000    0.02006    0.02203 =
         0.02137    0.00000    0.00237    0.00000
O5    4    0.812532    0.075186    0.262922    11.00000    0.01180    0.01377 =
         0.01167    0.00211   -0.00174   -0.00233
O6    4    0.675714    0.500000    0.922357    10.50000    0.01325    0.01795 =
         0.00964    0.00000   -0.00139    0.00000
HKLF 4

REM  TbCd4O(BO3)3 in Cm
REM R1 =  0.0244 for     975 Fo > 4sig(Fo)  and  0.0250 for all     983 data
REM     90 parameters refined using     20 restraints

END

WGHT      0.0285      7.8952

REM Highest difference peak  1.019,  deepest hole -1.325,  1-sigma level  0.249
Q1    1   0.9602  0.5000  0.7604  10.50000  0.05    1.02
Q2    1   0.8073  0.5000  0.7410  10.50000  0.05    0.99
Q3    1   0.5642  0.5000  1.1537  10.50000  0.05    0.90
Q4    1   0.6133  0.1451  0.1523  11.00000  0.05    0.76
Q5    1   0.5616  0.0387 -0.1172  11.00000  0.05    0.76
Q6    1   0.4052  0.0000 -0.0058  10.50000  0.05    0.76
Q7    1   0.4238  0.0350 -0.0312  11.00000  0.05    0.76
Q8    1   0.4239  0.4142  0.6901  11.00000  0.05    0.75
Q9    1   0.5385  0.0562 -0.2310  11.00000  0.05    0.74
Q10   1   0.6635  0.1951  0.2174  11.00000  0.05    0.74
;
_shelx_res_checksum              18545
_shelx_hkl_file
;
 -10   0   0  288.15   37.01
 -10   0   1 1577.17   97.13
 -10   2   1   29.67   11.53
 -10  -2   1   24.72   11.41
  -9   1  -1  829.29   61.47
  -9  -1  -1  772.41   63.76
  -9  -1   0  219.68   31.23
  -9   1   0  257.45   31.88
  -9   1   1   37.56   13.06
  -9  -1   1   50.80   14.58
  -9  -1   2  715.21   62.38
  -9   1   2  709.12   61.22
  -9  -3  -1  153.23   28.39
  -9  -3  -1  175.12   22.68
  -9   3  -1  156.80   23.73
  -9   3   0  346.87   35.69
  -9  -3   0  323.08   39.66
  -9  -3   1  727.68   60.89
  -9   3   1  666.52   45.26
  -9   3   1  701.23   55.58
  -9   3   2  387.76   43.57
  -9  -3   2  330.22   42.78
  -9   5  -1  245.32   32.07
  -9  -5  -1  314.25   42.58
  -9  -5  -1  308.66   32.33
  -9   5   0  408.55   38.78
  -9  -5   0  476.11   51.41
  -9   5   1  930.88   65.82
  -9   5   1  902.73   59.88
  -9   5   2  143.60   26.11
  -9  -5   2  123.20   25.98
  -9   7   0  213.20   26.96
  -9  -7   0  212.46   36.03
  -9   7   1   38.74   13.05
  -9   7   1   93.00   19.64
  -9  -7   1   58.46   18.66
  -9   7   2  184.60   30.22
  -9  -7   2  204.73   36.93
  -9   9   1   53.52   17.43
  -9   9   1  100.80   20.37
  -8   0  -1  423.02   30.13
  -8   0  -1  420.82   40.59
  -8   0   0 1667.53   88.05
  -8   0   0 1691.35   84.53
  -8   0   1  310.03   21.99
  -8   0   1  290.80   32.70
  -8   0   2  315.38   37.61
  -8   0   3 1450.11   96.37
  -8   2  -2  343.89   35.11
  -8   2  -1  140.15   21.43
  -8   2  -1  155.88   21.60
  -8  -2  -1  180.71   20.29
  -8  -2  -1  148.22   25.09
  -8   2   0  103.88   16.59
  -8  -2   0   88.39   18.38
  -8   2   0   81.66   15.44
  -8   2   1 1078.67   68.31
  -8   2   1 1083.58   56.36
  -8  -2   1 1171.10   73.07
  -8   2   2   85.82   18.85
  -8  -2   2   86.93   19.93
  -8   2   3  148.25   27.38
  -8  -2   3  185.45   31.87
  -8  -4  -1  975.04   72.61
  -8  -4  -1  998.75   58.30
  -8   4  -1 1043.62   59.62
  -8   4  -1  899.48   61.40
  -8   4   0  442.33   37.48
  -8   4   0  540.72   37.61
  -8  -4   0  413.51   43.92
  -8   4   1  304.93   30.07
  -8  -4   1  327.58   37.72
  -8   4   1  327.85   34.03
  -8  -4   2  910.31   68.67
  -8   4   2  840.03   63.41
  -8   4   3  347.05   42.74
  -8  -4   3  286.61   42.14
  -8  -6  -1  758.54   52.13
  -8   6  -1  647.70   53.57
  -8  -6  -1  688.13   63.46
  -8  -6   0  330.28   32.78
  -8   6   0  328.60   31.09
  -8  -6   0  306.56   40.00
  -8   6   1  193.99   25.81
  -8   6   1  159.58   23.35
  -8  -6   1  207.90   31.62
  -8   6   2  962.57   67.10
  -8  -6   2  904.62   71.81
  -8   6   2  818.79   55.59
  -8   6   3  140.78   26.61
  -8  -6   3  135.72   30.05
  -8  -8  -1  129.08   27.83
  -8   8  -1  106.58   21.76
  -8  -8  -1   88.55   18.19
  -8   8   0   63.56   17.66
  -8   8   0   63.99   13.08
  -8  -8   0   63.10   18.64
  -8  -8   0   61.28   15.31
  -8  -8   1 1452.86   94.82
  -8   8   1 1226.49   74.39
  -8   8   1 1332.51   81.50
  -8   8   2  186.59   27.98
  -8   8   2  227.31   31.32
  -8  -8   2  205.01   34.12
  -8  10  -1   13.77    8.24
  -8 -10  -1   41.14   12.72
  -8 -10  -1   11.33   12.38
  -8  10   0  450.83   37.69
  -8 -10   0  541.52   59.82
  -8  10   0  378.70   43.28
  -8  10   0  340.23   45.41
  -8 -10   0  482.43   44.75
  -8 -10   1  273.09   40.77
  -8  10   1  222.54   28.10
  -8  10   1  237.60   34.36
  -8  10   2   14.77   10.49
  -8 -10   2   16.36   14.12
  -8  10   2   13.73    9.75
  -8 -12   0  145.25   34.65
  -8  12   0  179.08   30.19
  -8 -12   0  206.14   30.72
  -8  12   0  160.83   33.24
  -8 -12   1   67.07   24.17
  -8  12   1   74.57   21.91
  -8  12   1   81.61   18.02
  -7   1  -2  622.82   44.77
  -7   1  -2  609.84   37.86
  -7  -1  -2  633.91   41.93
  -7  -1  -2  706.59   43.96
  -7   1  -1  549.50   31.29
  -7  -1  -1  536.08   34.22
  -7   1  -1  530.94   38.08
  -7  -1  -1  451.32   40.74
  -7   1  -1  545.05   41.07
  -7  -1   0  164.56   21.61
  -7   1   0  152.78   19.22
  -7   1   0  143.29   19.88
  -7  -1   0  159.72   21.75
  -7  -1   1  959.35   61.61
  -7   1   1  929.35   59.81
  -7   1   1 1038.25   49.02
  -7  -1   1 1035.35   40.82
  -7   1   2  647.53   51.74
  -7  -1   2  638.87   52.35
  -7  -1   3   63.23   18.97
  -7   1   3   68.36   18.51
  -7   3  -2  477.11   41.45
  -7  -3  -2  491.82   38.76
  -7  -3  -1  803.47   60.00
  -7   3  -1  774.25   52.43
  -7  -3  -1  995.37   53.01
  -7   3  -1  971.10   53.59
  -7  -3   0  595.44   47.63
  -7  -3   0  597.51   46.38
  -7  -3   0  662.13   41.05
  -7   3   0  635.57   39.89
  -7   3   0  571.32   40.79
  -7  -3   1  896.34   60.32
  -7   3   1  934.27   57.87
  -7  -3   2 1187.96   75.40
  -7   3   2 1140.55   54.28
  -7   3   2 1185.49   72.21
  -7   3   2 1105.45   52.96
  -7  -3   3   85.69   20.11
  -7   3   3   55.95   17.35
  -7  -5  -2  237.38   27.68
  -7   5  -2  213.61   29.06
  -7  -5  -1  392.80   33.66
  -7   5  -1  424.21   31.14
  -7  -5  -1  366.25   40.84
  -7   5  -1  358.88   35.95
  -7  -5   0 1861.36   86.89
  -7   5   0 1848.66   80.13
  -7  -5   0 1844.07   99.80
  -7   5   0 1984.63   86.33
  -7  -5   0 2004.02   87.73
  -7   5   0 1673.93   87.39
  -7   5   1  176.06   21.21
  -7   5   1  208.10   25.15
  -7  -5   1  227.51   29.33
  -7   5   1  211.36   25.04
  -7   5   2  173.90   25.09
  -7   5   2  166.62   18.90
  -7  -5   2  169.81   26.75
  -7   5   2  171.49   21.54
  -7   5   3 1484.74   90.71
  -7  -5   3 1362.64   92.16
  -7   7  -2  130.07   23.79
  -7  -7  -2  139.33   22.72
  -7   7  -1  248.69   22.05
  -7  -7  -1  172.15   29.76
  -7  -7  -1  221.09   26.29
  -7   7  -1  184.34   27.26
  -7   7   0   92.40   14.13
  -7   7   0  101.39   15.60
  -7  -7   0  124.08   18.31
  -7  -7   0  101.99   22.51
  -7   7   0   72.94   16.86
  -7  -7   0  107.01   17.83
  -7   7   1  224.43   26.28
  -7   7   1  241.74   29.32
  -7  -7   1  252.82   33.90
  -7   7   2  236.78   29.22
  -7   7   2  228.43   29.19
  -7  -7   2  272.51   36.00
  -7   7   3   38.38   13.13
  -7  -7   3   36.31   16.17
  -7  -9  -1 1503.47   81.76
  -7   9  -1 1402.55   87.05
  -7  -9  -1 1366.25   96.43
  -7   9   0  246.65   30.77
  -7  -9   0  229.26   35.43
  -7  -9   0  291.60   31.43
  -7   9   0  310.22   27.75
  -7   9   0  201.26   32.45
  -7   9   1  319.62   37.04
  -7  -9   1  368.56   43.48
  -7   9   1  321.82   32.44
  -7   9   2 1375.53   80.17
  -7  -9   2 1312.80   90.23
  -7   9   2 1181.37   79.51
  -7   9   3  446.63   46.95
  -7  -9   3  413.55   52.01
  -7 -11  -1    4.12    5.68
  -7 -11  -1    9.03    9.66
  -7 -11   0  538.26   46.37
  -7  11   0  550.28   50.91
  -7 -11   0  479.73   56.01
  -7  11   0  591.83   40.95
  -7  11   0  450.43   52.18
  -7  11   1  363.53   42.90
  -7  11   1  376.25   36.13
  -7 -11   1  465.65   53.28
  -7  11   2   79.66   18.34
  -7  11   2   76.21   20.87
  -7 -11   2   77.25   23.51
  -7  13   0  490.35   38.44
  -7  13   0  505.67   50.98
  -7 -13   0  558.90   49.27
  -7  13   0  488.73   56.34
  -7 -13   0  472.06   58.45
  -7  13   1  354.39   46.22
  -7  13   1  419.10   39.44
  -7  13   2  217.45   35.67
  -7  13   2  206.00   30.28
  -7 -13   2  203.80   38.97
  -6   0  -3  247.19   29.34
  -6   0  -3  305.61   29.91
  -6   0  -2  611.64   41.24
  -6   0  -2  613.71   38.45
  -6   0  -1 2129.56   79.96
  -6   0  -1 1902.80   89.81
  -6   0   0 1898.81   81.54
  -6   0   0 1886.91   84.51
  -6   0   1  616.02   30.59
  -6   0   1  694.21   45.20
  -6   0   1  589.61   42.77
  -6   0   2 2569.37  116.40
  -6   0   3 1096.40   73.68
  -6   0   4  112.49   24.59
  -6  -2  -3  495.15   41.65
  -6   2  -3  477.30   43.76
  -6  -2  -2   60.37   11.83
  -6   2  -2   38.76   11.09
  -6   2  -2   58.61    9.69
  -6  -2  -2   51.61   10.38
  -6   2  -1  347.58   28.16
  -6   2  -1  312.18   27.98
  -6  -2  -1  300.20   31.14
  -6   2  -1  359.53   21.18
  -6  -2  -1  353.46   26.85
  -6  -2  -1  352.10   23.97
  -6   2   0 1255.99   58.83
  -6  -2   0 1420.30   60.14
  -6  -2   0 1307.81   68.73
  -6   2   0 1249.79   62.04
  -6   2   0 1157.25   60.27
  -6  -2   0 1289.01   66.18
  -6  -2   1   18.37    7.34
  -6   2   1   12.89    6.43
  -6  -2   1   25.54    8.43
  -6   2   1   32.39    7.56
  -6   2   1   21.29    7.70
  -6   2   2  746.26   35.73
  -6   2   2  684.93   50.65
  -6  -2   2  699.23   52.34
  -6   2   3  427.61   42.88
  -6  -2   3  408.48   43.09
  -6   4  -2  872.92   39.42
  -6  -4  -2  850.73   52.92
  -6  -4  -2  876.15   40.95
  -6  -4  -1  752.89   56.05
  -6   4  -1  841.00   43.81
  -6  -4  -1  878.90   48.45
  -6   4  -1  684.70   48.00
  -6   4   0  435.95   31.43
  -6   4   0  388.66   32.40
  -6  -4   0  455.30   31.96
  -6  -4   0  443.05   38.40
  -6   4   0  412.02   28.46
  -6   4   1  923.78   54.18
  -6   4   1  907.75   48.58
  -6   4   1 1058.89   57.69
  -6  -4   1  867.82   56.81
  -6   4   2  816.05   55.55
  -6   4   2  826.22   43.37
  -6  -4   2  890.13   60.22
  -6  -4   3  217.81   31.55
  -6   4   3  217.79   30.44
  -6   6  -2  955.48   66.05
  -6  -6  -2 1130.13   65.60
  -6   6  -1  242.75   13.13
  -6  -6  -1  202.01   29.33
  -6  -6  -1  260.63   26.17
  -6   6  -1  212.22   26.47
  -6   6  -1  253.64   20.38
  -6   6   0  113.80   17.74
  -6  -6   0  130.16   17.74
  -6  -6   0  100.81   16.05
  -6   6   0  106.83   13.93
  -6  -6   0   86.10   18.15
  -6   6   0  124.81   15.72
  -6  -6   1 1748.24   92.80
  -6   6   1 1958.46   83.09
  -6   6   1 1623.69   84.88
  -6   6   1 1768.36   83.42
  -6   6   1 1956.97   87.22
  -6  -6   2   71.07   16.77
  -6   6   2   71.07   15.41
  -6   6   2   74.10    5.40
  -6   6   2   66.71   11.82
  -6   6   2   89.83   17.18
  -6   6   3   33.18   13.22
  -6  -6   3   33.31   13.22
  -6  -8  -2  125.04   21.28
  -6   8  -2  135.72   24.02
  -6   8  -1  263.29   31.89
  -6   8  -1  264.06   19.80
  -6  -8  -1  250.85   27.30
  -6   8  -1  250.59   14.14
  -6  -8  -1  203.29   31.45
  -6  -8   0 1763.29   83.86
  -6   8   0 1907.10   79.67
  -6  -8   0 1728.04  100.01
  -6  -8   0 1906.45   86.75
  -6   8   0 1738.01   76.31
  -6   8   0 1744.28   89.50
  -6   8   1  695.54   34.05
  -6  -8   1  676.93   55.46
  -6   8   1  657.38   45.09
  -6   8   1  621.40   50.21
  -6   8   2  600.50   28.81
  -6   8   2  612.59   49.52
  -6   8   2  567.80   48.72
  -6   8   2  576.20   46.46
  -6  -8   2  575.76   52.85
  -6   8   3  944.09   69.83
  -6  -8   3  852.10   71.92
  -6   8   3  965.94   69.04
  -6 -10  -2   42.36   12.90
  -6  10  -2   65.89   18.22
  -6 -10  -1  538.20   44.35
  -6  10  -1  490.51   47.07
  -6  10  -1  541.67   29.68
  -6 -10  -1  450.96   50.84
  -6 -10   0  630.24   46.56
  -6  10   0  634.90   39.86
  -6  10   0  604.17   49.37
  -6 -10   0  662.44   60.02
  -6  10   0  523.76   52.09
  -6 -10   0  587.54   44.30
  -6  10   1   49.20   14.45
  -6 -10   1   85.72   19.87
  -6  10   1   54.30   12.58
  -6  10   1   56.98    9.64
  -6  10   2  472.67   44.68
  -6 -10   2  444.12   49.59
  -6  10   2  429.31   46.21
  -6  10   3  443.46   48.61
  -6 -10   3  484.24   56.26
  -6 -12  -1  100.23   19.56
  -6  12  -1   72.21   19.44
  -6  12   0   24.69   14.02
  -6 -12   0   28.43   10.23
  -6  12   0   28.25    8.23
  -6 -12   0   28.54   13.62
  -6  12   0   21.50   10.61
  -6  12   1  927.12   62.24
  -6  12   1  947.60   72.56
  -6 -12   1 1130.64   85.11
  -6  12   2   74.10   18.95
  -6 -12   2   51.20   18.30
  -6  12   2   63.19   19.39
  -6  14  -1  883.92   72.34
  -6  14  -1  698.80   72.23
  -6 -14  -1  942.91   66.96
  -6 -14   0  420.40   42.81
  -6 -14   0  505.80   59.33
  -6  14   0  461.40   48.07
  -6  14   0  449.50   53.91
  -6  14   0  443.48   35.34
  -6 -14   1  140.62   31.85
  -6  14   1  115.20   21.15
  -6  14   1  131.78   27.10
  -6 -14   2  763.74   78.68
  -6  14   2  701.18   68.67
  -6  14   2  818.59   65.74
  -6  16   0   72.12   20.19
  -6  16   0   80.43   24.63
  -6 -16   0   76.03   19.11
  -6 -16   1  258.32   46.81
  -6  16   1  218.70   39.54
  -6  16   1  170.08   28.40
  -5   1  -3  432.39   35.20
  -5   1  -3  410.11   38.79
  -5  -1  -3  424.47   37.37
  -5  -1  -3  404.54   35.71
  -5   1  -2  790.08   49.20
  -5  -1  -2  852.20   47.30
  -5  -1  -2  914.04   48.86
  -5  -1  -2  816.70   47.60
  -5   1  -2  955.71   46.73
  -5   1  -1  335.37   20.85
  -5  -1  -1  292.09   26.78
  -5  -1  -1  334.21   23.14
  -5   1  -1  277.42   23.72
  -5  -1  -1  298.93   21.62
  -5  -1   0 1660.36   72.20
  -5  -1   0 1766.73   66.22
  -5   1   0 1660.56   71.10
  -5   1   0 1567.21   66.95
  -5   1   0 1540.31   67.75
  -5  -1   0 1723.19   74.80
  -5   1   1 1359.01   64.78
  -5   1   1 1255.35   52.20
  -5   1   1 1396.79   54.70
  -5  -1   1 1236.28   43.57
  -5  -1   1 1383.90   66.42
  -5  -1   1 1617.19   70.38
  -5   1   1 1509.68   67.85
  -5   1   2  123.12   19.17
  -5   1   2  132.85   11.02
  -5  -1   2  139.86   20.56
  -5  -1   3  697.65   31.74
  -5   1   3  640.82   29.76
  -5  -1   3  523.78   46.70
  -5   1   3  593.52   32.36
  -5  -1   3  561.64   27.37
  -5   1   3  585.21   48.38
  -5  -1   4  556.46   53.11
  -5   1   4  578.21   53.22
  -5  -3  -3  652.12   44.34
  -5  -3  -3  729.53   50.89
  -5  -3  -2  922.94   52.96
  -5   3  -2 1013.44   45.28
  -5  -3  -2  997.41   46.68
  -5   3  -1  138.47   14.60
  -5   3  -1  140.02   17.55
  -5   3  -1  157.23   18.40
  -5  -3  -1  137.57   15.98
  -5   3  -1  154.34   10.93
  -5  -3  -1  140.92   11.91
  -5  -3  -1  131.03   19.28
  -5   3   0 2523.52  101.60
  -5  -3   0 2713.65  108.09
  -5   3   0 2675.48   99.90
  -5   3   0 2481.98   95.48
  -5  -3   0 2803.83   99.48
  -5  -3   0 2782.03  110.11
  -5   3   1 1118.71   57.73
  -5  -3   1 1109.68   60.29
  -5   3   1 1094.93   54.88
  -5  -3   1 1258.82   64.59
  -5   3   1 1128.65   50.78
  -5   3   1 1303.95   62.00
  -5   3   2   55.33    8.38
  -5   3   2   53.13   12.54
  -5  -3   2   47.20   12.52
  -5  -3   3 1635.33   92.94
  -5   3   3 1841.40   65.64
  -5  -3   3 1848.45   68.84
  -5   3   3 1533.48   70.95
  -5   3   3 1657.28   90.94
  -5   3   4  383.93   42.76
  -5  -3   4  307.39   39.69
  -5   5  -3  135.80   23.81
  -5  -5  -3  162.80   24.72
  -5  -5  -2  138.46   19.26
  -5  -5  -2  148.53   13.12
  -5   5  -2  145.76   21.46
  -5   5  -2  155.84   13.59
  -5   5  -1 2734.24   84.68
  -5   5  -1 2487.67  110.51
  -5  -5  -1 2561.16  120.08
  -5   5  -1 2853.88   97.09
  -5  -5  -1 2846.17  108.86
  -5  -5   0  242.49   22.42
  -5   5   0  247.94   20.56
  -5   5   0  238.00   23.83
  -5   5   0  247.41   23.70
  -5  -5   0  234.21   26.09
  -5   5   0  231.27   19.19
  -5  -5   0  265.60   22.76
  -5  -5   1   62.17   12.84
  -5   5   1   70.58   12.86
  -5   5   1   88.48    7.87
  -5   5   1   90.18   12.31
  -5  -5   1   82.08   15.66
  -5   5   2 2706.32  107.68
  -5   5   2 3028.82  124.41
  -5  -5   2 2976.92  127.45
  -5   5   2 3093.38   95.29
  -5   5   2 3045.83  126.45
  -5   5   2 2696.04  116.95
  -5   5   3  123.99   22.61
  -5   5   3  111.19   15.86
  -5   5   3  149.24   23.95
  -5  -5   3  101.59   20.54
  -5   5   4   11.83    9.80
  -5  -5   4   19.13    9.88
  -5   7  -3  101.17   22.32
  -5  -7  -3  117.73   21.67
  -5  -7  -2  214.52   26.08
  -5   7  -2  214.98   28.56
  -5   7  -2  208.56   13.01
  -5   7  -1   57.63    5.62
  -5  -7  -1   68.99   17.18
  -5  -7  -1   49.04   11.17
  -5   7  -1   64.73   14.10
  -5   7  -1   53.45    7.48
  -5   7   0  389.48   27.05
  -5  -7   0  400.71   31.25
  -5   7   0  448.83   34.72
  -5   7   0  361.62   32.56
  -5  -7   0  381.96   37.03
  -5  -7   0  407.96   31.02
  -5   7   0  375.04   25.94
  -5   7   1  373.78   29.40
  -5   7   1  329.26   32.49
  -5  -7   1  317.14   33.41
  -5   7   1  342.44   30.35
  -5   7   1  357.27   21.24
  -5   7   1  339.50   28.99
  -5   7   2   67.84   15.01
  -5   7   2   83.16    9.81
  -5   7   2   87.45   18.06
  -5   7   2   97.16   14.38
  -5  -7   3  249.63   33.72
  -5   7   3  257.18   32.89
  -5  -9  -2 1514.24   83.16
  -5   9  -2 1374.58   85.47
  -5   9  -1  687.02   52.32
  -5  -9  -1  748.97   49.65
  -5   9  -1  766.06   34.60
  -5   9  -1  758.79   32.54
  -5  -9  -1  661.59   58.01
  -5   9   0  758.67   41.45
  -5   9   0  619.78   53.04
  -5  -9   0  760.05   47.26
  -5  -9   0  690.32   56.62
  -5   9   0  768.39   41.82
  -5  -9   0  712.13   46.82
  -5   9   0  672.87   49.16
  -5   9   1 1513.85   86.12
  -5   9   1 1628.77   66.25
  -5  -9   1 1704.35   93.01
  -5   9   1 1589.37   79.58
  -5  -9   2  646.01   55.56
  -5   9   2  694.89   36.91
  -5   9   2  601.69   52.61
  -5   9   2  640.98   50.52
  -5   9   3  615.22   54.46
  -5  -9   3  610.84   57.93
  -5  11  -2  150.41   27.53
  -5 -11  -2  214.88   29.26
  -5 -11  -1  895.34   58.95
  -5  11  -1  920.89   40.44
  -5  11  -1  882.58   63.35
  -5 -11   0  389.41   35.95
  -5  11   0  413.42   39.56
  -5 -11   0  369.69   33.79
  -5 -11   0  394.56   44.78
  -5  11   0  392.68   43.77
  -5  11   1  485.47   40.43
  -5 -11   1  551.92   52.99
  -5  11   1  446.22   45.36
  -5  11   1  528.76   33.90
  -5  11   2  684.26   60.55
  -5  11   2  691.51   41.38
  -5  11   2  765.77   57.86
  -5 -11   2  682.34   62.13
  -5 -11   3   79.12   23.55
  -5  11   3   85.49   21.77
  -5 -13  -2  152.36   26.50
  -5  13  -2  132.01   28.09
  -5 -13  -1  426.41   40.77
  -5  13  -1  398.44   43.45
  -5 -13   0  634.60   48.04
  -5  13   0  573.00   57.15
  -5  13   0  587.41   51.24
  -5 -13   0  558.31   58.29
  -5  13   0  637.55   43.44
  -5  13   1  387.46   44.81
  -5 -13   1  322.53   43.95
  -5  13   1  354.78   36.11
  -5  13   2  353.09   40.78
  -5  13   2  381.48   47.75
  -5 -13   2  371.32   49.20
  -5  15  -1   74.24   19.91
  -5  15  -1   63.31   19.70
  -5 -15  -1   81.74   18.38
  -5  15   0  367.34   34.17
  -5 -15   0  389.58   39.39
  -5  15   0  446.77   45.85
  -5  15   0  313.58   45.51
  -5 -15   1   86.67   25.27
  -5  15   1   70.73   16.29
  -5  15   1   76.67   21.24
  -5  15   2   81.77   22.05
  -5  15   2   42.33   17.97
  -5 -15   2   76.82   26.57
  -5 -17   0  645.98   54.89
  -5  17   0  643.95   48.28
  -5  17   0  580.38   56.51
  -5  17   0  615.88   68.08
  -5  17   1  461.04   57.26
  -5 -17   1  630.72   71.89
  -5  17   1  500.19   48.34
  -4   0  -2 1737.96   78.08
  -4   0  -2 1815.94   76.57
  -4   0  -1 3004.86  107.57
  -4   0  -1 3098.20  100.19
  -4   0   0  921.04   41.85
  -4   0   0 1013.96   39.88
  -4   0   0  873.67   42.67
  -4   0   0  993.67   46.22
  -4   0   1 2668.27   85.96
  -4   0   1 2453.43   85.65
  -4   0   1 3019.90  105.90
  -4   0   1 2919.43  103.60
  -4   0   2 2912.37   87.51
  -4   0   2 2494.84   88.50
  -4   0   2 2652.60  110.75
  -4   0   2 3016.38  119.03
  -4   0   3  111.88   19.01
  -4   0   3  136.54   14.57
  -4   0   4  193.78   28.38
  -4   0   4  223.45   23.71
  -4   2  -3   -5.14    5.70
  -4   2  -2  677.96   37.76
  -4  -2  -2  666.99   36.46
  -4   2  -2  591.55   37.98
  -4   2  -1  674.63   28.57
  -4  -2  -1  649.16   34.26
  -4   2  -1  635.71   32.43
  -4   2  -1  633.36   36.26
  -4  -2  -1  541.36   28.27
  -4  -2  -1  597.98   39.38
  -4  -2   0  195.02   15.55
  -4   2   0  177.04   14.84
  -4   2   0  194.40   16.68
  -4  -2   0  204.93   19.53
  -4  -2   0  188.54   18.25
  -4   2   0  205.98   17.70
  -4  -2   1 2424.31   93.26
  -4   2   1 2344.10   88.75
  -4  -2   1 2218.10   89.49
  -4   2   1 2009.21   76.24
  -4   2   1 2420.90   91.24
  -4   2   1 2109.41   81.41
  -4   2   2  552.01   38.53
  -4   2   2  582.26   23.33
  -4  -2   2  669.73   45.39
  -4  -2   2  460.85   17.24
  -4   2   2  521.29   26.91
  -4  -2   2  596.42   24.85
  -4  -2   2  363.56   17.74
  -4   2   2  632.58   43.04
  -4  -2   2  554.10   38.73
  -4  -2   3  210.11   18.18
  -4   2   3  159.78   16.06
  -4  -2   3  143.33   22.15
  -4   2   3  153.36   22.30
  -4  -2   4  559.26   39.76
  -4   2   4  530.23   38.09
  -4   2   4  537.79   48.56
  -4  -2   4  430.80   44.84
  -4  -4  -3  488.86   41.52
  -4   4  -3  487.30   45.53
  -4   4  -2 1090.47   64.96
  -4  -4  -2 1377.39   49.11
  -4   4  -2 1197.37   44.04
  -4  -4  -2 1308.27   65.21
  -4   4  -1  289.45   25.63
  -4   4  -1  343.29   15.25
  -4   4  -1  347.44   19.58
  -4   4  -1  347.99   26.69
  -4  -4  -1  333.43   24.85
  -4  -4  -1  291.77   14.94
  -4  -4  -1  292.86   29.36
  -4   4   0 1974.33   77.57
  -4   4   0 1886.92   68.98
  -4   4   0 1803.68   69.77
  -4  -4   0 1688.48   72.29
  -4  -4   0 1885.46   82.31
  -4  -4   0 1939.63   73.94
  -4   4   0 1907.67   71.56
  -4   4   1 2435.57   77.82
  -4   4   1 2445.42   95.90
  -4   4   1 2548.52   98.28
  -4   4   1 2358.45   96.08
  -4   4   1 2331.82   88.29
  -4  -4   1 2715.84  104.88
  -4  -4   1 2410.00   98.55
  -4   4   2  294.35   22.09
  -4  -4   2  292.67   28.77
  -4   4   2  303.35   29.36
  -4  -4   2  361.70   34.60
  -4   4   3  987.79   64.95
  -4   4   3  970.48   63.29
  -4  -4   3 1142.49   53.27
  -4  -4   3  919.07   63.10
  -4  -4   3 1047.35   43.77
  -4  -4   4  447.12   36.68
  -4   4   4  453.38   45.85
  -4   4   4  413.92   43.97
  -4  -4   4  446.46   45.86
  -4   4   4  505.51   37.28
  -4   6  -3  940.47   68.77
  -4  -6  -3  938.09   63.13
  -4   6  -2   91.51   17.96
  -4  -6  -2  131.56   19.08
  -4  -6  -2  115.73   11.33
  -4   6  -2  113.05   11.70
  -4  -6  -2  114.54   12.81
  -4   6  -1  241.78   25.33
  -4  -6  -1  266.81   23.95
  -4   6  -1  280.49   25.36
  -4  -6  -1  197.77   26.03
  -4   6  -1  259.21   12.20
  -4  -6  -1  269.13   30.21
  -4   6  -1  292.02   16.07
  -4  -6   0 2748.62  110.09
  -4   6   0 2996.74  105.26
  -4   6   0 2904.98  114.95
  -4  -6   0 2993.70  122.84
  -4   6   0 2920.82  103.57
  -4  -6   0 3021.60  110.80
  -4   6   1   30.15    5.33
  -4  -6   1   29.09    9.69
  -4   6   1   28.62    8.19
  -4   6   1   32.82    7.31
  -4  -6   1   19.25    7.38
  -4  -6   2  392.94   35.13
  -4   6   2  390.60   34.51
  -4   6   2  352.25   32.83
  -4   6   2  427.05   29.80
  -4  -6   3 1504.06   54.92
  -4   6   3 1577.01   87.18
  -4  -6   3 1695.64   73.12
  -4  -6   3 1468.45   85.28
  -4  -6   4   72.38   15.46
  -4  -6   4   48.94   14.70
  -4   6   4   66.59   17.63
  -4   6   4   76.40   19.06
  -4  -8  -3  404.52   41.41
  -4   8  -3  390.73   44.64
  -4   8  -2  431.48   39.55
  -4   8  -2  497.40   22.66
  -4  -8  -2  490.21   39.37
  -4  -8  -2  355.64   14.56
  -4  -8  -2  329.44   14.75
  -4  -8  -2  500.47   31.28
  -4   8  -1 1524.17   51.94
  -4  -8  -1 1469.16   83.17
  -4  -8  -1 1479.79   70.43
  -4  -8  -1 1228.81   78.35
  -4   8  -1 1394.21   66.58
  -4   8  -1 1201.32   58.89
  -4   8  -1 1410.98   74.37
  -4   8   0 1271.75   61.55
  -4   8   0 1118.91   53.27
  -4  -8   0 1019.33   65.14
  -4   8   0 1124.77   51.24
  -4   8   0 1101.54   55.51
  -4   8   0 1076.76   59.91
  -4  -8   0 1057.66   55.27
  -4  -8   0 1054.22   56.54
  -4   8   1 1361.30   63.98
  -4   8   1 1271.24   71.97
  -4   8   1 1265.41   65.15
  -4   8   1 1290.01   55.21
  -4  -8   1 1353.51   74.01
  -4   8   2  956.97   52.37
  -4   8   2  898.78   57.98
  -4  -8   2  870.31   59.87
  -4   8   2  873.45   60.65
  -4   8   3  382.13   39.81
  -4  -8   3  292.58   36.25
  -4 -10  -3   95.45   21.40
  -4  10  -3   94.06   23.54
  -4  10  -2  393.48   32.36
  -4 -10  -2  525.60   37.65
  -4 -10  -2  515.51   44.13
  -4  10  -2  499.19   46.54
  -4  10  -1  990.36   55.83
  -4  10  -1 1226.23   45.67
  -4  10  -1 1163.41   69.56
  -4 -10  -1 1139.05   64.10
  -4 -10   0  140.92   19.85
  -4  10   0  138.87   23.83
  -4  10   0  137.38   16.33
  -4 -10   0  150.00   19.44
  -4 -10   0  148.05   25.27
  -4  10   0  137.39   17.09
  -4  10   0  143.42   20.80
  -4 -10   1  369.43   38.93
  -4  10   1  325.25   35.80
  -4  10   1  401.91   27.96
  -4  10   1  402.07   33.91
  -4 -10   2  869.92   64.61
  -4  10   2  860.54   58.93
  -4  10   2  856.82   64.93
  -4 -10   3    1.04    8.31
  -4  10   3   16.70    8.68
  -4  12  -2   76.47   19.24
  -4 -12  -2   57.90   13.68
  -4 -12  -2   43.62   15.05
  -4 -12  -1   81.35   16.59
  -4  12  -1   72.73    9.47
  -4  12  -1   73.66   11.35
  -4  12  -1  103.88   19.85
  -4  12   0 1431.64   78.85
  -4 -12   0 1445.18   73.32
  -4  12   0 1378.11   87.30
  -4 -12   0 1259.77   85.91
  -4 -12   0 1355.45   76.92
  -4  12   0 1365.61   67.50
  -4 -12   1   34.69   13.27
  -4  12   1   36.04    9.48
  -4  12   1   47.93   12.92
  -4  12   1   53.81   16.78
  -4  12   2   42.00   13.28
  -4 -12   2   31.46   15.10
  -4  12   2   36.57   14.55
  -4 -12   3  676.76   62.88
  -4  12   3  861.87   66.88
  -4 -14  -2  967.53   70.62
  -4  14  -2  886.17   72.42
  -4 -14  -2  926.34   62.96
  -4  14  -1  503.06   55.43
  -4 -14  -1  603.38   48.28
  -4  14  -1  479.54   47.54
  -4  14   0   43.14   16.70
  -4 -14   0   76.59   15.72
  -4  14   0   59.19   15.87
  -4  14   0   64.83   12.99
  -4 -14   1 1520.25  101.06
  -4  14   1 1327.54   77.65
  -4  14   1 1369.01   91.00
  -4  14   2  779.08   69.49
  -4 -14   2  709.58   68.58
  -4  14   2  730.60   59.58
  -4  16  -1  229.98   39.66
  -4  16  -1  231.20   34.61
  -4 -16  -1  268.18   33.75
  -4 -16   0  286.44   32.94
  -4  16   0  282.96   41.85
  -4  16   0  249.75   27.87
  -4  16   0  222.57   31.78
  -4 -16   1   75.89   22.46
  -4  16   1   50.37   15.14
  -4  16   1   36.67   16.23
  -4  16   2  340.08   47.12
  -4  16   2  329.52   41.58
  -4 -16   2  327.63   48.72
  -4  18   0   65.21   18.20
  -4 -18   0   73.41   18.40
  -4  18   0   37.71   12.78
  -4  18   0   65.04   21.55
  -4  18   1  269.00   43.80
  -4  18   1  237.25   32.89
  -3  -1  -3  794.64   46.56
  -3  -1  -3  869.54   42.30
  -3  -1  -3  898.17   57.79
  -3   1  -3  891.63   57.43
  -3   1  -2  236.45   23.24
  -3   1  -2  241.04   21.39
  -3  -1  -2  273.61   15.85
  -3   1  -1 1306.86   52.65
  -3  -1  -1 1377.71   59.05
  -3   1  -1 1291.10   55.19
  -3  -1  -1 1314.54   52.47
  -3   1  -1 1373.41   55.05
  -3  -1  -1 1269.95   51.50
  -3  -1  -1 1299.23   51.15
  -3   1   0 2417.03   82.77
  -3   1   0 2181.56   79.67
  -3  -1   0 2549.81   86.22
  -3  -1   0 2355.27   79.21
  -3   1   0 2387.20   82.72
  -3  -1   0 2331.46   83.74
  -3   1   1  126.56   11.10
  -3  -1   1  121.27   14.38
  -3  -1   1  143.60   14.69
  -3   1   1  122.97    9.19
  -3   1   1  143.08   15.34
  -3   1   1  150.60   14.90
  -3   1   2  331.03   29.14
  -3  -1   2  356.87   30.62
  -3  -1   2  277.66   25.19
  -3  -1   2  329.63   25.01
  -3  -1   2  304.95   18.71
  -3   1   2  293.95   26.26
  -3   1   2  291.49   25.73
  -3   1   2  308.91   19.18
  -3   1   2  363.69   25.82
  -3   1   3 1963.44   80.81
  -3  -1   3 1819.20   88.36
  -3   1   3 1730.41   87.53
  -3   1   3 1989.49   91.48
  -3  -1   3 2001.47   81.36
  -3   1   4   13.95    7.18
  -3   1   4    4.61    5.59
  -3  -1   4    3.09    6.78
  -3  -1   4   17.87    7.62
  -3   3  -3  358.09   34.28
  -3  -3  -3  359.69   25.92
  -3  -3  -3  319.42   25.14
  -3   3  -2   84.20   12.97
  -3   3  -2   80.36    8.86
  -3  -3  -2   83.76    9.48
  -3  -3  -2   81.88   10.19
  -3   3  -2   90.48   13.78
  -3  -3  -1 4328.69  135.92
  -3   3  -1 4064.00  138.63
  -3  -3  -1 4470.19  147.69
  -3  -3  -1 4045.27  124.09
  -3  -3  -1 3930.05  123.82
  -3   3  -1 4182.91  124.78
  -3   3   0 1073.39   47.08
  -3   3   0 1115.63   44.08
  -3  -3   0 1117.83   45.70
  -3  -3   0 1003.41   49.43
  -3   3   0 1055.42   41.77
  -3   3   0 1136.20   48.82
  -3  -3   0 1107.05   50.94
  -3  -3   1  879.70   44.86
  -3   3   1  966.44   46.44
  -3   3   1  929.89   44.37
  -3  -3   1  928.74   47.84
  -3   3   1  862.73   38.09
  -3  -3   2 2581.63  105.62
  -3  -3   2 2095.53   76.80
  -3   3   2 2390.53   97.61
  -3   3   2 2534.10   91.39
  -3  -3   2 2219.72   94.81
  -3  -3   2 2435.06   83.62
  -3   3   3  651.65   47.33
  -3  -3   3  588.73   44.68
  -3  -3   3  638.59   39.41
  -3  -3   4  283.74   30.84
  -3   3   4  355.36   32.79
  -3  -3   4  349.58   33.51
  -3  -3   4  336.56   36.61
  -3   3   4  323.10   36.05
  -3   3   4  278.95   33.90
  -3  -5  -3  104.45   14.53
  -3   5  -3   48.28   11.89
  -3  -5  -2 3064.62  119.09
  -3  -5  -2 3064.49   98.32
  -3  -5  -2 3007.35  106.63
  -3   5  -2 2863.62  123.04
  -3   5  -2 3071.77  113.89
  -3   5  -2 2659.31  102.80
  -3  -5  -1  532.47   32.99
  -3  -5  -1  519.87   28.35
  -3   5  -1  564.06   21.63
  -3   5  -1  468.20   26.08
  -3   5  -1  593.20   34.49
  -3  -5  -1  540.21   40.31
  -3   5  -1  585.38   36.66
  -3  -5  -1  563.04   40.74
  -3   5   0  317.65   22.72
  -3   5   0  330.75   21.26
  -3  -5   0  265.25   20.90
  -3  -5   0  280.73   24.98
  -3   5   0  298.59   18.50
  -3  -5   0  291.43   21.04
  -3  -5   1 5803.42  190.99
  -3   5   1 5561.43  186.33
  -3  -5   1 5328.92  183.09
  -3   5   1 5233.80  180.79
  -3   5   1 5201.38  173.96
  -3   5   2 1000.80   57.53
  -3  -5   2 1150.99   49.66
  -3  -5   2 1013.91   38.97
  -3   5   2 1097.92   51.23
  -3  -5   2 1189.68   66.31
  -3  -5   2 1047.72   57.22
  -3  -5   3   97.15   13.01
  -3   5   3  102.33   18.65
  -3  -5   3  138.51   17.74
  -3  -5   3  105.55   18.32
  -3  -5   4 1048.80   69.69
  -3   5   4 1062.24   72.81
  -3  -5   4 1127.84   67.40
  -3  -7  -3  186.41   26.75
  -3   7  -3  198.30   30.87
  -3  -7  -3  205.10   22.56
  -3   7  -3  201.82   24.98
  -3   7  -2   31.29   10.53
  -3  -7  -2   22.02    8.47
  -3   7  -2   31.24    8.33
  -3   7  -2   13.00    5.71
  -3  -7  -2   27.89    7.51
  -3   7  -1  261.26   25.00
  -3   7  -1  235.72   22.03
  -3   7  -1  256.02   12.87
  -3  -7  -1  252.42   22.87
  -3   7  -1  238.76   21.29
  -3   7  -1  248.70   11.64
  -3  -7  -1  252.61   21.02
  -3   7  -1  211.15   18.66
  -3   7  -1  272.33   25.98
  -3  -7  -1  272.60   29.27
  -3  -7   0  649.80   45.74
  -3  -7   0  651.51   39.66
  -3   7   0  712.21   37.30
  -3   7   0  780.41   39.57
  -3   7   0  802.48   42.58
  -3   7   0  738.38   36.36
  -3  -7   1  402.25   34.17
  -3   7   1  387.21   28.97
  -3  -7   1  348.89   30.27
  -3   7   1  353.83   25.64
  -3  -7   2  280.74   16.42
  -3   7   2  275.75   21.95
  -3   7   2  244.84   28.35
  -3  -7   2  258.69   27.44
  -3  -7   2  333.15   34.67
  -3   7   2  267.39   27.76
  -3  -7   3  489.20   37.30
  -3  -7   3  435.93   39.63
  -3   7   3  450.44   42.01
  -3  -7   3  482.14   29.60
  -3   7   4  149.26   26.19
  -3  -7   4  142.76   22.71
  -3  -9  -3  849.54   55.37
  -3   9  -3  872.55   55.93
  -3  -9  -3  974.81   67.25
  -3   9  -3  983.93   73.45
  -3   9  -2  861.47   59.96
  -3  -9  -2  910.71   57.13
  -3   9  -2  839.39   39.11
  -3  -9  -2  828.56   50.27
  -3  -9  -2  822.51   37.57
  -3   9  -2  806.60   44.30
  -3   9  -1 1000.53   54.01
  -3   9  -1 1147.83   39.31
  -3  -9  -1 1106.21   56.88
  -3  -9  -1 1278.42   73.44
  -3  -9  -1 1178.42   60.11
  -3   9  -1 1053.75   55.20
  -3   9  -1 1074.13   45.85
  -3   9  -1 1107.88   62.80
  -3  -9   0 1389.00   69.07
  -3   9   0 1420.42   61.64
  -3  -9   0 1329.39   76.42
  -3   9   0 1378.94   61.47
  -3   9   0 1514.81   69.22
  -3   9   0 1360.93   68.46
  -3   9   0 1400.48   63.07
  -3   9   0 1403.16   76.11
  -3  -9   0 1392.17   64.78
  -3   9   1 1060.12   65.45
  -3   9   1 1041.93   57.35
  -3  -9   1 1107.49   65.46
  -3   9   1 1094.39   51.43
  -3   9   1 1142.53   56.97
  -3   9   2 1232.43   56.04
  -3  -9   2 1311.06   74.79
  -3   9   2 1320.31   72.21
  -3   9   2 1266.72   76.71
  -3  -9   3  409.56   39.93
  -3   9   3  397.76   41.04
  -3  -9   3  410.28   35.94
  -3  11  -3  359.17   45.03
  -3  11  -3  358.99   32.87
  -3 -11  -3  335.08   39.99
  -3 -11  -3  350.23   35.75
  -3 -11  -2  877.73   59.54
  -3  11  -2  810.06   61.24
  -3  11  -2  656.16   47.73
  -3  11  -2  814.91   33.48
  -3 -11  -2  821.03   54.17
  -3  11  -1  118.27   19.80
  -3  11  -1  158.11   13.67
  -3 -11  -1  151.74   20.60
  -3 -11  -1  127.57   18.29
  -3  11  -1  125.33   17.83
  -3  11  -1  104.97   12.78
  -3 -11   0 1272.36   69.48
  -3  11   0 1132.45   65.06
  -3 -11   0 1257.37   62.84
  -3  11   0 1194.65   58.65
  -3  11   0 1192.29   63.21
  -3 -11   0 1145.42   75.17
  -3  11   0 1148.64   73.02
  -3  11   0 1206.06   59.60
  -3  11   0 1207.00   59.06
  -3  11   1  674.62   40.71
  -3 -11   1  642.64   53.36
  -3  11   1  669.93   53.34
  -3  11   1  632.27   44.66
  -3 -11   2  146.99   24.84
  -3  11   2  126.86   22.13
  -3  11   2  117.08   24.86
  -3  11   2  133.65   14.18
  -3 -11   3  796.39   61.45
  -3  11   3  940.21   67.44
  -3 -11   3  812.15   43.85
  -3 -13  -2  301.90   33.57
  -3 -13  -2  337.34   37.82
  -3  13  -2  316.71   38.87
  -3  13  -1 1117.06   70.33
  -3 -13  -1 1113.07   66.01
  -3  13  -1  968.29   51.83
  -3 -13  -1 1005.47   63.47
  -3  13  -1 1207.81   51.33
  -3 -13   0  641.87   51.12
  -3  13   0  719.99   58.78
  -3  13   0  635.68   42.24
  -3 -13   0  637.92   45.01
  -3  13   0  630.20   48.51
  -3  13   1  683.60   57.97
  -3 -13   1  620.43   57.45
  -3  13   1  640.90   47.55
  -3  13   2  931.02   73.78
  -3  13   2  932.49   64.79
  -3 -13   2  832.40   69.03
  -3  13   3  239.70   34.73
  -3 -13   3  216.53   31.64
  -3  15  -2   64.00   18.96
  -3 -15  -2  109.89   22.13
  -3 -15  -2   65.16   17.17
  -3 -15  -1  531.77   45.80
  -3 -15  -1  509.03   45.59
  -3  15  -1  513.73   32.72
  -3  15  -1  478.18   46.31
  -3  15  -1  484.69   53.94
  -3 -15   0  113.07   19.48
  -3  15   0   92.17   21.34
  -3  15   0  106.85   17.16
  -3  15   0   94.92   20.07
  -3  15   1  145.95   23.17
  -3  15   1  171.19   30.90
  -3  15   2  319.33   38.18
  -3 -15   2  355.31   46.19
  -3  15   2  312.90   44.82
  -3  17  -1  277.03   32.97
  -3  17  -1  303.13   44.16
  -3 -17  -1  353.52   38.45
  -3  17  -1  355.29   41.51
  -3  17   0  996.64   61.49
  -3  17   0  910.77   77.41
  -3 -17   0  971.74   64.63
  -3  17   0  935.91   67.86
  -3  17   1   59.92   15.84
  -3  17   1   69.36   21.00
  -3  17   2  201.65   31.66
  -3  17   2  141.31   31.36
  -3  19   0  240.79   41.04
  -3  19   0  227.13   28.89
  -3 -19   0  203.25   30.26
  -3  19   0  274.40   35.94
  -2   0  -4  229.74   31.17
  -2   0  -3  932.88   52.34
  -2   0  -3 1013.71   60.06
  -2   0  -2 2961.82  112.27
  -2   0  -1  332.05   19.02
  -2   0  -1  351.42   21.50
  -2   0   0  997.51   36.32
  -2   0   0 1008.19   34.36
  -2   0   0  905.37   36.38
  -2   0   0  989.24   38.13
  -2   0   1 9314.53  299.56
  -2   0   1 9775.20  285.33
  -2   0   1 9999.00  297.30
  -2   0   2  127.70   16.58
  -2   0   2  112.07   14.50
  -2   0   2  115.76   12.33
  -2   0   2  114.28   13.62
  -2   0   2  109.88   14.29
  -2   0   3   43.59   10.74
  -2   0   3   58.51   12.11
  -2   0   3   52.22   10.85
  -2   0   3   53.82   13.49
  -2   0   4 2532.91  114.65
  -2   0   4 2548.66  114.62
  -2   2  -4  122.51   22.99
  -2  -2  -4   97.93   20.55
  -2  -2  -3  638.45   39.31
  -2   2  -3  770.31   50.61
  -2  -2  -3  758.05   50.48
  -2   2  -2  381.95   26.88
  -2   2  -2  390.43   28.15
  -2  -2  -2  409.18   29.56
  -2   2  -1 1247.25   48.34
  -2   2  -1 1129.93   40.83
  -2   2  -1 1228.98   48.77
  -2  -2  -1 1136.63   42.62
  -2  -2  -1 1210.21   42.15
  -2   2   0 1907.16   67.18
  -2  -2   0 1983.15   69.98
  -2  -2   0 1701.33   68.06
  -2  -2   0 2008.72   65.69
  -2   2   0 1947.32   64.36
  -2   2   0 1979.99   68.02
  -2   2   0 1884.53   62.29
  -2   2   1  955.75   40.45
  -2   2   1 1035.71   46.13
  -2  -2   1 1000.93   44.39
  -2  -2   1 1120.13   37.94
  -2   2   1 1030.13   44.52
  -2  -2   1 1034.29   47.34
  -2   2   2  640.35   39.43
  -2  -2   2  702.20   35.07
  -2  -2   2  706.61   43.60
  -2  -2   2  640.84   37.85
  -2   2   2  698.97   37.92
  -2  -2   2  730.89   38.83
  -2   2   3  528.73   40.43
  -2  -2   3  590.64   39.12
  -2  -2   3  573.50   40.03
  -2  -2   3  635.72   47.39
  -2  -2   4   57.57   14.74
  -2  -2   4   35.01   10.78
  -2   2   4   54.51   14.04
  -2   2   4   55.07   14.52
  -2   2   4   52.43   13.38
  -2   4  -4  384.92   41.09
  -2  -4  -4  399.81   42.24
  -2  -4  -3 1397.06   67.05
  -2   4  -3 1203.17   69.50
  -2  -4  -3 1447.47   75.43
  -2  -4  -2  150.91   15.60
  -2  -4  -2  148.08   18.04
  -2   4  -2  130.72   16.78
  -2   4  -2  143.19   16.70
  -2  -4  -2  139.98   11.45
  -2   4  -1 2551.39   93.10
  -2  -4  -1 2354.73   82.88
  -2   4  -1 2400.57   82.63
  -2   4  -1 2542.25   88.45
  -2   4  -1 2394.29   87.91
  -2  -4  -1 2522.84   88.93
  -2  -4   0 3060.75  107.06
  -2  -4   0 3350.94  114.28
  -2  -4   0 3284.00  106.34
  -2   4   0 3299.04  104.72
  -2   4   0 3052.85  101.88
  -2   4   0 3192.15  105.29
  -2   4   0 3046.62  106.29
  -2  -4   1  455.18   18.23
  -2  -4   1  454.29   30.02
  -2  -4   1  477.66   27.83
  -2   4   1  507.70   31.54
  -2   4   1  420.51   21.96
  -2   4   1  482.45   28.79
  -2  -4   2 1316.25   56.75
  -2  -4   2 1363.69   64.18
  -2   4   2 1490.96   63.11
  -2  -4   2 1638.06   74.94
  -2  -4   2 1555.82   65.11
  -2  -4   2 1506.01   61.41
  -2   4   2 1455.33   68.14
  -2  -4   3  842.56   57.26
  -2   4   3  729.28   50.24
  -2  -4   3  697.37   46.25
  -2  -4   3  740.60   48.02
  -2  -4   3  778.90   47.54
  -2  -4   4   92.79   18.97
  -2  -4   4   74.20   15.24
  -2   4   4  101.48   20.27
  -2  -4   4   82.59   17.26
  -2   6  -3   26.54    8.62
  -2  -6  -3   18.33    7.20
  -2  -6  -3   15.18    4.07
  -2  -6  -3   23.50    8.94
  -2   6  -3   29.61    8.82
  -2  -6  -2  452.65   31.41
  -2  -6  -2  429.58   18.55
  -2   6  -2  510.94   32.27
  -2   6  -1 3390.55  105.40
  -2   6  -1 3176.42   99.02
  -2  -6  -1 3418.98  130.00
  -2   6  -1 3069.50  102.49
  -2  -6  -1 3446.90  115.93
  -2   6  -1 3060.38  112.39
  -2   6  -1 3594.61  123.24
  -2  -6  -1 3133.43  101.85
  -2   6  -1 3232.83   97.11
  -2   6  -1 3255.15  114.98
  -2   6  -1 3514.18  107.60
  -2  -6   0  812.00   41.41
  -2  -6   0  773.47   45.60
  -2   6   0  791.41   38.76
  -2   6   0  831.88   36.96
  -2   6   0  779.95   37.11
  -2   6   0  827.01   37.01
  -2   6   0  814.48   39.95
  -2   6   1 1522.47   60.63
  -2  -6   1 1490.25   68.67
  -2   6   1 1533.68   70.07
  -2  -6   1 1388.70   63.12
  -2   6   1 1426.63   62.27
  -2   6   1 1301.88   50.30
  -2  -6   2 2218.99   96.78
  -2   6   2 1969.46   87.55
  -2  -6   2 1838.97   72.48
  -2  -6   2 2002.33   84.24
  -2  -6   2 2050.50   81.29
  -2   6   2 2000.39   79.09
  -2  -6   3  513.02   36.28
  -2  -6   3  566.64   40.86
  -2   6   3  491.50   41.76
  -2  -6   3  498.91   38.45
  -2   6   4  361.16   39.89
  -2  -6   4  423.92   41.23
  -2  -6   4  428.19   39.60
  -2  -8  -3  547.18   42.92
  -2   8  -3  572.33   42.71
  -2   8  -2  777.60   31.63
  -2  -8  -2  772.61   50.16
  -2   8  -2  691.22   45.18
  -2  -8  -2  712.82   45.84
  -2   8  -2  755.85   41.90
  -2   8  -2  766.44   54.24
  -2   8  -1 1247.78   57.83
  -2  -8  -1 1230.66   58.85
  -2   8  -1 1161.42   45.84
  -2  -8  -1 1254.59   69.35
  -2   8  -1 1352.12   62.95
  -2  -8  -1 1177.34   57.96
  -2   8  -1 1109.76   60.25
  -2   8  -1 1207.89   45.62
  -2   8  -1 1114.84   44.30
  -2  -8  -1 1082.11   43.10
  -2   8  -1 1222.49   56.37
  -2   8  -1 1342.91   44.78
  -2   8   0 2473.27   94.09
  -2  -8   0 2511.28  105.07
  -2   8   0 2560.05   88.62
  -2  -8   0 2514.81   98.21
  -2   8   0 2708.00   95.10
  -2   8   0 2543.67   89.94
  -2   8   0 2472.59   88.21
  -2   8   1  699.89   39.22
  -2   8   1  683.79   46.90
  -2  -8   1  641.85   43.30
  -2   8   1  644.21   39.46
  -2   8   1  627.51   27.23
  -2  -8   2 1259.54   72.52
  -2   8   2 1094.03   67.03
  -2  -8   2 1065.30   48.31
  -2  -8   2 1125.07   61.50
  -2  -8   2 1138.04   57.20
  -2   8   2 1122.72   62.14
  -2   8   2 1095.76   51.81
  -2  -8   3 1364.57   72.20
  -2   8   3 1436.26   80.38
  -2  -8   3 1354.08   73.78
  -2  -8   3 1409.85   67.06
  -2  -8   4  111.23   21.13
  -2   8   4  101.77   22.17
  -2 -10  -3  186.16   28.54
  -2 -10  -3  238.65   29.07
  -2  10  -3  193.80   23.58
  -2  10  -3  216.35   33.99
  -2 -10  -2 1015.69   50.01
  -2  10  -2 1108.10   52.00
  -2  10  -2 1123.55   45.76
  -2  10  -2  927.21   47.18
  -2  10  -2  962.45   59.19
  -2 -10  -2 1018.70   61.37
  -2  10  -2 1074.47   69.06
  -2 -10  -2 1092.04   64.57
  -2 -10  -1  198.22   14.48
  -2 -10  -1  255.61   24.71
  -2  10  -1  202.75   15.04
  -2 -10  -1  194.96   22.75
  -2  10  -1  198.33   20.72
  -2  10  -1  229.09   23.57
  -2  10  -1  270.72   26.76
  -2  10  -1  222.22   22.37
  -2 -10  -1  225.19   28.85
  -2  10  -1  206.94   17.06
  -2  10  -1  220.92   24.56
  -2  10  -1  237.08   16.09
  -2  10   0  178.47   20.35
  -2 -10   0  150.38   20.25
  -2  10   0  151.85   21.91
  -2 -10   0  157.97   17.68
  -2  10   0  185.45   20.00
  -2  10   0  144.74   18.25
  -2  10   0  168.12   17.39
  -2  10   0  153.42   16.15
  -2  10   0  158.77   17.38
  -2  10   1 1697.69   79.62
  -2 -10   1 1708.77   88.34
  -2  10   1 1954.10   81.27
  -2  10   1 1822.10   92.11
  -2  10   1 1721.11   59.07
  -2  10   2   76.29   15.49
  -2  10   2   91.29   19.02
  -2 -10   2   76.06   15.91
  -2  10   2   76.50   11.29
  -2 -10   3   61.29   13.93
  -2 -10   3   90.38   17.55
  -2 -10   3   97.08   14.73
  -2  10   3   77.59   18.74
  -2  12  -3   50.53   18.20
  -2 -12  -3   65.41   16.97
  -2  12  -3   58.29   12.25
  -2 -12  -3   67.09   18.29
  -2  12  -2   96.49   19.82
  -2  12  -2  128.87   14.66
  -2 -12  -2  116.78   20.59
  -2 -12  -2  124.61   21.32
  -2  12  -2   84.34   12.10
  -2  12  -2  104.55   13.30
  -2 -12  -2   95.11   12.97
  -2 -12  -1 1130.98   62.65
  -2  12  -1 1054.51   47.22
  -2  12  -1 1054.00   52.44
  -2  12  -1 1192.23   49.82
  -2 -12  -1 1097.09   64.52
  -2  12  -1 1112.17   65.84
  -2 -12   0  361.38   35.75
  -2 -12   0  363.10   29.90
  -2  12   0  361.19   37.63
  -2  12   0  358.33   32.23
  -2  12   0  339.86   28.07
  -2  12   0  358.52   27.52
  -2  12   1  161.98   21.88
  -2 -12   1  191.26   28.11
  -2 -12   2  949.87   65.37
  -2  12   2  904.85   69.09
  -2  12   2  929.25   61.65
  -2  12   2  838.30   43.20
  -2 -12   3  280.91   31.82
  -2  12   3  290.10   37.07
  -2 -12   3  306.60   28.18
  -2  14  -2  651.60   40.42
  -2 -14  -2  542.55   50.21
  -2 -14  -2  694.04   55.79
  -2  14  -2  684.47   58.07
  -2  14  -1  298.65   22.52
  -2  14  -1  311.59   38.47
  -2  14  -1  309.93   33.93
  -2 -14  -1  334.11   32.76
  -2  14  -1  285.09   22.85
  -2  14  -1  234.90   23.35
  -2 -14  -1  318.64   34.38
  -2  14   0 1741.17   99.48
  -2  14   0 1893.73   83.45
  -2  14   0 1539.45   87.66
  -2  14   0 1752.05   87.72
  -2 -14   0 1698.83   82.57
  -2  14   1  875.40   67.43
  -2  14   1  747.76   53.30
  -2  14   2  555.61   48.38
  -2  14   2  500.90   53.46
  -2 -14   2  452.28   47.37
  -2 -14   3  574.08   42.45
  -2  14   3  522.93   52.10
  -2  16  -2  379.94   44.45
  -2  16  -2  351.33   46.98
  -2 -16  -2  373.32   42.91
  -2 -16  -2  391.62   42.98
  -2  16  -1  164.42   26.42
  -2  16  -1  238.06   29.60
  -2  16  -1  165.77   30.65
  -2  16  -1  178.96   19.35
  -2 -16  -1  163.59   27.03
  -2 -16  -1  153.40   23.40
  -2  16   0   11.80    9.05
  -2 -16   0   11.85    7.35
  -2  16   0    9.42    5.40
  -2  16   0   26.10    8.98
  -2  16   1  604.25   59.32
  -2  16   1  559.50   47.85
  -2  16   2   72.47   22.04
  -2  16   2   56.12   17.53
  -2  18  -1   89.81   19.24
  -2  18  -1   69.70   22.05
  -2 -18  -1   91.31   20.20
  -2 -18  -1  126.10   25.26
  -2  18  -1   85.78   20.33
  -2  18   0  187.24   33.07
  -2 -18   0  233.35   29.77
  -2  18   0  196.47   26.14
  -2  18   0  217.10   29.97
  -2  18   1  647.12   65.66
  -2  18   1  574.41   51.46
  -1  -1  -4  646.73   53.07
  -1   1  -4  742.10   56.56
  -1   1  -3  128.57   19.09
  -1  -1  -3  127.89   16.44
  -1  -1  -3  141.80   19.83
  -1  -1  -2  234.96   17.46
  -1  -1  -2  249.95   18.04
  -1   1  -2  257.83   21.46
  -1  -1  -1 4359.02  140.25
  -1   1  -1 4528.34  144.01
  -1   1   0   78.16    5.29
  -1   1   0   81.98    6.17
  -1  -1   0   65.70    6.01
  -1  -1   0   85.65    6.67
  -1   1   0   80.47    4.83
  -1  -1   0   74.70    5.41
  -1   1   0   78.07    5.86
  -1  -1   1   56.37    6.84
  -1  -1   1   51.51    7.42
  -1  -1   1   42.93    5.91
  -1   1   1   49.66    7.18
  -1   1   1   46.34    6.16
  -1  -1   1   59.07    6.15
  -1  -1   2 4655.89  158.58
  -1  -1   2 4940.80  166.58
  -1  -1   2 4714.59  157.96
  -1  -1   2 4850.95  161.98
  -1   1   2 4555.32  160.42
  -1  -1   2 4910.95  162.02
  -1   1   2 5088.63  162.93
  -1  -1   3   18.64    7.40
  -1   1   3   19.95    8.76
  -1  -1   3   14.54    6.27
  -1  -1   3    8.85    4.92
  -1  -1   3   10.63    5.77
  -1   1   3   20.96    7.10
  -1   1   4   52.46   13.51
  -1  -1   4   55.75   12.39
  -1   1   4   53.57   12.87
  -1  -1   4   44.25   11.61
  -1   1   4   59.68   13.68
  -1  -3  -4  143.65   23.59
  -1   3  -4  148.75   24.13
  -1   3  -3  522.70   39.81
  -1  -3  -3  532.48   40.75
  -1  -3  -3  460.79   31.35
  -1  -3  -3  494.69   35.22
  -1   3  -2 2921.26  104.30
  -1  -3  -2 2832.19  104.68
  -1   3  -2 2885.29  103.60
  -1  -3  -2 2778.09  101.24
  -1   3  -1 1283.67   42.89
  -1  -3  -1 1286.84   52.11
  -1  -3  -1 1428.20   51.47
  -1   3  -1 1406.47   53.12
  -1  -3  -1 1240.97   42.39
  -1   3  -1 1338.03   49.99
  -1  -3  -1 1418.99   52.79
  -1  -3   0 1609.32   58.89
  -1  -3   0 1799.50   62.98
  -1  -3   0 1922.38   59.24
  -1   3   0 1573.86   57.37
  -1   3   0 1747.46   56.17
  -1   3   0 1666.44   56.32
  -1   3   0 1572.00   55.74
  -1   3   0 1567.12   57.28
  -1  -3   1 1793.78   61.86
  -1   3   1 1671.79   67.96
  -1  -3   1 1693.79   58.05
  -1   3   1 1758.94   64.84
  -1  -3   1 1788.75   60.96
  -1  -3   1 1669.50   60.67
  -1   3   1 1612.62   59.61
  -1  -3   1 1634.52   65.30
  -1  -3   2  839.48   41.93
  -1  -3   2  956.40   49.82
  -1  -3   2  933.53   45.49
  -1   3   2  795.74   44.95
  -1   3   2  972.09   46.45
  -1  -3   2  939.57   45.69
  -1  -3   3 1032.53   61.45
  -1   3   3  969.52   56.97
  -1  -3   3 1073.05   59.35
  -1  -3   3 1002.59   53.29
  -1  -3   4  422.89   41.75
  -1   3   4  464.67   41.09
  -1   3   4  465.95   42.92
  -1  -3   4  462.90   36.79
  -1  -3   4  396.48   43.73
  -1   5  -4   87.01   19.16
  -1  -5  -4   66.94   15.44
  -1  -5  -3 1926.80   91.68
  -1  -5  -3 2031.08   94.55
  -1   5  -3 2082.59   93.79
  -1  -5  -2 1115.51   68.89
  -1  -5  -2 1094.81   53.91
  -1  -5  -2  935.04   38.85
  -1   5  -2 1124.30   55.55
  -1   5  -2 1099.82   52.19
  -1  -5  -2 1041.89   53.54
  -1  -5  -2 1108.08   53.94
  -1   5  -1  714.75   29.80
  -1   5  -1  740.77   37.89
  -1  -5  -1  684.43   41.77
  -1   5  -1  659.28   34.05
  -1  -5  -1  723.06   35.71
  -1   5  -1  668.83   23.50
  -1   5  -1  701.55   30.77
  -1  -5  -1  695.39   36.17
  -1  -5   0 4423.48  154.71
  -1  -5   0 5148.76  151.45
  -1  -5   0 5139.94  161.45
  -1   5   0 4420.34  150.60
  -1  -5   0 5068.88  154.26
  -1   5   0 4673.92  152.45
  -1   5   0 4273.38  149.17
  -1   5   0 4874.59  149.20
  -1   5   0 4869.91  152.79
  -1   5   0 4756.64  148.22
  -1  -5   1 2575.90   98.20
  -1   5   1 2748.68   96.19
  -1   5   1 2863.34  104.13
  -1  -5   1 2540.51   92.77
  -1  -5   1 2754.75   92.58
  -1  -5   1 2609.26   86.77
  -1   5   1 2463.20   86.49
  -1  -5   2  472.37   30.65
  -1  -5   2  452.92   33.93
  -1  -5   2  491.45   30.19
  -1  -5   2  377.31   27.30
  -1  -5   2  444.14   28.14
  -1   5   2  385.36   30.22
  -1   5   2  479.01   30.07
  -1  -5   3 1033.84   63.36
  -1   5   3 1070.84   61.91
  -1  -5   3 1164.97   56.89
  -1  -5   3  994.12   61.92
  -1  -5   3 1047.74   61.24
  -1   5   4  845.36   60.06
  -1  -5   4  784.45   59.72
  -1  -5   4  784.55   62.64
  -1  -7  -4  160.76   26.98
  -1  -7  -4  165.10   26.28
  -1   7  -4  169.91   26.06
  -1  -7  -3  103.88   18.45
  -1  -7  -3  106.96   10.60
  -1   7  -3  104.95   17.27
  -1  -7  -3  126.20   20.10
  -1  -7  -2   66.62   12.68
  -1   7  -2   80.92   12.19
  -1   7  -2   89.14   14.52
  -1  -7  -2   73.63   13.24
  -1   7  -2   77.71   13.39
  -1   7  -2   80.71    9.37
  -1  -7  -2   60.20    4.77
  -1  -7  -2   80.09   13.22
  -1  -7  -1  791.17   36.00
  -1  -7  -1  814.38   43.41
  -1  -7  -1  962.93   54.17
  -1   7  -1  792.22   32.43
  -1   7  -1  699.54   33.80
  -1   7  -1  795.03   42.65
  -1   7  -1  827.55   30.47
  -1   7  -1  785.55   41.05
  -1   7  -1  810.68   34.07
  -1   7  -1  902.73   44.69
  -1   7  -1  803.77   38.26
  -1  -7   0  962.24   42.58
  -1  -7   0  898.57   50.21
  -1  -7   0  934.36   48.68
  -1   7   0  951.96   44.32
  -1   7   0  937.61   41.77
  -1  -7   0  942.61   45.67
  -1   7   0  957.36   45.81
  -1   7   0  951.16   43.54
  -1   7   0  946.08   43.95
  -1   7   0  897.13   39.63
  -1  -7   1  389.72   28.15
  -1   7   1  345.64   19.28
  -1   7   1  373.03   27.01
  -1  -7   1  363.67   21.78
  -1  -7   2  627.72   39.33
  -1  -7   2  636.52   44.99
  -1  -7   2  623.54   37.32
  -1  -7   2  626.74   36.55
  -1   7   2  597.43   40.97
  -1   7   2  643.19   36.79
  -1  -7   3  141.78   19.94
  -1  -7   3  109.87   19.75
  -1  -7   3  111.48   15.17
  -1  -7   3  106.63   17.95
  -1   7   3  116.36   20.00
  -1  -7   4  155.56   26.13
  -1  -7   4  129.92   24.47
  -1   7   4  152.37   25.18
  -1  -9  -3  758.81   55.90
  -1   9  -3  770.10   50.08
  -1  -9  -3  768.97   53.65
  -1   9  -2 1289.83   52.76
  -1   9  -2 1241.27   66.22
  -1  -9  -2 1171.97   65.27
  -1   9  -2 1215.47   55.89
  -1  -9  -2 1139.63   58.37
  -1  -9  -1  802.63   39.77
  -1   9  -1  786.15   38.77
  -1  -9  -1  966.63   59.97
  -1   9  -1 1097.16   52.71
  -1  -9  -1  845.64   47.25
  -1   9  -1  968.06   48.24
  -1   9  -1  827.11   39.66
  -1   9  -1  897.10   46.53
  -1   9  -1  927.95   51.14
  -1   9  -1 1007.48   49.10
  -1   9  -1  941.15   38.02
  -1  -9  -1  939.14   52.01
  -1   9  -1  960.24   37.11
  -1   9  -1  865.26   50.34
  -1  -9   0 2254.26   96.99
  -1  -9   0 2186.84   90.88
  -1   9   0 2204.72   91.49
  -1   9   0 2369.23   89.41
  -1   9   0 2258.38   86.08
  -1   9   0 2126.46   81.81
  -1   9   0 2224.52   88.27
  -1   9   0 2416.21   90.42
  -1  -9   1 2506.13  103.70
  -1   9   1 2526.24  110.76
  -1   9   1 2520.69   99.55
  -1   9   1 2366.46   82.03
  -1  -9   2  517.54   37.18
  -1   9   2  490.49   38.64
  -1  -9   2  553.59   38.58
  -1  -9   2  434.25   30.78
  -1   9   2  487.30   31.62
  -1  -9   3  833.74   57.39
  -1  -9   3  776.00   46.00
  -1   9   3  844.40   58.88
  -1  -9   3  847.50   52.83
  -1 -11  -3  424.92   44.27
  -1 -11  -3  428.09   43.07
  -1  11  -3  417.33   35.14
  -1 -11  -2  140.60   18.17
  -1  11  -2  149.84   23.81
  -1 -11  -2  169.03   23.30
  -1  11  -2  157.75    9.47
  -1  11  -2  119.67   15.15
  -1  11  -2  148.98   16.07
  -1  11  -2  142.65   16.15
  -1 -11  -2  145.94   22.12
  -1  11  -1 1650.17   63.24
  -1  11  -1 1880.92   80.26
  -1  11  -1 1528.24   73.48
  -1 -11  -1 1850.70   93.87
  -1 -11  -1 1464.49   63.86
  -1  11  -1 1629.56   55.95
  -1 -11  -1 1555.63   73.75
  -1  11  -1 1399.95   62.54
  -1  11  -1 1475.37   65.63
  -1 -11  -1 1603.44   79.93
  -1  11  -1 1604.72   78.62
  -1  11  -1 1589.00   72.44
  -1  11  -1 1550.62   76.76
  -1  11   0  651.07   39.94
  -1  11   0  552.63   44.43
  -1  11   0  573.03   36.51
  -1 -11   0  595.13   36.79
  -1 -11   0  548.86   39.90
  -1  11   0  699.44   41.41
  -1  11   0  631.32   39.51
  -1  11   0  601.44   33.95
  -1  11   0  501.56   40.15
  -1  11   0  595.47   41.78
  -1  11   1  500.14   24.12
  -1  11   1  515.21   45.09
  -1  11   1  511.95   38.06
  -1 -11   2 1506.76   76.22
  -1  11   2 1454.99   64.53
  -1  11   2 1513.90   79.40
  -1 -11   2 1316.39   65.83
  -1  11   2 1522.00   88.38
  -1  11   3  260.52   32.62
  -1 -11   3  216.05   22.84
  -1 -11   3  287.83   33.78
  -1 -11   3  239.20   27.04
  -1  13  -3  226.39   37.09
  -1 -13  -3  270.61   36.77
  -1 -13  -3  243.52   34.20
  -1  13  -3  240.78   25.55
  -1 -13  -2 1081.83   68.07
  -1  13  -2 1148.63   57.75
  -1  13  -2  947.12   52.59
  -1 -13  -2 1087.41   71.57
  -1  13  -2 1129.06   50.88
  -1 -13  -2  926.11   54.01
  -1  13  -2  997.90   70.76
  -1  13  -1  336.34   15.77
  -1  13  -1  288.41   29.72
  -1  13  -1  333.91   37.10
  -1  13  -1  272.80   23.08
  -1 -13  -1  314.60   30.08
  -1  13  -1  282.15   25.19
  -1 -13  -1  318.87   33.99
  -1  13  -1  357.48   25.11
  -1 -13  -1  355.34   26.75
  -1  13  -1  339.42   32.67
  -1  13   0  686.17   45.26
  -1 -13   0  592.76   40.40
  -1 -13   0  711.75   48.88
  -1  13   0  665.19   49.85
  -1  13   0  655.52   42.71
  -1  13   0  670.59   38.86
  -1  13   0  697.29   54.15
  -1  13   1  872.48   65.57
  -1  13   1  888.11   34.81
  -1  13   1  834.15   55.07
  -1  13   2  102.37   22.67
  -1  13   2  124.39   14.83
  -1 -13   2  112.88   16.93
  -1  13   2  118.18   21.34
  -1  13   3  637.78   55.31
  -1 -13   3  557.34   44.40
  -1 -13   3  598.00   52.98
  -1  15  -2  439.93   36.39
  -1 -15  -2  440.14   47.40
  -1  15  -2  392.03   43.72
  -1 -15  -2  476.26   45.03
  -1  15  -1   98.79   18.08
  -1  15  -1   79.12   12.81
  -1  15  -1   78.08   13.97
  -1  15  -1   67.74   18.17
  -1  15  -1   55.95   10.91
  -1 -15  -1   66.46   15.20
  -1 -15  -1   57.62   16.02
  -1  15  -1   82.40   17.46
  -1  15   0  340.94   40.31
  -1 -15   0  377.61   32.86
  -1  15   0  402.67   35.93
  -1  15   0  372.49   33.26
  -1  15   0  367.11   29.10
  -1  15   1  344.34   35.58
  -1  15   1  368.12   16.46
  -1  15   2   28.12   14.51
  -1  15   2   14.91    7.67
  -1  17  -2  140.24   22.21
  -1  17  -2  169.52   29.04
  -1  17  -2  150.49   30.69
  -1 -17  -2  152.48   26.40
  -1 -17  -2  225.07   35.21
  -1  17  -1 1285.57   81.53
  -1 -17  -1 1405.38   80.32
  -1 -17  -1 1624.14   94.92
  -1  17  -1 1391.86   68.08
  -1  17  -1 1384.25   83.58
  -1  17  -1 1279.53   91.39
  -1  17   0   -1.08    2.56
  -1 -17   0   22.05    9.17
  -1  17   0   13.51    6.99
  -1  17   1   92.80   24.49
  -1  17   1  105.39   20.44
  -1  17   2 1451.17   89.95
  -1  17   2 1217.78   94.54
  -1  19  -1   87.86   20.10
  -1  19  -1   95.08   21.86
  -1  19  -1   78.11   21.65
  -1 -19  -1   60.03   17.41
  -1 -19  -1   72.42   20.52
  -1  19   0  411.33   41.67
  -1  19   0  434.54   52.42
  -1 -19   0  397.74   39.10
  -1  19   0  317.68   35.22
  -1  19   1  355.76   50.01
  -1  19   1  415.62   44.10
   0   0  -4  259.10   32.01
   0   0  -3 3166.04  122.87
   0   0  -3 3273.75  118.18
   0   0  -3 3369.88  131.30
   0   0  -2    2.93    2.45
   0   0  -2   13.66    4.30
   0   0  -1  203.21   11.96
   0   0   1  222.65   12.61
   0   0   1  203.27   13.81
   0   0   2   19.20    5.96
   0   0   2   18.94    5.12
   0   0   3 3277.89  129.90
   0   0   3 3414.18  124.36
   0   0   3 3360.54  136.89
   0   0   4  208.90   29.47
   0   0   4  283.30   27.01
   0   0   4  271.51   27.44
   0  -2  -4  494.38   45.48
   0   2  -4  515.17   45.89
   0  -2  -3   87.73   13.49
   0   2  -3  120.34   18.02
   0  -2  -3   82.66   12.98
   0   2  -3   86.41   10.42
   0  -2  -3  117.44   17.82
   0   2  -2  989.97   39.59
   0  -2  -2  998.24   46.54
   0  -2  -2  989.72   49.32
   0   2  -2 1041.21   49.57
   0   2  -1  961.82   36.19
   0   2  -1  954.83   32.02
   0   2  -1  942.89   39.18
   0  -2  -1  906.06   38.74
   0   2  -1 1034.49   38.87
   0  -2  -1 1031.41   39.64
   0   2  -1  896.97   38.48
   0   2   0   14.98    2.39
   0  -2   0   20.73    2.43
   0   2   0   17.14    2.51
   0   2   0   20.36    2.42
   0  -2   0   19.43    3.39
   0  -2   0   15.98    3.04
   0  -2   0   18.77    2.19
   0  -2   0   23.17    2.80
   0   2   0   20.20    2.28
   0  -2   0   19.86    2.55
   0   2   0   17.37    2.39
   0  -2   1  936.18   38.18
   0   2   1 1037.26   40.31
   0  -2   1  964.03   33.95
   0   2   1  948.68   38.87
   0  -2   1  986.05   39.85
   0  -2   1  936.63   37.75
   0   2   2 1006.33   47.96
   0  -2   2  905.64   45.29
   0  -2   2 1003.52   50.07
   0  -2   2  872.86   39.78
   0  -2   2  920.45   39.00
   0   2   2  926.85   44.93
   0  -2   2 1002.04   47.63
   0  -2   3  137.07   17.70
   0  -2   3  125.79   19.56
   0  -2   3  131.93   14.26
   0  -2   3  121.24   14.61
   0   2   3  100.73   15.05
   0   2   4  452.86   38.30
   0   2   4  465.28   45.30
   0  -2   4  465.39   45.28
   0  -4  -4  847.63   60.92
   0   4  -4  765.75   57.46
   0  -4  -3   66.96   13.46
   0   4  -3   68.32   13.94
   0   4  -3   80.65    7.89
   0  -4  -3   49.36    9.55
   0  -4  -3   98.13   16.49
   0  -4  -2 1246.90   58.09
   0  -4  -2 1303.46   71.15
   0   4  -2 1182.77   57.29
   0   4  -2 1242.54   43.20
   0   4  -2 1286.04   57.61
   0  -4  -2 1265.78   58.02
   0  -4  -1 1678.30   64.83
   0   4  -1 1710.46   60.89
   0  -4  -1 1669.97   71.76
   0  -4  -1 1824.07   66.95
   0   4  -1 1664.71   62.33
   0  -4  -1 1785.11   62.12
   0   4  -1 1530.00   62.67
   0   4  -1 1675.41   55.69
   0   4  -1 1698.90   59.87
   0   4   0  317.32   17.28
   0   4   0  290.41   19.42
   0   4   0  346.12   21.11
   0  -4   0  338.14   17.18
   0   4   0  311.48   15.97
   0  -4   0  343.52   16.44
   0  -4   0  319.67   18.86
   0  -4   0  327.86   15.14
   0   4   0  339.79   15.43
   0   4   0  385.03   18.16
   0  -4   0  366.18   21.68
   0  -4   0  292.16   16.40
   0   4   0  295.18   16.34
   0  -4   1 1589.55   59.32
   0  -4   1 1587.90   53.52
   0  -4   1 1438.62   58.38
   0   4   1 1628.72   61.19
   0   4   1 1453.83   55.85
   0  -4   1 1576.53   58.47
   0  -4   1 1457.11   54.50
   0  -4   2 1252.35   58.94
   0  -4   2 1344.37   62.31
   0   4   2 1212.07   59.31
   0  -4   2 1341.15   51.82
   0   4   2 1422.92   61.27
   0  -4   2 1382.11   59.54
   0  -4   3   69.77   16.99
   0  -4   3   72.01   12.95
   0  -4   3   73.81   10.70
   0  -4   3   86.14   16.29
   0   4   3   76.15   14.21
   0  -4   4  720.05   57.69
   0   4   4  702.94   51.22
   0  -6  -4  208.41   29.62
   0   6  -4  169.90   25.74
   0  -6  -4  236.54   31.24
   0   6  -3  542.39   40.57
   0  -6  -3  564.87   42.20
   0   6  -2 2009.84   76.40
   0  -6  -2 2193.30  102.16
   0  -6  -2 1921.67   87.03
   0   6  -2 2017.95   85.11
   0  -6  -2 1996.72   85.68
   0   6  -2 2014.65   80.46
   0   6  -2 2046.09   84.27
   0  -6  -2 1926.07   81.68
   0  -6  -1 1698.14   66.65
   0   6  -1 1729.96   66.49
   0  -6  -1 1849.95   80.72
   0   6  -1 1719.18   66.82
   0   6  -1 1572.34   63.22
   0   6  -1 1676.99   69.84
   0   6  -1 1771.19   58.32
   0  -6  -1 1790.32   72.43
   0   6  -1 1746.36   60.67
   0   6  -1 1782.93   68.63
   0   6  -1 1729.15   67.70
   0  -6  -1 1768.26   63.60
   0  -6  -1 1685.74   55.48
   0   6  -1 1772.59   61.65
   0  -6   0 2095.94   84.96
   0   6   0 2152.01   83.98
   0   6   0 2304.70   86.08
   0   6   0 2201.40   76.89
   0   6   0 2034.32   74.22
   0  -6   0 2274.42   75.83
   0   6   0 2065.88   77.18
   0  -6   0 2229.12   81.83
   0  -6   0 2220.13   73.11
   0   6   0 2212.31   73.22
   0   6   0 2259.13   77.92
   0  -6   0 2202.87   77.00
   0  -6   0 2095.49   76.55
   0  -6   1 1655.33   62.50
   0  -6   1 1542.32   57.04
   0   6   1 1723.84   67.78
   0  -6   1 1686.29   65.59
   0   6   1 1488.57   58.49
   0  -6   1 1639.67   62.86
   0  -6   2 1914.94   85.09
   0  -6   2 1970.02   86.20
   0  -6   2 2155.53   87.78
   0   6   2 2163.20   83.85
   0  -6   2 2068.91   74.63
   0   6   2 1954.62   86.08
   0  -6   2 2079.92   81.65
   0   6   3  483.68   38.78
   0  -6   3  512.08   43.94
   0  -6   3  531.48   42.81
   0  -6   3  476.34   27.13
   0  -6   3  434.88   35.96
   0  -6   4  176.04   30.48
   0   6   4  138.96   23.13
   0  -6   4  196.79   29.73
   0  -8  -4  465.04   44.57
   0   8  -4  392.11   40.02
   0  -8  -4  354.07   42.02
   0  -8  -3  285.61   32.78
   0  -8  -3  273.10   18.24
   0   8  -3  328.74   30.16
   0  -8  -3  256.33   28.51
   0  -8  -2 1610.48   76.29
   0  -8  -2 1746.67   58.78
   0   8  -2 1720.52   70.44
   0   8  -2 1636.81   74.78
   0   8  -2 1566.27   70.66
   0  -8  -2 1727.03   80.07
   0  -8  -2 1699.35   83.44
   0  -8  -2 1646.84   73.43
   0   8  -2 1781.24   72.06
   0   8  -1 2458.45   65.98
   0   8  -1 2535.06   64.39
   0  -8  -1 2733.62   88.41
   0   8  -1 2344.36   56.05
   0  -8  -1 2565.18   62.60
   0   8  -1 2423.85   54.45
   0  -8  -1 2603.15   74.19
   0   8  -1 2638.03   66.24
   0  -8  -1 2484.97   39.21
   0   8  -1 2566.05   64.67
   0   8  -1 2530.46   49.58
   0   8  -1 2521.04   48.56
   0   8   0  303.38   26.27
   0   8   0  354.27   28.81
   0   8   0  321.64   20.95
   0  -8   0  353.62   22.14
   0  -8   0  351.97   26.27
   0   8   0  373.56   23.73
   0  -8   0  341.41   20.03
   0   8   0  366.60   20.52
   0  -8   0  357.76   23.40
   0   8   0  351.37   23.65
   0  -8   0  341.70   22.92
   0   8   0  349.82   23.68
   0  -8   1 2787.94  101.01
   0   8   1 2774.73  103.66
   0   8   1 2470.68   89.44
   0  -8   2 1690.31   69.59
   0  -8   2 1600.38   64.84
   0   8   2 1590.45   77.13
   0  -8   2 1676.28   77.13
   0   8   2 1663.31   70.58
   0  -8   2 1413.10   70.34
   0  -8   3  282.22   18.14
   0   8   3  311.55   32.56
   0  -8   3  294.37   32.15
   0  -8   3  342.73   35.22
   0  -8   4  483.06   49.86
   0   8   4  434.72   44.29
   0  -8   4  524.10   52.12
   0 -10  -3  783.69   61.02
   0 -10  -3  825.16   54.84
   0  10  -3  783.02   50.38
   0 -10  -2  147.23   19.70
   0  10  -2  166.14   18.15
   0  10  -2  145.70   15.92
   0  10  -2  156.10   12.59
   0  10  -2  130.98   16.09
   0 -10  -2  146.34   21.44
   0 -10  -2  119.11    7.50
   0  10  -2  132.77    8.86
   0 -10  -2  151.53   18.01
   0  10  -1   76.64   13.08
   0 -10  -1   74.16   11.66
   0  10  -1   80.58   11.17
   0  10  -1   99.57   16.66
   0 -10  -1  119.22   20.12
   0 -10  -1   75.56   12.33
   0  10  -1   72.33   12.28
   0  10  -1   75.00   11.17
   0  10  -1   88.97   15.26
   0 -10  -1   81.20   14.97
   0  10  -1  102.77   14.98
   0 -10  -1   80.67    7.63
   0  10  -1   87.60    8.94
   0  10  -1   93.22   13.58
   0  10  -1   79.31   10.35
   0 -10  -1   88.74   14.25
   0  10  -1   99.97   13.94
   0  10   0 2186.00   97.58
   0  10   0 2218.25   99.62
   0  10   0 2241.63   84.92
   0 -10   0 2324.91   95.20
   0  10   0 2245.57   94.60
   0 -10   0 2089.45   80.97
   0  10   0 2306.67   81.87
   0  10   0 2388.50   90.26
   0  10   0 2147.50   71.95
   0  10   0 2569.74   92.20
   0  10   0 2405.20   89.02
   0  10   1   89.74   15.19
   0 -10   1   98.11   13.62
   0  10   1   94.56   10.30
   0  10   1  122.82   20.79
   0 -10   2   98.42   15.59
   0 -10   2  118.14   18.08
   0  10   2  105.16   14.70
   0 -10   2  106.66   13.76
   0  10   2  134.56   20.23
   0 -10   3  908.39   62.42
   0  10   3  796.43   57.64
   0  12  -3  136.13   17.51
   0 -12  -3  141.91   26.02
   0  12  -3  108.85   17.85
   0 -12  -2  543.43   40.81
   0 -12  -2  505.38   42.32
   0  12  -2  466.13   34.77
   0 -12  -2  555.02   47.89
   0  12  -2  566.38   25.68
   0  12  -2  510.89   29.00
   0  12  -2  536.00   47.57
   0  12  -2  598.73   34.93
   0  12  -2  578.11   39.27
   0  12  -1  817.70   52.69
   0 -12  -1  872.49   47.95
   0  12  -1  798.45   56.40
   0 -12  -1  793.01   48.71
   0  12  -1  864.55   45.77
   0  12  -1  834.97   47.14
   0 -12  -1  862.89   57.30
   0 -12  -1  817.84   35.22
   0  12  -1 1055.04   55.67
   0  12  -1  920.22   50.22
   0  12  -1  849.22   43.97
   0  12  -1  898.83   36.61
   0  12  -1  809.96   51.14
   0  12   0  494.29   33.66
   0  12   0  436.43   39.63
   0  12   0  448.73   39.14
   0  12   0  470.70   31.18
   0 -12   0  424.53   30.44
   0 -12   0  428.12   35.91
   0  12   0  446.09   27.80
   0  12   0  473.91   34.07
   0  12   0  476.86   19.75
   0  12   0  444.19   19.85
   0  12   0  496.55   35.09
   0  12   1  753.15   35.47
   0  12   1  807.50   58.52
   0  12   1  738.56   49.00
   0 -12   2  494.32   38.96
   0 -12   2  632.06   47.15
   0  12   2  599.66   47.51
   0  12   2  557.54   35.94
   0 -12   3   96.20   18.35
   0 -12   3  156.98   26.23
   0  12   3  124.50   23.03
   0 -14  -3  377.66   43.82
   0 -14  -3  366.03   45.81
   0  14  -3  347.57   31.43
   0  14  -3  373.09   47.58
   0  14  -2  459.04   37.44
   0 -14  -2  473.92   42.94
   0 -14  -2  479.03   47.71
   0  14  -2  433.67   24.57
   0  14  -2  452.09   29.81
   0  14  -2  421.80   43.55
   0  14  -1 1061.38   56.89
   0 -14  -1 1111.26   62.71
   0  14  -1 1105.41   67.90
   0  14  -1 1084.45   60.19
   0 -14  -1 1170.55   73.62
   0  14  -1 1217.29   44.83
   0  14  -1 1205.28   58.03
   0  14  -1 1189.12   75.49
   0 -14  -1 1132.09   61.07
   0  14  -1 1127.52   65.75
   0  14   0  535.16   38.79
   0  14   0  536.78   20.69
   0  14   0  543.85   47.85
   0 -14   0  453.41   34.67
   0 -14   0  551.58   44.37
   0  14   0  509.87   39.06
   0  14   0  512.28   32.53
   0  14   0  520.52   21.17
   0  14   1 1159.55   78.26
   0  14   1 1116.02   67.53
   0  14   1 1165.43   48.20
   0 -14   2  427.73   37.53
   0  14   2  507.13   45.92
   0 -14   3  416.22   45.65
   0  14   3  462.32   47.39
   0  16  -2   69.24   14.82
   0  16  -2   45.79   15.03
   0  16  -2   54.59   16.79
   0 -16  -2   60.11   15.39
   0 -16  -2   75.01   19.94
   0  16  -1   50.36   10.91
   0  16  -1   35.37   11.83
   0  16  -1   48.66   14.04
   0  16  -1   53.39   16.58
   0 -16  -1   60.33   13.44
   0 -16  -1   62.20   17.30
   0  16   0  904.07   55.79
   0  16   0  961.76   70.40
   0 -16   0  806.30   51.09
   0 -16   0  943.07   63.87
   0  16   0  784.84   53.87
   0  16   0  764.26   44.47
   0  16   1   57.11   17.10
   0  16   1   53.36   13.89
   0  16   2   61.38   16.69
   0  18  -2  105.47   24.82
   0  18  -2  142.25   24.11
   0  18  -2  113.00   25.96
   0 -18  -2  175.49   28.35
   0 -18  -2  170.73   32.04
   0  18  -1  174.31   26.23
   0  18  -1  143.03   25.53
   0  18  -1  157.01   29.11
   0 -18  -1  138.47   23.34
   0 -18  -1  147.00   28.25
   0  18  -1  182.45   22.92
   0  18   0  776.17   67.44
   0 -18   0  652.18   48.13
   0  18   0  703.91   53.32
   0  18   0  729.74   52.59
   0  18   1  187.29   33.86
   0  18   1  180.45   28.10
   0  18   2  153.04   27.94
   0  20   0   18.43    9.43
   0  20   0   19.36   13.39
   0 -20   0   18.03    7.99
   0  20   0   22.92   10.20
   1  -1  -4   99.52   19.87
   1   1  -4   69.86   16.36
   1   1  -3    6.00    3.31
   1  -1  -3   16.22    5.75
   1  -1  -3    7.12    5.65
   1   1  -2 4415.85  146.37
   1  -1  -2 4566.92  150.14
   1  -1  -1   63.88    8.33
   1   1  -1   73.17    7.32
   1  -1  -1   71.98    7.89
   1  -1  -1   78.32    7.98
   1  -1   0   60.59    5.33
   1   1   0   53.11    5.16
   1   1   0   62.74    4.92
   1  -1   0   63.07    4.20
   1  -1   0   70.78    5.42
   1  -1   0   59.35    5.06
   1  -1   0   62.32    5.11
   1   1   1 4658.94  148.40
   1  -1   1 4875.71  146.66
   1  -1   1 4816.73  139.94
   1   1   1 4869.57  145.45
   1  -1   1 4578.11  147.91
   1  -1   2  266.82   19.33
   1   1   2  311.32   24.39
   1  -1   2  285.30   17.82
   1   1   2  275.73   20.10
   1  -1   2  326.71   24.73
   1  -1   2  316.31   27.62
   1  -1   3  105.79   14.65
   1  -1   3   93.81   12.51
   1   1   3   98.06   14.29
   1  -1   3   90.07   17.73
   1  -1   4  732.44   59.68
   1   1   4  724.05   59.16
   1   3  -4  528.12   46.66
   1  -3  -4  560.34   48.24
   1   3  -3 1027.99   47.05
   1  -3  -3 1035.31   56.12
   1  -3  -3 1066.08   59.68
   1   3  -3 1008.24   57.97
   1  -3  -2  909.84   53.96
   1   3  -2  877.94   38.19
   1  -3  -2  906.41   45.76
   1   3  -2  904.46   45.13
   1  -3  -2  903.11   45.24
   1  -3  -1 1735.00   60.93
   1  -3  -1 1713.89   70.23
   1   3  -1 1867.89   62.50
   1   3  -1 1777.21   64.68
   1   3  -1 1629.79   60.38
   1  -3  -1 1692.25   65.06
   1   3  -1 1741.31   60.77
   1   3   0 1715.74   59.15
   1  -3   0 1646.68   50.89
   1   3   0 1587.43   56.43
   1   3   0 1618.21   57.66
   1  -3   0 1666.07   57.01
   1  -3   0 1711.62   55.87
   1  -3   0 1565.99   55.42
   1  -3   0 1595.41   57.89
   1  -3   0 1744.88   56.08
   1   3   1 1205.95   58.24
   1  -3   1 1492.27   54.61
   1  -3   1 1377.09   54.92
   1  -3   1 1349.88   57.62
   1   3   1 1355.24   53.20
   1  -3   1 1318.48   51.23
   1   3   1 1424.95   54.32
   1  -3   2 2551.29   90.95
   1  -3   2 2401.84   81.37
   1   3   2 2674.58   97.91
   1  -3   2 2993.24  102.40
   1   3   2 2935.04  103.06
   1  -3   2 2576.08   83.73
   1  -3   2 2738.18  105.94
   1  -3   3  466.82   31.18
   1   3   3  479.12   35.31
   1  -3   3  519.98   28.04
   1  -3   3  552.20   44.43
   1  -3   4  134.01   26.27
   1   3   4  150.52   21.17
   1  -3   4  207.65   31.78
   1   5  -4  830.63   60.16
   1  -5  -4  873.67   62.09
   1   5  -3 1143.56   47.26
   1   5  -3 1186.41   63.44
   1  -5  -3 1098.60   62.41
   1   5  -2  416.75   27.90
   1  -5  -2  460.99   38.59
   1   5  -2  429.02   22.38
   1  -5  -2  445.25   31.67
   1   5  -2  454.16   29.50
   1   5  -2  427.88   28.37
   1  -5  -2  398.44   28.08
   1  -5  -1 2426.40   92.21
   1   5  -1 2644.82   92.23
   1   5  -1 2489.67   86.07
   1  -5  -1 2603.01  101.69
   1   5  -1 2498.28   87.80
   1   5  -1 2402.08   88.74
   1  -5  -1 2793.72   97.39
   1   5  -1 2577.98   87.40
   1  -5  -1 2512.79   85.20
   1   5  -1 2632.64   86.70
   1   5   0 4529.07  157.93
   1   5   0 4869.17  161.86
   1   5   0 4629.45  153.08
   1  -5   0 4933.65  148.07
   1   5   0 4775.50  157.40
   1  -5   0 4903.23  156.66
   1   5   0 5297.06  156.46
   1   5   0 4823.76  148.18
   1  -5   0 5103.53  152.55
   1  -5   0 4775.22  152.57
   1   5   0 4955.76  148.83
   1  -5   0 4709.69  155.38
   1  -5   1  640.77   34.07
   1  -5   1  628.53   32.76
   1   5   1  561.89   37.95
   1   5   1  579.26   29.73
   1  -5   1  548.19   26.80
   1  -5   1  626.90   32.41
   1   5   1  597.30   33.20
   1  -5   2  845.99   53.80
   1  -5   2  914.94   43.87
   1   5   2 1053.64   51.36
   1  -5   2  996.48   53.91
   1   5   2  899.71   49.33
   1  -5   2 1023.51   49.69
   1  -5   3 1866.50  105.24
   1  -5   3 2039.06   83.80
   1  -5   3 2224.45  104.90
   1   5   3 2046.58   92.40
   1  -5   4   45.33   16.27
   1  -5   4   52.42   15.85
   1   5   4   67.03   15.02
   1   7  -4  131.25   22.22
   1  -7  -4  141.48   24.69
   1   7  -3  113.37   17.49
   1   7  -3  136.79   10.75
   1  -7  -3  149.99   20.92
   1  -7  -2  675.79   50.58
   1   7  -2  673.55   29.62
   1  -7  -2  616.56   44.01
   1   7  -2  563.68   38.42
   1   7  -2  656.37   36.85
   1  -7  -2  623.46   41.57
   1   7  -2  636.47   37.71
   1  -7  -2  610.61   36.85
   1   7  -2  628.76   31.56
   1   7  -2  633.05   37.86
   1  -7  -1  415.75   28.25
   1   7  -1  381.10   27.37
   1  -7  -1  470.31   35.89
   1   7  -1  408.96   25.58
   1  -7  -1  407.35   30.44
   1   7  -1  415.52   22.38
   1   7  -1  404.06   24.49
   1   7  -1  404.20   26.36
   1  -7  -1  374.77   20.90
   1  -7  -1  399.78   21.41
   1   7  -1  394.01   23.83
   1   7   0  952.97   47.89
   1   7   0  920.93   48.95
   1   7   0  927.60   41.66
   1  -7   0  894.41   37.33
   1  -7   0  949.92   45.76
   1   7   0  927.04   45.77
   1   7   0  905.34   36.20
   1  -7   0  949.22   40.36
   1   7   0  924.42   43.20
   1  -7   0  951.83   41.63
   1  -7   0  920.64   43.74
   1   7   0  902.40   38.09
   1   7   1  866.55   50.62
   1   7   1  795.27   41.26
   1  -7   1  845.30   42.17
   1   7   1  852.16   44.60
   1  -7   1  872.77   43.62
   1  -7   1  765.97   33.06
   1   7   1  787.48   37.71
   1   7   2   82.93   17.12
   1  -7   2   97.08   15.97
   1  -7   2  123.49   17.46
   1  -7   2   92.86   12.89
   1   7   2   84.13   12.95
   1   7   2   91.76   15.05
   1  -7   3  103.52   20.47
   1  -7   3  119.35   21.19
   1   7   3  108.63   18.47
   1  -7   4  152.38   30.77
   1  -7   4  232.40   34.29
   1   7   4  196.86   28.10
   1  -9  -3  762.16   59.58
   1   9  -3  734.37   48.14
   1  -9  -3  719.85   49.76
   1  -9  -2  516.70   39.21
   1   9  -2  518.61   35.03
   1   9  -2  508.22   34.38
   1  -9  -2  472.92   41.06
   1  -9  -2  497.67   26.81
   1   9  -2  494.95   31.56
   1   9  -2  479.97   33.86
   1   9  -2  477.40   27.93
   1  -9  -2  446.57   31.40
   1  -9  -1 2816.46  105.39
   1   9  -1 2667.65   91.80
   1  -9  -1 2707.60  106.32
   1   9  -1 2473.85  105.00
   1  -9  -1 3150.00  124.61
   1   9  -1 2637.92   98.91
   1   9  -1 2711.77  100.38
   1   9  -1 2901.97  111.20
   1   9  -1 2480.01   98.38
   1  -9  -1 2726.32  110.51
   1   9  -1 2876.93  102.78
   1   9  -1 2641.42   96.68
   1  -9  -1 2605.28   91.13
   1   9  -1 2787.09  103.25
   1  -9  -1 2600.68   89.38
   1   9  -1 2624.60  107.47
   1   9   0 2069.06   80.67
   1   9   0 2027.59   89.42
   1   9   0 2002.56   89.66
   1   9   0 2116.24   80.44
   1  -9   0 2081.10   75.56
   1  -9   0 2111.10   86.86
   1   9   0 2053.38   86.55
   1  -9   0 1930.79   76.73
   1   9   0 2062.09   72.84
   1   9   0 2047.31   76.48
   1   9   0 2094.33   83.22
   1  -9   0 2048.78   79.83
   1  -9   0 2172.91   84.56
   1   9   1  857.39   57.68
   1   9   1  849.49   47.08
   1  -9   1  939.46   49.39
   1  -9   1  892.14   46.71
   1   9   1  900.85   56.03
   1  -9   1  863.48   34.71
   1   9   1  935.93   50.68
   1   9   1  831.56   40.58
   1  -9   1  872.67   46.81
   1  -9   2 1187.26   56.36
   1  -9   2 1278.28   67.69
   1   9   2 1264.90   68.02
   1   9   2 1305.33   61.71
   1  -9   2 1058.70   61.99
   1   9   3  752.67   54.89
   1  -9   3  687.56   56.04
   1  -9   3  827.56   60.62
   1  11  -3  273.16   27.15
   1 -11  -3  322.56   39.33
   1 -11  -3  234.34   27.58
   1  11  -3  264.56   27.54
   1  11  -2 1571.97   74.28
   1 -11  -2 1534.52   80.36
   1 -11  -2 1570.73   86.37
   1  11  -2 1522.31   59.85
   1 -11  -2 1490.67   57.33
   1  11  -2 1399.92   62.68
   1  11  -2 1496.47   66.00
   1 -11  -2 1530.06   67.97
   1  11  -1  437.58   36.05
   1  11  -1  458.02   37.51
   1  11  -1  480.28   30.80
   1 -11  -1  385.60   29.85
   1  11  -1  532.62   33.76
   1  11  -1  460.93   38.43
   1  11  -1  420.09   31.27
   1 -11  -1  442.80   37.95
   1 -11  -1  440.80   33.62
   1  11  -1  454.90   32.68
   1 -11  -1  461.96   26.30
   1 -11  -1  429.29   34.62
   1  11  -1  457.73   25.18
   1  11  -1  487.95   35.11
   1  11  -1  473.51   32.77
   1  11  -1  457.91   33.82
   1  11   0  638.94   38.27
   1  11   0  607.07   34.89
   1  11   0  663.85   46.82
   1  11   0  588.83   44.32
   1  11   0  665.86   38.17
   1 -11   0  612.73   42.27
   1  11   0  604.76   42.34
   1 -11   0  585.26   34.43
   1  11   0  583.96   30.64
   1 -11   0  601.00   37.11
   1  11   0  603.73   39.11
   1 -11   0  678.58   41.54
   1 -11   1 1534.14   71.65
   1  11   1 1589.03   84.38
   1  11   1 1485.08   73.54
   1 -11   1 1560.93   71.45
   1  11   1 1573.17   76.19
   1  11   1 1460.67   62.20
   1  11   2  107.79   18.90
   1 -11   2  115.30   17.95
   1 -11   2  128.17   20.65
   1  11   2  145.47   17.75
   1 -11   2  117.51   14.27
   1  11   3  440.01   43.34
   1 -11   3  488.23   47.41
   1 -11   3  350.90   38.68
   1  13  -3  604.85   44.88
   1 -13  -3  701.12   62.79
   1  13  -3  607.24   43.88
   1  13  -2  125.45   22.11
   1  13  -2  123.85   19.16
   1  13  -2  101.35   20.05
   1 -13  -2  107.03   19.06
   1  13  -2  107.14   14.24
   1 -13  -2  144.96   24.97
   1 -13  -2  125.76   11.30
   1  13  -2  110.26   14.46
   1  13  -2  122.90   13.56
   1  13  -1  830.73   56.21
   1  13  -1  824.83   57.26
   1  13  -1  786.97   45.94
   1 -13  -1  733.19   46.74
   1  13  -1  726.34   47.74
   1 -13  -1  867.18   59.80
   1 -13  -1  830.96   40.65
   1  13  -1  861.51   49.73
   1  13  -1  860.57   38.28
   1  13  -1  871.81   51.35
   1  13  -1  858.93   51.85
   1 -13  -1  827.67   51.05
   1  13   0  738.60   42.50
   1  13   0  737.69   54.10
   1 -13   0  691.30   40.16
   1 -13   0  688.33   49.25
   1 -13   0  724.19   41.20
   1  13   0  689.76   36.28
   1  13   0  686.47   45.80
   1 -13   0  715.68   44.29
   1 -13   1  332.43   30.61
   1  13   1  325.46   37.47
   1  13   1  325.61   23.60
   1  13   1  325.36   32.62
   1 -13   2 1072.68   67.78
   1  13   2 1049.95   68.03
   1 -13   2  907.14   59.66
   1  13   3  280.13   36.10
   1 -13   3  340.59   41.20
   1 -13   3  221.30   31.13
   1  15  -2    7.73    3.88
   1  15  -2    4.05    4.13
   1  15  -2   16.68    8.56
   1  15  -2   -4.50    5.60
   1 -15  -2   15.10    9.01
   1 -15  -2   20.69   10.07
   1  15  -2    8.82    4.54
   1  15  -1  341.25   37.59
   1  15  -1  361.63   39.35
   1 -15  -1  319.61   30.86
   1 -15  -1  433.06   43.97
   1 -15  -1  370.70   25.66
   1  15  -1  409.16   32.84
   1  15  -1  399.91   23.35
   1  15  -1  371.19   34.24
   1  15   0  403.81   32.60
   1  15   0  371.14   40.76
   1 -15   0  360.74   29.64
   1 -15   0  383.67   38.08
   1 -15   0  433.27   32.13
   1  15   0  360.44   25.85
   1  15   0  385.03   35.75
   1  15   0  390.98   22.45
   1  15   1   80.25   18.02
   1  15   1   77.25   20.51
   1  15   1  100.44   12.78
   1 -15   2  353.85   37.21
   1  15   2  398.61   42.46
   1  17  -2 1201.66   85.85
   1  17  -2 1261.14   78.57
   1 -17  -2 1247.15   79.74
   1 -17  -2 1495.52   99.03
   1  17  -2 1248.94   82.24
   1  17  -1  122.44   21.07
   1  17  -1   77.71   18.30
   1  17  -1   98.91   22.60
   1 -17  -1  109.30   18.98
   1 -17  -1  130.41   25.80
   1  17  -1  106.34   17.98
   1  17   0   35.03   11.20
   1  17   0   38.22   11.03
   1  17   0   55.92   18.08
   1 -17   0   41.46   11.04
   1 -17   0   29.06   11.10
   1  17   1 1517.67   99.29
   1  17   1 1504.84   89.79
   1 -17   2  184.37   27.88
   1  17   2  198.00   31.63
   1  19  -1  416.07   41.06
   1  19  -1  388.29   45.29
   1  19  -1  364.38   45.72
   1 -19  -1  367.65   37.58
   1 -19  -1  528.35   55.15
   1  19  -1  416.10   38.09
   1  19   0  361.46   34.88
   1  19   0  409.77   48.91
   1  19   0  388.73   48.61
   1 -19   0  353.76   33.56
   1 -19   0  425.94   46.52
   1  19   0  285.37   35.44
   1  19   1  129.00   24.57
   1  19   1   92.26   24.84
   2   0  -4 2844.06  130.35
   2   0  -3   63.14   13.54
   2   0  -3   66.03   12.16
   2   0  -2  147.36   15.18
   2   0  -1 9429.42  279.29
   2   0  -1 9040.36  276.62
   2   0  -1 9277.07  282.25
   2   0   0 1036.17   36.71
   2   0   0  964.72   37.03
   2   0   0  937.98   33.93
   2   0   0  948.21   37.80
   2   0   0  987.30   37.09
   2   0   1  384.65   21.51
   2   0   1  406.38   21.57
   2   0   1  423.78   23.89
   2   0   2 2720.03   92.99
   2   0   2 3161.66  107.73
   2   0   3  915.04   53.45
   2   0   3  974.52   48.41
   2   0   3 1030.56   66.28
   2   0   4  250.10   34.72
   2  -2  -4   48.40   13.95
   2   2  -4   41.02   12.13
   2  -2  -3  728.02   56.23
   2   2  -3  670.19   38.52
   2  -2  -3  562.87   39.91
   2   2  -3  593.83   42.32
   2  -2  -3  609.52   42.92
   2  -2  -2  592.24   38.22
   2   2  -2  648.51   32.46
   2  -2  -2  634.98   35.32
   2  -2  -2  626.05   34.16
   2  -2  -1 1140.67   42.64
   2   2  -1 1104.05   47.28
   2  -2  -1 1057.67   45.92
   2   2  -1 1099.35   45.07
   2  -2  -1 1104.70   47.29
   2   2  -1 1008.17   38.00
   2   2   0 1960.82   61.27
   2   2   0 1988.33   70.17
   2  -2   0 2053.51   68.61
   2  -2   0 2009.63   64.23
   2   2   0 1895.56   66.64
   2  -2   0 1914.33   67.74
   2   2   0 2000.42   70.55
   2  -2   0 2028.52   68.52
   2  -2   0 1877.78   69.04
   2   2   1 1099.88   50.53
   2  -2   1 1192.27   51.54
   2   2   1 1138.65   41.04
   2  -2   1 1186.52   47.18
   2  -2   1 1029.41   37.46
   2  -2   1 1152.79   46.45
   2   2   1 1137.49   46.55
   2   2   1 1095.82   47.18
   2  -2   2  474.29   31.53
   2  -2   2  394.72   19.26
   2   2   2  351.29   29.61
   2  -2   2  358.40   20.56
   2  -2   2  418.04   33.87
   2  -2   2  416.72   20.52
   2   2   2  393.37   26.22
   2   2   2  449.72   31.41
   2  -2   3  669.94   33.96
   2   2   3  604.75   47.09
   2  -2   3  709.14   53.88
   2  -2   3  729.43   36.93
   2  -2   3  743.51   34.45
   2   2   3  738.04   43.05
   2  -2   4   98.52   23.12
   2  -2   4  106.50   23.04
   2   2   4   87.25   20.98
   2   4  -4   58.90   15.45
   2  -4  -4   90.41   19.26
   2   4  -3  714.96   38.75
   2   4  -3  678.01   45.79
   2  -4  -3  661.10   45.54
   2   4  -2 1539.24   67.58
   2  -4  -2 1586.40   76.69
   2   4  -2 1450.78   60.35
   2  -4  -2 1450.63   63.59
   2   4  -2 1543.72   65.64
   2  -4  -2 1501.91   68.85
   2   4  -1  482.45   23.91
   2  -4  -1  526.70   31.04
   2  -4  -1  540.90   32.54
   2   4  -1  554.01   30.86
   2   4  -1  487.34   27.76
   2   4  -1  548.82   27.39
   2   4  -1  509.15   28.12
   2   4  -1  458.97   20.14
   2  -4  -1  533.04   24.66
   2   4   0 3047.24  108.89
   2   4   0 3008.24  102.55
   2   4   0 2988.84  102.91
   2  -4   0 3201.27  102.88
   2  -4   0 3019.84  102.14
   2  -4   0 3162.50  100.68
   2  -4   0 3080.33  102.60
   2  -4   0 3075.92  103.57
   2  -4   0 3034.28  105.89
   2   4   1 2498.69   97.58
   2  -4   1 2374.47   88.91
   2   4   1 2576.87   74.71
   2  -4   1 2557.88   88.80
   2  -4   1 2496.95   84.72
   2   4   1 2485.73   87.76
   2   4   1 2569.98   89.92
   2   4   2  176.15   22.49
   2   4   2  166.43   18.05
   2  -4   2  173.38   21.13
   2  -4   2  184.62   24.79
   2   4   2  197.46   20.40
   2  -4   2  184.23   19.10
   2  -4   3 1087.07   45.03
   2   4   3 1112.77   71.51
   2  -4   3 1126.09   77.75
   2   4   3 1220.79   62.70
   2  -4   4  298.40   42.93
   2   4   4  364.67   34.63
   2   6  -4  419.09   41.24
   2  -6  -4  435.12   42.25
   2  -6  -3  414.20   34.93
   2   6  -3  465.41   28.43
   2   6  -3  393.88   33.94
   2   6  -2 1949.91   79.03
   2   6  -2 1950.65   83.84
   2   6  -2 1988.99   75.62
   2  -6  -2 1930.11   87.13
   2   6  -2 2099.00   81.78
   2  -6  -2 1934.80   79.62
   2   6  -2 1971.41   77.46
   2   6  -1 1417.70   56.48
   2  -6  -1 1518.32   69.46
   2   6  -1 1395.94   62.16
   2   6  -1 1315.73   49.82
   2   6  -1 1385.20   58.66
   2  -6  -1 1506.52   65.71
   2   6  -1 1397.66   55.71
   2   6  -1 1352.60   57.90
   2  -6  -1 1390.02   62.86
   2  -6  -1 1339.68   55.17
   2   6  -1 1470.68   55.95
   2  -6  -1 1261.43   49.93
   2  -6   0  600.64   22.53
   2   6   0  696.25   26.46
   2   6   0  737.51   37.80
   2   6   0  736.92   35.20
   2  -6   0  702.18   25.96
   2   6   0  680.53   35.94
   2  -6   0  698.84   35.55
   2  -6   0  668.50   33.29
   2  -6   0  729.06   34.10
   2  -6   0  774.47   38.34
   2  -6   1 3536.86  117.99
   2   6   1 3478.73  113.47
   2  -6   1 3588.68  118.04
   2  -6   1 3159.83   99.26
   2   6   1 3743.57  121.94
   2  -6   1 3257.83  107.85
   2   6   1 3569.62  115.13
   2   6   2  371.55   37.45
   2  -6   2  415.88   34.99
   2   6   2  406.64   32.32
   2  -6   2  455.90   31.22
   2   6   2  474.40   33.60
   2  -6   2  411.44   37.19
   2  -6   3   19.63   11.91
   2  -6   3   39.13   12.66
   2   6   3    8.09    5.62
   2  -8  -4  108.76   22.37
   2  -8  -4  101.63   22.63
   2   8  -4   90.58   18.80
   2  -8  -3 1365.45   72.47
   2   8  -3 1405.63   58.59
   2   8  -3 1443.14   72.75
   2  -8  -2 1065.55   61.00
   2   8  -2 1037.30   56.00
   2  -8  -2 1160.81   71.04
   2   8  -2 1014.22   54.43
   2   8  -2 1088.50   52.89
   2  -8  -2 1171.74   67.08
   2   8  -2 1015.47   51.48
   2  -8  -2 1026.02   51.12
   2   8  -2 1003.71   49.44
   2  -8  -1  759.56   42.04
   2   8  -1  713.47   32.62
   2  -8  -1  767.39   48.12
   2   8  -1  694.21   37.20
   2   8  -1  647.31   39.56
   2   8  -1  685.73   36.71
   2  -8  -1  663.59   41.99
   2   8  -1  684.08   36.48
   2  -8  -1  745.72   41.20
   2  -8  -1  680.59   32.71
   2  -8  -1  625.86   26.48
   2   8  -1  601.73   29.51
   2   8   0 2796.94  106.38
   2   8   0 2787.99  100.48
   2  -8   0 2520.95   87.99
   2   8   0 2652.69  108.11
   2   8   0 2686.71  103.79
   2  -8   0 2690.06  102.86
   2   8   0 2712.76   90.60
   2  -8   0 2704.10   97.84
   2  -8   0 2671.13   98.09
   2   8   0 2742.12  102.25
   2  -8   0 2892.60  105.12
   2   8   0 2667.92   89.08
   2   8   1 1058.90   52.02
   2  -8   1 1092.00   53.33
   2  -8   1 1187.65   56.39
   2  -8   1 1094.05   55.72
   2   8   1 1164.69   57.32
   2  -8   1 1076.87   42.48
   2   8   1 1094.07   65.12
   2  -8   1  987.68   39.24
   2   8   1 1103.54   50.27
   2  -8   2  792.36   50.74
   2  -8   2  674.05   48.76
   2   8   2  688.39   46.72
   2  -8   2  729.40   41.54
   2   8   3  532.88   45.09
   2  -8   3  560.08   53.74
   2  10  -3  129.18   19.19
   2 -10  -3  127.61   25.63
   2 -10  -3  124.25   16.36
   2  10  -3   90.39   16.13
   2 -10  -3  105.80   18.01
   2  10  -2   34.32   10.77
   2  10  -2   49.01    9.53
   2  10  -2   39.79    8.83
   2 -10  -2   42.63   14.62
   2 -10  -2   63.26   10.16
   2 -10  -2   47.36    9.58
   2 -10  -1 1885.02   83.00
   2  10  -1 1596.65   80.75
   2  10  -1 1757.03   79.57
   2  10  -1 1863.28   77.95
   2  10  -1 1720.82   82.93
   2 -10  -1 1739.73   84.82
   2  10  -1 1806.05   77.64
   2  10  -1 1697.27   74.74
   2 -10  -1 1667.05   69.22
   2 -10  -1 1757.01   81.35
   2  10  -1 1781.46   68.87
   2  10  -1 1820.01   78.66
   2 -10  -1 1652.64   59.68
   2  10  -1 1721.20   71.03
   2  10   0  220.93   16.58
   2  10   0  211.60   24.24
   2  10   0  228.91   21.05
   2  10   0  210.24   24.39
   2 -10   0  197.91   15.50
   2 -10   0  205.03   22.29
   2  10   0  226.17   23.69
   2  10   0  204.61   15.41
   2 -10   0  213.13   19.63
   2  10   0  190.59   20.78
   2 -10   0  225.47   22.87
   2  10   1  200.56   21.67
   2 -10   1  222.36   23.29
   2 -10   1  230.15   22.66
   2 -10   1  196.85   22.05
   2 -10   1  192.10   12.52
   2  10   1  193.14   22.73
   2  10   1  179.99   17.67
   2 -10   2 1073.54   64.50
   2 -10   2  995.39   50.83
   2  10   2 1093.79   64.73
   2 -10   2 1017.29   62.72
   2 -10   3  195.04   30.82
   2  10   3  248.15   31.37
   2 -10   3  255.13   34.57
   2  12  -3  251.01   28.83
   2 -12  -3  298.83   40.23
   2  12  -3  232.13   26.17
   2 -12  -3  258.66   28.26
   2  12  -2  972.16   60.71
   2  12  -2  878.35   56.72
   2 -12  -2 1040.97   70.55
   2 -12  -2  920.95   45.67
   2  12  -2  831.71   48.81
   2  12  -2  874.75   50.28
   2  12  -2  921.20   49.28
   2  12  -2  890.01   47.24
   2 -12  -2 1022.52   49.14
   2  12  -1  197.65   25.84
   2  12  -1  233.93   26.29
   2 -12  -1  227.84   21.59
   2 -12  -1  231.01   28.41
   2  12  -1  168.03   21.17
   2 -12  -1  198.18   23.82
   2  12  -1  176.29   20.58
   2  12  -1  200.96   21.43
   2 -12  -1  172.29   17.76
   2  12  -1  223.81   18.29
   2  12  -1  179.77   19.81
   2  12  -1  200.01   22.03
   2  12   0  347.89   23.84
   2  12   0  330.68   27.02
   2  12   0  353.58   34.44
   2 -12   0  325.66   22.75
   2 -12   0  310.97   30.78
   2 -12   0  288.32   25.70
   2  12   0  327.39   21.41
   2  12   0  312.17   29.36
   2 -12   0  278.59   25.94
   2 -12   1 1130.00   62.74
   2  12   1 1061.76   69.24
   2 -12   1 1124.28   60.60
   2  12   1 1155.07   66.01
   2  12   1 1051.80   52.84
   2  12   2   91.39   18.30
   2 -12   2   70.36   16.68
   2 -12   2  129.23   21.79
   2 -12   2   82.86   12.25
   2 -12   3   72.13   18.46
   2 -12   3   96.66   22.40
   2  12   3   70.96   18.82
   2  14  -3  521.18   50.06
   2  14  -3  532.23   45.17
   2 -14  -3  600.74   60.91
   2  14  -3  459.74   39.02
   2 -14  -3  532.73   41.96
   2  14  -2  385.17   39.99
   2  14  -2  454.38   41.25
   2 -14  -2  424.84   39.34
   2 -14  -2  545.04   53.03
   2 -14  -2  500.65   31.03
   2  14  -2  505.62   34.03
   2  14  -2  496.37   33.99
   2  14  -2  457.42   43.89
   2  14  -1  772.36   55.94
   2 -14  -1  682.43   44.72
   2 -14  -1  882.42   63.23
   2  14  -1  815.64   40.68
   2 -14  -1  830.27   45.43
   2  14  -1  748.32   57.13
   2  14  -1  787.73   49.99
   2  14  -1  790.82   49.51
   2  14  -1  797.63   49.34
   2  14   0 1919.33   77.40
   2  14   0 1905.79   98.73
   2 -14   0 1837.23   75.09
   2 -14   0 1849.62   93.31
   2 -14   0 1741.75   81.07
   2  14   0 1717.31   69.74
   2  14   0 1784.45   88.74
   2 -14   0 1669.39   82.11
   2  14   1  260.39   34.07
   2 -14   1  352.47   33.95
   2 -14   1  288.77   29.65
   2  14   1  319.13   33.85
   2  14   1  265.59   23.56
   2 -14   2  703.31   56.36
   2  14   2  696.64   57.14
   2 -14   2  660.06   52.65
   2  16  -2   49.54   10.52
   2  16  -2   72.31   17.25
   2  16  -2   49.62   14.16
   2  16  -2   61.00   17.11
   2 -16  -2   53.51   14.24
   2 -16  -2   83.52   22.02
   2  16  -2   88.14   13.43
   2  16  -1  647.80   55.40
   2  16  -1  568.67   51.62
   2 -16  -1  592.40   43.18
   2 -16  -1  749.94   62.11
   2 -16  -1  648.04   41.17
   2  16  -1  666.46   36.14
   2  16  -1  591.40   45.41
   2  16  -1  694.41   48.02
   2  16   0   19.16    9.09
   2  16   0   16.52    6.02
   2  16   0   23.90   10.74
   2  16   0    0.25    6.17
   2 -16   0   20.07    6.82
   2 -16   0   25.52   12.13
   2 -16   0   40.58   10.60
   2  16   1  148.52   27.43
   2  16   1  213.34   29.51
   2 -16   2  328.08   38.48
   2  16   2  384.43   43.77
   2  18  -1  597.04   47.19
   2  18  -1  573.76   55.40
   2  18  -1  589.14   56.12
   2 -18  -1  580.10   44.52
   2 -18  -1  563.19   39.77
   2  18  -1  627.66   49.28
   2  18   0  187.53   28.83
   2  18   0  233.08   24.51
   2  18   0  202.53   33.71
   2 -18   0  258.13   25.08
   2  18   0  185.79   32.05
   2 -18   0  239.45   33.67
   2 -18   0  218.75   26.44
   2  18   1   69.85   18.21
   2  18   1   77.27   21.07
   3   1  -4   18.50    8.95
   3  -1  -4    3.60    3.88
   3  -1  -3 1915.95   95.88
   3   1  -3 1853.49   91.93
   3   1  -3 1818.80   81.84
   3  -1  -3 1837.91   84.28
   3   1  -3 1877.62   86.90
   3  -1  -3 1852.38   86.12
   3  -1  -2  323.83   25.88
   3   1  -2  307.73   23.00
   3   1  -2  383.75   27.31
   3  -1  -2  331.04   26.53
   3  -1  -2  360.38   26.02
   3   1  -2  380.48   26.78
   3   1  -1  109.21   12.44
   3  -1  -1  136.73   10.91
   3  -1  -1  113.40   13.03
   3  -1  -1  152.42   12.88
   3  -1   0 2228.77   80.23
   3   1   0 2291.65   76.27
   3   1   0 2372.28   81.96
   3   1   0 2155.36   76.44
   3  -1   0 2164.83   72.67
   3  -1   0 2280.51   75.36
   3   1   0 2240.01   82.30
   3  -1   0 2438.14   81.49
   3  -1   0 2522.03   81.34
   3  -1   0 2212.40   79.68
   3   1   1 1254.85   51.83
   3  -1   1 1298.56   44.75
   3   1   1 1304.99   56.70
   3  -1   1 1373.99   52.69
   3  -1   1 1465.91   55.80
   3   1   1 1465.96   53.09
   3  -1   1 1402.18   56.90
   3   1   1 1427.85   58.03
   3  -1   2  220.49   11.66
   3  -1   2  218.55   10.91
   3   1   2  201.60   20.54
   3  -1   2  212.53   17.01
   3   1   2  237.66   19.60
   3  -1   2  260.97   21.78
   3   1   2  226.79   18.99
   3  -1   2  229.93   16.77
   3   1   2  242.00   23.07
   3  -1   2  246.21   23.27
   3  -1   2  222.78   25.62
   3   1   3  707.57   46.35
   3  -1   3  776.27   40.26
   3  -1   3  777.30   58.44
   3  -1   3  859.89   40.49
   3   1   3  799.07   44.30
   3   3  -4  334.40   36.47
   3  -3  -4  368.76   38.19
   3  -3  -3  696.78   54.10
   3   3  -3  672.87   41.54
   3  -3  -3  662.87   44.97
   3   3  -3  690.77   46.00
   3  -3  -2 2277.60   97.35
   3   3  -2 2342.21   91.14
   3  -3  -2 2470.82   96.96
   3   3  -2 2345.02   91.63
   3  -3  -2 2275.91   89.87
   3  -3  -1  906.13   44.79
   3  -3  -1  838.64   41.03
   3   3  -1  867.85   40.83
   3  -3  -1  898.38   37.12
   3   3  -1  867.22   42.03
   3   3  -1  770.13   31.80
   3  -3   0 1209.26   52.05
   3   3   0 1200.29   40.84
   3  -3   0 1207.12   44.69
   3   3   0 1197.40   52.50
   3   3   0 1209.20   48.65
   3  -3   0 1125.20   37.53
   3  -3   0 1203.87   50.16
   3  -3   0 1293.92   47.21
   3   3   0 1230.56   52.93
   3  -3   0 1194.45   50.12
   3  -3   0 1189.80   50.01
   3   3   1 4030.04  143.59
   3   3   1 4137.62  138.57
   3  -3   1 4033.74  137.25
   3   3   1 4054.10  127.60
   3  -3   1 3965.91  134.71
   3  -3   1 4100.35  141.66
   3   3   2   68.01   11.43
   3  -3   2   76.72   18.16
   3   3   2   37.11   10.40
   3  -3   2   65.79   13.88
   3  -3   2   69.99   12.45
   3  -3   2   79.92    7.42
   3  -3   2   90.52   13.90
   3   3   3  352.32   34.69
   3  -3   3  350.16   17.01
   3   3   3  415.39   32.01
   3  -3   3  394.42   44.43
   3  -3   3  436.50   43.02
   3   5  -4 1096.44   71.17
   3  -5  -4 1092.30   70.76
   3   5  -3   76.93   14.16
   3  -5  -3   84.13   15.08
   3   5  -3   68.16   11.38
   3   5  -2 1018.45   49.74
   3  -5  -2 1011.98   58.77
   3   5  -2  950.91   52.68
   3   5  -2  857.39   42.65
   3   5  -2  994.79   48.76
   3   5  -2  984.53   49.57
   3  -5  -2  936.54   53.94
   3  -5  -2  877.49   45.73
   3  -5  -1 5942.00  185.40
   3  -5  -1 5132.32  181.57
   3   5  -1 5399.58  163.65
   3   5  -1 5889.60  177.92
   3   5  -1 5493.99  178.82
   3   5  -1 5080.19  167.64
   3  -5  -1 5204.49  166.33
   3   5  -1 5211.49  158.42
   3   5   0  267.87   22.98
   3   5   0  257.03   19.39
   3   5   0  221.26   17.86
   3  -5   0  229.72   17.91
   3  -5   0  228.84   18.58
   3  -5   0  258.16   17.51
   3  -5   0  237.25   19.11
   3  -5   0  259.64   20.09
   3  -5   0  262.95   21.71
   3  -5   1  513.69   31.13
   3   5   1  463.65   24.78
   3  -5   1  429.21   21.72
   3  -5   1  477.95   29.79
   3   5   1  492.65   19.27
   3  -5   1  478.50   26.20
   3   5   1  492.54   31.08
   3   5   1  493.15   29.56
   3  -5   2 3280.22  122.05
   3   5   2 3093.62  133.48
   3  -5   2 3231.07  132.30
   3  -5   2 3135.67  122.49
   3   5   2 3151.73  122.81
   3  -5   2 3241.97  140.85
   3   5   3   57.91   12.91
   3  -5   3   61.23   19.69
   3  -5   3   68.32   16.80
   3   7  -4  159.33   25.25
   3  -7  -4  133.55   23.42
   3   7  -3  439.72   36.45
   3   7  -3  415.52   30.04
   3  -7  -3  390.06   34.23
   3  -7  -2  291.04   29.54
   3  -7  -2  355.83   35.65
   3   7  -2  311.02   28.44
   3   7  -2  326.36   24.01
   3   7  -2  332.69   26.34
   3  -7  -2  262.71   22.48
   3   7  -2  306.43   25.41
   3  -7  -1  423.21   32.05
   3   7  -1  352.75   29.40
   3   7  -1  340.52   22.32
   3   7  -1  399.03   27.89
   3  -7  -1  358.19   30.21
   3   7  -1  350.60   27.16
   3  -7  -1  357.46   28.84
   3   7  -1  384.17   25.13
   3  -7  -1  321.83   24.55
   3  -7  -1  335.37   19.32
   3   7  -1  358.86   18.82
   3   7   0  696.44   45.07
   3   7   0  791.25   40.47
   3  -7   0  686.70   25.16
   3   7   0  734.57   40.45
   3  -7   0  721.58   39.39
   3  -7   0  704.65   38.27
   3  -7   0  806.88   40.18
   3  -7   0  630.58   26.44
   3   7   0  725.08   26.42
   3  -7   0  881.41   45.79
   3  -7   0  769.44   40.99
   3   7   1  283.49   29.52
   3   7   1  283.32   21.93
   3  -7   1  271.74   23.59
   3  -7   1  245.86   15.81
   3  -7   1  275.49   23.86
   3  -7   1  266.72   18.72
   3   7   1  271.02   24.83
   3  -7   1  265.73   25.62
   3   7   1  282.12   22.74
   3   7   2   25.00    9.50
   3  -7   2   35.63   11.70
   3  -7   2   19.38    7.55
   3  -7   2   37.90    8.88
   3  -7   2   30.21   11.04
   3  -7   3  190.16   32.46
   3  -7   3  223.75   32.58
   3   7   3  192.51   25.50
   3   9  -3  385.88   34.27
   3   9  -3  395.05   36.90
   3  -9  -3  449.50   47.52
   3  -9  -3  337.36   32.44
   3   9  -2 1468.32   66.91
   3   9  -2 1326.30   71.21
   3   9  -2 1343.28   63.54
   3  -9  -2 1579.78   85.09
   3  -9  -2 1296.86   64.48
   3   9  -2 1350.42   65.92
   3   9  -2 1424.22   65.91
   3  -9  -2 1454.64   63.77
   3  -9  -1 1170.88   61.45
   3   9  -1  965.08   57.73
   3   9  -1 1033.89   51.79
   3   9  -1 1112.71   55.67
   3   9  -1  965.01   56.82
   3  -9  -1 1101.80   62.16
   3   9  -1  946.75   53.96
   3  -9  -1 1078.48   58.85
   3   9  -1 1161.73   55.01
   3  -9  -1 1005.32   50.95
   3  -9  -1 1000.01   40.36
   3   9  -1 1011.50   44.58
   3   9   0 1446.76   50.13
   3  -9   0 1372.27   65.72
   3   9   0 1204.62   70.89
   3   9   0 1500.71   66.24
   3   9   0 1331.37   66.66
   3  -9   0 1374.44   49.01
   3   9   0 1401.90   72.44
   3   9   0 1401.97   67.56
   3  -9   0 1330.24   65.74
   3  -9   0 1315.90   62.40
   3  -9   0 1519.78   70.97
   3   9   1 1082.88   55.63
   3  -9   1 1062.70   57.13
   3  -9   1 1149.15   59.70
   3  -9   1 1085.59   44.80
   3  -9   1 1102.84   45.22
   3   9   1 1171.18   62.06
   3   9   1 1176.54   55.65
   3  -9   1 1165.08   61.90
   3  -9   2  757.90   50.60
   3   9   2  825.18   54.58
   3  -9   2  755.90   44.15
   3  -9   2  806.52   55.48
   3  -9   2  756.42   55.71
   3  -9   3  995.18   73.29
   3  -9   3  851.52   71.85
   3   9   3  813.07   59.94
   3  11  -3  719.88   53.95
   3 -11  -3  884.54   72.19
   3 -11  -3  845.01   51.02
   3  11  -3  766.63   51.72
   3 -11  -3  755.55   51.23
   3  11  -2  148.89   19.30
   3  11  -2  101.27   17.99
   3  11  -2  108.94   15.96
   3 -11  -2  156.59   26.01
   3  11  -2  159.90   18.64
   3 -11  -2  136.39   17.29
   3 -11  -2  146.63   16.28
   3  11  -1  688.00   50.06
   3  11  -1  753.02   46.32
   3 -11  -1  698.92   50.69
   3  11  -1  690.91   46.18
   3  11  -1  647.43   41.20
   3 -11  -1  678.02   41.05
   3  11  -1  767.56   47.00
   3 -11  -1  695.85   27.49
   3  11  -1  689.71   38.30
   3  11   0 1259.04   47.79
   3 -11   0 1140.98   62.04
   3  11   0 1098.17   69.87
   3  11   0 1123.94   64.12
   3 -11   0 1251.28   47.14
   3 -11   0 1046.26   62.02
   3  11   0 1163.36   64.35
   3  11   0 1174.65   49.53
   3 -11   0 1185.98   60.02
   3 -11   0 1111.52   58.38
   3  11   0 1107.73   62.56
   3  11   1  145.09   19.48
   3 -11   1  156.61   21.14
   3 -11   1  142.18   20.21
   3 -11   1  151.44   10.79
   3  11   1  141.80   21.42
   3 -11   1  152.26   13.75
   3  11   1  139.32   17.18
   3 -11   1  149.22   20.67
   3 -11   2  797.90   55.08
   3  11   2  835.13   59.08
   3 -11   2  792.47   44.08
   3 -11   2  877.84   60.59
   3 -11   2  792.50   58.68
   3  11   3  373.93   41.27
   3 -11   3  458.90   49.99
   3 -11   3  346.45   44.65
   3  13  -3  224.40   29.39
   3  13  -3  234.88   30.02
   3 -13  -3  257.43   39.26
   3  13  -3  202.09   25.22
   3 -13  -3  231.21   26.93
   3  13  -2  948.35   58.54
   3  13  -2  849.64   59.34
   3 -13  -2  942.92   70.70
   3 -13  -2  756.10   46.57
   3  13  -2  797.26   46.09
   3  13  -2  847.38   50.74
   3  13  -2  875.58   49.55
   3  13  -1  780.46   42.29
   3  13  -1  727.67   55.09
   3  13  -1  767.33   51.58
   3 -13  -1  662.76   40.82
   3 -13  -1  697.40   55.16
   3  13  -1  683.97   44.44
   3 -13  -1  702.52   43.70
   3  13  -1  711.88   48.89
   3  13  -1  678.82   42.27
   3  13  -1  754.02   44.95
   3  13   0  820.75   37.59
   3  13   0  661.18   42.78
   3  13   0  633.09   54.55
   3 -13   0  670.45   44.99
   3  13   0  710.69   52.14
   3 -13   0  761.53   35.89
   3 -13   0  646.53   49.21
   3  13   0  669.39   35.17
   3 -13   0  665.15   44.92
   3  13   0  641.28   48.23
   3 -13   1 1030.63   63.07
   3 -13   1  965.37   58.89
   3  13   1 1008.86   64.40
   3 -13   1  930.95   44.71
   3 -13   2  339.77   38.06
   3  13   2  298.36   35.91
   3 -13   2  267.95   34.01
   3  15  -2  323.26   37.17
   3  15  -2  324.31   34.94
   3 -15  -2  270.85   31.31
   3 -15  -2  387.81   46.46
   3 -15  -2  292.04   26.77
   3  15  -2  308.54   29.36
   3  15  -2  318.06   28.41
   3  15  -2  293.69   33.98
   3  15  -1  137.31   21.26
   3  15  -1  122.60   24.23
   3 -15  -1  162.22   19.45
   3  15  -1  148.42   24.09
   3 -15  -1  175.13   28.46
   3 -15  -1  160.56   20.27
   3  15  -1  167.01   17.89
   3  15  -1  149.47   19.69
   3  15   0  128.63   14.40
   3  15   0   99.55   18.82
   3  15   0  143.81   26.97
   3  15   0  110.90   21.50
   3 -15   0  127.80   22.18
   3 -15   0  141.62   20.74
   3  15   0  120.80   13.18
   3 -15   1  484.53   44.40
   3 -15   1  534.16   44.58
   3  15   1  511.16   47.09
   3  15   2   81.15   19.97
   3 -15   2   56.05   16.34
   3  17  -2  176.80   27.23
   3  17  -2  182.04   23.10
   3  17  -2  191.10   30.04
   3 -17  -2  201.40   28.07
   3  17  -2  137.57   24.46
   3 -17  -2  230.47   38.44
   3  17  -1   67.21   15.55
   3  17  -1   70.32   14.30
   3  17  -1  101.33   21.91
   3  17  -1   81.52   19.17
   3 -17  -1   82.10   14.74
   3 -17  -1   92.55   22.85
   3 -17  -1   80.29   15.63
   3  17  -1   67.92   11.80
   3  17   0  938.70   75.40
   3  17   0  866.28   68.30
   3 -17   0  947.37   48.90
   3 -17   0 1045.23   72.21
   3 -17   0  898.89   59.56
   3  17   0 1029.56   70.46
   3 -17   1  314.39   36.05
   3  17   1  342.57   41.01
   3  19   0  237.07   38.29
   3  19   0  247.85   36.66
   3 -19   0  253.11   36.31
   3 -19   0  212.75   28.26
   3  19   0  242.22   34.70
   4   0  -4  276.65   33.53
   4   0  -3  191.12   23.12
   4   0  -3  160.88   21.40
   4   0  -2 2677.20   96.97
   4   0  -2 2885.13  111.10
   4   0  -2 2704.99  103.90
   4   0   0  908.50   41.17
   4   0   0  909.82   43.62
   4   0   0  903.28   37.62
   4   0   0  945.63   42.64
   4   0   0  871.37   41.82
   4   0   0  886.03   43.63
   4   0   1 2687.49   92.83
   4   0   1 2744.11  101.18
   4   0   1 2723.01   97.73
   4   0   1 2826.26  102.43
   4   0   2 2106.75   68.34
   4   0   2 1915.29   80.74
   4   0   2 2005.89   82.30
   4   0   2 1968.44   78.63
   4   0   3  410.23   41.45
   4   0   3  410.64   28.69
   4   2  -4  560.79   48.66
   4  -2  -4  582.71   48.93
   4  -2  -3  148.37   21.69
   4   2  -3  152.46   19.40
   4   2  -3  160.91   21.34
   4  -2  -3  137.88   19.56
   4  -2  -2  524.46   34.54
   4   2  -2  663.11   28.94
   4   2  -2  584.63   38.65
   4  -2  -2  647.41   41.92
   4   2  -2  595.56   37.19
   4  -2  -2  540.67   34.61
   4  -2  -1 2276.05   86.02
   4   2  -1 2255.03   79.74
   4  -2   0  159.70   15.85
   4   2   0  169.53   12.55
   4  -2   0  153.07   14.93
   4   2   0  152.66   16.03
   4   2   0  149.31   13.63
   4  -2   0  157.94   10.34
   4  -2   0  134.75   11.24
   4   2   0  159.92   16.69
   4  -2   0  164.10   16.09
   4  -2   0  178.79   15.98
   4   2   1  626.43   35.25
   4  -2   1  670.95   40.78
   4   2   1  698.11   39.95
   4  -2   1  656.64   36.10
   4   2   1  653.07   32.23
   4  -2   1  592.46   31.88
   4  -2   1  684.20   45.64
   4  -2   1  649.14   36.01
   4   2   1  731.92   39.37
   4   2   2  627.75   38.26
   4   2   2  678.78   37.21
   4  -2   2  687.40   49.06
   4   2   2  654.01   35.82
   4  -2   2  620.08   39.16
   4  -2   2  680.17   31.95
   4  -2   2  656.29   32.39
   4  -2   2  663.12   53.94
   4   2   3    6.88    4.99
   4  -2   3   10.00    8.12
   4   2   3    9.08    4.30
   4  -2   3    3.32    6.30
   4   4  -4  368.76   39.25
   4  -4  -4  414.98   40.82
   4  -4  -3 1023.99   66.85
   4   4  -3 1097.72   56.59
   4  -4  -3  973.76   57.90
   4   4  -3 1095.34   62.26
   4   4  -2  413.33   31.38
   4  -4  -2  371.58   31.16
   4   4  -2  397.07   33.08
   4   4  -2  409.95   19.72
   4   4  -2  401.10   30.67
   4  -4  -2  399.04   33.21
   4   4  -2  351.54   28.40
   4  -4  -2  326.64   25.91
   4  -4  -1 2421.92   93.49
   4   4  -1 2295.43   85.54
   4  -4  -1 2361.05   92.68
   4   4  -1 1990.93   73.63
   4  -4  -1 2117.72   78.49
   4   4  -1 2269.82   89.18
   4   4   0 2028.98   51.48
   4  -4   0 1730.58   44.51
   4   4   0 2063.85   66.50
   4  -4   0 1887.08   67.88
   4  -4   0 1990.23   62.02
   4  -4   0 1916.19   67.49
   4  -4   0 1839.57   57.97
   4  -4   0 1961.23   67.36
   4  -4   0 2158.92   73.11
   4   4   1  328.25   27.60
   4  -4   1  315.31   22.87
   4   4   1  362.92   30.05
   4   4   1  411.15   20.40
   4  -4   1  365.11   28.02
   4  -4   1  373.92   27.26
   4   4   1  355.46   20.47
   4  -4   1  340.71   30.55
   4  -4   1  353.41   24.57
   4   4   1  400.17   28.57
   4   4   2 1133.60   66.48
   4  -4   2 1260.78   49.69
   4  -4   2 1158.34   61.16
   4  -4   2 1324.84   73.67
   4  -4   2 1269.33   45.99
   4   4   2 1173.04   61.38
   4  -4   2 1195.57   78.37
   4   4   3  466.96   37.94
   4  -4   3  553.38   56.76
   4   6  -4   36.11   14.05
   4  -6  -4   60.02   15.77
   4   6  -3 1457.33   72.24
   4   6  -3 1576.15   79.69
   4  -6  -3 1470.80   74.76
   4   6  -2  395.44   20.35
   4  -6  -2  390.19   34.89
   4   6  -2  340.09   31.28
   4   6  -2  388.11   29.82
   4  -6  -2  366.85   26.43
   4   6  -2  366.66   29.77
   4  -6  -1   44.23   11.23
   4   6  -1   40.02    7.05
   4   6  -1   50.66   10.94
   4   6  -1   35.05    8.52
   4   6  -1   40.37    8.60
   4  -6  -1   25.55    7.56
   4  -6  -1   28.30    5.96
   4   6  -1   29.87    3.47
   4  -6  -1   47.25   10.32
   4   6   0 2927.27   94.56
   4   6   0 3129.68  122.42
   4   6   0 3507.97  117.83
   4   6   0 3315.87  115.26
   4  -6   0 3199.80  113.08
   4   6   0 3489.15  125.31
   4  -6   0 3016.45  115.36
   4  -6   0 3220.02  110.90
   4  -6   0 3190.24  116.65
   4  -6   0 3282.64  117.79
   4  -6   0 3685.42  125.34
   4   6   1  183.85   22.50
   4  -6   1  208.27   20.87
   4   6   1  250.83   26.68
   4   6   1  207.35   17.29
   4  -6   1  202.82   16.86
   4  -6   1  207.03   21.21
   4   6   1  216.20   13.37
   4  -6   1  214.81   18.35
   4   6   1  181.96   20.73
   4  -6   1  208.71   23.40
   4   6   1  244.11   22.33
   4   6   2  100.95   16.21
   4  -6   2  124.66   23.02
   4  -6   2  133.76   21.07
   4  -6   2  120.76   16.68
   4  -6   2   89.96   15.40
   4  -6   3 1155.84   78.57
   4  -6   3 1033.87   80.65
   4   8  -3  390.28   35.42
   4  -8  -3  332.37   31.39
   4  -8  -2 1095.71   67.95
   4   8  -2 1118.26   46.43
   4   8  -2  912.52   57.57
   4   8  -2 1044.66   55.39
   4   8  -2  875.22   46.37
   4  -8  -2  882.86   52.30
   4  -8  -2  875.26   47.17
   4  -8  -1 1507.92   66.00
   4  -8  -1 1339.79   40.62
   4   8  -1 1307.09   61.78
   4   8  -1 1509.64   47.43
   4   8  -1 1537.94   59.85
   4  -8  -1 1471.90   65.72
   4  -8  -1 1345.62   61.74
   4   8  -1 1292.17   58.30
   4  -8  -1 1307.29   55.31
   4   8  -1 1467.98   39.39
   4   8   0  903.87   57.79
   4   8   0 1146.50   55.54
   4   8   0 1008.62   53.62
   4  -8   0 1028.55   52.80
   4   8   0  930.69   57.15
   4  -8   0 1060.92   53.86
   4  -8   0  940.99   38.63
   4  -8   0 1202.60   61.31
   4  -8   0 1038.00   54.43
   4   8   1 1296.31   75.27
   4   8   1 1383.94   64.42
   4  -8   1 1475.59   70.60
   4  -8   1 1327.88   57.33
   4   8   1 1476.41   48.03
   4  -8   1 1447.06   69.73
   4  -8   1 1495.55   60.30
   4   8   1 1503.38   73.17
   4  -8   1 1392.24   73.13
   4  -8   2  513.89   43.80
   4  -8   2  428.17   36.92
   4   8   2  440.07   38.78
   4  -8   2  431.62   33.08
   4  -8   2  469.26   45.20
   4  -8   3  455.29   49.23
   4   8   3  330.28   36.08
   4  -8   3  438.23   51.67
   4 -10  -3   18.37    7.54
   4  10  -3    9.31    6.32
   4  10  -3    7.28    5.16
   4 -10  -3    7.47    9.46
   4  10  -3   17.61    7.43
   4 -10  -3   11.01    5.82
   4  10  -2  960.57   47.41
   4  10  -2  792.64   55.46
   4  10  -2  766.37   45.91
   4 -10  -2  912.52   66.62
   4 -10  -2  815.46   51.11
   4  10  -2  847.37   50.62
   4 -10  -2  880.21   45.87
   4  10  -1  377.68   36.39
   4  10  -1  483.07   32.37
   4 -10  -1  425.99   38.73
   4  10  -1  511.38   35.63
   4 -10  -1  409.28   32.78
   4 -10  -1  461.78   23.13
   4  10  -1  447.61   26.37
   4 -10   0  106.72   16.36
   4 -10   0  132.15   18.69
   4  10   0  126.22    7.83
   4  10   0  105.39   19.17
   4  10   0  143.30   19.35
   4 -10   0  154.32   20.13
   4 -10   0  122.03   17.66
   4 -10   0  123.39    7.13
   4 -10   0  117.47    7.57
   4  10   1  869.28   63.25
   4  10   1  923.30   54.17
   4 -10   1 1030.21   59.30
   4 -10   1 1077.15   60.40
   4 -10   1 1051.77   46.50
   4 -10   1 1025.19   44.25
   4  10   1 1064.38   62.19
   4 -10   1 1007.03   61.28
   4 -10   2  534.85   43.23
   4  10   2  469.42   42.66
   4 -10   2  536.25   36.57
   4 -10   2  559.67   47.94
   4 -10   2  516.75   48.24
   4  10   3   58.07   16.23
   4 -10   3   28.92   14.30
   4  12  -3  740.64   57.87
   4 -12  -3  697.34   51.11
   4  12  -3  704.64   52.00
   4 -12  -3  836.00   52.89
   4  12  -2   17.49    9.42
   4 -12  -2   18.19    7.22
   4  12  -2    5.39    4.34
   4 -12  -2   36.83   13.19
   4  12  -2   17.22    7.85
   4 -12  -2   17.11    5.62
   4  12  -1   41.45    9.03
   4  12  -1   37.19    7.75
   4  12  -1   24.27   10.14
   4  12  -1   40.80   10.11
   4 -12  -1   46.01   14.11
   4 -12  -1   45.82   11.22
   4 -12  -1   34.83    3.56
   4 -12   0 1656.59   81.55
   4  12   0 1623.39   53.51
   4  12   0 1457.87   86.57
   4 -12   0 1415.31   78.02
   4  12   0 1467.75   61.90
   4 -12   0 1384.02   73.70
   4 -12   0 1381.57   72.72
   4  12   0 1404.91   78.00
   4 -12   1   56.32   14.13
   4 -12   1   43.28    8.37
   4  12   1   50.45   14.49
   4 -12   1   54.14   15.22
   4  12   1   64.58   18.57
   4 -12   1   79.82   16.88
   4 -12   1   60.47    6.58
   4  12   2   42.99   13.08
   4 -12   2   32.76   12.05
   4 -12   2   57.53   15.95
   4 -12   2   49.40   13.33
   4  14  -2  720.39   58.38
   4  14  -2  869.43   54.22
   4 -14  -2  715.94   51.28
   4 -14  -2  864.45   71.68
   4 -14  -2  719.32   49.19
   4  14  -2  765.80   48.88
   4  14  -1 1462.73   88.47
   4  14  -1 1484.51   78.14
   4 -14  -1 1412.24   63.67
   4 -14  -1 1488.41   89.42
   4 -14  -1 1289.64   71.44
   4  14  -1 1317.34   77.52
   4  14  -1 1392.42   66.83
   4  14  -1 1421.38   67.04
   4  14   0   55.95    7.04
   4  14   0   60.54   14.82
   4  14   0   87.27   22.49
   4 -14   0   76.19   17.02
   4  14   0   59.71    9.09
   4 -14   0   54.54   13.77
   4 -14   1  649.32   52.06
   4  14   1  523.90   54.21
   4 -14   1  568.33   47.04
   4  14   1  641.78   52.59
   4 -14   2  989.27   72.03
   4 -14   2  936.48   66.62
   4  14   2  960.10   70.59
   4 -14   2  850.35   67.65
   4  16  -2  290.77   37.44
   4 -16  -2  254.85   30.02
   4 -16  -2  310.34   43.93
   4 -16  -2  261.49   28.48
   4  16  -2  234.20   25.97
   4  16  -2  267.42   30.39
   4  16  -2  274.66   32.19
   4  16  -1   74.59   17.41
   4  16  -1  110.99   16.24
   4  16  -1   73.30   18.86
   4  16  -1  122.63   21.84
   4 -16  -1   76.04   12.78
   4 -16  -1   97.82   22.43
   4 -16  -1   74.23   15.44
   4  16  -1   65.46   12.77
   4  16   0  233.00   36.17
   4  16   0  252.05   32.84
   4 -16   0  244.62   32.65
   4 -16   0  221.78   28.49
   4  16   0  245.40   33.03
   4 -16   1  280.75   36.42
   4  16   1  208.53   35.01
   4 -16   1  275.75   33.62
   4  16   1  261.70   35.23
   4  18  -1  210.15   30.88
   4  18  -1  232.07   36.21
   4  18  -1  189.98   29.30
   4 -18  -1  193.13   27.40
   4  18   0   66.68   18.00
   4  18   0   65.54   21.28
   4  18   0   63.05   17.84
   4 -18   0   67.62   19.03
   4 -18   0   52.44   14.63
   5   1  -4  622.17   51.77
   5  -1  -4  593.80   50.50
   5  -1  -3  657.26   43.62
   5   1  -3  699.87   40.41
   5   1  -3  619.98   45.81
   5  -1  -3  650.19   45.94
   5   1  -2  134.58   17.05
   5  -1  -2  107.69   14.88
   5   1  -2  111.20   17.24
   5   1  -1 1419.04   48.67
   5  -1  -1 1441.84   53.61
   5  -1  -1 1475.66   66.61
   5   1  -1 1302.94   58.10
   5  -1  -1 1264.17   56.11
   5  -1  -1 1347.52   67.35
   5   1  -1 1354.42   65.45
   5   1   0 1593.80   66.72
   5  -1   0 1583.89   63.98
   5   1   0 1754.50   75.57
   5  -1   0 1757.77   63.59
   5   1   0 1733.30   67.60
   5  -1   0 1747.61   73.03
   5   1   0 1804.95   71.89
   5   1   0 1808.89   76.77
   5   1   0 1761.55   71.64
   5  -1   0 1882.11   73.03
   5  -1   0 1741.44   72.22
   5   1   1  257.76   21.06
   5  -1   1  237.64   24.57
   5  -1   1  243.14   21.57
   5   1   1  234.58   20.06
   5  -1   1  254.68   22.21
   5  -1   1  264.87   28.90
   5  -1   1  260.33   23.06
   5   1   1  282.37   24.68
   5   1   2  851.72   36.76
   5  -1   2  783.06   54.64
   5   1   2  759.65   47.59
   5   1   2  842.90   45.22
   5  -1   2  813.56   46.83
   5  -1   2  825.17   43.48
   5  -1   2  795.32   62.74
   5   1   2  793.13   45.18
   5  -1   2  809.49   42.42
   5  -1   3  447.10   45.08
   5   1   3  409.68   31.46
   5   1   3  404.89   42.39
   5  -1   3  396.68   46.66
   5   3  -4  423.69   42.39
   5  -3  -4  404.54   40.82
   5  -3  -3 1745.64   85.90
   5   3  -3 1725.42   68.86
   5   3  -3 1656.29   84.13
   5  -3  -3 1578.65   80.77
   5   3  -2   45.50   10.86
   5   3  -2   63.21   13.57
   5  -3  -2   45.41    9.43
   5  -3  -1 1400.37   55.29
   5  -3  -1 1383.09   65.61
   5   3  -1 1248.33   64.31
   5   3  -1 1266.17   57.46
   5  -3  -1 1298.70   65.56
   5   3  -1 1242.14   62.44
   5   3  -1 1296.19   40.10
   5   3   0 2524.98   87.77
   5  -3   0 2401.72   88.85
   5  -3   0 2434.85   82.65
   5   3   0 2781.34   97.63
   5  -3   0 2660.30  103.61
   5   3   0 2644.58  105.10
   5  -3   0 2543.04  100.13
   5  -3   0 2716.61  100.08
   5  -3   0 2923.21  104.80
   5  -3   1  172.95   16.74
   5   3   1  167.62   18.84
   5   3   1  186.39   21.87
   5  -3   1  187.83   19.80
   5   3   1  187.97   16.51
   5  -3   1  161.01   19.56
   5  -3   1  187.91   23.55
   5  -3   1  182.99   18.73
   5   3   2 1141.51   54.00
   5   3   2  901.46   56.61
   5   3   2 1032.56   48.28
   5  -3   2  919.15   53.71
   5   3   2  916.61   53.21
   5  -3   2 1026.72   74.17
   5  -3   2  947.97   43.86
   5  -3   2 1001.02   64.31
   5   3   3  625.47   43.87
   5  -3   3  711.44   58.62
   5  -3   3  573.30   59.28
   5   5  -4   10.39    6.88
   5  -5  -4   12.28    7.06
   5  -5  -3  166.49   25.93
   5   5  -3  114.89   18.54
   5  -5  -3  110.80   17.52
   5   5  -2 2854.25  120.49
   5   5  -2 2698.24   94.95
   5  -5  -2 2674.94  105.70
   5  -5  -1   81.51   14.34
   5   5  -1   50.48   12.44
   5   5  -1   68.65   12.80
   5   5  -1   70.56   11.69
   5   5  -1   65.96    8.61
   5  -5  -1   75.53   13.20
   5  -5  -1   72.06   13.85
   5   5   0  213.91   12.48
   5   5   0  194.51   22.49
   5   5   0  257.41   22.22
   5   5   0  212.73   18.91
   5  -5   0  228.34   22.98
   5  -5   0  232.69   19.45
   5   5   0  214.79   23.91
   5  -5   0  225.44   22.40
   5  -5   0  221.58   17.92
   5  -5   0  233.03   21.98
   5  -5   0  266.31   25.75
   5   5   1 2493.45  108.26
   5  -5   1 2623.91  107.26
   5  -5   1 2328.05  100.29
   5   5   1 2885.25  116.53
   5   5   1 2827.88   92.46
   5  -5   1 2653.07  107.04
   5   5   1 2777.15   94.14
   5  -5   1 2520.79  100.58
   5  -5   1 2743.16  116.33
   5  -5   2  178.77   28.99
   5   5   2  121.47   18.08
   5   5   2  120.66   18.42
   5  -5   2  129.09   13.28
   5  -5   2  105.88   19.73
   5   5   2  131.05   13.12
   5  -5   2  148.70   19.60
   5  -5   2  126.24   10.90
   5  -5   3  166.24   32.06
   5  -5   3  167.58   29.36
   5   5   3  155.88   22.51
   5   7  -3  258.03   29.32
   5  -7  -3  219.02   25.13
   5   7  -2  153.31   22.17
   5   7  -2  136.13   19.58
   5  -7  -2  122.56   15.21
   5   7  -1  369.47   34.01
   5  -7  -1  392.99   34.19
   5  -7  -1  391.93   34.02
   5  -7  -1  319.17   29.27
   5   7  -1  392.92   17.71
   5   7   0  376.16   34.44
   5   7   0  490.00   33.97
   5   7   0  403.93   30.34
   5  -7   0  406.06   29.59
   5  -7   0  405.63   32.59
   5  -7   0  419.76   28.35
   5  -7   0  363.36   30.64
   5  -7   0  443.28   33.44
   5  -7   0  487.83   37.84
   5  -7   1   39.30   11.07
   5   7   1   26.27    9.46
   5   7   1   28.18    6.87
   5  -7   1   53.48   11.68
   5  -7   1   52.01   11.67
   5   7   1   28.79    5.26
   5  -7   1   36.17    7.64
   5  -7   1   24.32    6.95
   5   7   2  213.13   27.41
   5  -7   2  234.92   30.30
   5  -7   2  217.63   26.02
   5   7   2  194.45   25.15
   5  -7   2  238.71   33.65
   5   7   3  109.75   20.41
   5  -7   3  142.23   31.25
   5  -7   3  159.49   28.97
   5   9  -3  612.75   51.77
   5   9  -3  665.72   49.94
   5  -9  -3  565.67   43.10
   5   9  -2  630.55   49.20
   5   9  -2  619.41   26.14
   5   9  -2  553.04   35.41
   5  -9  -2  770.93   60.06
   5  -9  -2  538.63   42.50
   5   9  -2  726.41   47.37
   5  -9  -2  662.10   38.45
   5   9  -1 1760.91   89.92
   5  -9  -1 1725.57   89.29
   5   9  -1 1621.76   75.41
   5  -9  -1 1666.66   82.34
   5  -9  -1 1725.42   65.90
   5   9  -1 1900.46   64.54
   5   9   0  712.89   52.53
   5   9   0  779.37   48.24
   5  -9   0  826.38   48.42
   5  -9   0  712.45   46.92
   5  -9   0  778.03   48.96
   5  -9   0  708.89   33.62
   5  -9   0  751.39   48.86
   5   9   1  563.98   48.92
   5   9   1  653.39   41.27
   5  -9   1  609.42   36.78
   5  -9   1  712.03   48.06
   5   9   1  693.18   27.77
   5  -9   1  659.17   45.82
   5  -9   1  666.49   37.38
   5   9   1  644.80   47.44
   5  -9   1  662.64   49.35
   5  -9   2 1507.67   80.92
   5   9   2 1555.80   84.16
   5  -9   2 1574.88   94.94
   5  -9   2 1583.03   89.45
   5  11  -3   88.00   20.40
   5 -11  -3   83.51   23.43
   5 -11  -3  101.89   19.93
   5  11  -3   87.36   17.69
   5 -11  -3  120.50   18.99
   5  11  -2  742.31   57.30
   5  11  -2  822.25   40.34
   5 -11  -2  836.93   67.08
   5 -11  -2  676.25   50.57
   5  11  -2  816.16   52.56
   5 -11  -2  783.58   43.33
   5  11  -1  509.54   45.58
   5 -11  -1  516.93   29.50
   5 -11  -1  497.31   44.89
   5 -11  -1  477.81   39.43
   5 -11  -1  541.51   26.42
   5  11  -1  552.67   30.18
   5 -11   0  412.44   37.17
   5  11   0  384.69   40.16
   5 -11   0  374.39   34.72
   5 -11   0  361.45   33.29
   5 -11   0  422.97   36.47
   5 -11   0  397.62   19.51
   5 -11   0  440.09   18.77
   5  11   1  748.29   60.24
   5  11   1  721.19   48.78
   5 -11   1  853.28   56.38
   5 -11   1  912.74   58.41
   5 -11   1  814.20   39.82
   5  11   1  948.30   61.61
   5 -11   1  900.29   60.75
   5  11   2  102.61   20.34
   5 -11   2  163.18   28.38
   5 -11   2  138.51   24.39
   5 -11   2  104.34   19.50
   5  13  -2  351.42   39.95
   5 -13  -2  419.53   49.48
   5 -13  -2  358.83   35.90
   5  13  -2  413.01   36.22
   5  13  -1  413.49   43.82
   5 -13  -1  402.94   42.58
   5 -13  -1  396.75   37.11
   5  13  -1  473.88   31.24
   5 -13   0  619.65   49.53
   5  13   0  596.06   54.30
   5 -13   0  556.27   46.57
   5 -13   0  585.46   46.41
   5  13   0  505.92   45.61
   5  13   1  386.06   45.02
   5 -13   1  358.31   37.31
   5  13   1  372.82   39.41
   5 -13   1  364.17   39.01
   5  13   2  166.24   28.14
   5 -13   2  112.62   24.65
   5 -13   2  213.04   31.84
   5  13   2  130.00   29.05
   5 -13   2  157.97   26.34
   5  15  -2   62.64   17.73
   5 -15  -2   69.27   14.56
   5 -15  -2  114.55   26.98
   5 -15  -2   65.14   16.30
   5  15  -2   52.41   13.18
   5  15  -1   88.74   19.45
   5  15  -1  100.84   22.66
   5  15  -1  110.75   18.53
   5 -15  -1   75.31   19.17
   5 -15  -1  101.07   19.01
   5  15   0  337.98   42.92
   5 -15   0  339.97   38.10
   5 -15   0  357.41   37.28
   5  15   0  311.80   37.48
   5  15   1   94.96   21.05
   5 -15   1   76.32   18.80
   5  15   1   55.07   17.54
   5 -15   1  106.01   20.64
   5  17  -1  590.42   58.56
   5 -17  -1  642.61   61.99
   5 -17  -1  517.24   47.01
   5  17  -1  538.62   41.44
   5  17  -1  522.91   51.40
   5  17   0  640.12   62.84
   5 -17   0  649.60   57.42
   5 -17   0  622.10   53.96
   5  17   0  649.33   58.35
   6   0  -4  122.31   22.76
   6   0  -3 1043.18   62.85
   6   0  -2 2747.96  111.40
   6   0  -1  526.02   36.80
   6   0  -1  561.39   40.04
   6   0  -1  491.47   31.17
   6   0  -1  583.26   27.90
   6   0   0 1710.39   69.14
   6   0   0 1814.82   71.24
   6   0   0 1674.03   76.11
   6   0   0 1845.63   76.25
   6   0   0 1793.91   81.75
   6   0   0 1753.32   74.42
   6   0   1 2081.13   86.30
   6   0   1 1959.36   89.42
   6   0   1 2198.22  104.41
   6   0   1 1898.73   89.47
   6   0   2  428.63   33.43
   6   0   2  444.50   40.38
   6   0   2  414.15   32.99
   6   0   2  465.22   48.91
   6   0   2  440.79   32.31
   6   0   3  225.24   36.22
   6   0   3  224.28   31.93
   6   2  -3  445.27   39.02
   6  -2  -3  427.57   37.12
   6   2  -2  739.25   46.92
   6  -2  -2  644.97   42.18
   6   2  -1   31.16    4.45
   6  -2  -1   55.03   12.16
   6   2  -1   28.61    8.10
   6  -2  -1   42.73    7.66
   6   2  -1   40.93   10.66
   6   2  -1   26.10    7.04
   6  -2  -1   31.35    6.83
   6   2  -1   35.81    3.64
   6  -2   0 1456.28   69.03
   6   2   0 1254.93   66.96
   6  -2   0 1324.70   52.26
   6   2   0 1400.95   61.22
   6  -2   0 1450.36   71.80
   6  -2   0 1237.14   54.29
   6  -2   0 1361.80   65.86
   6   2   0 1299.24   62.14
   6   2   0 1364.80   69.77
   6   2   0 1388.19   63.43
   6  -2   0 1360.63   64.01
   6  -2   0 1484.14   67.49
   6   2   0 1350.09   57.25
   6  -2   1  269.94   27.81
   6   2   1  342.98   31.99
   6  -2   1  283.61   26.54
   6   2   1  340.95   26.41
   6  -2   1  347.86   35.03
   6  -2   2   74.89   19.53
   6   2   2   61.92   12.78
   6  -2   2   69.28   11.23
   6   2   2   95.39   11.59
   6   2   2   78.86   15.77
   6  -2   2   67.07   16.34
   6   2   2   59.17   11.29
   6  -2   2   52.30   12.01
   6   2   3  424.37   44.93
   6  -2   3  520.34   56.71
   6  -2   3  453.59   46.42
   6   4  -3  240.07   28.49
   6  -4  -3  250.87   27.55
   6   4  -2  856.50   52.00
   6  -4  -2  676.70   43.08
   6  -4  -1 1027.08   48.53
   6   4  -1  820.44   54.97
   6   4  -1  935.63   50.11
   6  -4  -1  874.01   41.73
   6   4  -1  890.04   37.77
   6  -4  -1  905.68   53.48
   6   4  -1  958.84   32.67
   6   4   0  469.72   38.05
   6   4   0  530.23   34.73
   6  -4   0  509.92   39.15
   6  -4   0  552.70   31.37
   6  -4   0  455.47   35.31
   6   4   0  474.04   32.03
   6  -4   0  460.99   34.36
   6  -4   0  468.11   28.40
   6   4   0  507.81   25.70
   6  -4   0  587.23   40.49
   6   4   1  791.82   48.94
   6  -4   1  708.09   46.88
   6  -4   1  672.46   46.19
   6  -4   1  751.65   47.70
   6   4   1  807.90   41.56
   6  -4   1  711.43   52.65
   6   4   2  914.19   50.83
   6  -4   2  873.96   61.95
   6   4   2  840.89   43.79
   6  -4   2  750.44   51.32
   6   4   2  751.47   50.86
   6  -4   2  938.39   73.43
   6  -4   2  760.78   40.07
   6   6  -3   19.86    9.20
   6  -6  -3   28.84   10.61
   6   6  -2   72.52   16.09
   6  -6  -2  104.17   14.82
   6   6  -2  109.03   17.72
   6   6  -2   79.62    9.18
   6   6  -1 1733.33   86.65
   6   6  -1 1551.92   65.74
   6  -6  -1 1635.34   80.93
   6  -6  -1 1652.09   70.16
   6   6  -1 1740.24   54.72
   6   6   0  123.22   19.87
   6   6   0  113.59   14.90
   6  -6   0  122.60   15.04
   6  -6   0  119.78   14.11
   6  -6   0  145.85   19.29
   6  -6   0   93.83   16.58
   6  -6   0  127.58   18.08
   6   6   0  112.73    7.67
   6   6   1  212.47   25.76
   6  -6   1  226.74   24.83
   6  -6   1  210.58   23.57
   6   6   1  261.34   18.85
   6  -6   1  234.43   26.08
   6   6   1  247.45   19.55
   6  -6   1  248.71   23.41
   6  -6   1  230.78   28.70
   6   6   2 1157.32   65.60
   6  -6   2 1180.04   75.83
   6   6   2 1089.37   48.22
   6  -6   2 1033.05   64.46
   6   6   2  955.01   62.94
   6  -6   2 1226.48   85.56
   6   8  -3  930.21   62.63
   6  -8  -3  761.01   51.60
   6   8  -2  565.40   47.98
   6   8  -2  513.34   30.89
   6  -8  -2  512.93   42.01
   6   8  -2  665.62   47.80
   6  -8  -2  571.63   36.85
   6   8  -1  711.01   52.97
   6   8  -1  605.73   38.59
   6  -8  -1  706.12   51.01
   6  -8  -1  664.61   48.01
   6  -8  -1  747.81   38.71
   6   8  -1  793.11   30.05
   6   8   0 1795.18   94.09
   6   8   0 1779.35   83.74
   6  -8   0 1948.58   84.77
   6  -8   0 1889.73   80.71
   6  -8   0 1855.28   90.29
   6  -8   0 1931.12   90.56
   6  -8   0 2012.16   91.22
   6   8   1  237.54   29.69
   6   8   1  262.06   22.71
   6  -8   1  253.29   24.44
   6  -8   1  242.28   28.11
   6   8   1  295.75   19.44
   6  -8   1  229.61   26.42
   6  -8   1  261.74   23.91
   6  -8   1  334.06   35.30
   6  -8   2  162.06   29.40
   6   8   2  138.89   23.68
   6  -8   2  162.73   26.65
   6  -8   2  148.14   22.75
   6   8   2  203.48   27.18
   6  10  -3  378.91   42.47
   6 -10  -3  474.94   56.81
   6 -10  -3  310.93   35.89
   6  10  -3  415.55   40.70
   6 -10  -3  352.83   33.04
   6  10  -2  412.13   42.50
   6 -10  -2  582.53   53.93
   6 -10  -2  399.23   38.74
   6  10  -2  528.02   43.35
   6 -10  -2  483.33   32.88
   6  10  -1   65.33   12.23
   6  10  -1   53.96    7.29
   6  10  -1   72.34   17.18
   6 -10  -1   45.37   12.96
   6 -10  -1   51.66   13.06
   6 -10   0  555.79   44.88
   6  10   0  622.60   51.63
   6 -10   0  615.03   44.01
   6 -10   0  554.29   44.39
   6 -10   0  579.90   31.58
   6  10   1  508.04   47.62
   6 -10   1  559.53   46.14
   6 -10   1  530.43   43.52
   6  10   1  566.48   47.55
   6 -10   1  578.99   49.19
   6  10   2   40.74   12.88
   6 -10   2   48.09   15.83
   6  10   2   30.09   11.54
   6 -10   2   48.36   15.98
   6 -10   2   70.97   16.85
   6  12  -2   58.21   16.06
   6 -12  -2   44.79   15.90
   6 -12  -2   67.49   17.04
   6  12  -2   77.30   16.15
   6 -12  -2   66.05   11.46
   6  12  -1 1027.88   72.17
   6 -12  -1  978.15   41.29
   6 -12  -1 1003.14   69.33
   6 -12  -1 1049.20   65.99
   6 -12  -1  909.06   40.23
   6 -12   0   30.81   10.42
   6  12   0   19.70    9.62
   6 -12   0   22.53    8.74
   6 -12   0    8.46    9.64
   6 -12   1   68.05   15.77
   6  12   1  117.42   22.10
   6 -12   1   71.19   17.55
   6  12   1   65.77   18.19
   6 -12   1   83.05   18.35
   6  14  -2  646.84   59.49
   6 -14  -2  832.88   72.75
   6 -14  -2  634.16   53.84
   6  14  -2  665.92   51.68
   6  14  -1  148.63   27.46
   6 -14  -1  132.03   25.39
   6 -14  -1  149.77   24.46
   6  14   0  454.06   49.79
   6 -14   0  483.58   45.29
   6 -14   0  515.85   46.83
   6  14   0  465.21   46.44
   6 -14   1  806.50   65.02
   6  14   1  785.35   68.72
   6 -14   1  913.53   66.45
   6  14   1  824.42   65.09
   6  16  -1  143.76   26.46
   6  16  -1  140.11   27.63
   6 -16  -1  173.42   30.81
   6 -16  -1  146.40   25.74
   6  16   0  105.32   22.92
   6  16   0   57.06   19.34
   6 -16   0   51.39   15.16
   6 -16   0   80.24   18.93
   7   1  -3   44.05   13.11
   7  -1  -3   52.93   13.91
   7   1  -2  596.19   43.52
   7  -1  -2  587.63   42.08
   7  -1  -1 1200.61   50.74
   7  -1  -1 1129.45   62.76
   7   1  -1 1109.30   59.88
   7   1  -1 1024.60   53.55
   7  -1  -1 1024.60   51.62
   7   1  -1 1161.53   46.28
   7  -1   0  117.05   12.97
   7   1   0  120.90   14.91
   7  -1   0  114.31   13.49
   7   1   0  148.34   16.45
   7   1   0  136.94   18.11
   7  -1   0  106.04   16.76
   7   1   0  122.48   16.35
   7  -1   0  115.47   16.29
   7   1   0  113.91   14.83
   7  -1   0  124.63   17.12
   7  -1   1  478.72   38.64
   7  -1   1  468.92   36.90
   7   1   1  449.66   34.82
   7   1   1  455.15   43.80
   7  -1   1  542.05   47.01
   7  -1   1  454.66   37.12
   7  -1   2  596.81   49.60
   7   1   2  675.21   44.31
   7  -1   2  621.87   44.88
   7   1   2  571.06   47.89
   7   1   2  670.92   62.38
   7  -1   2  777.86   68.71
   7   1   2  629.94   44.09
   7  -1   2  625.87   41.58
   7   3  -3   75.81   17.69
   7  -3  -3   96.71   18.33
   7   3  -2 1363.17   71.72
   7  -3  -2 1098.40   62.13
   7  -3  -1 1009.90   48.48
   7   3  -1  872.76   49.76
   7   3  -1  832.75   58.58
   7  -3  -1  820.98   42.61
   7   3  -1  872.71   34.19
   7  -3  -1  889.12   55.51
   7   3  -1 1006.77   37.04
   7  -3   0  606.71   34.43
   7   3   0  587.83   45.92
   7   3   0  630.72   40.31
   7  -3   0  706.11   36.35
   7  -3   0  659.52   45.17
   7   3   0  658.46   41.96
   7   3   0  681.41   42.53
   7  -3   0  683.72   43.96
   7   3   0  662.32   35.14
   7  -3   0  676.47   45.89
   7   3   1  995.70   56.95
   7  -3   1  893.81   59.65
   7  -3   1  943.89   58.53
   7  -3   1  955.99   58.35
   7   3   1 1013.20   53.71
   7  -3   1 1098.05   69.29
   7   3   2  426.87   31.89
   7  -3   2  374.14   36.06
   7  -3   2  376.95   40.33
   7   3   2  369.15   35.06
   7   5  -3 1380.99   79.29
   7  -5  -3 1118.53   68.35
   7   5  -2  219.19   26.72
   7  -5  -2  165.00   20.40
   7  -5  -1  197.99   20.50
   7   5  -1  177.97   18.84
   7   5  -1  175.04   25.98
   7  -5  -1  167.87   14.98
   7  -5  -1  143.57   21.36
   7   5  -1  178.24   10.52
   7   5   0 1635.19   89.40
   7   5   0 1784.75   76.63
   7  -5   0 1989.64   77.66
   7  -5   0 1821.28   88.58
   7   5   0 1886.23   81.37
   7  -5   0 1793.52   74.50
   7  -5   0 1836.75   86.12
   7   5   0 1828.31   65.84
   7   5   1  448.45   38.48
   7  -5   1  424.23   36.45
   7  -5   1  361.52   35.23
   7  -5   1  402.49   36.60
   7   5   1  424.75   30.55
   7  -5   1  437.86   42.14
   7   5   2  157.06   23.89
   7  -5   2  231.93   32.14
   7  -5   2  225.83   28.46
   7   7  -3   46.99   14.39
   7  -7  -3   36.66   11.88
   7   7  -2  277.14   34.12
   7   7  -2  318.42   33.86
   7  -7  -2  256.93   30.10
   7  -7  -2  245.57   24.79
   7   7  -1  263.33   21.82
   7   7  -1  270.64   31.91
   7  -7  -1  253.94   17.32
   7  -7  -1  227.98   27.39
   7  -7  -1  249.28   28.75
   7  -7  -1  257.23   22.85
   7   7  -1  231.36   12.34
   7  -7   0   87.59   16.02
   7   7   0   79.44   17.33
   7   7   0   84.18   14.24
   7  -7   0   86.12   13.37
   7  -7   0  100.29   13.92
   7  -7   0   99.84   18.15
   7   7   0   93.09   14.00
   7   7   1  191.25   27.29
   7  -7   1  213.05   27.75
   7   7   1  217.21   19.45
   7  -7   1  212.70   25.61
   7  -7   1  197.82   28.35
   7   7   2  113.16   21.12
   7  -7   2  141.79   29.02
   7   7   2  143.08   22.19
   7  -7   2  101.83   20.16
   7  -7   2  119.30   23.58
   7  -9  -3  294.82   36.00
   7   9  -3  399.87   41.66
   7  -9  -3  325.12   32.43
   7   9  -2 1209.82   80.07
   7  -9  -2 1311.28   85.87
   7  -9  -2 1171.87   73.82
   7   9  -2 1413.25   79.88
   7  -9  -2 1296.12   64.28
   7   9  -1  393.55   41.39
   7  -9  -1  366.78   37.32
   7   9  -1  301.47   26.54
   7  -9  -1  326.46   35.06
   7  -9  -1  407.12   27.96
   7   9   0  297.37   35.54
   7  -9   0  338.40   30.24
   7  -9   0  267.73   31.11
   7  -9   0  312.09   33.25
   7   9   1 1190.01   79.08
   7  -9   1 1501.95   83.66
   7  -9   1 1366.07   76.74
   7   9   1 1465.96   84.44
   7  -9   1 1414.42   85.27
   7  11  -2   59.50   17.67
   7 -11  -2   82.35   20.72
   7 -11  -2   80.15   18.49
   7  11  -2   73.07   17.09
   7 -11  -2   81.07   13.37
   7  11  -1  512.51   49.71
   7 -11  -1  442.76   43.65
   7 -11  -1  535.62   46.88
   7 -11  -1  479.74   29.35
   7 -11   0  519.93   46.26
   7  11   0  480.71   48.69
   7 -11   0  568.07   44.16
   7 -11   0  548.81   47.53
   7  11   1   -6.84    6.15
   7 -11   1   -2.29    3.41
   7 -11   1    6.18    6.32
   7  11   1    9.61    8.46
   7 -11   1   -5.46    6.15
   7  13  -2  188.94   32.44
   7 -13  -2  261.83   38.69
   7  13  -2  252.47   32.50
   7 -13  -2  193.51   29.77
   7  13  -1  431.84   47.69
   7 -13  -1  371.31   42.71
   7 -13  -1  403.35   42.35
   7 -13   0  545.62   49.85
   7  13   0  563.37   54.71
   7 -13   0  460.40   43.00
   7 -13   0  500.47   48.00
   7  13   0  459.12   46.87
   8   0  -3 1390.01   80.83
   8   0  -2  199.30   25.38
   8   0  -1  209.80   21.33
   8   0  -1  209.07   25.95
   8   0  -1  276.60   20.41
   8   0   0 1631.40   72.63
   8   0   0 1583.50   83.05
   8   0   0 1872.82   74.56
   8   0   0 1824.77   82.76
   8   0   0 1843.42   81.85
   8   0   1  328.42   33.17
   8   0   1  333.84   32.70
   8   0   1  401.50   42.00
   8   0   2  118.57   19.03
   8   0   2  101.97   20.68
   8   0   2  112.20   19.39
   8   2  -3  150.45   24.47
   8  -2  -3  127.29   22.10
   8   2  -2  122.71   20.29
   8  -2  -2   90.98   16.45
   8  -2  -1 1262.51   56.73
   8   2  -1 1039.61   60.03
   8  -2  -1  996.14   52.48
   8  -2  -1 1128.92   67.90
   8   2  -1 1256.17   48.46
   8   2   0  100.82   15.26
   8  -2   0   84.70   15.51
   8   2   0   81.44   12.77
   8  -2   0   81.81   11.46
   8   2   0   87.23   13.81
   8  -2   0   71.97   10.20
   8   2   0   86.79   13.48
   8  -2   0   73.86   15.17
   8   2   0   65.07   13.85
   8   2   1  187.28   28.65
   8  -2   1  174.61   28.03
   8   2   1  196.02   21.80
   8  -2   1  209.00   26.07
   8  -2   1  192.59   25.43
   8   2   1  173.78   22.33
   8   2   1  178.78   23.98
   8   2   2  362.79   32.37
   8  -2   2  345.65   35.67
   8   2   2  299.15   35.15
   8  -2   2  363.67   40.61
   8   2   2  360.89   46.94
   8  -2   2  459.24   54.03
   8   2   2  330.13   34.26
   8   4  -3  338.79   38.09
   8  -4  -3  289.53   32.86
   8   4  -2  965.77   62.32
   8  -4  -2  805.42   53.38
   8  -4  -1  426.30   31.87
   8   4  -1  396.44   31.58
   8   4  -1  409.86   41.78
   8  -4  -1  425.82   39.03
   8   4  -1  396.36   20.47
   8   4   0  355.54   37.41
   8  -4   0  410.85   27.63
   8  -4   0  359.02   35.69
   8   4   0  368.83   32.48
   8  -4   0  401.06   27.42
   8   4   0  433.93   34.05
   8  -4   0  367.48   33.60
   8   4   1 1034.78   62.32
   8  -4   1  964.86   61.85
   8  -4   1  992.25   64.48
   8   4   1 1075.59   58.16
   8   4   1 1050.82   72.81
   8  -4   1  974.15   69.73
   8   6  -3  141.63   25.34
   8  -6  -3  108.61   20.92
   8   6  -2  820.25   59.24
   8  -6  -2  817.83   58.91
   8  -6  -2  707.97   48.43
   8   6  -1  247.99   33.11
   8  -6  -1  200.91   25.45
   8  -6  -1  212.01   27.87
   8   6   0  274.39   34.28
   8  -6   0  339.49   27.29
   8  -6   0  346.15   26.95
   8  -6   0  333.61   34.76
   8   6   0  336.66   30.36
   8   6   0  356.39   31.34
   8  -6   0  319.97   32.39
   8  -6   1  682.73   50.25
   8   6   1  742.92   55.27
   8  -6   1  784.16   57.07
   8   6   1  702.69   43.80
   8  -6   1  776.13   60.64
   8   8  -2  246.32   34.00
   8  -8  -2  212.98   29.33
   8   8  -2  225.62   30.27
   8  -8  -2  204.17   23.45
   8   8  -1 1377.39   87.50
   8  -8  -1 1408.59   81.02
   8  -8  -1 1462.49   84.23
   8  -8  -1 1493.31   69.98
   8  -8   0   72.59   15.77
   8   8   0   60.70   17.07
   8  -8   0   67.99   13.08
   8  -8   0   78.00   16.80
   8   8   0   77.25   14.22
   8  -8   1  138.96   25.05
   8   8   1  126.42   23.91
   8  -8   1   89.12   17.83
   8  -8   1  138.07   24.04
   8  10  -2    3.50    9.85
   8 -10  -2   15.01    9.82
   8 -10  -2   -0.29    3.34
   8  10  -2   -0.06    3.17
   8  10  -1  309.85   39.25
   8 -10  -1  234.82   31.07
   8 -10  -1  284.54   34.71
   8 -10  -1  242.98   22.67
   8 -10   0  469.47   44.29
   8  10   0  440.82   46.97
   8 -10   0  495.84   39.86
   8 -10   0  523.30   47.94
   8  10   0  478.67   35.22
   8 -10   1   16.80    9.17
   8  10   1    4.96    6.20
   8 -10   1   14.50    7.23
   8  10   1   -4.37    5.86
   8 -10   1   22.99   10.85
   8  12  -1  107.16   25.22
   8 -12  -1   75.48   17.98
   8 -12  -1  102.43   21.92
   8 -12   0  152.86   25.77
   8  12   0  152.94   27.86
   8 -12   0  160.47   27.24
   9   1  -2  695.31   53.34
   9  -1  -2  739.36   53.80
   9  -1  -1   41.27    8.63
   9  -1  -1   42.02   12.15
   9   1  -1   33.77   12.13
   9   1   0  228.66   21.47
   9  -1   0  239.02   28.83
   9   1   0  194.75   25.76
   9   1   0  233.91   25.67
   9  -1   0  252.23   27.24
   9   1   1  861.86   58.13
   9  -1   1  870.85   59.11
   9  -1   1  761.87   57.16
   9   1   1  791.49   56.12
   9   1   1  884.09   67.93
   9  -1   1  979.22   70.55
   9   3  -2  260.82   32.27
   9  -3  -2  324.50   37.47
   9  -3  -2  283.41   31.30
   9  -3  -1  887.16   49.50
   9  -3  -1  840.02   60.57
   9   3  -1  757.61   55.94
   9   3   0  392.56   31.34
   9  -3   0  341.92   36.14
   9   3   0  313.57   32.35
   9   3   0  420.82   34.44
   9  -3   0  340.07   33.40
   9   3   1  160.54   28.49
   9  -3   1  120.03   25.04
   9  -3   1  122.93   20.61
   9   3   1  105.10   19.86
   9  -3   1  117.65   21.39
   9   3   1  116.73   19.75
   9  -5  -2  103.24   20.65
   9   5  -2  129.35   23.09
   9  -5  -2  109.44   19.46
   9  -5  -1 1060.08   59.68
   9   5  -1 1015.48   74.90
   9  -5  -1 1041.72   62.84
   9  -5  -1 1071.50   70.66
   9   5   0  497.97   48.72
   9  -5   0  567.99   48.13
   9   5   0  516.34   41.46
   9   5   0  614.09   42.71
   9  -5   0  472.03   42.12
   9  -5   1  245.27   29.82
   9  -5   1  299.70   35.70
   9   5   1  274.41   27.95
   9   5   1  269.41   36.31
   9  -5   1  259.49   35.48
   9  -7  -2  159.62   22.72
   9  -7  -2  135.01   25.39
   9   7  -2  161.09   26.99
   9   7  -1   95.91   21.48
   9  -7  -1   80.36   16.64
   9  -7  -1   66.12   16.98
   9  -7  -1   66.83   14.09
   9  -7   0  164.99   24.61
   9   7   0  165.25   28.79
   9   7   0  156.43   21.71
   9  -7   0  195.31   28.64
   9   9  -1  140.59   29.67
   9  -9  -1  169.50   25.68
   9  -9  -1  161.07   26.59
  10   0  -1 1564.45   90.98
  10   0   0  252.68   31.55
  10  -2  -1   27.85   11.61
  10   2  -1   26.42   10.50
   0   0   0    0.00    0.00



TITL Tb-1 in Cm
REM Cm (#8 in standard setting)
CELL 0.71073   7.954872  15.770930   3.481332  90.0000 100.2270  90.0000
ZERR    2.00   0.000699   0.001366   0.000331   0.0000   0.0091   0.0000
LATT -7
SYMM  x,-y, z
SFAC C H N O
UNIT 22.00 20.00 2.00 2.00
TREF
HKLF 4
END
_computing_structure_solution     'SHELXT 2014/5 (Sheldrick, 2014)'
_computing_structure_solution     'SHELXT 2014/5 (Sheldrick, 2014)'
;
_shelx_hkl_checksum              55867
_olex2_submission_special_instructions 'No special instructions were received'
loop_
_space_group_symop_operation_xyz
'x, y, z'
'x, -y, z'
'x+1/2, y+1/2, z'
'x+1/2, -y+1/2, z'
loop_
_atom_site_label
_atom_site_type_symbol
_atom_site_fract_x
_atom_site_fract_y
_atom_site_fract_z
_atom_site_U_iso_or_equiv
_atom_site_adp_type
_atom_site_occupancy
_atom_site_site_symmetry_order
_atom_site_calc_flag
_atom_site_refinement_flags_posn
_atom_site_refinement_flags_adp
_atom_site_refinement_flags_occupancy
_atom_site_disorder_assembly
_atom_site_disorder_group
Tb1 Tb 0.85016(13) 0.5000 0.4982(3) 0.0174(3) Uani 1 2 d S T P . .
Cd1 Cd 0.61627(14) 0.17862(6) 0.1420(3) 0.0108(3) Uani 1 1 d . . . . .
Cd2 Cd 0.49794(12) 0.38790(6) 0.8359(3) 0.0087(3) Uani 1 1 d . . . . .
B1 B 0.304(2) 0.1956(10) 0.582(5) 0.006(3) Uani 1 1 d . U . . .
B2 B 0.733(3) 0.0000 0.207(8) 0.010(4) Uani 1 2 d S TU P . .
O1 O 0.1461(17) 0.1771(9) 0.390(4) 0.030(3) Uani 1 1 d . . . . .
O2 O 0.3278(19) 0.2701(8) 0.798(4) 0.030(3) Uani 1 1 d . . . . .
O3 O 0.4424(15) 0.1445(8) 0.580(3) 0.018(3) Uani 1 1 d . . . . .
O4 O 0.555(2) 0.0000 0.091(6) 0.021(4) Uani 1 2 d S TU P . .
O5 O 0.8125(13) 0.0752(7) 0.263(3) 0.013(2) Uani 1 1 d . . . . .
O6 O 0.676(2) 0.5000 0.922(5) 0.014(3) Uani 1 2 d S T P . .
loop_
_atom_site_aniso_label
_atom_site_aniso_U_11
_atom_site_aniso_U_22
_atom_site_aniso_U_33
_atom_site_aniso_U_23
_atom_site_aniso_U_13
_atom_site_aniso_U_12
Tb1 0.0114(5) 0.0286(7) 0.0123(5) 0.000 0.0023(4) 0.000
Cd1 0.0114(5) 0.0125(5) 0.0092(5) -0.0008(4) 0.0037(4) 0.0007(4)
Cd2 0.0074(5) 0.0104(5) 0.0083(5) -0.0002(4) 0.0013(4) -0.0016(4)
B1 0.006(4) 0.005(4) 0.006(4) 0.002(4) 0.002(4) 0.002(4)
B2 0.010(6) 0.011(6) 0.009(6) 0.000 0.001(4) 0.000
O1 0.020(7) 0.054(9) 0.015(6) -0.007(6) 0.005(6) -0.019(6)
O2 0.044(8) 0.017(6) 0.038(9) -0.015(6) 0.032(7) -0.015(6)
O3 0.018(6) 0.020(6) 0.019(6) 0.003(5) 0.010(5) 0.011(5)
O4 0.020(5) 0.022(5) 0.021(5) 0.000 0.002(4) 0.000
O5 0.012(5) 0.014(6) 0.012(6) 0.002(4) -0.002(4) -0.002(4)
O6 0.013(8) 0.018(8) 0.010(8) 0.000 -0.001(6) 0.000
loop_
_atom_type_symbol
_atom_type_description
_atom_type_scat_dispersion_real
_atom_type_scat_dispersion_imag
_atom_type_scat_source
B B 0.0013 0.0007 'International Tables Vol C Tables 4.2.6.8 and 6.1.1.4'
Cd Cd -0.8075 1.2024 'International Tables Vol C Tables 4.2.6.8 and 6.1.1.4'
Tb Tb -0.1723 4.1537 'International Tables Vol C Tables 4.2.6.8 and 6.1.1.4'
O O 0.0106 0.0060 'International Tables Vol C Tables 4.2.6.8 and 6.1.1.4'
loop_
_geom_angle_atom_site_label_1
_geom_angle_atom_site_label_2
_geom_angle_atom_site_label_3
_geom_angle
_geom_angle_site_symmetry_1
_geom_angle_site_symmetry_3
_geom_angle_publ_flag
Tb1 Tb1 Tb1 180.0 1_554 1_556 ?
Tb1 Tb1 Cd2 62.94(2) 1_556 . ?
Tb1 Tb1 Cd2 61.10(2) 1_554 2_564 ?
Tb1 Tb1 Cd2 117.06(2) 1_554 2_565 ?
Tb1 Tb1 Cd2 118.90(2) 1_556 1_554 ?
Tb1 Tb1 Cd2 62.94(2) 1_556 2_565 ?
Tb1 Tb1 Cd2 118.90(2) 1_556 2_564 ?
Tb1 Tb1 Cd2 117.06(2) 1_554 . ?
Tb1 Tb1 Cd2 61.10(2) 1_554 1_554 ?
Cd2 Tb1 Cd2 55.959(19) . 1_554 ?
Cd2 Tb1 Cd2 83.94(3) 2_565 1_554 ?
Cd2 Tb1 Cd2 55.959(19) 2_565 2_564 ?
Cd2 Tb1 Cd2 83.94(3) . 2_564 ?
Cd2 Tb1 Cd2 56.40(3) 1_554 2_564 ?
Cd2 Tb1 Cd2 57.46(3) 2_565 . ?
O3 Tb1 Tb1 93.7(3) 4 1_554 ?
O3 Tb1 Tb1 93.7(3) 3 1_554 ?
O3 Tb1 Tb1 86.3(3) 3 1_556 ?
O3 Tb1 Tb1 86.3(3) 4 1_556 ?
O3 Tb1 Cd2 74.9(3) 3 2_565 ?
O3 Tb1 Cd2 78.7(3) 4 1_554 ?
O3 Tb1 Cd2 130.8(3) 3 . ?
O3 Tb1 Cd2 74.9(3) 4 . ?
O3 Tb1 Cd2 134.7(3) 3 1_554 ?
O3 Tb1 Cd2 78.7(3) 3 2_564 ?
O3 Tb1 Cd2 134.7(3) 4 2_564 ?
O3 Tb1 Cd2 130.8(3) 4 2_565 ?
O3 Tb1 O3 144.1(6) 3 4 ?
O4 Tb1 Tb1 136.8(5) 3 1_556 ?
O4 Tb1 Tb1 138.0(5) 3_556 1_554 ?
O4 Tb1 Tb1 43.2(5) 3 1_554 ?
O4 Tb1 Tb1 42.0(5) 3_556 1_556 ?
O4 Tb1 Cd2 99.4(4) 3_556 2_565 ?
O4 Tb1 Cd2 148.47(19) 3_556 2_564 ?
O4 Tb1 Cd2 98.8(4) 3 2_564 ?
O4 Tb1 Cd2 147.6(2) 3 . ?
O4 Tb1 Cd2 147.6(2) 3 2_565 ?
O4 Tb1 Cd2 99.4(4) 3_556 . ?
O4 Tb1 Cd2 148.5(2) 3_556 1_554 ?
O4 Tb1 Cd2 98.8(4) 3 1_554 ?
O4 Tb1 O3 80.8(3) 3 3 ?
O4 Tb1 O3 80.8(3) 3 4 ?
O4 Tb1 O3 75.5(3) 3_556 3 ?
O4 Tb1 O3 75.5(3) 3_556 4 ?
O4 Tb1 O4 94.8(7) 3 3_556 ?
O6 Tb1 Tb1 38.4(4) . 1_556 ?
O6 Tb1 Tb1 142.2(4) 1_554 1_556 ?
O6 Tb1 Tb1 37.8(4) 1_554 1_554 ?
O6 Tb1 Tb1 141.6(4) . 1_554 ?
O6 Tb1 Cd2 85.5(4) . 1_554 ?
O6 Tb1 Cd2 34.7(2) . . ?
O6 Tb1 Cd2 84.2(4) 1_554 . ?
O6 Tb1 Cd2 85.5(4) . 2_564 ?
O6 Tb1 Cd2 33.5(2) 1_554 1_554 ?
O6 Tb1 Cd2 84.2(4) 1_554 2_565 ?
O6 Tb1 Cd2 34.7(2) . 2_565 ?
O6 Tb1 Cd2 33.5(2) 1_554 2_564 ?
O6 Tb1 O3 103.7(3) 1_554 4 ?
O6 Tb1 O3 97.8(3) . 4 ?
O6 Tb1 O3 97.8(3) . 3 ?
O6 Tb1 O3 103.7(3) 1_554 3 ?
O6 Tb1 O4 175.2(6) . 3 ?
O6 Tb1 O4 80.4(6) . 3_556 ?
O6 Tb1 O4 81.0(6) 1_554 3 ?
O6 Tb1 O4 175.8(7) 1_554 3_556 ?
O6 Tb1 O6 103.8(7) . 1_554 ?
B1 Cd1 O2 100.8(4) 4 1_554 ?
B1 Cd1 O4 143.9(5) 4 . ?
O1 Cd1 B1 29.0(5) 4 4 ?
O1 Cd1 O2 54.2(4) 4 4 ?
O1 Cd1 O2 71.9(4) 4 1_554 ?
O1 Cd1 O4 161.6(5) 4 . ?
O2 Cd1 B1 29.4(4) 4 4 ?
O2 Cd1 B1 71.0(5) 4_554 4 ?
O2 Cd1 O1 80.0(5) 4_554 4 ?
O2 Cd1 O2 86.2(5) 4_554 4 ?
O2 Cd1 O2 123.2(2) 4 1_554 ?
O2 Cd1 O2 102.1(4) 4_554 1_554 ?
O2 Cd1 O4 111.3(4) 1_554 . ?
O2 Cd1 O4 115.7(5) 4_554 . ?
O2 Cd1 O4 114.8(5) 4 . ?
O3 Cd1 B1 97.5(5) . 4 ?
O3 Cd1 B1 146.9(5) 1_554 4 ?
O3 Cd1 O1 90.9(4) . 4 ?
O3 Cd1 O1 122.6(4) 1_554 4 ?
O3 Cd1 O2 91.4(5) 1_554 4_554 ?
O3 Cd1 O2 176.3(4) 1_554 4 ?
O3 Cd1 O2 168.2(5) . 4_554 ?
O3 Cd1 O2 82.4(4) . 4 ?
O3 Cd1 O2 54.6(4) 1_554 1_554 ?
O3 Cd1 O2 81.9(4) . 1_554 ?
O3 Cd1 O3 99.9(5) 1_554 . ?
O3 Cd1 O4 72.1(5) . . ?
O3 Cd1 O4 68.8(5) 1_554 . ?
O5 Cd1 B1 97.3(4) . 4 ?
O5 Cd1 O1 126.4(4) . 4 ?
O5 Cd1 O2 75.6(4) . 4 ?
O5 Cd1 O2 161.2(4) . 1_554 ?
O5 Cd1 O2 79.1(4) . 4_554 ?
O5 Cd1 O3 106.8(4) . 1_554 ?
O5 Cd1 O3 100.7(4) . . ?
O5 Cd1 O4 53.3(4) . . ?
Tb1 Cd2 Tb1 55.959(19) . 1_556 ?
O1 Cd2 Tb1 58.7(4) 4_556 1_556 ?
O1 Cd2 Tb1 59.8(4) 4 . ?
O1 Cd2 Tb1 100.1(4) 4_556 . ?
O1 Cd2 Tb1 101.8(4) 4 1_556 ?
O1 Cd2 O1 96.7(5) 4_556 4 ?
O1 Cd2 O5 167.0(5) 4 4_456 ?
O1 Cd2 O5 166.9(5) 4_556 4_455 ?
O1 Cd2 O5 82.3(4) 4_556 4_456 ?
O2 Cd2 Tb1 148.0(3) . . ?
O2 Cd2 Tb1 142.1(4) . 1_556 ?
O2 Cd2 O1 84.1(6) . 4_556 ?
O2 Cd2 O1 88.2(5) . 4 ?
O2 Cd2 O5 82.9(5) . 4_455 ?
O2 Cd2 O5 78.8(4) . 4_456 ?
O5 Cd2 Tb1 133.1(3) 4_456 . ?
O5 Cd2 Tb1 134.4(3) 4_455 1_556 ?
O5 Cd2 Tb1 88.8(3) 4_456 1_556 ?
O5 Cd2 Tb1 90.5(3) 4_455 . ?
O5 Cd2 O1 81.9(4) 4_455 4 ?
O5 Cd2 O5 96.1(4) 4_455 4_456 ?
O6 Cd2 Tb1 33.1(4) . 1_556 ?
O6 Cd2 Tb1 33.8(4) . . ?
O6 Cd2 O1 91.2(5) . 4_556 ?
O6 Cd2 O1 93.1(5) . 4 ?
O6 Cd2 O2 175.2(6) . . ?
O6 Cd2 O5 99.9(5) . 4_456 ?
O6 Cd2 O5 101.8(5) . 4_455 ?
O1 B1 Cd1 61.2(9) . 4_455 ?
O1 B1 O2 118.5(14) . . ?
O1 B1 O3 123.5(15) . . ?
O2 B1 Cd1 72.7(9) . 4_455 ?
O3 B1 Cd1 140.9(11) . 4_455 ?
O3 B1 O2 118.0(14) . . ?
O5 B2 O4 118.0(11) . . ?
O5 B2 O4 118.0(11) 2 . ?
O5 B2 O5 124(2) . 2 ?
Cd2 O1 Cd1 128.0(6) 4_455 4_455 ?
Cd2 O1 Cd1 96.6(5) 4_454 4_455 ?
Cd2 O1 Cd2 96.7(5) 4_454 4_455 ?
B1 O1 Cd1 89.8(10) . 4_455 ?
B1 O1 Cd2 107.5(10) . 4_455 ?
B1 O1 Cd2 143.3(11) . 4_454 ?
Cd2 O2 Cd1 99.2(5) . 4_456 ?
B1 O2 Cd1 121.4(10) . 4_456 ?
B1 O2 Cd2 137.6(10) . . ?
Cd1 O3 Tb1 117.3(5) 1_556 3_445 ?
Cd1 O3 Tb1 110.6(5) . 3_445 ?
Cd1 O3 Cd1 99.9(5) 1_556 . ?
B1 O3 Tb1 109.4(10) . 3_445 ?
B1 O3 Cd1 116.4(9) . . ?
B1 O3 Cd1 103.1(9) . 1_556 ?
Tb1 O4 Tb1 94.8(6) 3_445 3_444 ?
Tb1 O4 Cd1 95.3(4) 3_445 . ?
Tb1 O4 Cd1 97.8(4) 3_444 . ?
B2 O4 Tb1 127.0(15) . 3_445 ?
B2 O4 Tb1 138.2(15) . 3_444 ?
B2 O4 Cd1 80.1(4) . . ?
Cd1 O5 Cd2 107.0(4) . 4 ?
Cd1 O5 Cd2 101.3(4) . 4_554 ?
Cd2 O5 Cd2 96.1(4) 4 4_554 ?
B2 O5 Cd1 108.6(12) . . ?
B2 O5 Cd2 117.5(13) . 4_554 ?
B2 O5 Cd2 123.7(13) . 4 ?
Tb1 O6 Tb1 103.8(7) . 1_556 ?
Tb1 O6 Cd2 111.5(5) . 2_565 ?
Tb1 O6 Cd2 113.4(5) 1_556 . ?
Tb1 O6 Cd2 113.4(5) 1_556 2_565 ?
Tb1 O6 Cd2 111.5(5) . . ?
Cd2 O6 Cd2 103.5(6) 2_565 . ?
loop_
_geom_bond_atom_site_label_1
_geom_bond_atom_site_label_2
_geom_bond_distance
_geom_bond_site_symmetry_2
_geom_bond_publ_flag
Tb1 Tb1 3.4813(3) 1_554 ?
Tb1 Tb1 3.4813(3) 1_556 ?
Tb1 Cd2 3.7413(13) 1_554 ?
Tb1 Cd2 3.6781(13) . ?
Tb1 Cd2 3.6781(13) 2_565 ?
Tb1 Cd2 3.7413(13) 2_564 ?
Tb1 O3 2.395(12) 4 ?
Tb1 O3 2.395(13) 3 ?
Tb1 O4 2.338(19) 3 ?
Tb1 O4 2.391(19) 3_556 ?
Tb1 O6 2.226(16) 1_554 ?
Tb1 O6 2.199(17) . ?
Cd1 B1 2.775(16) 4 ?
Cd1 O1 2.431(15) 4 ?
Cd1 O2 2.710(16) 4 ?
Cd1 O2 2.373(13) 4_554 ?
Cd1 O2 2.793(16) 1_554 ?
Cd1 O3 2.251(12) 1_554 ?
Cd1 O3 2.298(12) . ?
Cd1 O4 2.860(3) . ?
Cd1 O5 2.246(11) . ?
Cd2 Tb1 3.7414(13) 1_556 ?
Cd2 O1 2.345(14) 4 ?
Cd2 O1 2.313(13) 4_556 ?
Cd2 O2 2.288(12) . ?
Cd2 O5 2.334(10) 4_455 ?
Cd2 O5 2.346(11) 4_456 ?
Cd2 O6 2.251(10) . ?
B1 Cd1 2.775(16) 4_455 ?
B1 O1 1.35(2) . ?
B1 O2 1.39(2) . ?
B1 O3 1.364(18) . ?
B2 O4 1.40(3) . ?
B2 O5 1.343(16) . ?
B2 O5 1.343(16) 2 ?
O1 Cd1 2.431(15) 4_455 ?
O1 Cd2 2.345(14) 4_455 ?
O1 Cd2 2.313(13) 4_454 ?
O2 Cd1 2.373(13) 4_456 ?
O3 Tb1 2.395(12) 3_445 ?
O3 Cd1 2.251(12) 1_556 ?
O4 Tb1 2.338(19) 3_445 ?
O4 Tb1 2.391(19) 3_444 ?
O5 Cd2 2.334(10) 4 ?
O5 Cd2 2.346(11) 4_554 ?
O6 Tb1 2.226(16) 1_556 ?
O6 Cd2 2.251(10) 2_565 ?
loop_
_twin_individual_id
_twin_individual_mass_fraction_refined
1 0.84(3)
2 0.16(3)
