#------------------------------------------------------------------------------
#$Date: 2022-03-05 01:31:18 +0200 (Sat, 05 Mar 2022) $
#$Revision: 273441 $
#$URL: file:///home/coder/svn-repositories/cod/cif/7/24/45/7244570.cif $
#------------------------------------------------------------------------------
#
# This file is available in the Crystallography Open Database (COD),
# http://www.crystallography.net/
#
# All data on this site have been placed in the public domain by the
# contributors.
#
data_7244570
loop_
_publ_author_name
'Cao, Ming-Yang'
'Hu, Chun-Li'
'Chen, Peng-Fei'
'Wang, Qian'
'Li, Bing-Xuan'
'Lin, Yuan'
'Mao, Jiang-Gao'
_publ_section_title
;
 Cd4REO(BO3)3 (RE = Sm, Eu, Tb): three new cadmium--rare earth oxyborates
 with both good NLO and luminescence properties
;
_journal_name_full               CrystEngComm
_journal_paper_doi               10.1039/D2CE00080F
_journal_year                    2022
_chemical_formula_moiety         '0.5(B6 Cd8 Eu2 O20)'
_chemical_formula_sum            'B3 Cd4 Eu O10'
_chemical_formula_weight         793.99
_space_group_crystal_system      monoclinic
_space_group_IT_number           8
_space_group_name_Hall           'C -2y'
_space_group_name_H-M_alt        'C 1 m 1'
_atom_sites_solution_primary     iterative
_audit_creation_date             2021-09-29
_audit_creation_method
;
Olex2 1.2-alpha
(compiled 2018.07.26 svn.r3523 for OlexSys, GUI svn.r5532)
;
_audit_update_record
;
2022-01-03 deposited with the CCDC.	2022-02-11 downloaded from the CCDC.
;
_cell_angle_alpha                90
_cell_angle_beta                 100.186(11)
_cell_angle_gamma                90
_cell_formula_units_Z            2
_cell_length_a                   7.9673(9)
_cell_length_b                   15.7619(17)
_cell_length_c                   3.4932(4)
_cell_measurement_reflns_used    1930
_cell_measurement_temperature    293(2)
_cell_measurement_theta_max      30.0440
_cell_measurement_theta_min      2.8400
_cell_volume                     431.76(8)
_computing_molecular_graphics    'Olex2 (Dolomanov et al., 2009)'
_computing_publication_material  'Olex2 (Dolomanov et al., 2009)'
_computing_structure_refinement  'ShelXL (Sheldrick, 2015)'
_computing_structure_solution    'olex2.solve (Bourhis et al., 2015)'
_diffrn_ambient_temperature      293(2)
_diffrn_measured_fraction_theta_full 1.000
_diffrn_measured_fraction_theta_max 1.000
_diffrn_measurement_device_type  CCD
_diffrn_measurement_method       'phi and omega scans'
_diffrn_radiation_monochromator  graphite
_diffrn_radiation_type           MoK\a
_diffrn_radiation_wavelength     0.71073
_diffrn_reflns_av_R_equivalents  0.0434
_diffrn_reflns_av_unetI/netI     0.0449
_diffrn_reflns_Laue_measured_fraction_full 1.000
_diffrn_reflns_Laue_measured_fraction_max 1.000
_diffrn_reflns_limit_h_max       10
_diffrn_reflns_limit_h_min       -10
_diffrn_reflns_limit_k_max       20
_diffrn_reflns_limit_k_min       -20
_diffrn_reflns_limit_l_max       4
_diffrn_reflns_limit_l_min       -4
_diffrn_reflns_number            2851
_diffrn_reflns_point_group_measured_fraction_full 1.000
_diffrn_reflns_point_group_measured_fraction_max 1.000
_diffrn_reflns_theta_full        25.242
_diffrn_reflns_theta_max         27.101
_diffrn_reflns_theta_min         2.584
_exptl_absorpt_coefficient_mu    16.891
_exptl_absorpt_correction_T_max  1.00000
_exptl_absorpt_correction_T_min  0.51607
_exptl_absorpt_correction_type   multi-scan
_exptl_absorpt_process_details
;
CrysAlisPro 1.171.39.9f (Rigaku Oxford Diffraction, 2015)
Empirical absorption correction using spherical harmonics,
 implemented in SCALE3 ABSPACK scaling algorithm.
;
_exptl_crystal_colour            colourless
_exptl_crystal_colour_primary    colourless
_exptl_crystal_density_diffrn    6.107
_exptl_crystal_description       block
_exptl_crystal_F_000             700
_exptl_crystal_size_max          0.5
_exptl_crystal_size_mid          0.3
_exptl_crystal_size_min          0.3
_refine_diff_density_max         1.505
_refine_diff_density_min         -1.642
_refine_diff_density_rms         0.298
_refine_ls_abs_structure_details
;
 Refined as an inversion twin.
;
_refine_ls_abs_structure_Flack   0.15(4)
_refine_ls_extinction_coef       0.0122(10)
_refine_ls_extinction_expression Fc^*^=kFc[1+0.001xFc^2^\l^3^/sin(2\q)]^-1/4^
_refine_ls_extinction_method     'SHELXL-2014/7 (Sheldrick 2014'
_refine_ls_goodness_of_fit_ref   1.064
_refine_ls_hydrogen_treatment    undef
_refine_ls_matrix_type           full
_refine_ls_number_parameters     90
_refine_ls_number_reflns         973
_refine_ls_number_restraints     20
_refine_ls_restrained_S_all      1.054
_refine_ls_R_factor_all          0.0297
_refine_ls_R_factor_gt           0.0293
_refine_ls_shift/su_max          0.000
_refine_ls_shift/su_mean         0.000
_refine_ls_structure_factor_coef Fsqd
_refine_ls_weighting_details
'w=1/[\s^2^(Fo^2^)+(0.0439P)^2^+5.0781P] where P=(Fo^2^+2Fc^2^)/3'
_refine_ls_weighting_scheme      calc
_refine_ls_wR_factor_gt          0.0756
_refine_ls_wR_factor_ref         0.0758
_reflns_Friedel_coverage         0.980
_reflns_Friedel_fraction_full    1.000
_reflns_Friedel_fraction_max     1.000
_reflns_number_gt                962
_reflns_number_total             973
_reflns_threshold_expression     'I > 2\s(I)'
_cod_data_source_file            d2ce00080f1.cif
_cod_data_source_block           Cd4EuO(BO3)3
_cod_database_code               7244570
_shelx_shelxl_version_number     2014/7
_shelx_space_group_comment
;
The symmetry employed for this shelxl refinement is uniquely defined
by the following loop, which should always be used as a source of
symmetry information in preference to the above space-group names.
They are only intended as comments.
;
_shelx_estimated_absorpt_t_max   0.081
_shelx_estimated_absorpt_t_min   0.043
_olex2_refinement_description
;
1. Twinned data refinement
 Scales: 0.85(4)
 0.15(4)
2. Uiso/Uaniso restraints and constraints
Uanis(B1) \\sim Ueq, Uanis(B2) \\sim Ueq, Uanis(O4) \\sim Ueq: with sigma of
0.003 and sigma for terminal atoms of 0.006
;
_shelx_res_file
;
    a.res created by SHELXL-2014/7


TITL EuCd4O(BO3)3 in Cm
REM Old TITL A in Cm
REM SHELXT solution in Cm
REM R1 0.061, Rweak 0.047, Alpha 0.001, Orientation as input
REM Flack x = 0.186 ( 0.021 ) from Parsons' quotients
REM Formula found by SHELXT: B4 O6 Cd4 Eu
CELL 0.71073 7.9673 15.7619 3.4932 90 100.186 90
ZERR 2 0.0009 0.0017 0.0004 0 0.011 0
LATT -7
SYMM +X,-Y,+Z
SFAC B Cd Eu O
UNIT 6 8 2 20
ISOR 0.003 0.006 B1 B2 O4

L.S. 10 0 0
PLAN  10
SIZE 0.3 0.3 0.5
list 4
fmap 2 53
acta
TWIN -1 0 0 0 -1 0 0 0 -1 2
REM <olex2.extras>
REM <HklSrc "%.\\A.hkl">
REM </olex2.extras>
eqiv $1 x, y, -1+z
bind cd1 O2_$1
eqiv $2 0.5+x, 0.5-y, z
bind cd1 O2_$2
bind cd1 o4
WGHT    0.043900    5.078100
EXTI    0.012156
BASF   0.15309
FVAR       0.33530
EU1   3    0.849000    0.500000    0.496999    10.50000    0.01142    0.02712 =
         0.01393    0.00000    0.00179    0.00000
CD1   2    0.616899    0.178355    0.143569    11.00000    0.00994    0.01255 =
         0.00917   -0.00083    0.00369    0.00088
CD2   2    0.498321    0.387713    0.835631    11.00000    0.00778    0.00999 =
         0.00812    0.00012    0.00039   -0.00119
B1    1    0.305715    0.197121    0.590336    11.00000    0.00518    0.00507 =
         0.00544    0.00088    0.00093    0.00307
B2    1    0.729697    0.000000    0.204379    10.50000    0.01109    0.01152 =
         0.00911    0.00000    0.00277    0.00000
O1    4    0.146996    0.178195    0.385408    11.00000    0.01535    0.04723 =
         0.01933   -0.00729    0.00380   -0.01563
O2    4    0.324759    0.271049    0.795383    11.00000    0.03161    0.01783 =
         0.03155   -0.01664    0.02714   -0.01563
O3    4    0.445146    0.146124    0.582139    11.00000    0.01320    0.02437 =
         0.01821    0.00384    0.00889    0.00888
O4    4    0.557664    0.000000    0.098768    10.50000    0.01677    0.01980 =
         0.01453    0.00000    0.00365    0.00000
O5    4    0.812911    0.075306    0.263553    11.00000    0.01333    0.01150 =
         0.00685    0.00420   -0.00123   -0.00209
O6    4    0.673255    0.500000    0.919543    10.50000    0.01051    0.00989 =
         0.00979    0.00000   -0.00351    0.00000

HKLF 4

REM  EuCd4O(BO3)3 in Cm
REM R1 =  0.0293 for     962 Fo > 4sig(Fo)  and  0.0297 for all     973 data
REM     90 parameters refined using     20 restraints

END

WGHT      0.0439      5.1189

REM Highest difference peak  1.505,  deepest hole -1.642,  1-sigma level  0.298
Q1    1   0.7327  0.5000  0.5775  10.50000  0.05    1.51
Q2    1   0.5520  0.1801  0.1911  11.00000  0.05    1.08
Q3    1   0.7185  0.1656  0.0719  11.00000  0.05    0.96
Q4    1   0.9610  0.5146  0.4158  11.00000  0.05    0.95
Q5    1   0.3944  0.3844  0.8786  11.00000  0.05    0.95
Q6    1   0.6086  0.3959  0.7707  11.00000  0.05    0.94
Q7    1   0.5317  0.0000 -0.1451  10.50000  0.05    0.91
Q8    1   0.4635  0.0599 -0.0741  11.00000  0.05    0.91
Q9    1   0.6144  0.1568  0.0281  11.00000  0.05    0.86
Q10   1   0.7983  0.5000  0.8166  10.50000  0.05    0.85
;
_shelx_res_checksum              18279
_shelx_hkl_file
;
 -10   0   0  642.15   82.82
 -10   0   1 2501.83  165.81
 -10   2   0  504.73   77.56
 -10  -2   0  439.01   68.18
 -10  -2   1   71.36   27.48
 -10   2   1   31.55   17.72
  -9   1  -1 1528.42  126.33
  -9  -1  -1 1572.77  129.06
  -9   1   0  530.46   66.84
  -9  -1   0  474.74   64.65
  -9  -1   1  157.32   33.90
  -9   1   1  107.88   30.32
  -9  -1   2 1133.74  105.11
  -9   1   2 1075.88   99.89
  -9   3  -1  379.84   61.49
  -9  -3  -1  518.98   68.48
  -9   3   0  727.83   83.55
  -9  -3   0  710.79   82.92
  -9   3   1 1256.27  101.81
  -9  -3   1 1263.64  103.55
  -9  -3   2  721.34   84.46
  -9   3   2  605.67   74.48
  -9  -5  -1  722.79   83.80
  -9   5  -1  621.22   76.89
  -9  -5   0  904.35   87.67
  -9   5   0  891.35   88.77
  -9   5   1 1817.14  126.31
  -9  -5   1 1848.57  132.55
  -9  -5   2  244.64   49.68
  -9   5   2  189.04   41.45
  -9  -7   0  372.15   54.49
  -9   7   0  307.89   52.52
  -9   7   1   77.57   28.35
  -9  -7   1  190.43   42.19
  -9  -7   2  293.43   60.77
  -9   7   2  277.36   51.36
  -9  -9   0 2001.45  137.35
  -9   9   0 1678.54  123.10
  -9   9   1  191.39   37.22
  -9  -9   1  255.46   50.73
  -8   0  -2  259.62   49.60
  -8   0  -1  955.53   90.59
  -8   0   0 3049.88  170.69
  -8   0   1  598.83   63.42
  -8   0   2  555.55   68.67
  -8   0   3 2342.61  170.77
  -8   2  -2  684.47   78.31
  -8  -2  -2  633.41   75.71
  -8   2  -1  234.05   47.44
  -8  -2  -1  235.81   42.07
  -8   2   0  194.55   39.39
  -8  -2   0  210.01   39.31
  -8  -2   1 2016.62  125.82
  -8   2   1 1912.41  121.55
  -8  -2   2   88.71   27.53
  -8   2   2  134.06   34.44
  -8  -2   3  253.87   59.71
  -8   2   3  225.37   53.96
  -8   4  -1 1766.72  125.66
  -8  -4  -1 1812.00  127.81
  -8  -4   0  937.34   81.88
  -8   4   0  953.50   85.96
  -8  -4   1  611.23   65.46
  -8   4   1  507.91   56.99
  -8  -4   2 1517.62  118.95
  -8   4   2 1211.60  100.70
  -8   4   3  450.15   70.12
  -8  -4   3  727.41   92.23
  -8   6  -1 1293.27  106.07
  -8  -6  -1 1550.73  115.35
  -8   6   0  531.49   61.75
  -8  -6   0  591.00   64.66
  -8  -6   1  353.00   49.25
  -8   6   1  313.72   46.93
  -8   6   2 1590.60  114.34
  -8  -6   2 1714.29  133.53
  -8  -6   3  239.80   63.39
  -8   8  -1  140.89   36.14
  -8  -8  -1  225.32   43.19
  -8   8   0  113.88   29.73
  -8  -8   0   78.26   31.13
  -8   8   1 2486.89  140.85
  -8  -8   1 2579.66  157.42
  -8  -8   2  430.73   66.36
  -8   8   2  308.51   45.46
  -8  10  -1   56.56   21.79
  -8 -10  -1   54.66   24.41
  -8  10   0  705.82   67.53
  -8 -10   0  706.42   72.48
  -8  10   1  485.46   54.14
  -8 -10   1  502.57   65.24
  -8 -10   2   61.80   33.61
  -8  12   0  254.00   38.76
  -8 -12   0  319.33   48.72
  -8 -12   1  182.22   40.01
  -7   1  -2 1015.85   89.41
  -7  -1  -2 1020.50   89.81
  -7  -1  -1  821.77   75.07
  -7   1  -1  899.77   80.03
  -7   1  -1  864.29   46.35
  -7   1   0  362.35   46.86
  -7  -1   0  389.29   48.65
  -7   1   1 1569.09  100.84
  -7  -1   1 1634.10  102.34
  -7  -1   2 1005.54   90.86
  -7   1   2 1057.41   89.78
  -7  -1   3   90.88   35.95
  -7   1   3   97.59   37.82
  -7   3  -2  975.35   89.18
  -7  -3  -2 1023.27   89.63
  -7   3  -1 1627.85  111.32
  -7  -3  -1 1647.95  110.32
  -7   3  -1 1412.74   68.76
  -7   3   0 1035.08   81.13
  -7  -3   0 1047.36   80.96
  -7  -3   1 1799.78  111.35
  -7   3   1 1734.50  106.26
  -7  -3   2 2019.60  135.22
  -7   3   2 1737.85  120.30
  -7  -3   3  156.23   47.50
  -7   5  -2  453.98   57.38
  -7  -5  -2  407.84   54.96
  -7   5  -1  807.08   75.11
  -7  -5  -1  690.74   68.97
  -7  -5   0 3116.49  161.44
  -7   5   0 3095.16  161.02
  -7  -5   1  364.71   45.38
  -7   5   1  336.62   42.63
  -7  -5   2  371.16   57.62
  -7   5   2  317.68   45.11
  -7  -5   3 2316.12  169.90
  -7   7  -2  201.99   42.67
  -7  -7  -2  174.50   39.32
  -7  -7  -1  423.07   52.10
  -7   7  -1  356.76   50.07
  -7   7   0  251.00   25.41
  -7   7   0  182.54   32.65
  -7  -7   0  178.26   32.46
  -7  -7   1  474.61   56.10
  -7   7   1  479.36   34.87
  -7   7   1  378.69   45.41
  -7   7   2  439.87   53.06
  -7  -7   2  552.70   69.79
  -7  -9  -1 2633.77  150.18
  -7   9  -1 2387.58  140.69
  -7  -9   0  485.24   55.00
  -7   9   0  536.05   53.66
  -7   9   1  668.57   57.55
  -7   9   1  587.41   48.21
  -7  -9   1  589.75   64.83
  -7   9   2 2429.06  124.12
  -7   9   2 2035.46  124.71
  -7  -9   2 2520.38  166.66
  -7  11  -1    1.10    9.56
  -7 -11  -1   36.10   16.50
  -7  11   0  948.61   73.60
  -7  11   0  984.00   75.31
  -7 -11   0  816.58   76.32
  -7  11   1  742.23   58.17
  -7  11   1  824.15   66.89
  -7 -11   1  794.61   79.37
  -7  11   2  159.78   30.71
  -7 -11   2  115.05   43.02
  -7  13   0  830.05   66.58
  -7 -13   0  777.54   74.83
  -7  13   0  740.99   70.43
  -7  13   1  843.58   78.21
  -7 -13   1  866.23   88.60
  -7  13   2  430.87   54.55
  -7 -13   2  291.13   56.52
  -6   0  -3  528.84   63.97
  -6   0  -2  946.96   68.99
  -6   0  -2 1031.18   83.07
  -6   0  -1 2810.97  152.48
  -6   0  -1 3072.35  123.07
  -6   0   0 3249.95  155.49
  -6   0   1 1025.97   72.16
  -6   0   2 4390.51  214.99
  -6   2  -3  983.92   90.73
  -6   2  -3  839.82   94.73
  -6  -2  -3  844.83   84.27
  -6   2  -2   62.56   19.48
  -6  -2  -2   82.46   22.30
  -6   2  -2   21.69   19.71
  -6  -2  -2   51.43   21.69
  -6  -2  -1  562.71   40.46
  -6   2  -1  536.30   36.77
  -6   2  -1  529.81   57.31
  -6  -2  -1  558.73   57.75
  -6  -2   0 2038.32  113.63
  -6   2   0 2155.46  116.30
  -6  -2   1   43.96   20.68
  -6   2   1   32.27   17.02
  -6   2   2 1241.38   95.74
  -6  -2   2 1338.67  101.98
  -6   4  -2 1339.42   97.60
  -6  -4  -2 1207.36   92.59
  -6   4  -1 1476.29   70.75
  -6  -4  -1 1368.56   93.30
  -6  -4  -1 1340.79   76.85
  -6   4  -1 1317.48   93.77
  -6  -4   0  675.17   60.32
  -6   4   0  721.44   60.36
  -6   4   0  705.85   32.44
  -6  -4   1 1462.15   93.33
  -6   4   1 1379.00   84.69
  -6  -4   2 1722.88  120.74
  -6   4   2 1651.32  110.81
  -6  -6  -2 1703.77  114.78
  -6   6  -2 1928.34  121.63
  -6   6  -2 1721.63  125.91
  -6  -6  -1  350.52   34.03
  -6  -6  -1  313.67   40.93
  -6   6  -1  373.83   46.83
  -6   6   0  274.21   36.44
  -6  -6   0  261.73   36.20
  -6   6   0  315.64   29.80
  -6  -6   0  268.87   24.11
  -6   6   1 2704.79  136.03
  -6   6   1 3089.01  124.03
  -6  -6   1 3062.21  155.07
  -6   6   2  126.58   30.05
  -6  -6   2  193.72   39.47
  -6   8  -2  360.03   49.49
  -6   8  -2  308.52   52.47
  -6  -8  -2  267.54   40.46
  -6  -8  -1  428.32   49.36
  -6   8  -1  420.53   48.45
  -6   8   0 3281.99  141.76
  -6   8   0 2980.30  145.72
  -6  -8   0 2780.15  148.71
  -6  -8   1 1327.83   94.97
  -6   8   1 1391.37   81.27
  -6   8   2  900.66   68.77
  -6   8   2 1079.29   79.00
  -6  -8   2 1071.26   94.05
  -6  10  -2  107.31   34.99
  -6 -10  -2  115.71   27.13
  -6  10  -2   91.74   30.41
  -6 -10  -1  705.94   64.43
  -6  10  -1  724.98   63.15
  -6  10   0 1099.29   73.79
  -6 -10   0 1046.32   59.41
  -6  10   0 1104.35   75.62
  -6 -10   0 1022.42   78.21
  -6 -10   1  122.40   31.52
  -6  10   1  129.99   20.52
  -6  10   1  138.27   28.56
  -6 -10   1  134.71   12.96
  -6 -10   2  702.87   77.23
  -6  10   2  691.39   62.52
  -6  10   2  634.73   53.98
  -6 -12  -1  155.71   29.35
  -6  12  -1  103.43   23.26
  -6 -12  -1  116.08   25.92
  -6 -12   0   23.30   12.04
  -6  12   0   57.33   15.74
  -6 -12   0   66.46   20.16
  -6  12   0   44.16   22.04
  -6 -12   1 1864.53  125.09
  -6  12   1 1656.58   85.98
  -6  12   1 1883.97  118.14
  -6 -12   2   67.20   26.82
  -6  12   2  111.97   32.58
  -6 -14  -1 1581.79  105.19
  -6  14  -1 1441.75   91.97
  -6 -14  -1 1495.82  100.00
  -6  14   0  761.01   55.91
  -6 -14   0  587.34   62.90
  -6 -14   0  706.59   64.17
  -6  14   0  503.23   62.59
  -6  14   1  254.33   45.56
  -6 -14   1  182.86   40.18
  -6  14   2 1355.81  110.25
  -6 -16   0  137.89   30.69
  -6  16   0  174.17   39.61
  -6 -16   0  178.85   38.03
  -6 -16   1  323.65   43.73
  -6  16   1  282.52   55.57
  -6 -16   1  253.19   46.63
  -5   1  -3  693.96   81.38
  -5  -1  -3  723.58   71.98
  -5  -1  -3  648.42   78.64
  -5   1  -2 1398.85   86.42
  -5   1  -2 1408.13   96.51
  -5  -1  -2 1469.46   97.62
  -5   1  -2 1492.29  107.61
  -5  -1  -2 1405.01   87.81
  -5  -1  -2 1633.21   90.68
  -5  -1  -1  434.52   33.84
  -5  -1  -1  521.86   50.69
  -5   1  -1  468.66   49.84
  -5   1  -1  465.39   33.26
  -5  -1   0 2580.96  124.47
  -5   1   0 2726.87  126.00
  -5   1   1 2350.38  114.35
  -5  -1   1 2315.89  115.90
  -5  -1   2  244.33   40.68
  -5   1   2  265.98   41.89
  -5  -3  -3 1281.32   98.49
  -5   3  -3 1431.87  122.45
  -5  -3  -2 1387.58   94.80
  -5  -3  -2 1430.11   90.14
  -5   3  -2 1532.46  110.04
  -5   3  -2 1410.05   85.37
  -5  -3  -1  176.24   23.04
  -5   3  -1  266.30   35.29
  -5  -3  -1  222.70   33.66
  -5  -3  -1  217.09   24.71
  -5   3  -1  224.48   34.83
  -5  -3   0 3890.62  167.99
  -5   3   0 4119.10  168.64
  -5   3   0 3843.31  136.37
  -5   3   1 1909.70   97.32
  -5  -3   1 1878.21  103.01
  -5   3   2   84.50   27.38
  -5  -3   2   75.35   31.18
  -5  -3   3 2736.91  102.63
  -5   5  -3  274.27   58.66
  -5  -5  -3  192.94   35.34
  -5  -5  -2  202.92   34.39
  -5   5  -2  251.20   47.82
  -5  -5  -1 3993.49  179.38
  -5   5  -1 3811.77  180.00
  -5  -5  -1 4189.23  166.58
  -5   5   0  473.88   42.83
  -5  -5   0  362.16   26.53
  -5  -5   0  432.17   42.51
  -5   5   1  175.11   20.98
  -5  -5   1  159.30   28.87
  -5   5   1  206.81   26.07
  -5   5   2 5033.43  224.53
  -5  -5   2 4803.76  231.69
  -5  -5   3  204.20   14.37
  -5   7  -3  173.40   45.97
  -5  -7  -3  152.22   33.87
  -5   7  -2  288.77   49.09
  -5  -7  -2  265.25   40.26
  -5  -7  -1   51.85   20.00
  -5   7  -1   89.72   24.96
  -5   7  -1   94.46   28.91
  -5  -7  -1  108.61   19.06
  -5  -7   0  535.83   49.22
  -5   7   0  624.95   50.04
  -5  -7   0  560.98   36.07
  -5  -7   1  522.11   52.03
  -5   7   1  532.44   42.60
  -5  -7   1  530.64   22.94
  -5   7   1  531.90   42.99
  -5   7   2  181.64   31.49
  -5   7   2  148.22   26.31
  -5  -7   2  116.09   30.73
  -5  -9  -2 2428.35  128.51
  -5   9  -2 2342.33  146.79
  -5  -9  -2 2215.83  127.50
  -5   9  -1 1255.31   83.05
  -5  -9  -1 1298.42   81.16
  -5   9  -1 1236.08   88.89
  -5  -9  -1 1445.38   87.88
  -5   9   0 1223.85   72.91
  -5  -9   0 1254.13   79.60
  -5  -9   0 1121.13   71.81
  -5   9   1 2698.00  118.17
  -5   9   1 2537.32  132.38
  -5  -9   1 2768.27  100.80
  -5  -9   1 2695.60  145.08
  -5   9   2 1204.25   84.65
  -5  -9   2 1269.59   99.22
  -5  11  -2  262.12   48.65
  -5 -11  -2  339.17   43.21
  -5 -11  -2  299.35   40.41
  -5 -11  -1 1502.25   91.92
  -5 -11  -1 1613.85   94.93
  -5  11  -1 1306.31   85.75
  -5  11  -1 1455.34   95.27
  -5  11   0  657.84   47.68
  -5  11   0  529.30   54.20
  -5 -11   0  646.31   52.85
  -5 -11   0  578.02   41.69
  -5 -11   0  616.48   54.76
  -5  11   1  859.46   72.61
  -5 -11   1  818.86   58.91
  -5 -11   1  896.26   45.83
  -5  11   1  934.35   51.88
  -5 -11   1  889.50   75.48
  -5 -11   2 1248.47   53.71
  -5 -11   2 1140.21   97.90
  -5  11   2 1240.45   92.56
  -5  11   3  143.76   37.18
  -5  13  -2  173.99   41.24
  -5 -13  -2  216.68   38.21
  -5 -13  -2  151.38   27.98
  -5 -13  -1  550.74   51.14
  -5  13  -1  563.12   54.78
  -5  13  -1  505.73   48.42
  -5 -13  -1  536.41   55.45
  -5  13   0  801.94   73.21
  -5  13   0 1130.30   64.13
  -5 -13   0 1070.76   74.32
  -5 -13   0  898.58   58.60
  -5 -13   0  963.21   73.51
  -5 -13   1  598.20   52.49
  -5  13   1  613.88   34.97
  -5  13   1  664.20   68.96
  -5 -13   1  628.08   65.34
  -5  13   2  616.29   69.63
  -5 -15  -1  117.07   29.77
  -5 -15  -1  134.02   26.03
  -5  15  -1  131.02   23.93
  -5 -15   0  716.15   63.16
  -5 -15   0  651.69   62.95
  -5 -15   1  146.68   32.08
  -5 -15   1  175.20   29.67
  -5  15   1  133.84   41.17
  -5  15   2   87.02   33.14
  -5 -17   0 1216.55   91.13
  -5 -17   0 1158.88   91.05
  -5 -17   1  915.03   76.04
  -5 -17   1  825.22   84.20
  -5  17   1  971.54   94.55
  -4   0  -3  836.17   84.19
  -4   0  -2 2838.67  157.74
  -4   0  -2 2935.44  140.69
  -4   0  -2 3031.35  137.69
  -4   0  -1 4446.70  183.88
  -4   0  -1 4063.45  164.43
  -4   0   0 1487.28   76.35
  -4   0   1 4816.11  191.82
  -4   0   2 4261.42  199.80
  -4   0   3  252.20   24.78
  -4   0   4  442.53   42.03
  -4  -2  -3   35.28   19.62
  -4   2  -3   52.85   24.19
  -4  -2  -2 1116.66   74.28
  -4  -2  -2 1063.21   64.81
  -4   2  -2 1052.62   69.22
  -4  -2  -2 1044.50   83.15
  -4   2  -2 1148.01   91.69
  -4  -2  -2  997.01   74.87
  -4  -2  -1  884.37   61.56
  -4   2  -1 1013.44   67.32
  -4   2  -1  894.17   69.21
  -4  -2  -1  945.67   54.76
  -4  -2  -1  876.35   52.68
  -4   2  -1 1103.46   66.67
  -4  -2   0  426.54   35.47
  -4   2   0  422.96   35.97
  -4  -2   1 3763.41  158.40
  -4   2   1 3603.72  151.08
  -4  -2   2  944.44   38.98
  -4   2   2  891.86   73.20
  -4  -2   2  886.33   74.98
  -4   2   3  289.77   27.92
  -4  -2   3  290.76   24.91
  -4  -2   4  853.15   58.44
  -4   2   4  813.69   59.96
  -4  -4  -3  770.65   71.51
  -4  -4  -3  781.63   80.72
  -4  -4  -2 2158.02  100.01
  -4  -4  -2 2251.91  119.63
  -4  -4  -2 2030.51  114.12
  -4   4  -2 2098.58  133.25
  -4  -4  -1  575.63   41.67
  -4  -4  -1  490.09   40.34
  -4   4  -1  538.97   53.87
  -4  -4  -1  576.86   48.16
  -4   4  -1  661.75   51.61
  -4   4   0 2963.76  119.30
  -4  -4   0 2831.02  121.43
  -4  -4   1 4142.56  164.57
  -4   4   1 3755.06  148.85
  -4   4   2  593.04   56.55
  -4  -4   2  596.24   61.58
  -4  -4   2  571.55   24.70
  -4   4   3 1535.07   82.02
  -4  -4   3 1656.02   72.70
  -4   4   4  728.72   58.08
  -4  -6  -3 1505.11  102.90
  -4   6  -3 1742.44  132.77
  -4  -6  -2  133.84   25.26
  -4   6  -2  168.22   38.92
  -4  -6  -2  176.79   28.66
  -4  -6  -1  499.05   43.33
  -4  -6  -1  500.73   40.95
  -4   6  -1  593.43   51.70
  -4  -6  -1  486.57   41.15
  -4   6  -1  525.00   52.52
  -4  -6  -1  545.56   42.35
  -4  -6   0 3774.55  148.90
  -4  -6   0 4111.78  161.03
  -4  -6   0 4263.56  169.78
  -4   6   0 4356.92  165.23
  -4   6   1   67.96   16.62
  -4  -6   1   58.66   18.39
  -4   6   1   75.57   15.22
  -4  -6   1   54.86    5.60
  -4   6   2  678.43   54.99
  -4  -6   2  685.00   66.78
  -4  -6   2  805.21   33.36
  -4  -6   3 2584.60  104.79
  -4  -8  -3  673.54   65.23
  -4   8  -3  833.80   90.26
  -4  -8  -2  775.31   62.08
  -4   8  -2  677.95   71.48
  -4  -8  -2  773.47   60.43
  -4  -8  -1 2268.99  112.04
  -4  -8  -1 2169.37  109.01
  -4  -8  -1 2494.39  111.85
  -4   8  -1 2188.66  123.37
  -4  -8   0 1949.17   97.85
  -4  -8   0 1893.37   91.33
  -4   8   0 1919.71   90.00
  -4  -8   0 1760.21   80.76
  -4   8   1 2047.49   85.12
  -4  -8   1 1912.67   72.46
  -4  -8   1 2065.45  109.40
  -4  -8   2 1674.05   66.21
  -4  -8   2 1501.28  106.61
  -4   8   2 1421.72   92.33
  -4  -8   3  727.95   42.76
  -4 -10  -3  102.73   25.76
  -4 -10  -3  124.88   31.41
  -4  10  -3  136.12   42.62
  -4 -10  -2  697.36   57.68
  -4  10  -2  768.31   76.67
  -4 -10  -2  770.95   63.49
  -4  10  -1 1739.31  105.84
  -4 -10  -1 1786.28   97.02
  -4 -10  -1 1814.39   96.21
  -4  10   0  278.63   27.98
  -4 -10   0  259.74   30.87
  -4 -10   0  267.56   31.56
  -4 -10   0  234.66   25.37
  -4 -10   1  566.85   43.25
  -4  10   1  699.70   38.94
  -4  10   1  637.74   56.78
  -4 -10   1  503.75   52.44
  -4 -10   1  580.42   36.02
  -4  10   2 1316.89   94.23
  -4 -10   2 1636.77   72.02
  -4  10   3   18.69   14.84
  -4 -10   3   22.41    8.04
  -4 -12  -2   62.88   22.76
  -4  12  -2   92.89   35.63
  -4 -12  -2   99.66   22.23
  -4  12  -1  140.19   29.46
  -4 -12  -1  221.44   32.25
  -4 -12  -1  172.30   25.48
  -4 -12   0 2303.30  116.05
  -4 -12   0 2200.29  106.48
  -4 -12   0 2359.95  119.74
  -4  12   0 2482.04  104.85
  -4  12   1   48.40   23.40
  -4 -12   1   59.02   16.72
  -4 -12   1   49.11   20.54
  -4  12   2   84.55   28.80
  -4  12   3 1338.55  106.27
  -4 -14  -2 1613.17   92.45
  -4 -14  -2 1558.53  105.14
  -4  14  -2 1471.23  111.86
  -4  14  -1  958.75   70.70
  -4 -14  -1  849.78   67.91
  -4 -14  -1  850.43   61.80
  -4  14   0  111.56   16.22
  -4 -14   0  134.56   25.21
  -4 -14   0  122.70   25.36
  -4  14   0   75.53   27.52
  -4 -14   1 2488.45  139.00
  -4  14   1 2156.59  140.29
  -4 -14   1 2297.00  116.71
  -4 -14   1 2201.93  107.00
  -4 -14   2 1479.59   78.79
  -4  14   2 1335.47  108.12
  -4  16  -1  450.59   42.63
  -4  16  -1  439.37   45.22
  -4 -16  -1  483.68   53.59
  -4  16   0  320.87   49.51
  -4 -16   0  419.55   46.44
  -4 -16   0  379.20   45.80
  -4  16   1  139.25   37.77
  -4 -16   1  129.75   26.67
  -4  16   2  524.37   70.35
  -4  18   0  144.62   43.13
  -4 -18   0   79.72   25.16
  -4 -18   1  483.18   52.40
  -4  18   1  446.41   68.35
  -3  -1  -3 1548.32  117.68
  -3   1  -3 1564.42  119.25
  -3  -1  -2  393.15   53.16
  -3  -1  -2  472.88   40.21
  -3  -1  -2  496.63   43.27
  -3  -1  -2  451.77   42.79
  -3   1  -2  450.44   55.99
  -3   1  -2  409.07   38.88
  -3  -1  -1 2015.34   89.42
  -3  -1  -1 2174.76   99.35
  -3   1  -1 2041.56   94.77
  -3  -1  -1 2155.03  105.32
  -3   1  -1 2106.75  107.07
  -3  -1  -1 1814.52   88.19
  -3  -1  -1 1925.12   87.36
  -3  -1   0 3086.08  125.96
  -3   1   0 3286.47  126.14
  -3   1   1  257.83   26.56
  -3  -1   1  247.13   27.91
  -3   1   2  488.11   31.27
  -3  -1   2  477.83   28.21
  -3   1   3 2739.69  121.93
  -3  -1   3 2903.86  120.08
  -3   1   4   17.86   12.74
  -3  -1   4   12.61   12.09
  -3  -3  -3  576.66   65.10
  -3  -3  -3  646.86   51.40
  -3   3  -3  697.16   76.19
  -3  -3  -2  156.70   20.66
  -3  -3  -2  208.52   30.10
  -3  -3  -2  170.40   33.89
  -3   3  -2  183.12   41.40
  -3  -3  -1 6420.25  230.52
  -3   3  -1 5971.79  249.16
  -3   3  -1 6455.51  242.04
  -3  -3  -1 6212.52  236.18
  -3  -3  -1 6267.88  232.24
  -3  -3   0 1893.27   80.89
  -3   3   0 1811.55   76.92
  -3   3   1 1690.53   75.84
  -3  -3   1 1622.42   82.10
  -3   3   2 3341.29  128.14
  -3  -3   2 3112.55  116.16
  -3  -3   3 1053.99   57.53
  -3   3   3 1040.59   63.05
  -3   3   4  580.91   51.90
  -3  -3   4  525.18   45.77
  -3  -5  -3  129.41   31.53
  -3   5  -3  191.38   41.45
  -3  -5  -2 4993.35  198.39
  -3   5  -2 4817.94  226.72
  -3  -5  -2 4808.10  180.13
  -3  -5  -2 5189.94  213.93
  -3  -5  -2 4702.43  201.69
  -3  -5  -1  976.73   61.51
  -3  -5  -1 1012.66   60.11
  -3  -5  -1  994.04   57.33
  -3   5  -1 1040.08   72.43
  -3  -5   0  538.84   35.40
  -3  -5   0  632.50   41.43
  -3   5   0  548.93   36.68
  -3  -5   0  525.27   30.52
  -3   5   1 7319.70  257.78
  -3   5   1 7483.76  254.91
  -3  -5   1 6844.86  234.64
  -3  -5   1 7570.66  272.52
  -3  -5   2 1718.12   69.47
  -3   5   2 1621.48   89.77
  -3   5   3  172.07   25.92
  -3  -5   3  186.96   21.14
  -3  -5   4 1815.48   94.65
  -3   5   4 1554.87   98.03
  -3  -7  -3  256.55   36.30
  -3   7  -3  361.46   56.50
  -3  -7  -3  265.60   37.21
  -3   7  -2   59.00   26.84
  -3  -7  -2   34.93   18.08
  -3  -7  -2   21.23   14.02
  -3   7  -1  434.05   45.56
  -3  -7  -1  442.89   35.45
  -3  -7  -1  428.72   36.14
  -3   7  -1  482.53   45.18
  -3  -7  -1  358.32   32.64
  -3  -7   0 1109.66   56.43
  -3  -7   0 1220.63   66.36
  -3   7   0 1203.37   60.59
  -3   7   1  583.63   35.31
  -3  -7   1  476.71   27.41
  -3  -7   1  503.92   45.59
  -3  -7   1  508.42   32.34
  -3   7   2  381.63   41.42
  -3  -7   2  470.91   30.14
  -3  -7   3  729.24   47.00
  -3   7   3  696.94   55.53
  -3   7   4  212.79   33.88
  -3  -7   4  218.67   28.71
  -3  -9  -3 1311.69   88.93
  -3  -9  -3 1417.80   94.96
  -3   9  -2 1557.45  108.45
  -3  -9  -2 1562.58   86.83
  -3  -9  -2 1532.90   89.65
  -3  -9  -1 1731.56   91.40
  -3  -9  -1 1997.87   92.52
  -3   9  -1 1838.12  104.62
  -3  -9  -1 1927.37   95.38
  -3   9   0 2161.82   92.60
  -3  -9   0 2193.48  102.60
  -3   9   0 2128.69   93.93
  -3  -9   0 2011.92   96.86
  -3  -9   1 1893.63  103.92
  -3  -9   1 1736.57   78.15
  -3   9   1 1825.81  100.98
  -3   9   1 1910.28   73.28
  -3  -9   2 2306.61   98.69
  -3   9   2 2040.74  118.79
  -3   9   3  655.31   66.66
  -3  -9   3  690.90   48.02
  -3 -11  -3  651.36   57.29
  -3 -11  -3  688.46   65.79
  -3  11  -3  666.71   77.22
  -3 -11  -2 1370.26   78.25
  -3 -11  -2 1371.92   86.41
  -3  11  -2 1235.38   98.36
  -3  11  -1  240.33   34.23
  -3 -11  -1  211.25   29.40
  -3 -11  -1  274.41   29.09
  -3 -11   0 1899.74   95.86
  -3 -11   0 1957.76   99.29
  -3  11   0 2235.78  110.14
  -3  11   0 1913.78   84.90
  -3  11   0 1939.62   86.02
  -3 -11   0 2111.40   96.11
  -3 -11   1 1056.64   76.72
  -3 -11   1 1088.53   62.27
  -3  11   1 1188.80   83.69
  -3 -11   2  319.99   24.83
  -3  11   2  254.46   41.07
  -3  11   3 1404.88  106.40
  -3 -11   3 1469.43   82.11
  -3 -13  -2  570.38   45.73
  -3  13  -2  528.00   62.12
  -3 -13  -2  513.37   52.88
  -3 -13  -1 1916.58   92.80
  -3 -13  -1 1803.71  101.86
  -3  13  -1 1829.05  106.01
  -3 -13   0 1057.47   69.28
  -3 -13   0 1089.07   71.79
  -3 -13   0 1147.94   69.04
  -3  13   0 1133.95   54.57
  -3 -13   1 1226.01   68.23
  -3  13   1 1100.12   88.97
  -3 -13   1 1110.49   68.13
  -3 -13   2 1693.11   81.08
  -3  13   2 1608.49  115.29
  -3  13   3  403.94   59.14
  -3 -13   3  410.52   42.19
  -3 -15  -2  136.09   31.79
  -3  15  -2   86.08   32.72
  -3 -15  -1  979.32   61.95
  -3 -15  -1  926.49   72.09
  -3  15  -1  892.09   69.20
  -3 -15   0  172.21   28.13
  -3  15   0  174.61   38.75
  -3  15   0  192.21   17.17
  -3 -15   0  175.65   29.45
  -3 -15   1  232.91   29.86
  -3  15   1  258.76   45.10
  -3 -15   2  709.72   51.10
  -3  15   2  734.40   77.52
  -3 -17  -1  534.52   56.67
  -3  17   0 1679.79  127.77
  -3 -17   0 1639.52  103.09
  -3  17   1  189.16   38.80
  -3 -17   1  113.12   23.25
  -3  17   2  377.66   63.92
  -3 -19   0  460.23   56.91
  -3  19   0  426.90   69.02
  -2   0  -4  299.04   59.19
  -2   0  -3 1719.88  120.66
  -2   0  -2 4683.61  188.18
  -2   0  -2 4408.49  187.30
  -2   0  -2 4936.08  210.65
  -2   0  -1  587.65   35.56
  -2   0  -1  483.25   32.56
  -2   0  -1  599.86   47.25
  -2   0   0 1518.04   63.92
  -2   0   1 9570.49  312.95
  -2   0   1 9186.22  333.72
  -2   0   2  207.00   19.61
  -2   0   3  165.14   22.71
  -2   0   4 3988.44  178.48
  -2  -2  -4  165.75   41.24
  -2   2  -4  304.94   60.16
  -2  -2  -3 1181.06   96.47
  -2   2  -3 1324.55  105.49
  -2  -2  -2  539.14   44.56
  -2  -2  -2  543.92   46.70
  -2  -2  -2  569.93   55.58
  -2   2  -2  496.18   53.60
  -2  -2  -1 2100.55   99.33
  -2   2  -1 2212.81  104.37
  -2  -2  -1 1973.39   89.26
  -2  -2  -1 2199.12   87.74
  -2  -2  -1 1883.80   82.69
  -2  -2  -1 2255.19   91.17
  -2  -2   0 2574.65  102.08
  -2   2   0 2729.50  100.33
  -2  -2   0 2604.87   98.03
  -2  -2   0 2647.35   93.74
  -2   2   1 1734.10   76.03
  -2   2   1 1536.89   68.52
  -2  -2   1 1612.12   79.99
  -2  -2   1 1579.99   56.68
  -2   2   2 1101.47   55.86
  -2  -2   2  999.60   49.70
  -2   2   3  898.65   68.21
  -2   2   3  851.59   56.33
  -2  -2   3  800.23   52.24
  -2  -2   4   78.90   19.90
  -2   2   4   73.10   19.11
  -2   4  -4  694.70   83.27
  -2  -4  -4  608.42   77.21
  -2  -4  -3 1948.78  127.69
  -2   4  -3 2171.03  141.30
  -2  -4  -2  289.80   32.78
  -2  -4  -2  306.42   30.68
  -2   4  -2  303.22   47.04
  -2  -4  -2  304.26   36.28
  -2  -4  -2  311.15   40.59
  -2  -4  -1 4010.83  149.58
  -2   4  -1 3758.01  162.16
  -2  -4  -1 3878.67  148.21
  -2  -4  -1 3586.45  150.08
  -2  -4  -1 3817.47  145.22
  -2  -4   0 4739.14  165.98
  -2   4   0 4462.30  174.50
  -2  -4   0 4686.09  170.74
  -2   4   0 4696.51  168.52
  -2  -4   0 4558.35  162.18
  -2   4   0 4827.14  166.39
  -2  -4   1  785.23   34.89
  -2   4   1  826.05   47.25
  -2   4   1  875.40   45.00
  -2  -4   1  864.18   53.87
  -2   4   2 2121.98   96.75
  -2   4   2 2182.97  105.39
  -2  -4   2 2145.33   88.63
  -2   4   3 1101.03   75.21
  -2   4   3 1154.87   71.42
  -2  -4   3 1169.27   65.10
  -2  -4   4  158.57   26.79
  -2   4   4  131.21   27.08
  -2   6  -3   62.21   32.02
  -2  -6  -3   72.80   18.72
  -2  -6  -3   43.94   24.98
  -2  -6  -2  855.68   55.25
  -2  -6  -2  906.42   66.36
  -2  -6  -2  803.55   39.45
  -2  -6  -2  793.04   61.03
  -2   6  -2  847.91   74.59
  -2  -6  -1 5299.23  208.09
  -2  -6  -1 5284.32  194.50
  -2   6  -1 5261.71  212.70
  -2  -6   0 1455.28   67.42
  -2  -6   0 1428.74   64.54
  -2   6   0 1503.30   73.85
  -2   6   0 1578.20   67.62
  -2  -6   0 1396.99   63.31
  -2  -6   1 2167.78  102.56
  -2   6   1 2365.37  100.87
  -2  -6   2 3172.48  124.21
  -2   6   2 3066.56  143.65
  -2   6   2 3060.42  133.43
  -2   6   3  834.46   61.52
  -2  -6   3  861.82   55.90
  -2   6   4  687.33   61.63
  -2  -6   4  679.62   57.02
  -2  -8  -3  912.43   68.36
  -2  -8  -3  956.86   69.94
  -2   8  -3  960.27   92.28
  -2   8  -2 1201.74   88.14
  -2  -8  -2 1123.61   66.91
  -2  -8  -2 1195.71   70.41
  -2   8  -1 2157.19  108.20
  -2  -8  -1 1962.74   94.12
  -2  -8  -1 2164.79   91.80
  -2  -8  -1 2205.70   99.75
  -2   8   0 4196.16  158.34
  -2   8   0 3476.25  142.19
  -2  -8   0 3962.49  147.03
  -2  -8   0 3760.33  147.85
  -2   8   1 1113.33   68.40
  -2  -8   1 1004.28   50.15
  -2  -8   1 1019.68   66.57
  -2   8   2 1801.05  105.68
  -2  -8   2 1887.29   70.79
  -2  -8   2 2065.12   91.75
  -2  -8   3 2440.75  116.09
  -2   8   3 2174.37  119.96
  -2   8   3 2634.65  141.72
  -2   8   4  180.94   34.59
  -2  -8   4  185.34   28.35
  -2  10  -3  339.56   57.11
  -2 -10  -3  306.78   39.52
  -2 -10  -3  316.59   36.69
  -2 -10  -2 1774.50   86.63
  -2 -10  -2 1737.11   94.90
  -2  10  -2 1709.21  111.06
  -2  10  -1  391.51   40.78
  -2 -10  -1  359.20   34.77
  -2 -10  -1  395.37   30.55
  -2 -10  -1  436.45   38.02
  -2 -10   0  243.26   25.71
  -2 -10   0  231.21   25.00
  -2  10   0  253.27   27.91
  -2 -10   0  223.48   26.17
  -2  10   0  274.30   23.85
  -2  10   1 2621.18  133.37
  -2  10   2  148.00   30.54
  -2 -10   2  153.74   15.41
  -2 -10   3  204.65   28.85
  -2  10   3  161.16   35.76
  -2  12  -3  127.94   37.24
  -2 -12  -3  123.55   31.57
  -2  12  -2  150.79   34.48
  -2 -12  -2  178.68   29.70
  -2 -12  -2  207.91   22.92
  -2  12  -1 1888.17  103.35
  -2 -12  -1 1962.09  101.00
  -2 -12  -1 1901.04   86.08
  -2  12   0  735.33   52.30
  -2 -12   0  590.80   47.75
  -2  12   0  663.49   39.59
  -2 -12   0  667.40   48.30
  -2  12   0  618.71   39.52
  -2 -12   0  581.15   46.11
  -2 -12   1  311.16   31.77
  -2  12   1  375.73   48.80
  -2 -12   2 1830.61   80.99
  -2  12   2 1617.31  111.46
  -2 -12   3  581.73   53.28
  -2  12   3  514.41   61.87
  -2 -14  -2 1097.96   78.32
  -2  14  -2  976.57   82.60
  -2  14  -1  517.69   48.97
  -2 -14  -1  489.38   48.81
  -2 -14  -1  565.66   38.93
  -2  14  -1  475.35   52.34
  -2  14   0 3131.17  115.03
  -2 -14   0 3079.39  145.46
  -2  14   0 2965.14  141.72
  -2 -14   0 3205.98  141.36
  -2  14   0 3163.62  120.32
  -2  14   0 3126.28  121.38
  -2 -14   1 1162.56   73.35
  -2  14   1 1521.01  107.15
  -2 -14   2  862.15   53.73
  -2  14   2  800.50   80.32
  -2 -14   3 1062.68   81.99
  -2  14   3 1140.89  104.70
  -2 -16  -2  660.07   62.87
  -2  16  -2  543.35   62.76
  -2 -16  -1  270.84   39.31
  -2  16  -1  231.47   34.76
  -2  16   0   25.51    7.31
  -2 -16   0   37.34   15.21
  -2 -16   1  987.50   70.86
  -2  16   1 1127.29   99.05
  -2  16   2   68.81   25.75
  -2 -16   2   93.38   20.17
  -2 -18  -1  107.39   29.04
  -2  18   0  367.63   61.60
  -2 -18   0  333.99   43.34
  -2 -18   1 1000.67   76.55
  -2  18   1 1321.72  116.46
  -1  -1  -4 1225.23  107.05
  -1   1  -4 1097.50  104.39
  -1   1  -3  150.43   36.24
  -1  -1  -3  169.45   37.97
  -1   1  -2  443.63   47.21
  -1  -1  -2  410.56   36.10
  -1  -1  -2  470.60   30.98
  -1  -1  -2  417.82   38.51
  -1   1  -2  475.97   37.98
  -1   1  -2  427.28   35.81
  -1  -1  -2  399.06   45.33
  -1   1  -1 5833.22  226.02
  -1  -1  -1 6088.00  230.56
  -1  -1  -1 6703.14  240.64
  -1  -1  -1 7199.73  224.66
  -1   1  -1 6842.56  242.57
  -1   1   0  123.31    9.39
  -1   1   0  108.74    9.96
  -1  -1   0  127.89    7.64
  -1   1   1   77.44   11.52
  -1   1   1   72.55    8.84
  -1  -1   1   69.74   11.72
  -1   1   1  101.58   11.41
  -1  -1   1   99.63   10.24
  -1   1   2 6046.61  106.29
  -1  -1   2 6563.86  105.91
  -1   1   3   18.24   14.15
  -1  -1   3   26.51   13.12
  -1   1   3   24.17    8.56
  -1   1   4   72.47   19.65
  -1  -1   4   60.06   19.00
  -1  -3  -4  200.32   44.32
  -1   3  -4  233.06   47.39
  -1  -3  -3 1013.00   59.43
  -1  -3  -3  841.98   76.27
  -1   3  -3  960.43   84.96
  -1  -3  -2 4086.07  178.61
  -1  -3  -2 4661.40  171.22
  -1  -3  -2 4527.49  193.90
  -1  -3  -2 4789.52  191.66
  -1   3  -2 4445.10  197.96
  -1  -3  -1 2276.48   87.13
  -1   3  -1 2335.89  102.82
  -1  -3  -1 2314.94   98.63
  -1   3   0 2343.51   93.65
  -1  -3   0 2378.08   89.55
  -1  -3   0 2512.00   88.15
  -1  -3   0 2488.04   87.70
  -1   3   0 2432.14   89.18
  -1   3   1 2397.65   94.79
  -1   3   1 2642.95  103.40
  -1  -3   1 2610.87   91.92
  -1   3   1 2329.52   92.27
  -1   3   1 2502.77   97.17
  -1  -3   2 1563.87   71.88
  -1   3   2 1554.37   69.33
  -1   3   2 1438.25   79.91
  -1  -3   2 1562.65   90.96
  -1   3   2 1566.21   76.32
  -1   3   3 1567.27   77.12
  -1   3   3 1581.35  100.09
  -1   3   3 1504.73   85.72
  -1  -3   3 1547.17   82.44
  -1  -3   4  738.25   61.73
  -1   3   4  931.78   70.26
  -1   5  -4  169.43   42.55
  -1  -5  -4  107.56   32.49
  -1   5  -3 3617.46  189.22
  -1  -5  -3 3606.22  153.59
  -1  -5  -3 3306.55  175.59
  -1  -5  -2 1932.36  104.96
  -1   5  -2 1845.21  109.73
  -1  -5  -2 1975.66   88.65
  -1  -5  -2 1894.72  102.56
  -1  -5  -2 1889.34   96.32
  -1  -5  -1 1168.03   54.34
  -1   5  -1 1262.35   68.83
  -1  -5  -1 1180.91   56.61
  -1  -5  -1 1203.52   65.28
  -1  -5  -1 1209.87   59.89
  -1   5   0 6577.69  208.92
  -1  -5   0 5775.65  210.24
  -1  -5   0 6436.97  211.67
  -1   5   0 5684.83  216.78
  -1  -5   0 5926.32  210.55
  -1   5   1 3536.67  139.22
  -1   5   1 3950.70  140.14
  -1   5   1 3628.31  126.37
  -1  -5   1 3488.84  126.27
  -1   5   1 4154.05  151.03
  -1  -5   2  753.82   45.21
  -1   5   2  745.04   45.16
  -1  -5   2  686.25   57.36
  -1   5   2  671.29   52.27
  -1   5   2  637.25   45.29
  -1   5   2  711.47   49.53
  -1   5   3 1953.11   95.96
  -1   5   3 1883.05  109.21
  -1   5   3 1823.86  101.81
  -1  -5   3 1858.88   96.58
  -1   5   4 1414.57   95.36
  -1  -5   4 1395.75   90.65
  -1  -7  -4  309.35   38.99
  -1  -7  -4  286.29   47.95
  -1   7  -4  276.91   54.70
  -1   7  -3  182.60   40.96
  -1  -7  -3  130.62   30.23
  -1  -7  -3  197.77   28.33
  -1  -7  -2   86.96   21.68
  -1  -7  -2   73.26   20.14
  -1   7  -2   81.24   26.98
  -1  -7  -2   95.23   18.96
  -1   7  -1 1429.70   77.32
  -1  -7  -1 1370.31   60.12
  -1  -7  -1 1436.68   78.09
  -1  -7   0 1426.09   64.58
  -1   7   0 1472.21   61.22
  -1  -7   0 1417.56   65.45
  -1   7   0 1509.93   70.63
  -1  -7   0 1533.16   66.85
  -1   7   1  593.97   39.29
  -1  -7   1  548.59   31.05
  -1  -7   2 1102.42   61.41
  -1   7   2 1073.52   61.63
  -1  -7   2 1038.10   40.81
  -1   7   2  876.26   53.69
  -1   7   2 1042.01   72.04
  -1   7   2 1070.40   65.60
  -1  -7   3  234.11   30.57
  -1   7   3  208.02   28.16
  -1   7   3  240.88   32.83
  -1   7   3  231.14   35.09
  -1  -7   4  189.31   31.77
  -1   7   4  197.44   35.15
  -1   9  -3 1449.48  111.97
  -1  -9  -3 1500.25   89.14
  -1   9  -2 1866.84  112.45
  -1  -9  -2 1811.35   95.87
  -1  -9  -2 2049.16   89.10
  -1   9  -1 1440.43   80.48
  -1  -9  -1 1537.52   78.24
  -1  -9  -1 1362.24   74.17
  -1  -9  -1 1544.57   64.08
  -1   9   0 3724.44  129.24
  -1   9   0 3549.34  139.31
  -1  -9   0 3639.98  136.24
  -1  -9   1 3795.47  151.01
  -1   9   1 4274.97  163.36
  -1   9   1 4092.61  177.12
  -1   9   2  869.35   58.54
  -1   9   2  770.61   44.52
  -1  -9   2  914.91   42.69
  -1   9   2  828.82   67.40
  -1   9   2  983.68   65.10
  -1  -9   3 1615.15   94.64
  -1   9   3 1326.99   82.70
  -1   9   3 1743.42  112.57
  -1   9   3 1596.41   97.28
  -1   9   4 1294.82   95.76
  -1  -9   4 1183.90   88.31
  -1  11  -3  712.59   77.12
  -1 -11  -3  724.12   51.39
  -1 -11  -3  612.54   55.87
  -1 -11  -2  310.20   24.68
  -1  11  -2  253.73   38.25
  -1 -11  -2  318.05   36.74
  -1  11  -1 2469.27  119.52
  -1 -11  -1 2600.14   98.77
  -1 -11  -1 2491.17  117.81
  -1 -11  -1 2544.24  119.50
  -1  11   0  998.31   50.22
  -1  11   0  943.64   49.05
  -1 -11   0 1035.56   61.44
  -1  11   0  963.62   57.59
  -1 -11   0 1100.57   62.36
  -1 -11   1  386.34   33.52
  -1  11   1  859.93   66.61
  -1  11   2 2567.48  139.56
  -1 -11   2 2724.33  102.89
  -1 -11   3  474.38   51.28
  -1  11   3  604.88   59.14
  -1  11   3  526.61   61.61
  -1  13  -3  430.75   58.52
  -1 -13  -3  445.52   51.11
  -1  13  -2 1532.38  105.00
  -1 -13  -2 1770.01  102.98
  -1 -13  -2 1831.33   75.68
  -1  13  -1  538.97   47.23
  -1  13  -1  488.78   52.93
  -1 -13  -1  634.74   34.53
  -1 -13  -1  623.10   52.74
  -1  13   0 1238.99   59.47
  -1  13   0 1198.58   54.85
  -1 -13   0 1009.03   69.07
  -1  13   0 1137.62   66.60
  -1 -13   1 1256.58   74.16
  -1  13   1 1531.29  104.47
  -1 -13   2  265.45   26.72
  -1  13   2  204.79   40.74
  -1 -13   3 1064.00   84.64
  -1  13   3 1124.77   99.62
  -1  15  -2  581.55   60.71
  -1 -15  -2  742.42   65.17
  -1 -15  -1  173.57   29.71
  -1  15  -1  158.13   25.68
  -1  15  -1  136.29   25.74
  -1  15   0  725.05   41.83
  -1 -15   0  675.71   56.47
  -1  15   0  634.13   33.02
  -1  15   0  596.77   47.29
  -1 -15   1  648.83   52.74
  -1  15   1  713.49   75.45
  -1  15   2    5.39   12.81
  -1 -15   2   20.53   11.30
  -1  17  -2  303.83   43.16
  -1 -17  -2  284.55   42.88
  -1 -17  -1 2554.42  139.97
  -1  17  -1 2471.27  124.74
  -1  17   0   37.07   24.54
  -1 -17   0   41.86   19.30
  -1 -17   1  233.51   34.51
  -1  17   1  258.00   51.05
  -1 -17   2 2413.16  122.63
  -1  17   2 2583.98  170.36
  -1 -19  -1  188.71   36.37
  -1 -19   0  733.17   70.01
  -1  19   0  743.79   87.43
  -1 -19   1  608.54   59.83
  -1  19   1  731.97   89.46
   0   0  -4  500.62   66.97
   0   0  -3 5245.50  236.77
   0   0  -2   35.97   10.93
   0   0  -2   50.43   18.38
   0   0  -2   31.99   11.47
   0   0  -2   39.42    7.53
   0   0  -1  406.46   25.85
   0   0  -1  446.04   32.71
   0   0  -1  430.91   20.04
   0   0   1  393.00   30.73
   0   0   1  372.48   18.26
   0   0   2   54.49   14.20
   0   0   2   53.78    8.32
   0   0   3 5256.48  187.31
   0   0   3 4918.54  206.05
   0   0   4  462.20   49.28
   0  -2  -4  672.79   76.11
   0   2  -4  722.26   79.29
   0  -2  -3  151.30   34.36
   0   2  -3  122.43   31.77
   0  -2  -3  165.26   19.83
   0  -2  -2 1764.06   72.48
   0  -2  -2 1750.45   93.82
   0   2  -2 1681.00   95.07
   0   2  -2 1623.20   80.17
   0  -2  -2 1583.20   81.14
   0  -2  -2 1770.97   90.79
   0  -2  -1 1571.19   68.45
   0  -2  -1 1459.87   67.47
   0   2  -1 1570.48   73.53
   0  -2  -1 1497.00   58.20
   0  -2  -1 1367.98   61.90
   0   2   0   31.59    4.14
   0  -2   1 1584.33   62.43
   0   2   1 1373.88   67.04
   0   2   1 1608.91   64.75
   0   2   1 1414.07   58.13
   0  -2   2 1574.48   74.92
   0  -2   2 1682.91   96.71
   0   2   2 1540.16   67.18
   0  -2   2 1499.73   58.07
   0   2   2 1507.82   75.52
   0  -2   3  137.11   24.04
   0   2   3  186.43   21.15
   0  -2   3  196.34   15.52
   0   2   3  163.64   26.30
   0   2   4  756.04   64.72
   0  -2   4  731.27   62.87
   0   4  -4 1329.06  111.83
   0  -4  -4 1088.70   97.77
   0  -4  -3  184.06   32.48
   0  -4  -3  174.13   22.51
   0   4  -3  142.79   30.80
   0   4  -2 2010.04  110.59
   0  -4  -2 2055.78   88.39
   0  -4  -2 2033.11  104.65
   0  -4  -2 2250.13  109.69
   0  -4  -2 2004.22   95.81
   0   4  -1 2755.26  114.61
   0  -4  -1 2636.93  101.07
   0  -4  -1 2511.05  108.96
   0  -4  -1 2678.47  104.48
   0   4   0  592.43   27.09
   0   4   0  575.33   29.41
   0  -4   0  631.80   30.71
   0   4   1 2221.56   94.13
   0   4   1 2315.33   95.50
   0  -4   1 2325.79   84.90
   0   4   1 2326.92   90.65
   0  -4   1 2541.08  105.34
   0  -4   2 2086.65   94.57
   0   4   2 2013.34  106.03
   0   4   2 2174.39   89.84
   0  -4   2 2215.40  116.48
   0   4   2 2054.65  102.01
   0  -4   2 1968.74   73.45
   0   4   2 2150.34   98.60
   0  -4   3  150.06   25.71
   0   4   3  162.95   21.70
   0  -4   3  182.24   10.97
   0   4   3  191.79   30.07
   0   4   4 1102.83   83.69
   0  -4   4 1150.67   83.86
   0  -6  -4  327.29   52.06
   0   6  -4  411.86   62.30
   0  -6  -4  401.46   38.69
   0  -6  -3 1025.81   61.73
   0  -6  -3 1005.56   76.68
   0   6  -2 3065.03  152.43
   0  -6  -2 3379.95  132.50
   0  -6  -2 3585.75  153.73
   0  -6  -2 3178.10  140.47
   0  -6  -2 2828.67  134.12
   0   6  -1 2765.64  119.42
   0  -6  -1 2697.99  109.67
   0  -6  -1 2665.62  119.80
   0  -6  -1 2699.07   94.20
   0  -6  -1 2806.45   97.98
   0   6   0 3160.41  121.73
   0   6   0 3257.15  126.27
   0  -6   0 3610.90  128.85
   0   6   0 3646.75  122.78
   0  -6   1 2433.16   96.21
   0   6   1 2729.24  103.42
   0  -6   1 2635.14  112.24
   0   6   1 2423.64  104.57
   0   6   1 2423.90  101.32
   0  -6   2 3236.61  135.50
   0   6   2 2932.96  139.96
   0  -6   2 3054.35  114.21
   0   6   2 3488.56  133.33
   0  -6   2 3141.92  154.64
   0   6   2 3207.09  147.35
   0   6   2 3181.22  139.61
   0  -6   3  905.71   66.03
   0   6   3  923.79   76.16
   0   6   3  875.65   59.03
   0   6   3  906.24   68.14
   0   6   4  373.17   50.07
   0  -6   4  398.20   50.36
   0   8  -4  807.66   89.76
   0  -8  -4  680.67   71.12
   0  -8  -4  673.63   57.62
   0   8  -3  521.28   61.27
   0  -8  -3  544.75   45.77
   0  -8  -3  461.03   47.75
   0   8  -2 2706.00  142.66
   0  -8  -2 2936.09  126.71
   0  -8  -2 2929.80  123.78
   0   8  -1 3851.91  100.63
   0  -8  -1 3990.92   48.10
   0   8   0  553.83   31.16
   0   8   0  555.44   35.40
   0  -8   0  549.30   37.00
   0   8   0  508.20   29.87
   0  -8   1 3985.70  151.28
   0   8   1 3645.86  149.96
   0  -8   2 2841.15  126.82
   0   8   2 2617.66  123.69
   0   8   2 2944.68  123.89
   0  -8   2 2609.18  105.22
   0  -8   2 2758.73  142.66
   0   8   2 2759.80  138.72
   0   8   2 2676.95  128.10
   0  -8   3  554.60   53.82
   0   8   3  583.29   60.41
   0   8   3  445.46   50.07
   0   8   3  527.31   53.47
   0   8   4  752.23   72.95
   0  -8   4  845.88   77.83
   0  10  -3 1343.93  103.73
   0 -10  -3 1275.31   80.43
   0  10  -2  216.68   35.55
   0 -10  -2  261.29   32.09
   0 -10  -2  273.34   20.49
   0 -10  -1  172.15   24.51
   0  10  -1  120.75   21.83
   0 -10  -1  160.88   22.14
   0  10   0 3713.87  138.37
   0 -10   0 3415.81  138.04
   0  10   0 3266.94  124.70
   0  10   1  181.18   31.25
   0  10   1  191.46   23.02
   0  10   1  175.81   18.64
   0  10   2  214.08   26.01
   0  10   2  216.27   37.36
   0 -10   2  233.10   22.76
   0  10   2  218.13   31.76
   0 -10   3 1386.25   94.41
   0  10   3 1525.40  108.23
   0  10   3 1450.45   97.69
   0  12  -3  184.94   43.71
   0 -12  -3  179.40   31.11
   0  12  -2  870.29   74.28
   0 -12  -2 1026.65   69.98
   0 -12  -2 1035.24   43.19
   0 -12  -2 1016.51   46.78
   0  12  -1 1338.36   80.23
   0  12  -1 1241.44   85.36
   0  12   0  773.59   43.04
   0  12   0  855.31   55.27
   0  12   0  734.67   44.00
   0 -12   0  788.66   55.41
   0 -12   0  865.63   57.81
   0 -12   1 1248.52   73.19
   0  12   1 1455.87   96.43
   0  12   1 1338.55   61.35
   0  12   2 1184.35   63.22
   0  12   2 1118.76   89.94
   0  12   3  248.37   39.66
   0 -12   3  173.02   36.07
   0  12   3  228.06   43.05
   0  14  -3  727.26   79.12
   0 -14  -3  682.26   64.28
   0  14  -2  618.16   63.94
   0 -14  -2  746.78   62.54
   0  14  -1 1573.83   97.17
   0  14  -1 1662.51   94.06
   0  14   0  897.70   53.03
   0 -14   0  914.09   66.87
   0  14   0 1066.52   49.88
   0  14   0  938.36   57.45
   0 -14   1 1641.55   95.98
   0  14   1 1906.71   71.83
   0  14   1 1900.62  124.74
   0  14   1 1891.27   75.93
   0 -14   2  894.74   58.73
   0  14   2  863.69   82.09
   0 -14   3  733.92   73.30
   0  14   3  732.63   80.97
   0  16  -2   60.92   22.06
   0 -16  -2   67.41   21.42
   0  16  -1   69.08   19.84
   0  16  -1   60.59   19.03
   0 -16  -1  103.84   26.36
   0  16   0 1288.27   59.11
   0  16   0 1379.26   70.29
   0 -16   0 1430.67   90.62
   0  16   0 1391.32   75.83
   0  16   0 1334.62  104.38
   0  16   1   88.74   32.15
   0 -16   1   32.71   17.15
   0  16   2   70.95   36.46
   0 -16   2   97.43   20.30
   0  18  -2  197.65   35.49
   0 -18  -2  247.49   43.02
   0  18  -1  250.39   35.51
   0 -18  -1  280.44   41.95
   0  18   0 1323.80  112.09
   0 -18   0 1434.68   97.32
   0 -18   1  339.09   41.92
   0  18   1  308.21   52.70
   0  18   2  206.19   49.93
   0  20   0   46.11   20.64
   0 -20   0   43.02   18.48
   1  -1  -4  102.23   34.25
   1   1  -4   92.14   31.47
   1   1  -3    7.47   11.86
   1  -1  -3   -7.27   19.30
   1   1  -3  -13.41   15.43
   1  -1  -3   23.01    5.90
   1  -1  -2 5973.61  222.86
   1   1  -2 6089.36  222.06
   1  -1  -2 5872.53  236.40
   1   1  -2 6241.87  242.69
   1  -1  -2 6121.16  209.50
   1  -1  -2 6424.92  235.69
   1   1  -1  129.68   11.31
   1  -1  -1  122.76   11.89
   1  -1  -1  124.37   15.23
   1  -1  -1  113.66    9.73
   1   1  -1  116.33   15.75
   1  -1  -1  109.31   13.66
   1  -1  -1  117.45   15.41
   1   1  -1  105.36   16.37
   1  -1   0   87.58    7.58
   1   1   0   75.25    6.72
   1  -1   0   85.98    8.13
   1   1   0   92.85    6.24
   1  -1   1 6863.25  231.15
   1  -1   1 6352.83  223.13
   1   1   1 6838.67  224.61
   1   1   1 6774.25  231.24
   1   1   2  526.81   51.22
   1  -1   2  544.99   53.52
   1   1   2  448.51   29.12
   1  -1   2  416.88   26.34
   1   1   2  531.97   39.37
   1  -1   2  483.45   38.04
   1   1   3  145.78   18.49
   1  -1   3  156.22   17.12
   1   1   3  165.72   28.21
   1  -1   3  158.55   26.30
   1  -1   4  978.47   79.84
   1   1   4 1138.12   83.05
   1   3  -4  837.56   84.36
   1  -3  -4  759.15   77.59
   1  -3  -3 1619.44  101.95
   1   3  -3 1537.74  105.35
   1  -3  -3 1764.44   77.11
   1  -3  -3 1430.45  108.13
   1  -3  -2 1656.00   69.98
   1   3  -2 1611.83   78.42
   1  -3  -2 1583.78   49.47
   1  -3  -2 1741.20   75.93
   1  -3  -2 1547.58   59.38
   1  -3  -1 2511.28   94.65
   1  -3  -1 2346.23   99.67
   1  -3  -1 2525.98   93.10
   1   3  -1 2427.87  107.64
   1  -3  -1 2332.52   94.67
   1  -3  -1 2326.81   93.96
   1  -3   0 2297.02   85.48
   1   3   0 2327.08   85.99
   1   3   0 2301.69   87.89
   1   3   0 2562.67   85.33
   1  -3   1 2366.20   95.32
   1  -3   1 2288.21  107.07
   1   3   1 2460.77   96.52
   1   3   1 2311.26   91.12
   1   3   1 2221.04   97.72
   1   3   1 2540.03  109.78
   1  -3   2 4094.79  169.27
   1   3   2 4483.09  194.05
   1  -3   2 4229.73  196.25
   1   3   2 4622.78  162.74
   1  -3   2 4118.27  152.55
   1   3   2 4141.34  170.50
   1   3   3  873.55   54.73
   1  -3   3  895.30   44.91
   1   3   3  892.32   64.43
   1  -3   3  905.28   65.96
   1   3   4  238.23   36.80
   1  -3   4  251.20   38.94
   1   5  -4 1373.99  114.64
   1  -5  -4 1298.01  104.11
   1   5  -3 1895.53  122.13
   1  -5  -3 2040.16   93.17
   1  -5  -3 1953.10  125.01
   1  -5  -3 1965.70  114.76
   1   5  -2  663.19   57.47
   1  -5  -2  742.60   43.42
   1  -5  -2  704.59   54.53
   1   5  -2  639.30   59.95
   1  -5  -2  683.86   45.99
   1  -5  -2  762.50   51.08
   1   5  -1 3654.27  127.62
   1  -5  -1 3645.89  137.84
   1   5  -1 4190.86  149.51
   1  -5  -1 3718.33  147.21
   1  -5  -1 3360.77  137.49
   1   5  -1 3381.44  149.98
   1  -5  -1 3920.68  129.97
   1  -5  -1 3508.68  127.94
   1  -5   0 6366.46  216.48
   1  -5   0 6236.78  207.82
   1   5   0 6580.56  212.37
   1  -5   1 1108.96   65.59
   1   5   1 1046.92   53.18
   1   5   1 1082.07   61.77
   1   5   1 1169.04   58.15
   1   5   1 1171.60   64.03
   1  -5   2 1629.69   68.22
   1  -5   2 1871.41   95.85
   1   5   2 1902.19   64.92
   1   5   2 1667.67   75.76
   1   5   2 1862.63   74.81
   1  -5   3 3654.62  167.55
   1   5   3 3599.03  153.04
   1  -5   3 3617.55  131.64
   1   5   3 3357.40  163.83
   1   5   4  103.85   28.14
   1  -5   4  136.13   28.51
   1  -7  -4  233.00   28.78
   1  -7  -4  222.56   39.74
   1   7  -4  276.80   49.55
   1  -7  -3  207.23   36.08
   1  -7  -3  199.96   26.35
   1   7  -3  169.27   35.73
   1  -7  -3  163.81   30.08
   1   7  -2  996.33   74.48
   1  -7  -2  994.69   59.36
   1  -7  -2 1143.20   74.12
   1  -7  -2 1110.04   61.45
   1   7  -2  885.25   77.30
   1  -7  -2 1093.95   61.19
   1  -7  -2 1046.54   62.50
   1   7  -1  553.96   31.76
   1  -7  -1  612.50   39.92
   1   7  -1  660.18   45.16
   1  -7  -1  630.72   32.73
   1  -7  -1  576.94   43.26
   1   7  -1  541.89   44.39
   1  -7   0 1454.73   67.46
   1   7   0 1344.91   62.38
   1   7   0 1424.68   63.75
   1  -7   1 1367.76   66.26
   1  -7   1 1440.83   77.68
   1   7   1 1444.46   68.77
   1   7   1 1408.02   79.55
   1   7   1 1395.88   70.60
   1   7   1 1407.08   74.17
   1   7   2  114.04   22.07
   1  -7   2  111.05   23.75
   1   7   2  128.56   19.48
   1   7   2  107.98   26.22
   1  -7   3  213.51   34.57
   1  -7   3  283.20   22.79
   1  -7   3  211.70   18.41
   1   7   3  265.46   37.95
   1   7   4  332.31   49.73
   1  -7   4  368.47   53.58
   1   9  -4 1404.08  119.69
   1  -9  -4 1218.87   80.01
   1   9  -3 1318.61  103.54
   1  -9  -3 1352.19   81.76
   1  -9  -3 1525.54   87.25
   1  -9  -3 1503.97   92.59
   1   9  -2  716.40   63.90
   1  -9  -2  779.63   54.15
   1  -9  -2  845.94   41.99
   1  -9  -2  850.89   45.60
   1   9  -1 3916.49  150.44
   1  -9  -1 3988.29  161.57
   1  -9  -1 3724.68  160.06
   1   9   0 3506.17   87.56
   1   9   0 2951.11   78.82
   1   9   1 1478.51   72.96
   1  -9   1 1451.38   78.25
   1   9   1 1445.99   86.91
   1   9   1 1368.34   73.42
   1   9   1 1280.19   72.65
   1  -9   2 1930.01  107.48
   1  -9   2 2074.81   93.67
   1   9   2 2239.47  122.54
   1   9   2 2216.87  112.44
   1  -9   3 1356.47   94.77
   1  -9   3 1461.89   67.45
   1   9   3 1576.99  109.19
   1   9   3 1554.90  100.90
   1  11  -3  566.70   67.43
   1 -11  -3  499.18   49.16
   1  11  -2 2292.98  131.82
   1 -11  -2 2447.45  119.23
   1  11  -1  695.46   56.42
   1  11  -1  804.31   48.81
   1  11  -1  808.25   57.93
   1 -11  -1  758.78   54.97
   1 -11  -1  799.77   55.85
   1  11   0 1091.63   60.14
   1 -11   0  974.66   61.73
   1  11   0  967.15   53.18
   1 -11   1 2290.46  106.83
   1  11   1 2037.57  103.35
   1 -11   2  272.45   27.99
   1  11   2  289.69   42.03
   1  11   2  288.30   35.80
   1 -11   3  728.07   70.18
   1  11   3  724.25   74.94
   1  11   3  835.17   72.57
   1  13  -3 1070.66   98.22
   1 -13  -3  955.29   74.69
   1  13  -2  202.29   35.25
   1 -13  -2  215.21   33.21
   1  13  -1 1297.32   82.85
   1  13  -1 1332.79   81.93
   1 -13  -1 1354.52   82.70
   1 -13   0 1195.08   75.42
   1  13   0 1244.93   67.19
   1  13   0 1172.56   61.02
   1 -13   1  504.47   45.37
   1  13   1  631.59   64.09
   1  13   1  598.44   45.51
   1 -13   2 1839.10   95.01
   1  13   2 1929.56  126.63
   1 -13   3  509.50   61.93
   1  13   3  524.17   68.21
   1  13   3  518.90   59.08
   1  15  -2   25.08   20.21
   1 -15  -2   20.27   12.75
   1  15  -1  579.56   52.58
   1  15  -1  566.73   52.43
   1 -15  -1  630.86   57.53
   1  15   0  633.48   39.46
   1 -15   0  595.51   54.51
   1  15   0  661.71   46.15
   1  15   0  614.86   66.38
   1  15   1  212.78   44.36
   1 -15   1  132.49   28.46
   1  15   1  178.58   23.17
   1 -15   2  749.39   58.41
   1  15   2  809.35   83.22
   1  17  -2 1995.07  131.99
   1 -17  -2 2300.71  131.50
   1  17  -1  226.29   34.19
   1 -17  -1  204.80   34.09
   1  17   0   45.33   31.67
   1  17   0   41.34   15.24
   1 -17   0   47.08   24.45
   1 -17   1 2183.25  125.33
   1  17   1 2697.63  166.54
   1 -17   2  334.26   40.12
   1  17   2  236.51   53.04
   1  19  -1  676.84   61.46
   1 -19  -1  788.89   73.57
   1 -19   0  717.89   67.93
   1  19   0  592.64   75.83
   1  19   1  199.51   48.85
   1 -19   1  183.53   37.74
   2   0  -4 3742.81  201.08
   2   0  -3  190.39   24.63
   2   0  -3  186.51   12.69
   2   0  -3  129.66   29.58
   2   0  -2  261.97   22.67
   2   0  -2  237.95   30.78
   2   0  -2  269.13   16.11
   2   0  -2  257.08   27.06
   2   0  -1 9999.00  339.88
   2   0  -1 9817.74  334.11
   2   0  -1 9846.78  324.55
   2   0   0 1585.26   57.99
   2   0   0 1437.67   62.68
   2   0   1  613.97   37.37
   2   0   1  582.16   33.23
   2   0   2 5018.95  218.38
   2   0   2 4601.45  172.63
   2   0   2 4618.59  186.21
   2   0   3 1601.71   79.31
   2   0   3 1741.14   97.97
   2   0   4  305.24   45.67
   2  -2  -4   69.60   22.32
   2   2  -4   54.53   20.60
   2  -2  -3  969.18   62.92
   2  -2  -3 1001.43   75.31
   2   2  -3  963.21   60.23
   2   2  -3  877.92   75.95
   2  -2  -3 1122.53   50.56
   2   2  -2  972.24   48.63
   2  -2  -2  899.53   58.98
   2   2  -2  918.72   63.68
   2  -2  -2  927.98   44.47
   2  -2  -2 1077.58   63.77
   2   2  -2  923.28   67.47
   2  -2  -2  918.18   62.49
   2  -2  -2  987.54   51.08
   2  -2  -1 1584.41   67.08
   2  -2  -1 1709.56   67.75
   2   2  -1 1519.78   58.19
   2  -2  -1 1641.61   63.92
   2  -2  -1 1497.09   68.06
   2   2   0 2589.45  100.70
   2   2   0 2416.29   93.70
   2   2   0 2492.02   97.09
   2  -2   0 2553.07   99.83
   2  -2   1 2033.87  101.41
   2  -2   1 1971.19   86.48
   2   2   1 1965.76   82.32
   2   2   1 2048.89   86.45
   2   2   1 2224.71  103.26
   2   2   1 2033.71   86.75
   2  -2   2  591.54   46.61
   2   2   2  724.66   65.10
   2  -2   2  698.39   65.22
   2   2   2  609.85   38.97
   2  -2   2  591.24   37.21
   2   2   2  622.39   46.13
   2   2   3 1104.62   64.33
   2  -2   3 1184.40   61.48
   2   2   3 1200.62   78.58
   2  -2   3 1211.46   79.86
   2   2   4  224.47   37.79
   2  -2   4  191.20   38.00
   2   4  -4  234.43   45.15
   2  -4  -4  159.02   32.99
   2  -4  -3 1087.89   77.95
   2   4  -3 1028.09   87.46
   2  -4  -3 1251.15   61.63
   2  -4  -3 1117.91   84.22
   2  -4  -2 2125.18  102.42
   2   4  -2 2374.82  117.03
   2  -4  -2 2225.08   93.49
   2  -4  -2 2484.04  114.38
   2   4  -2 2184.44  120.93
   2  -4  -2 2212.13   97.73
   2  -4  -2 2190.67  105.34
   2   4  -1  939.35   53.33
   2  -4  -1  898.30   46.00
   2  -4  -1  894.13   39.74
   2   4  -1  793.30   35.85
   2  -4  -1  858.79   39.65
   2  -4  -1  863.80   47.88
   2  -4  -1  945.62   44.93
   2   4   0 4153.86  150.15
   2  -4   0 4497.74  159.96
   2   4   0 4421.63  147.06
   2  -4   0 3793.41  151.94
   2   4   0 4038.77  154.04
   2  -4   1 3819.50  163.41
   2   4   1 3997.00  147.33
   2   4   1 3805.08  151.73
   2   4   1 3835.24  162.37
   2   4   1 3847.92  148.91
   2   4   2  386.74   48.00
   2  -4   2  300.65   33.94
   2  -4   2  384.81   47.65
   2   4   2  357.00   30.12
   2  -4   2  298.74   25.04
   2   4   2  318.69   33.47
   2  -4   3 2249.96  120.04
   2  -4   3 2071.14   93.06
   2   4   3 2210.40  117.59
   2   4   4  611.16   64.23
   2  -4   4  671.33   68.44
   2   6  -4  682.88   77.73
   2  -6  -4  677.06   72.20
   2   6  -3  799.20   76.22
   2  -6  -3  827.35   52.31
   2  -6  -3  821.19   66.14
   2  -6  -3  796.26   63.70
   2  -6  -2 3038.09  129.09
   2  -6  -2 3194.10  130.08
   2   6  -2 3343.75  152.57
   2  -6  -2 3119.48  129.85
   2  -6  -2 3481.88  149.72
   2  -6  -2 3132.71  132.77
   2   6  -2 2858.09  155.24
   2   6  -1 2288.43  104.24
   2  -6  -1 2209.31   95.79
   2   6  -1 1978.69   83.58
   2  -6  -1 2226.71  101.13
   2  -6  -1 2394.46   93.18
   2  -6  -1 2203.01   93.94
   2  -6  -1 2303.25   80.24
   2  -6   0 1361.71   59.50
   2   6   0 1287.15   60.09
   2   6   0 1328.23   63.81
   2  -6   1 5557.90  219.48
   2   6   1 5039.74  209.24
   2   6   1 4995.67  211.46
   2   6   1 5280.91  202.78
   2   6   2  870.89   72.51
   2  -6   2  751.31   56.76
   2  -6   2  765.04   70.52
   2   6   2  764.47   50.60
   2   6   2  782.47   59.67
   2   6   2  744.30   56.82
   2   6   3    9.69   14.93
   2  -6   3   41.53   17.54
   2  -6   3   58.61   11.43
   2  -8  -4  182.27   26.80
   2   8  -4  183.79   42.15
   2   8  -3 2421.38  146.73
   2  -8  -3 2143.08  109.92
   2  -8  -3 2367.12  119.21
   2  -8  -2 1721.56   75.50
   2   8  -2 1809.71  105.61
   2  -8  -2 1750.06   88.97
   2  -8  -2 1960.94  106.50
   2  -8  -2 1695.96   89.73
   2  -8  -2 1980.54   81.07
   2   8  -2 1561.82  107.46
   2  -8  -1 1045.09   60.41
   2   8  -1  967.58   49.94
   2   8  -1 1093.30   64.57
   2  -8  -1 1088.27   55.17
   2  -8  -1 1184.37   61.66
   2  -8   0 3922.32  144.41
   2   8   0 3692.21  153.08
   2  -8   1 2294.84  109.72
   2   8   1 2112.82   95.96
   2   8   1 1967.15  106.44
   2   8   1 2095.44   96.64
   2   8   1 1954.09  102.11
   2   8   2 1392.58   94.06
   2  -8   2 1202.39   79.20
   2   8   2 1253.86   84.74
   2   8   2 1214.25   79.09
   2  -8   3 1058.23   82.54
   2   8   3 1124.34   84.01
   2 -10  -3  237.91   32.18
   2  10  -3  199.81   39.32
   2 -10  -3  206.81   24.83
   2  10  -2  105.17   25.46
   2 -10  -2  111.14   22.87
   2 -10  -2  122.03   17.00
   2 -10  -2  118.92    8.88
   2  10  -1 2633.63  125.39
   2  10  -1 2564.83  107.76
   2 -10  -1 2487.80  117.71
   2  10  -1 2621.16  122.82
   2 -10  -1 2626.15  119.49
   2 -10   0  293.88   32.01
   2  10   0  331.16   29.10
   2  10   0  281.34   27.03
   2 -10   1  355.28   35.44
   2 -10   1  390.43   38.04
   2  10   1  400.31   44.68
   2  10   1  335.99   34.40
   2  10   2 1660.29  106.80
   2 -10   2 1678.33  101.90
   2 -10   2 1754.30   89.61
   2  10   2 1798.18  111.56
   2  10   2 1722.89   99.51
   2 -10   3  393.10   51.29
   2 -10   3  365.13   34.15
   2  10   3  505.57   58.86
   2  10   3  438.07   52.69
   2  12  -3  441.08   62.58
   2 -12  -3  423.20   45.01
   2  12  -2 1678.65  108.26
   2 -12  -2 1556.88   92.92
   2  12  -1  338.27   30.42
   2 -12  -1  310.50   36.93
   2  12  -1  310.21   37.21
   2  12  -1  268.63   35.47
   2 -12   0  556.64   47.78
   2  12   0  619.27   45.44
   2  12   0  556.06   41.04
   2 -12   1 1698.55   95.40
   2 -12   1 1886.19   99.39
   2  12   2  153.56   28.59
   2  12   2  131.26   27.53
   2  12   2  161.98   35.30
   2 -12   2  166.54   24.30
   2  12   3  136.56   30.22
   2 -12   3  103.96   31.65
   2  12   3  132.61   35.90
   2  14  -3  931.44   94.00
   2 -14  -3  817.32   70.56
   2  14  -2  773.92   73.38
   2 -14  -2  806.09   65.59
   2 -14  -1 1330.19   85.27
   2  14  -1 1306.41   86.00
   2  14  -1 1275.10   85.19
   2 -14   0 2710.66  134.81
   2  14   0 2779.41  154.04
   2 -14   1  439.55   44.88
   2  14   1  579.02   64.61
   2  14   1  517.46   48.72
   2 -14   2 1170.21   76.26
   2  14   2 1380.20  107.63
   2  16  -2   90.98   30.84
   2 -16  -2  109.83   24.10
   2  16  -1 1145.05   82.35
   2 -16  -1 1173.11   84.88
   2  16   0   58.46   26.58
   2 -16   0   33.38   19.93
   2  16   0   36.56   14.43
   2  16   1  327.42   52.29
   2 -16   1  201.24   32.73
   2 -16   2  604.60   55.95
   2  16   2  666.37   77.45
   2  18  -1 1085.19   83.20
   2 -18  -1 1106.68   86.93
   2 -18   0  427.55   51.77
   2  18   0  410.19   41.67
   2  18   0  297.59   50.52
   2  18   1  109.22   37.28
   2 -18   1   94.00   28.87
   3  -1  -4   13.94   17.20
   3   1  -4   16.17   11.39
   3  -1  -3 2773.10  126.50
   3   1  -3 2811.14  124.35
   3  -1  -3 2640.82  146.82
   3   1  -3 2804.22  152.74
   3  -1  -3 3164.14  109.64
   3   1  -2  574.05   31.98
   3   1  -2  512.22   46.37
   3  -1  -2  572.86   45.70
   3   1  -2  569.53   27.31
   3  -1  -2  597.39   32.06
   3  -1  -2  553.78   44.66
   3   1  -2  563.50   46.27
   3  -1  -2  592.71   44.85
   3   1  -2  617.66   43.64
   3  -1  -2  529.92   33.15
   3   1  -1  195.47   21.19
   3  -1  -1  182.18   19.31
   3  -1  -1  181.88   16.39
   3  -1  -1  206.02   14.08
   3   1   0 3570.62  122.71
   3  -1   0 3395.63  132.42
   3  -1   0 3205.42  129.85
   3   1   1 2300.48   96.56
   3  -1   1 2140.28   95.42
   3   1   1 2162.20   93.51
   3  -1   2  371.17   37.82
   3   1   2  459.52   53.65
   3  -1   2  509.77   56.79
   3   1   2  416.24   32.80
   3  -1   2  421.03   33.13
   3   1   2  374.91   37.50
   3  -1   3 1425.33   77.27
   3   1   3 1364.83   89.14
   3  -1   3 1465.29   91.95
   3  -3  -4  403.30   53.36
   3   3  -4  574.28   69.85
   3  -3  -3 1089.94   67.10
   3  -3  -3 1102.59   80.81
   3  -3  -3 1021.69   76.93
   3   3  -3 1080.74   86.18
   3  -3  -3 1222.59   57.29
   3   3  -2 3313.90  155.64
   3  -3  -2 3478.73  144.61
   3   3  -2 3532.17  114.63
   3  -3  -2 3080.68  129.21
   3  -3  -2 3376.75  143.79
   3   3  -2 3413.92  152.44
   3   3  -2 3358.23  113.89
   3  -3  -2 3660.70  150.71
   3  -3  -2 3242.10  132.02
   3   3  -1 1314.50   56.30
   3  -3  -1 1442.51   62.52
   3  -3  -1 1405.35   58.30
   3   3   0 1938.80   84.08
   3   3   0 1868.88   74.61
   3   3   0 1796.71   78.41
   3  -3   0 1803.00   82.50
   3   3   0 1892.37   71.52
   3  -3   1 6393.93  246.69
   3  -3   1 5559.52  223.41
   3   3   1 6671.92  224.16
   3   3   1 6141.96  221.67
   3   3   1 5914.03  222.64
   3   3   2  129.21   24.63
   3  -3   2   97.65   23.02
   3   3   2  165.98   21.53
   3   3   2  184.65   38.21
   3  -3   2  162.93   20.06
   3  -3   3  664.24   47.25
   3   3   3  603.33   55.46
   3  -3   3  698.95   61.10
   3  -5  -4 1775.85  120.03
   3   5  -4 1946.05  138.66
   3  -5  -3  143.23   19.56
   3  -5  -3  193.89   29.97
   3   5  -3  103.78   29.90
   3  -5  -3  121.17   25.47
   3   5  -2 1484.38   92.73
   3  -5  -2 1525.22   77.90
   3  -5  -2 1532.90   76.06
   3   5  -2 1547.09   53.92
   3  -5  -2 1544.70   75.05
   3   5  -2 1486.73   88.75
   3  -5  -2 1688.13   89.23
   3  -5  -2 1623.51   77.42
   3  -5  -1 7746.52  245.27
   3  -5  -1 7123.56  255.35
   3  -5  -1 7176.50  248.83
   3   5   0  485.54   35.37
   3   5   0  477.27   33.37
   3   5   0  402.92   29.28
   3  -5   0  469.37   37.10
   3   5   0  430.05   26.29
   3  -5   0  431.60   33.14
   3  -5   1  927.65   59.27
   3   5   1  989.15   46.35
   3   5   1  963.25   48.69
   3   5   1  998.95   46.93
   3   5   2 5506.17  242.25
   3  -5   2 4860.06  207.45
   3   5   2 5330.79  200.99
   3   5   2 5080.69  208.87
   3   5   2 4813.38  205.68
   3   5   3   96.15   25.95
   3  -5   3   84.41   25.60
   3  -5   3  138.49   22.17
   3  -7  -4  222.43   37.85
   3   7  -4  238.20   46.99
   3  -7  -3  849.37   60.26
   3  -7  -3  686.25   53.09
   3   7  -3  659.58   68.34
   3  -7  -3  752.29   51.53
   3  -7  -2  527.90   36.01
   3   7  -2  515.38   24.79
   3  -7  -2  540.11   41.55
   3   7  -2  562.98   53.13
   3  -7  -2  529.99   34.04
   3  -7  -2  543.45   48.57
   3  -7  -2  553.28   41.70
   3  -7  -1  518.31   40.54
   3   7  -1  461.28   31.37
   3  -7  -1  530.23   25.01
   3   7  -1  567.26   45.09
   3  -7  -1  565.26   38.95
   3  -7  -1  549.73   37.93
   3  -7  -1  573.33   26.08
   3  -7  -1  551.76   28.24
   3  -7   0 1144.02   59.86
   3   7   0 1244.61   66.48
   3   7   0 1231.55   61.54
   3   7   0 1169.23   67.59
   3   7   0 1202.41   56.97
   3  -7   1  437.56   44.65
   3   7   1  469.87   36.49
   3   7   1  474.12   41.57
   3   7   1  475.86   45.17
   3   7   1  419.41   35.51
   3   7   2    6.11   12.31
   3  -7   2   22.44   17.55
   3   7   2   18.56   14.28
   3   7   2   43.72   18.69
   3  -7   3  363.24   46.92
   3   7   3  346.37   44.80
   3   9  -3  641.92   69.37
   3  -9  -3  583.91   48.78
   3  -9  -3  646.10   48.50
   3   9  -2 2402.19   91.67
   3  -9  -2 2071.51  110.62
   3   9  -2 2231.61  126.24
   3  -9  -2 2437.48  108.07
   3  -9  -2 2437.02   92.44
   3  -9  -2 2502.79   90.49
   3  -9  -1 1841.15   93.84
   3   9  -1 1757.27   81.52
   3   9  -1 1913.22  101.23
   3  -9  -1 1821.63   88.52
   3  -9  -1 1844.71   90.65
   3  -9   0 2049.62  107.82
   3  -9   0 2379.98   98.95
   3   9   0 2542.41  106.42
   3   9   0 2168.69  115.44
   3  -9   1 2022.21  108.30
   3   9   1 1815.41  102.77
   3   9   1 1913.04  104.38
   3   9   1 1711.85   89.67
   3  -9   2 1501.67   95.85
   3   9   2 1424.40   95.98
   3   9   2 1552.92   92.82
   3  -9   3 1625.58  110.07
   3   9   3 1655.01  109.98
   3  11  -3 1441.02  113.01
   3 -11  -3 1366.90   87.92
   3 -11  -3 1543.02   81.26
   3  11  -2  262.77   21.86
   3 -11  -2  238.20   32.03
   3  11  -2  260.69   40.40
   3 -11  -2  296.06   29.66
   3 -11  -1 1102.99   72.33
   3  11  -1 1162.36   63.89
   3  11  -1 1295.37   82.62
   3  11   0 1832.99   96.51
   3 -11   0 1826.03  100.98
   3  11   0 2132.68   99.23
   3 -11   0 1967.92   83.24
   3  11   0 2021.18  115.80
   3 -11   1  190.11   29.28
   3 -11   1  230.82   33.95
   3  11   1  266.11   38.70
   3  11   1  246.43   30.09
   3  11   1  228.06   31.92
   3 -11   2 1540.52  100.67
   3 -11   2 1333.71   83.22
   3  11   2 1389.08   99.42
   3  11   2 1370.03   89.53
   3 -11   3  668.15   71.47
   3  11   3  739.10   75.56
   3  11   3  749.19   74.63
   3  13  -3  437.80   62.79
   3 -13  -3  322.61   44.19
   3  13  -2 1424.54  102.94
   3 -13  -2 1551.82   94.58
   3  13  -1 1275.11   71.91
   3 -13  -1 1223.25   80.31
   3  13  -1 1126.20   79.73
   3  13  -1 1276.29   86.32
   3  13   0 1025.87   66.78
   3 -13   0 1175.19   77.45
   3  13   0 1225.94   92.26
   3 -13   1 1476.18   92.09
   3 -13   1 1598.74   91.99
   3  13   1 1803.25  116.32
   3  13   1 1503.65   98.50
   3 -13   2  471.34   48.00
   3  13   2  596.05   67.56
   3  13   2  583.55   55.29
   3  15  -2  534.95   62.40
   3 -15  -2  483.95   51.84
   3 -15  -1  288.94   38.72
   3  15  -1  161.53   30.80
   3 -15   0  253.98   37.13
   3  15   0  179.61   24.45
   3  15   0  203.28   43.44
   3 -15   1  732.74   63.60
   3  15   1 1015.71   90.97
   3  15   2  124.72   38.69
   3 -15   2  112.70   25.97
   3 -17  -2  418.24   50.92
   3  17  -2  353.63   56.17
   3 -17  -1  137.20   31.24
   3  17  -1  149.07   32.91
   3 -17   0 1909.60  115.30
   3  17   0 1709.05  134.10
   3 -17   1  478.10   53.64
   3  17   1  697.81   82.17
   3 -19   0  442.81   56.53
   3  19   0  441.72   70.44
   4   0  -4  426.74   58.63
   4   0  -3  264.01   26.32
   4   0  -3  313.34   19.33
   4   0  -3  231.08   37.60
   4   0  -2 4097.72  143.48
   4   0  -2 4021.21  170.65
   4   0  -2 3838.80  167.88
   4   0  -2 3807.59  160.80
   4   0  -1 4978.75  181.20
   4   0  -1 4736.03  155.71
   4   0   0 1527.30   62.34
   4   0   0 1521.93   72.34
   4   0   1 4290.91  173.06
   4   0   1 4603.12  174.76
   4   0   1 4431.64  194.24
   4   0   2 3143.14  135.52
   4   0   2 3029.42  142.33
   4   0   3  750.50   64.86
   4  -2  -4  742.47   74.03
   4   2  -4  764.57   80.08
   4  -2  -3  228.43   26.74
   4  -2  -3  223.08   19.78
   4  -2  -3  207.77   33.12
   4   2  -3  158.47   32.00
   4  -2  -2  927.20   50.50
   4   2  -2  885.05   63.26
   4  -2  -2  960.19   59.60
   4  -2  -2  871.77   58.00
   4   2  -2  770.44   58.25
   4  -2  -2  862.11   56.36
   4  -2  -2  865.07   45.58
   4  -2  -1 2962.14  116.76
   4  -2  -1 3533.82  131.81
   4  -2   0  367.70   30.57
   4   2   0  328.57   17.42
   4   2   0  290.52   26.07
   4  -2   0  364.96   32.44
   4   2   0  352.69   22.99
   4  -2   1  984.62   57.99
   4   2   1  989.50   56.80
   4   2   1 1029.06   72.08
   4  -2   1  909.45   70.24
   4   2   1  968.07   56.34
   4  -2   2 1077.61   72.92
   4  -2   2 1158.34   66.67
   4   2   2 1091.69   70.61
   4   2   3   31.77   14.19
   4  -2   3   28.63   15.20
   4  -4  -4  635.11   66.28
   4   4  -4  698.80   78.47
   4  -4  -3 1563.71   96.37
   4   4  -3 1579.23  107.56
   4  -4  -3 1618.61   76.67
   4  -4  -3 1479.91   82.96
   4  -4  -2  628.16   42.39
   4   4  -2  558.20   50.97
   4  -4  -2  634.57   45.49
   4   4  -2  584.36   51.12
   4  -4  -2  614.32   43.97
   4   4  -2  620.37   30.42
   4  -4  -2  626.84   48.30
   4  -4  -2  684.33   42.39
   4  -4  -1 2954.74  121.69
   4   4  -1 3040.08  121.44
   4   4   0 2784.75   62.08
   4   4   0 2999.54   76.83
   4   4   0 2930.03   57.74
   4  -4   1  774.83   60.97
   4  -4   1  560.97   45.91
   4   4   1  657.93   44.02
   4   4   1  621.79   41.61
   4   4   1  720.35   59.34
   4   4   1  611.05   42.82
   4  -4   2 1950.39  106.96
   4  -4   2 2062.16   99.28
   4   4   2 1982.83  104.58
   4  -4   3  926.97   75.42
   4   4   3  888.28   73.21
   4  -6  -4  115.73   26.09
   4   6  -4   83.09   31.39
   4  -6  -3 2663.67  127.75
   4   6  -3 2604.01  147.74
   4  -6  -3 2279.03  119.16
   4  -6  -3 2558.02  114.55
   4  -6  -2  680.25   48.10
   4  -6  -2  715.72   46.15
   4   6  -2  671.46   33.13
   4   6  -2  578.92   52.88
   4  -6  -2  645.15   51.59
   4  -6  -2  638.08   43.50
   4  -6  -2  722.08   47.26
   4   6  -1   99.91   14.17
   4  -6  -1   99.23   14.30
   4   6  -1   79.71   17.63
   4  -6  -1   83.65   18.82
   4   6   0 4782.60  188.78
   4   6   0 5002.29  181.71
   4   6   0 4556.41  181.44
   4  -6   0 5028.63  192.93
   4   6   0 4611.25  170.20
   4  -6   0 4252.22  183.06
   4  -6   1  471.21   49.02
   4   6   1  452.11   37.51
   4   6   1  469.77   38.65
   4   6   1  406.25   46.34
   4   6   1  439.62   36.73
   4   6   2  118.39   23.09
   4  -6   2  152.53   28.20
   4   6   2  150.96   24.81
   4  -6   3 1647.75  110.53
   4   6   3 1735.41  109.32
   4  -8  -3  636.97   50.07
   4   8  -3  600.73   65.18
   4  -8  -3  664.21   51.08
   4  -8  -2 1683.57   75.54
   4  -8  -2 1574.54   88.18
   4   8  -2 1772.06   69.79
   4   8  -2 1449.06   96.92
   4  -8  -2 1629.61   95.62
   4  -8  -2 1604.11   86.29
   4  -8  -2 1664.20   75.24
   4  -8  -1 2024.80  103.85
   4   8  -1 2028.30   92.27
   4  -8  -1 1937.28   99.95
   4  -8  -1 2199.75   84.84
   4  -8   0 1771.71   90.95
   4   8   0 2130.48  101.73
   4   8   0 2047.05   94.30
   4   8   0 1907.72  100.37
   4   8   0 1884.45   84.95
   4  -8   1 2340.78  127.24
   4   8   1 2422.04  117.99
   4   8   1 2438.80  129.32
   4   8   1 2303.89  110.01
   4  -8   2  857.99   69.54
   4   8   2  807.32   65.43
   4   8   2  916.83   67.80
   4  -8   3  795.10   76.02
   4   8   3  858.23   74.13
   4  10  -3   -3.32   14.08
   4 -10  -3    4.93   13.54
   4  10  -2 1380.12   63.55
   4 -10  -2 1354.28   82.75
   4  10  -2 1265.97   90.95
   4 -10  -2 1416.43   58.11
   4 -10  -2 1425.45   78.80
   4 -10  -1  641.74   53.82
   4  10  -1  666.58   45.23
   4  10  -1  823.45   64.60
   4 -10  -1  668.57   53.34
   4 -10   0  225.74   26.21
   4  10   0  225.01   31.78
   4  10   0  258.03   37.22
   4 -10   1 1873.36  107.76
   4  10   1 1699.03  101.05
   4  10   1 1614.97   88.41
   4 -10   2  909.82   76.68
   4  10   2  787.77   69.65
   4  10   2  777.50   64.83
   4  10   3  109.07   26.05
   4 -10   3  114.90   31.10
   4  12  -3 1443.57  111.29
   4 -12  -3 1221.84   85.13
   4 -12  -3 1236.38   76.99
   4 -12  -2   35.53   17.21
   4  12  -2   16.85   15.09
   4 -12  -2   24.31   14.73
   4 -12  -1   83.53   20.87
   4  12  -1   57.11   13.89
   4 -12   0 2430.57  128.80
   4 -12   0 2674.42  109.49
   4  12   0 2324.72  122.73
   4  12   0 2687.19  148.81
   4  12   1  127.07   23.11
   4  12   1  131.77   30.67
   4 -12   1  122.49   27.74
   4 -12   1  153.71   29.43
   4  12   2   35.15   13.22
   4 -12   2   85.98   27.24
   4  12   2   86.37   26.45
   4 -14  -2 1342.37   91.18
   4  14  -2 1271.71   98.19
   4 -14  -1 2475.16  133.71
   4  14   0   94.77   20.93
   4  14   0   93.99   36.82
   4 -14   0  119.69   27.26
   4 -14   1  845.04   70.04
   4  14   1 1026.30   89.78
   4 -14   2 1356.17   94.46
   4  14   2 1571.72  116.75
   4  14   2 1617.80  102.22
   4  16  -2  510.21   61.51
   4 -16  -2  453.31   56.20
   4 -16  -1  133.43   29.15
   4  16  -1  121.93   27.12
   4 -16   0  393.34   48.85
   4  16   0  388.76   63.68
   4 -16   1  400.37   48.41
   4  16   1  487.40   67.26
   4 -18  -1  404.67   54.89
   4  18  -1  402.87   51.59
   4  18   0  120.07   40.50
   4 -18   0   87.48   26.14
   5  -1  -4  827.20   82.26
   5   1  -4  882.04   87.25
   5  -1  -3 1066.07   57.90
   5   1  -3 1005.31   51.78
   5  -1  -3 1052.80   52.75
   5  -1  -3  925.91   77.67
   5   1  -3 1143.00   47.46
   5   1  -3  929.94   78.43
   5   1  -2  197.10   11.15
   5   1  -2  229.87   30.60
   5  -1  -2  163.02   24.06
   5  -1  -2  159.64   21.10
   5   1  -2  172.47   21.77
   5  -1  -2  226.55   17.64
   5   1  -1 2142.15   75.40
   5  -1  -1 2163.19  101.89
   5  -1  -1 2050.26   81.06
   5   1  -1 2098.30   81.21
   5   1  -1 2244.10   75.30
   5   1  -1 2292.41  106.12
   5   1   0 2744.99  106.80
   5  -1   0 2653.74  109.34
   5  -1   0 2684.39  121.09
   5   1   0 2699.12  120.19
   5  -1   0 2446.51  118.53
   5  -1   0 2774.65  126.81
   5   1   0 2736.83  123.14
   5  -1   1  395.58   36.82
   5   1   1  478.81   39.70
   5  -1   1  472.65   39.36
   5   1   1  451.53   49.25
   5  -1   1  466.90   49.89
   5   1   1  446.19   37.68
   5  -1   2 1464.59   87.73
   5   1   2 1301.03   82.82
   5   1   3  790.96   69.33
   5  -1   3  710.58   66.56
   5  -3  -4  596.52   69.07
   5   3  -4  750.04   80.76
   5  -3  -3 2652.04  138.63
   5  -3  -3 2514.68  108.43
   5   3  -3 2232.42  137.78
   5  -3  -3 2691.04  117.21
   5  -3  -2   78.89   12.83
   5  -3  -2   88.28   20.08
   5  -3  -2   47.56   12.01
   5   3  -2   68.03   10.70
   5  -3  -2   67.47   15.12
   5  -3  -1 1939.16   92.37
   5   3  -1 1913.70   87.59
   5   3  -1 1995.71  101.25
   5   3   0 4470.60  147.80
   5   3   0 4296.34  169.23
   5   3   0 3936.83  174.26
   5  -3   0 3806.00  171.70
   5  -3   0 3898.29  174.85
   5   3   0 4312.36  155.00
   5  -3   1  244.87   29.62
   5   3   1  271.86   28.58
   5  -3   1  274.21   39.28
   5  -3   2 1504.49   92.06
   5   3   2 1418.67   86.62
   5   3   3 1178.09   87.60
   5  -3   3 1350.04   95.00
   5  -5  -4   49.48   17.11
   5   5  -4   33.33   29.03
   5  -5  -3  176.93   24.40
   5  -5  -3  168.24   23.84
   5  -5  -3  172.13   28.90
   5   5  -3  160.50   34.08
   5  -5  -2 4520.62  181.59
   5  -5  -2 4666.05  181.37
   5   5  -2 4259.88  161.05
   5  -5  -2 4053.72  181.19
   5  -5  -2 4591.27  180.82
   5  -5  -2 4643.24  175.47
   5   5  -1  133.20   17.52
   5  -5  -1  169.45   21.27
   5  -5  -1  182.09   26.82
   5   5  -1  180.25   26.07
   5   5   0  361.44   27.50
   5   5   0  418.96   34.77
   5   5   0  372.72   38.21
   5  -5   0  358.08   38.77
   5   5   0  391.01   27.22
   5  -5   0  413.25   39.29
   5  -5   1 4240.16  196.89
   5  -5   1 4140.89  182.10
   5   5   1 4641.44  171.56
   5   5   1 4058.24  171.03
   5  -5   2  238.12   34.79
   5   5   2  276.62   33.24
   5  -5   3  257.46   41.32
   5   5   3  255.58   40.27
   5  -7  -3  415.21   41.15
   5  -7  -3  407.83   39.77
   5   7  -3  397.62   52.30
   5  -7  -2  164.15   21.98
   5  -7  -2  182.79   26.59
   5  -7  -2  214.76   23.93
   5   7  -2  181.87   17.39
   5  -7  -2  179.19   27.58
   5  -7  -2  196.13   25.32
   5  -7  -1  549.87   38.36
   5   7  -1  577.58   40.01
   5  -7  -1  532.06   46.57
   5  -7  -1  587.75   38.87
   5   7   0  684.90   48.79
   5   7   0  688.56   54.66
   5   7   0  632.84   45.71
   5   7   0  711.32   41.53
   5  -7   0  597.90   50.46
   5   7   1   59.55   15.99
   5  -7   1   76.27   24.88
   5   7   1   87.02   18.62
   5  -7   2  344.07   44.87
   5   7   2  311.39   39.31
   5   7   3  232.91   39.70
   5  -7   3  174.68   36.81
   5   9  -3 1006.63   86.96
   5  -9  -3  997.16   70.20
   5  -9  -2 1309.80   60.28
   5  -9  -2 1190.74   77.55
   5   9  -2 1215.10   60.40
   5   9  -2 1220.60   87.59
   5  -9  -2 1225.44   61.13
   5  -9  -2 1156.14   76.23
   5  -9  -1 2580.38  129.33
   5   9  -1 2646.54  118.07
   5  -9  -1 2490.24  125.55
   5  -9  -1 2794.89  110.28
   5  -9   0 1299.19   76.67
   5   9   0 1311.48   81.17
   5  -9   1 1245.38   89.93
   5   9   1 1366.50   82.02
   5   9   1 1235.08   74.23
   5  -9   2 2671.06  147.65
   5   9   2 2569.02  134.48
   5   9   2 2280.77  128.94
   5  11  -3  179.34   41.11
   5 -11  -3  140.42   27.64
   5 -11  -3  173.57   30.81
   5 -11  -2 1230.52   83.33
   5  11  -2 1290.95   93.48
   5 -11  -2 1196.30   77.28
   5 -11  -1  787.25   64.14
   5 -11  -1  846.02   35.67
   5 -11  -1  891.86   65.93
   5 -11   0  654.42   51.52
   5  11   0  763.30   65.73
   5  11   1 1494.97   93.87
   5  11   1 1390.41   82.48
   5 -11   2  339.87   51.34
   5  11   2  244.22   40.11
   5  11   2  253.78   36.93
   5 -13  -2  617.86   59.24
   5  13  -2  629.63   66.87
   5 -13  -2  624.26   54.81
   5 -13  -1  724.39   63.86
   5 -13   0 1029.80   80.20
   5  13   0 1188.52   95.08
   5 -13   1  634.13   61.45
   5  13   1  605.78   63.55
   5  13   2  208.40   37.22
   5 -13   2  301.04   54.05
   5 -13   2  192.64   36.31
   5  13   2  210.15   43.23
   5 -15  -2   83.15   24.04
   5  15  -2   99.60   26.08
   5 -15  -1  141.54   30.26
   5 -15   0  720.07   66.51
   5  15   0  689.15   78.88
   5  15   1  117.07   34.37
   5 -15   1  177.38   33.74
   5 -17  -1 1023.20   82.81
   5  17  -1  767.06   75.69
   5 -17   0 1241.06   97.48
   5  17   0 1470.59  126.43
   6   0  -4  139.56   37.67
   6   0  -3 1671.46   75.22
   6   0  -3 1371.99  100.04
   6   0  -2 4396.44  144.72
   6   0  -2 3854.04  167.05
   6   0  -1  942.04   41.72
   6   0  -1  853.20   60.67
   6   0   0 2940.44  119.53
   6   0   0 2952.30  137.76
   6   0   0 2809.70  133.83
   6   0   0 2910.76  143.94
   6   0   1 2971.97  134.76
   6   0   2  819.28   64.75
   6   0   3  534.86   58.16
   6  -2  -4   57.22   23.29
   6   2  -4   25.64   13.90
   6   2  -3  648.02   36.09
   6  -2  -3  654.72   44.22
   6  -2  -3  616.66   60.53
   6   2  -3  506.35   56.65
   6  -2  -2 1092.00   63.87
   6   2  -2 1183.09   65.20
   6   2  -2  986.41   59.03
   6   2  -1   43.17    5.96
   6   2  -1   59.45   12.51
   6  -2   0 2147.22   96.96
   6   2   0 1821.08  100.86
   6  -2   0 2004.58  107.33
   6  -2   0 2130.76  114.48
   6   2   0 2169.12   89.37
   6  -2   1  465.40   43.69
   6   2   1  505.97   41.28
   6   2   2   73.28   20.14
   6  -2   2   66.99   18.09
   6   2   3  804.46   73.26
   6  -2   3  807.03   74.99
   6  -4  -3  412.68   38.04
   6  -4  -3  391.53   45.92
   6   4  -3  355.40   47.31
   6  -4  -2 1236.36   73.58
   6   4  -2 1291.86   66.55
   6  -4  -2 1462.00   70.59
   6  -4  -2 1458.25   81.90
   6   4  -1 1495.70   77.70
   6  -4  -1 1448.42   80.85
   6  -4  -1 1513.72   88.38
   6   4   0  804.45   36.74
   6  -4   0  770.10   60.28
   6  -4   0  752.85   61.69
   6   4   0  768.45   43.23
   6  -4   1 1276.96   79.88
   6   4   1 1239.10   71.31
   6  -4   2 1292.38   88.24
   6   4   2 1101.52   78.13
   6  -6  -3   71.24   19.30
   6  -6  -3   70.32   19.09
   6   6  -3   89.89   30.30
   6  -6  -2  132.26   21.19
   6   6  -2  136.94   16.89
   6  -6  -2  105.83   18.80
   6  -6  -2  123.76   25.46
   6  -6  -2  139.36   21.41
   6  -6  -2  144.09   20.23
   6  -6  -1 2721.15  123.08
   6   6  -1 2945.92  123.90
   6  -6  -1 2755.50  134.87
   6  -6  -1 2657.93  123.22
   6   6   0  264.12   23.08
   6  -6   0  260.57   37.70
   6   6   0  261.07   24.36
   6  -6   0  249.55   34.91
   6  -6   1  402.93   45.59
   6   6   1  448.09   35.97
   6   6   1  337.91   34.33
   6  -6   2 1888.90  116.15
   6   6   2 1676.54  102.39
   6  -8  -3 1395.97   87.56
   6   8  -3 1578.84  112.24
   6  -8  -2  890.48   68.23
   6  -8  -2 1135.06   61.00
   6   8  -2  965.65   54.04
   6  -8  -2  973.40   58.91
   6  -8  -2 1006.68   72.88
   6   8  -1 1296.93   72.86
   6  -8  -1 1266.98   82.06
   6  -8  -1 1273.63   71.08
   6   8   0 3129.12  135.66
   6   8   0 3467.05  131.37
   6  -8   1  518.72   56.52
   6   8   1  511.17   44.23
   6   8   1  422.35   40.39
   6  -8   2  359.15   49.13
   6   8   2  297.75   38.55
   6 -10  -3  616.11   56.98
   6  10  -3  625.86   70.97
   6 -10  -3  618.85   59.48
   6 -10  -2  688.41   60.57
   6 -10  -2  658.52   58.06
   6 -10  -1   92.68   17.41
   6 -10  -1   96.63   24.87
   6 -10  -1   86.61   22.92
   6 -10   0 1006.22   70.78
   6  10   0 1085.77   71.61
   6  10   1  911.94   66.92
   6  10   1  834.36   61.13
   6  10   2   53.58   17.14
   6 -10   2  113.68   33.42
   6  10   2   76.16   23.38
   6 -12  -2  111.31   26.68
   6  12  -2  125.39   31.66
   6 -12  -2  113.42   26.93
   6 -12  -1 1768.92  107.55
   6  12   0   30.86   15.35
   6  12   1  106.76   21.04
   6  12   1  106.59   26.85
   6 -14  -2 1171.81   88.91
   6  14  -2 1231.10  102.13
   6 -14  -2 1243.96   88.07
   6 -14  -1  213.79   37.64
   6 -14   0  682.50   65.78
   6  14   0  849.92   81.29
   6 -14   1 1486.60  106.41
   6  14   1 1565.83  107.85
   6 -16  -1  303.76   45.85
   6  16  -1  276.23   56.00
   6  16   0  195.15   39.94
   6 -16   0  197.59   36.77
   7   1  -3  100.18   18.24
   7  -1  -3   88.35   17.46
   7  -1  -3   59.32   19.37
   7   1  -3   83.12   21.97
   7  -1  -2  979.43   53.99
   7   1  -2  949.49   52.86
   7  -1  -2  972.40   41.03
   7  -1  -1 1787.03   77.35
   7   1  -1 1827.11   69.31
   7  -1   0  290.90   29.43
   7   1   0  245.37   35.14
   7  -1   0  282.84   37.55
   7   1   0  291.42   26.67
   7  -1   1  809.49   60.94
   7   1   1  767.08   56.71
   7   1   2  877.84   71.10
   7  -1   2 1011.80   78.17
   7  -3  -3  153.93   26.07
   7  -3  -3  113.59   29.11
   7   3  -3  132.08   30.37
   7  -3  -2 2128.72   96.26
   7   3  -2 2125.85   95.12
   7   3  -2 1897.75   96.67
   7  -3  -2 2164.53   91.16
   7  -3  -1 1679.16  100.23
   7  -3   0 1099.24   66.37
   7   3   0  868.09   66.69
   7  -3   0  976.42   73.99
   7   3   0 1076.09   55.35
   7  -3   1 1546.55   94.22
   7   3   1 1563.20   85.68
   7  -3   2  921.54   75.37
   7   3   2  655.96   60.23
   7  -5  -3 2100.84  110.75
   7  -5  -3 2270.01  125.48
   7   5  -3 1866.18  127.45
   7   5  -2  306.32   28.95
   7  -5  -2  301.10   27.99
   7   5  -1  317.90   23.10
   7  -5  -1  284.20   38.82
   7  -5  -1  263.02   33.15
   7  -5   0 3394.40  150.77
   7  -5   0 3071.99  155.87
   7   5   0 3330.66  127.89
   7  -5   1  678.09   60.52
   7   5   1  686.51   51.42
   7  -5   2  391.20   50.51
   7   5   2  290.02   38.86
   7  -7  -3   80.16   21.01
   7   7  -3   75.42   24.39
   7  -7  -2  408.90   46.34
   7  -7  -2  454.34   51.78
   7   7  -1  490.92   37.18
   7  -7  -1  401.98   48.19
   7  -7  -1  409.20   42.06
   7   7   0  190.66   20.40
   7   7   0  157.66   28.64
   7   7   0  161.85   19.99
   7  -7   1  407.92   48.99
   7   7   1  378.97   38.60
   7   7   2  196.05   31.23
   7  -7   2  235.80   42.28
   7  -9  -3  679.84   63.11
   7   9  -3  667.03   74.01
   7  -9  -3  789.90   72.17
   7  -9  -2 2145.52  120.72
   7  -9  -2 2091.93  121.56
   7   9  -1  735.04   56.30
   7  -9  -1  606.13   59.71
   7   9   0  553.04   44.60
   7   9   0  689.51   45.60
   7   9   1 2616.38  126.88
   7   9   1 2466.80  127.71
   7 -11  -2  136.38   32.43
   7 -11  -2   97.06   26.92
   7 -11  -1  794.94   68.67
   7  11  -1  876.74   70.86
   7 -11  -1  755.93   68.43
   7  11   0  806.33   61.61
   7  11   1   21.82   14.13
   7 -11   1   16.79   14.35
   7  11   1    8.74   12.63
   7 -13  -2  347.84   46.54
   7 -13  -2  327.19   47.90
   7  13  -2  378.09   55.96
   7 -13  -1  735.93   67.69
   7  13  -1  795.14   77.00
   7 -13   0  791.73   71.28
   7  13   0  781.17   68.56
   8   0  -3 1735.67  114.27
   8   0  -1  451.13   28.11
   8   0   0 3002.41  127.36
   8   0   0 2663.63  144.41
   8   0   1  623.77   53.37
   8   0   2  209.41   35.94
   8  -2  -3  250.03   31.24
   8  -2  -3  178.48   32.74
   8   2  -3  171.18   34.77
   8  -2  -1 2081.27   91.14
   8  -2  -1 1948.51  116.63
   8   2  -1 1978.61   71.85
   8  -2   0  188.73   25.48
   8   2   0  172.74   30.91
   8  -2   0  168.68   34.06
   8   2   0  166.93   20.35
   8  -2   1  242.36   34.64
   8   2   1  254.42   32.18
   8   2   2  536.28   56.80
   8  -2   2  647.03   65.30
   8  -4  -3  574.55   52.58
   8  -4  -3  612.23   63.04
   8   4  -3  517.87   60.54
   8  -4  -1  619.70   60.66
   8  -4   0  867.79   62.82
   8  -4   0  816.57   72.69
   8   4   0  807.44   48.24
   8  -4   1 1544.03  101.05
   8   4   1 1529.16   87.48
   8  -6  -3  231.16   36.65
   8   6  -3  216.80   39.78
   8  -6  -2 1459.49  101.48
   8  -6  -1  358.53   48.62
   8  -6   0  619.70   57.94
   8   6   0  518.97   52.46
   8  -6   0  714.64   69.16
   8   6   0  601.78   41.81
   8  -6   1 1390.16   98.34
   8   6   1 1347.54   82.39
   8  -8  -2  321.23   48.64
   8  -8  -2  443.95   54.45
   8  -8  -1 2440.25  139.64
   8   8   0  121.74   25.81
   8   8   1  190.13   29.40
   8  -8   1  216.06   41.44
   8 -10  -2   30.51   17.84
   8 -10  -2    8.32   19.70
   8 -10  -1  490.16   57.34
   8  10   0  901.46   71.56
   8  10   1   25.49   10.82
   8 -10   1   36.12   20.52
   8 -12  -1  110.80   26.84
   9   1  -1  128.20   31.19
   9  -1  -1   95.39   30.37
   9  -1   0  379.64   37.38
   9   1   0  391.85   48.20
   9  -1   0  490.20   55.54
   9   1   0  381.75   34.22
   9   1   1 1269.11   82.81
   9  -1   1 1299.66   89.04
   9  -3  -1 1392.51   75.88
   9  -3  -1 1479.81  103.47
   9  -3   0  649.59   55.16
   9   3   0  634.19   61.63
   9  -3   0  710.67   71.50
   9  -3   1  273.96   40.79
   9   3   1  293.05   34.82
   9  -5  -2  231.91   41.28
   9  -5  -1 2103.14  108.27
   9  -5  -1 1633.57  115.38
   9  -5   0 1022.67   74.65
   9  -5   0  961.49   84.71
   9  -5   1  502.35   59.73
   9   5   1  509.65   46.87
   9  -7  -2  316.69   48.43
   9  -7  -1  185.07   36.35
   9  -7   0  288.91   44.63
   9   7   0  277.37   40.76
   9  -9  -1  247.20   44.58
   9  -9   0 2042.67  131.14
   9   9   0 1838.39  117.13
  10   0  -1 2499.16  147.76
  10   0   0  510.83   62.16
  10   2  -1    6.99   21.65
  10  -2  -1   61.70   24.69
  10   2   0  465.93   57.35
  10  -2   0  478.92   59.63
   0   0   0    0.00    0.00



TITL cmy-2-e-1 in Cm
REM Cm (#8 in standard setting)
CELL 0.71073   7.967272  15.761898   3.493161  90.0000 100.1862  90.0000
ZERR    2.00   0.000884   0.001676   0.000374   0.0000   0.0107   0.0000
LATT -7
SYMM  x,-y, z
SFAC C H N O
UNIT 22.00 20.00 2.00 2.00
TREF
HKLF 4
END
_computing_structure_solution     'SHELXT 2014/5 (Sheldrick, 2014)'
_computing_structure_solution     'SHELXT 2014/5 (Sheldrick, 2014)'
;
_shelx_hkl_checksum              71806
_olex2_submission_special_instructions 'No special instructions were received'
loop_
_space_group_symop_operation_xyz
'x, y, z'
'x, -y, z'
'x+1/2, y+1/2, z'
'x+1/2, -y+1/2, z'
loop_
_atom_site_label
_atom_site_type_symbol
_atom_site_fract_x
_atom_site_fract_y
_atom_site_fract_z
_atom_site_U_iso_or_equiv
_atom_site_adp_type
_atom_site_occupancy
_atom_site_site_symmetry_order
_atom_site_calc_flag
_atom_site_refinement_flags_posn
_atom_site_refinement_flags_adp
_atom_site_refinement_flags_occupancy
_atom_site_disorder_assembly
_atom_site_disorder_group
Eu1 Eu 0.84900(17) 0.5000 0.4970(3) 0.0175(4) Uani 1 2 d S T P . .
Cd1 Cd 0.61690(16) 0.17836(7) 0.1436(3) 0.0103(4) Uani 1 1 d . . . . .
Cd2 Cd 0.49832(14) 0.38771(8) 0.8356(3) 0.0088(4) Uani 1 1 d . . . . .
B1 B 0.306(2) 0.1971(12) 0.590(5) 0.005(3) Uani 1 1 d . U . . .
B2 B 0.730(4) 0.0000 0.204(9) 0.010(5) Uani 1 2 d S TU P . .
O1 O 0.147(2) 0.1782(10) 0.385(5) 0.027(4) Uani 1 1 d . . . . .
O2 O 0.325(2) 0.2710(9) 0.795(4) 0.024(4) Uani 1 1 d . . . . .
O3 O 0.4451(17) 0.1461(9) 0.582(4) 0.018(3) Uani 1 1 d . . . . .
O4 O 0.558(3) 0.0000 0.099(6) 0.017(4) Uani 1 2 d S TU P . .
O5 O 0.8129(16) 0.0753(8) 0.264(3) 0.011(3) Uani 1 1 d . . . . .
O6 O 0.673(2) 0.5000 0.920(5) 0.011(4) Uani 1 2 d S T P . .
loop_
_atom_site_aniso_label
_atom_site_aniso_U_11
_atom_site_aniso_U_22
_atom_site_aniso_U_33
_atom_site_aniso_U_23
_atom_site_aniso_U_13
_atom_site_aniso_U_12
Eu1 0.0114(7) 0.0271(8) 0.0139(7) 0.000 0.0018(5) 0.000
Cd1 0.0099(7) 0.0126(6) 0.0092(6) -0.0008(5) 0.0037(5) 0.0009(5)
Cd2 0.0078(7) 0.0100(6) 0.0081(6) 0.0001(5) 0.0004(5) -0.0012(4)
B1 0.005(5) 0.005(5) 0.005(5) 0.001(4) 0.001(4) 0.003(4)
B2 0.011(6) 0.012(6) 0.009(6) 0.000 0.003(4) 0.000
O1 0.015(8) 0.047(11) 0.019(7) -0.007(7) 0.004(6) -0.016(7)
O2 0.032(9) 0.018(7) 0.032(9) -0.017(6) 0.027(7) -0.016(6)
O3 0.013(7) 0.024(8) 0.018(7) 0.004(6) 0.009(6) 0.009(6)
O4 0.017(6) 0.020(6) 0.015(5) 0.000 0.004(4) 0.000
O5 0.013(7) 0.011(6) 0.007(6) 0.004(5) -0.001(5) -0.002(5)
O6 0.011(9) 0.010(9) 0.010(8) 0.000 -0.004(7) 0.000
loop_
_atom_type_symbol
_atom_type_description
_atom_type_scat_dispersion_real
_atom_type_scat_dispersion_imag
_atom_type_scat_source
B B 0.0013 0.0007 'International Tables Vol C Tables 4.2.6.8 and 6.1.1.4'
Cd Cd -0.8075 1.2024 'International Tables Vol C Tables 4.2.6.8 and 6.1.1.4'
Eu Eu -0.1578 3.6682 'International Tables Vol C Tables 4.2.6.8 and 6.1.1.4'
O O 0.0106 0.0060 'International Tables Vol C Tables 4.2.6.8 and 6.1.1.4'
loop_
_geom_angle_atom_site_label_1
_geom_angle_atom_site_label_2
_geom_angle_atom_site_label_3
_geom_angle
_geom_angle_site_symmetry_1
_geom_angle_site_symmetry_3
_geom_angle_publ_flag
Eu1 Eu1 Eu1 180.00(4) 1_554 1_556 ?
Eu1 Eu1 Cd2 117.15(3) 1_554 . ?
Eu1 Eu1 Cd2 62.85(3) 1_556 . ?
Eu1 Eu1 Cd2 62.85(3) 1_556 2_565 ?
Eu1 Eu1 Cd2 117.15(3) 1_554 2_565 ?
Cd2 Eu1 Cd2 57.58(4) . 2_565 ?
B1 Eu1 Eu1 97.1(3) 4 1_554 ?
B1 Eu1 Eu1 82.9(3) 4 1_556 ?
B1 Eu1 Eu1 82.9(3) 3 1_556 ?
B1 Eu1 Eu1 97.1(3) 3 1_554 ?
B1 Eu1 Cd2 52.3(3) 4 . ?
B1 Eu1 Cd2 109.8(3) 3 . ?
B1 Eu1 Cd2 109.8(3) 4 2_565 ?
B1 Eu1 Cd2 52.3(3) 3 2_565 ?
B1 Eu1 B1 161.2(7) 4 3 ?
O3 Eu1 Eu1 93.8(3) 3 1_554 ?
O3 Eu1 Eu1 86.2(3) 4 1_556 ?
O3 Eu1 Eu1 86.2(3) 3 1_556 ?
O3 Eu1 Eu1 93.8(3) 4 1_554 ?
O3 Eu1 Cd2 75.2(3) 3 2_565 ?
O3 Eu1 Cd2 131.2(3) 4 2_565 ?
O3 Eu1 Cd2 75.2(3) 4 . ?
O3 Eu1 Cd2 131.2(3) 3 . ?
O3 Eu1 B1 163.9(5) 3 4 ?
O3 Eu1 B1 24.5(4) 4 4 ?
O3 Eu1 B1 24.5(4) 3 3 ?
O3 Eu1 B1 163.9(5) 4 3 ?
O3 Eu1 O3 143.0(7) 3 4 ?
O3 Eu1 O4 75.1(3) 3 3_556 ?
O3 Eu1 O4 75.1(3) 4 3_556 ?
O4 Eu1 Eu1 137.9(5) 3_556 1_554 ?
O4 Eu1 Eu1 135.8(5) 3 1_556 ?
O4 Eu1 Eu1 44.2(5) 3 1_554 ?
O4 Eu1 Eu1 42.1(5) 3_556 1_556 ?
O4 Eu1 Cd2 99.4(4) 3_556 . ?
O4 Eu1 Cd2 148.1(2) 3 2_565 ?
O4 Eu1 Cd2 99.4(4) 3_556 2_565 ?
O4 Eu1 Cd2 148.1(2) 3 . ?
O4 Eu1 B1 88.9(3) 3_556 3 ?
O4 Eu1 B1 99.4(3) 3 3 ?
O4 Eu1 B1 88.9(3) 3_556 4 ?
O4 Eu1 B1 99.4(3) 3 4 ?
O4 Eu1 O3 80.3(3) 3 3 ?
O4 Eu1 O3 80.3(3) 3 4 ?
O4 Eu1 O4 93.7(7) 3 3_556 ?
O6 Eu1 Eu1 142.1(5) 1_554 1_556 ?
O6 Eu1 Eu1 38.6(5) . 1_556 ?
O6 Eu1 Eu1 141.4(5) . 1_554 ?
O6 Eu1 Eu1 37.9(5) 1_554 1_554 ?
O6 Eu1 Cd2 34.5(2) . 2_565 ?
O6 Eu1 Cd2 84.3(4) 1_554 2_565 ?
O6 Eu1 Cd2 84.3(4) 1_554 . ?
O6 Eu1 Cd2 34.5(2) . . ?
O6 Eu1 B1 80.6(3) . 4 ?
O6 Eu1 B1 80.6(3) . 3 ?
O6 Eu1 B1 91.8(3) 1_554 4 ?
O6 Eu1 B1 91.8(3) 1_554 3 ?
O6 Eu1 O3 98.2(3) . 4 ?
O6 Eu1 O3 104.1(3) 1_554 4 ?
O6 Eu1 O3 104.1(3) 1_554 3 ?
O6 Eu1 O3 98.2(3) . 3 ?
O6 Eu1 O4 174.5(7) . 3 ?
O6 Eu1 O4 80.8(7) . 3_556 ?
O6 Eu1 O4 175.8(7) 1_554 3_556 ?
O6 Eu1 O4 82.1(7) 1_554 3 ?
O6 Eu1 O6 103.4(7) . 1_554 ?
Eu1 Cd1 Eu1 52.864(19) 3_445 3_444 ?
B1 Cd1 Eu1 127.6(4) 4 3_445 ?
B1 Cd1 Eu1 179.5(4) 4 3_444 ?
B1 Cd1 O2 101.5(5) 4 1_554 ?
B1 Cd1 O4 142.7(5) 4 . ?
O1 Cd1 Eu1 150.6(4) 4 3_444 ?
O1 Cd1 Eu1 126.7(4) 4 3_445 ?
O1 Cd1 B1 29.6(5) 4 4 ?
O1 Cd1 O2 71.9(5) 4 1_554 ?
O1 Cd1 O2 54.3(5) 4 4 ?
O1 Cd1 O4 161.7(5) 4 . ?
O2 Cd1 Eu1 93.1(3) 1_554 3_445 ?
O2 Cd1 Eu1 152.7(4) 4_554 3_445 ?
O2 Cd1 Eu1 78.7(3) 1_554 3_444 ?
O2 Cd1 Eu1 151.4(3) 4 3_444 ?
O2 Cd1 Eu1 107.5(4) 4_554 3_444 ?
O2 Cd1 Eu1 103.7(3) 4 3_445 ?
O2 Cd1 B1 72.0(5) 4_554 4 ?
O2 Cd1 B1 28.8(5) 4 4 ?
O2 Cd1 O1 80.1(5) 4_554 4 ?
O2 Cd1 O2 87.3(5) 4_554 4 ?
O2 Cd1 O2 101.7(4) 4_554 1_554 ?
O2 Cd1 O2 123.1(3) 4 1_554 ?
O2 Cd1 O4 114.2(5) 4 . ?
O2 Cd1 O4 115.4(5) 4_554 . ?
O2 Cd1 O4 111.7(5) 1_554 . ?
O3 Cd1 Eu1 80.1(4) 1_554 3_445 ?
O3 Cd1 Eu1 36.2(4) . 3_445 ?
O3 Cd1 Eu1 84.2(4) . 3_444 ?
O3 Cd1 Eu1 33.0(4) 1_554 3_444 ?
O3 Cd1 B1 96.3(5) . 4 ?
O3 Cd1 B1 146.9(6) 1_554 4 ?
O3 Cd1 O1 90.4(5) . 4 ?
O3 Cd1 O1 121.8(5) 1_554 4 ?
O3 Cd1 O2 54.1(5) 1_554 1_554 ?
O3 Cd1 O2 175.6(5) 1_554 4 ?
O3 Cd1 O2 90.1(6) 1_554 4_554 ?
O3 Cd1 O2 168.2(5) . 4_554 ?
O3 Cd1 O2 81.9(4) . 1_554 ?
O3 Cd1 O2 81.4(5) . 4 ?
O3 Cd1 O3 101.0(6) 1_554 . ?
O3 Cd1 O4 72.8(5) . . ?
O3 Cd1 O4 70.1(6) 1_554 . ?
O4 Cd1 Eu1 37.3(4) . 3_445 ?
O4 Cd1 Eu1 37.4(4) . 3_444 ?
O5 Cd1 Eu1 79.6(3) . 3_445 ?
O5 Cd1 Eu1 83.1(3) . 3_444 ?
O5 Cd1 B1 96.7(5) . 4 ?
O5 Cd1 O1 126.3(5) . 4 ?
O5 Cd1 O2 79.2(4) . 4_554 ?
O5 Cd1 O2 161.1(4) . 1_554 ?
O5 Cd1 O2 75.6(4) . 4 ?
O5 Cd1 O3 107.3(5) . 1_554 ?
O5 Cd1 O3 101.2(5) . . ?
O5 Cd1 O4 53.0(5) . . ?
Eu1 Cd2 Eu1 56.20(2) . 1_556 ?
O1 Cd2 Eu1 102.2(4) 4 1_556 ?
O1 Cd2 Eu1 58.9(4) 4_556 1_556 ?
O1 Cd2 Eu1 60.0(4) 4 . ?
O1 Cd2 Eu1 100.2(4) 4_556 . ?
O1 Cd2 O1 96.4(5) 4_556 4 ?
O1 Cd2 O5 82.6(5) 4_556 4_456 ?
O1 Cd2 O5 166.7(5) 4_556 4_455 ?
O2 Cd2 Eu1 148.4(3) . . ?
O2 Cd2 Eu1 142.6(4) . 1_556 ?
O2 Cd2 O1 84.6(6) . 4_556 ?
O2 Cd2 O1 88.5(5) . 4 ?
O2 Cd2 O5 78.3(5) . 4_456 ?
O2 Cd2 O5 82.2(6) . 4_455 ?
O5 Cd2 Eu1 134.4(3) 4_455 1_556 ?
O5 Cd2 Eu1 90.4(3) 4_455 . ?
O5 Cd2 Eu1 88.5(3) 4_456 1_556 ?
O5 Cd2 Eu1 133.1(3) 4_456 . ?
O5 Cd2 O1 81.7(4) 4_455 4 ?
O5 Cd2 O1 166.9(5) 4_456 4 ?
O5 Cd2 O5 96.2(4) 4_455 4_456 ?
O6 Cd2 Eu1 34.0(5) . . ?
O6 Cd2 Eu1 33.5(4) . 1_556 ?
O6 Cd2 O1 91.8(6) . 4_556 ?
O6 Cd2 O1 93.5(6) . 4 ?
O6 Cd2 O2 176.0(7) . . ?
O6 Cd2 O5 101.5(5) . 4_455 ?
O6 Cd2 O5 99.6(5) . 4_456 ?
Cd1 B1 Eu1 134.2(7) 4_455 3_445 ?
O1 B1 Eu1 80.7(11) . 3_445 ?
O1 B1 Cd1 60.2(10) . 4_455 ?
O1 B1 O3 122.4(17) . . ?
O2 B1 Eu1 153.4(13) . 3_445 ?
O2 B1 Cd1 71.9(11) . 4_455 ?
O2 B1 O1 117.9(16) . . ?
O2 B1 O3 119.7(16) . . ?
O3 B1 Eu1 47.0(9) . 3_445 ?
O3 B1 Cd1 139.5(12) . 4_455 ?
O4 B2 O5 119.0(13) . 2 ?
O4 B2 O5 119.0(13) . . ?
O5 B2 O5 122(3) 2 . ?
Cd2 O1 Cd1 97.2(6) 4_454 4_455 ?
Cd2 O1 Cd1 127.8(7) 4_455 4_455 ?
Cd2 O1 Cd2 96.4(5) 4_454 4_455 ?
B1 O1 Cd1 90.2(12) . 4_455 ?
B1 O1 Cd2 105.8(12) . 4_455 ?
B1 O1 Cd2 145.0(13) . 4_454 ?
Cd2 O2 Cd1 99.7(5) . 4_456 ?
B1 O2 Cd1 122.5(11) . 4_456 ?
B1 O2 Cd2 136.8(11) . . ?
Cd1 O3 Eu1 116.9(6) 1_556 3_445 ?
Cd1 O3 Eu1 110.0(5) . 3_445 ?
Cd1 O3 Cd1 101.0(6) 1_556 . ?
B1 O3 Eu1 108.6(11) . 3_445 ?
B1 O3 Cd1 102.7(10) . 1_556 ?
B1 O3 Cd1 117.8(11) . . ?
Eu1 O4 Eu1 93.7(7) 3_445 3_444 ?
Eu1 O4 Cd1 97.4(4) 3_444 . ?
Eu1 O4 Cd1 95.5(4) 3_445 . ?
B2 O4 Eu1 128.8(16) . 3_445 ?
B2 O4 Eu1 137.5(16) . 3_444 ?
B2 O4 Cd1 80.5(4) . . ?
Cd1 O5 Cd2 107.0(5) . 4 ?
Cd1 O5 Cd2 101.3(5) . 4_554 ?
Cd2 O5 Cd2 96.2(4) 4 4_554 ?
B2 O5 Cd1 107.4(14) . . ?
B2 O5 Cd2 124.4(14) . 4 ?
B2 O5 Cd2 117.7(14) . 4_554 ?
Eu1 O6 Eu1 103.4(7) . 1_556 ?
Eu1 O6 Cd2 111.5(6) . 2_565 ?
Eu1 O6 Cd2 111.5(6) . . ?
Cd2 O6 Eu1 113.1(5) 2_565 1_556 ?
Cd2 O6 Eu1 113.1(5) . 1_556 ?
Cd2 O6 Cd2 104.4(7) . 2_565 ?
loop_
_geom_bond_atom_site_label_1
_geom_bond_atom_site_label_2
_geom_bond_distance
_geom_bond_site_symmetry_2
_geom_bond_publ_flag
Eu1 Eu1 3.4932(4) 1_554 ?
Eu1 Eu1 3.4932(4) 1_556 ?
Eu1 Cd2 3.6752(16) 2_565 ?
Eu1 Cd2 3.6752(16) . ?
Eu1 B1 3.15(2) 3 ?
Eu1 B1 3.15(2) 4 ?
Eu1 O3 2.429(15) 4 ?
Eu1 O3 2.429(15) 3 ?
Eu1 O4 2.44(2) 3_556 ?
Eu1 O4 2.35(2) 3 ?
Eu1 O6 2.243(18) 1_554 ?
Eu1 O6 2.207(19) . ?
Cd1 Eu1 3.8620(15) 3_445 ?
Cd1 Eu1 3.9818(15) 3_444 ?
Cd1 B1 2.779(18) 4 ?
Cd1 O1 2.411(16) 4 ?
Cd1 O2 2.689(17) 4 ?
Cd1 O2 2.360(14) 4_554 ?
Cd1 O2 2.834(18) 1_554 ?
Cd1 O3 2.242(14) 1_554 ?
Cd1 O3 2.285(13) . ?
Cd1 O4 2.850(4) . ?
Cd1 O5 2.241(13) . ?
Cd2 Eu1 3.7407(16) 1_556 ?
Cd2 O1 2.370(16) 4 ?
Cd2 O1 2.316(15) 4_556 ?
Cd2 O2 2.290(13) . ?
Cd2 O5 2.353(12) 4_456 ?
Cd2 O5 2.339(12) 4_455 ?
Cd2 O6 2.240(11) . ?
B1 Eu1 3.15(2) 3_445 ?
B1 Cd1 2.779(18) 4_455 ?
B1 O1 1.37(2) . ?
B1 O2 1.36(2) . ?
B1 O3 1.38(2) . ?
B2 O4 1.35(4) . ?
B2 O5 1.36(2) . ?
B2 O5 1.36(2) 2 ?
O1 Cd1 2.411(16) 4_455 ?
O1 Cd2 2.370(16) 4_455 ?
O1 Cd2 2.316(15) 4_454 ?
O2 Cd1 2.360(14) 4_456 ?
O3 Eu1 2.429(15) 3_445 ?
O3 Cd1 2.242(14) 1_556 ?
O4 Eu1 2.35(2) 3_445 ?
O4 Eu1 2.44(2) 3_444 ?
O5 Cd2 2.353(12) 4_554 ?
O5 Cd2 2.339(12) 4 ?
O6 Eu1 2.243(17) 1_556 ?
O6 Cd2 2.240(11) 2_565 ?
loop_
_twin_individual_id
_twin_individual_mass_fraction_refined
1 0.85(4)
2 0.15(4)
