#------------------------------------------------------------------------------
#$Date: 2019-11-07 22:21:50 +0200 (Thu, 07 Nov 2019) $
#$Revision: 223765 $
#$URL: file:///home/coder/svn-repositories/cod/cif/7/70/02/7700266.cif $
#------------------------------------------------------------------------------
#
# This file is available in the Crystallography Open Database (COD),
# http://www.crystallography.net/
#
# All data on this site have been placed in the public domain by the
# contributors.
#
data_7700266
loop_
_publ_author_name
'Sch\"afer, Martin J'
'Jantz, Stephan G.'
'Pielnhofer, Florian'
'H\"oppe, Henning A'
_publ_section_title
;
 The very first normal-pressure tin borate
 Sn<sub>3</sub>B<sub>4</sub>O<sub>9</sub>, and the intermediate
 Sn<sub>2</sub>[B<sub>7</sub>O<sub>12</sub>]F.
;
_journal_issue                   28
_journal_name_full
'Dalton transactions (Cambridge, England : 2003)'
_journal_page_first              10398
_journal_page_last               10402
_journal_paper_doi               10.1039/c9dt01901d
_journal_volume                  48
_journal_year                    2019
_chemical_formula_moiety         'B4 O9 Sn3'
_chemical_formula_sum            'B4 O9 Sn3'
_chemical_formula_weight         543.37
_space_group_crystal_system      monoclinic
_space_group_IT_number           14
_space_group_name_Hall           '-P 2yn'
_space_group_name_H-M_alt        'P 1 21/n 1'
_symmetry_space_group_name_Hall  '-P 2yn'
_symmetry_space_group_name_H-M   'P 1 21/n 1'
_audit_creation_method           SHELXL-2013
_audit_update_record
;
2018-08-23 # Formatted by publCIF

;
_cell_angle_alpha                90
_cell_angle_beta                 101.8470(10)
_cell_angle_gamma                90
_cell_formula_units_Z            4
_cell_length_a                   7.6807(3)
_cell_length_b                   12.0678(4)
_cell_length_c                   9.2496(3)
_cell_measurement_reflns_used    13906
_cell_measurement_temperature    298(2)
_cell_measurement_theta_max      25.242
_cell_measurement_theta_min      2.813
_cell_volume                     839.08(5)
_computing_structure_refinement  'SHELXL-2013 (Sheldrick, 2013)'
_diffrn_ambient_temperature      298(2)
_diffrn_measured_fraction_theta_full 0.997
_diffrn_measured_fraction_theta_max 0.999
_diffrn_measurement_device_type  'D8 Venture Bruker'
_diffrn_measurement_method       'generic phi and omega scans'
_diffrn_radiation_type           MoK\a
_diffrn_radiation_wavelength     0.71073
_diffrn_reflns_av_unetI/netI     0.0356
_diffrn_reflns_Laue_measured_fraction_full 0.997
_diffrn_reflns_Laue_measured_fraction_max 0.999
_diffrn_reflns_limit_h_max       14
_diffrn_reflns_limit_h_min       -15
_diffrn_reflns_limit_k_max       24
_diffrn_reflns_limit_k_min       0
_diffrn_reflns_limit_l_max       18
_diffrn_reflns_limit_l_min       0
_diffrn_reflns_number            13906
_diffrn_reflns_point_group_measured_fraction_full 0.997
_diffrn_reflns_point_group_measured_fraction_max 0.999
_diffrn_reflns_theta_full        25.242
_diffrn_reflns_theta_max         44.996
_diffrn_reflns_theta_min         2.813
_diffrn_source                   'fine-focus sealed tube'
_exptl_absorpt_coefficient_mu    8.890
_exptl_absorpt_correction_T_max  0.776
_exptl_absorpt_correction_T_min  0.441
_exptl_absorpt_correction_type   multi-scan
_exptl_absorpt_process_details
;
'SADABS 2007/2 (Sheldrick, G.M., 2007)'
;
_exptl_crystal_colour            colourless
_exptl_crystal_density_diffrn    4.301
_exptl_crystal_description       rod
_exptl_crystal_F_000             968
_exptl_crystal_size_max          0.110
_exptl_crystal_size_mid          0.060
_exptl_crystal_size_min          0.030
_refine_diff_density_max         3.961
_refine_diff_density_min         -3.550
_refine_diff_density_rms         0.706
_refine_ls_extinction_expression Fc^*^=kFc[1+0.001xFc^2^\l^3^/sin(2\q)]^-1/4^
_refine_ls_extinction_method     SHELXL
_refine_ls_goodness_of_fit_ref   1.098
_refine_ls_hydrogen_treatment    undef
_refine_ls_matrix_type           full
_refine_ls_number_parameters     147
_refine_ls_number_reflns         13906
_refine_ls_number_restraints     0
_refine_ls_restrained_S_all      1.098
_refine_ls_R_factor_all          0.0499
_refine_ls_R_factor_gt           0.0319
_refine_ls_shift/su_max          0.022
_refine_ls_shift/su_mean         0.000
_refine_ls_structure_factor_coef Fsqd
_refine_ls_weighting_details
'w=1/[\s^2^(Fo^2^)+(0.0237P)^2^+1.1434P] where P=(Fo^2^+2Fc^2^)/3'
_refine_ls_weighting_scheme      calc
_refine_ls_wR_factor_gt          0.0704
_refine_ls_wR_factor_ref         0.0738
_reflns_Friedel_coverage         0.000
_reflns_number_gt                10550
_reflns_number_total             13906
_reflns_threshold_expression     'I > 2\s(I)'
_cod_data_source_file            c9dt01901d3.cif
_cod_data_source_block           Sn3B4O9
_cod_depositor_comments
'Adding full bibliography for 7700266--7700267.cif.'
_cod_database_code               7700266
_publcif_datablock.id            {98a6a171-7322-4e9f-9a9e-4d780fab2565}
_shelx_space_group_comment
;
The symmetry employed for this shelxl refinement is uniquely defined
by the following loop, which should always be used as a source of
symmetry information in preference to the above space-group names.
They are only intended as comments.
;
_shelx_estimated_absorpt_t_min   0.441
_shelx_estimated_absorpt_t_max   0.776
_shelxl_version_number           2013-4
_shelx_res_file
;
TITL mo_SJ227_1b_1_0m_4_a.res in P2(1)/n
REM Old TITL mo_SJ227_1b_1_0m_4 in P2(1)/n

REM SHELXT solution in P2(1)/n
REM R1 0.085,  Rweak 0.003,  Alpha 0.018,  Orientation as input
REM Formula found by SHELXT:  B4 F9 Sn3

CELL  0.71073   7.6807  12.0678   9.2496   90.000  101.847   90.000
ZERR    1.000   0.0003   0.0004   0.0003    0.000    0.001    0.000
LATT  1
SYMM 1/2-X, 1/2+Y, 1/2-Z
SFAC B O SN
UNIT 16 36 12
TEMP 24.840
SIZE 0.03 0.06 0.11
L.S. 20
BOND
LIST 6
FMAP 2
PLAN 20
ACTA
OMIT 1 8 0
OMIT 1 9 0
OMIT 1 10 0
OMIT 1 11 0
OMIT 0 90
WGHT    0.023700    1.143400
EXTI    0.000000
BASF   0.05294
FVAR       0.22330
SN1   3    0.341949    0.854380    0.367094    11.00000    0.00826    0.00725 =
         0.00912    0.00007    0.00064   -0.00098
SN2   3    0.899524    0.833598    0.548593    11.00000    0.00675    0.00802 =
         0.00792    0.00183    0.00118    0.00036
SN3   3   -0.043778    0.388980    0.657176    11.00000    0.00838    0.00737 =
         0.00848   -0.00102    0.00179    0.00171
B1    1    0.571358    0.711892    0.611532    11.00000    0.00490    0.00907 =
         0.00609   -0.00033    0.00153   -0.00006
B2    1    0.412612    0.541013    0.653169    11.00000    0.00758    0.00683 =
         0.00767   -0.00009    0.00124   -0.00045
B3    1    0.245849    0.719681    0.623539    11.00000    0.00490    0.00855 =
         0.00613   -0.00043    0.00152   -0.00032
B4    1    0.347814    0.325919    0.645203    11.00000    0.00507    0.00703 =
         0.00595    0.00039    0.00160    0.00039
O1    2    0.740839    0.759113    0.691879    11.00000    0.00510    0.01269 =
         0.00625    0.00036    0.00093   -0.00249
O2    2    0.164591    0.323877    0.567344    11.00000    0.00461    0.01154 =
         0.00787   -0.00109    0.00085    0.00064
O3    2    0.545713    0.731595    0.450808    11.00000    0.00639    0.01257 =
         0.00478    0.00083    0.00197    0.00332
O4    2    0.166994    0.752140    0.467934    11.00000    0.00700    0.01291 =
         0.00524   -0.00011    0.00100   -0.00174
O5    2    0.380397    0.260891    0.788231    11.00000    0.00450    0.01233 =
         0.00504    0.00191    0.00135   -0.00130
O6    2    0.569143    0.595361    0.649396    11.00000    0.00680    0.00853 =
         0.01501    0.00283    0.00289    0.00125
O7    2    0.255085    0.598672    0.631838    11.00000    0.00653    0.00719 =
         0.01724   -0.00128    0.00276   -0.00052
O8    2    0.424377    0.771156    0.663326    11.00000    0.00443    0.00851 =
         0.00705   -0.00223    0.00213   -0.00091
O9    2    0.423771    0.432608    0.689815    11.00000    0.01605    0.00617 =
         0.01532   -0.00016   -0.00183   -0.00177
HKLF 5

REM  mo_SJ227_1b_1_0m_4_a.res in P2(1)/n
REM R1 =  0.0319 for   10550 Fo > 4sig(Fo)  and  0.0499 for all   13906 data
REM    147 parameters refined using      0 restraints

END

WGHT      0.0237      1.1437

REM Highest difference peak  3.961,  deepest hole -3.550,  1-sigma level  0.706
Q1    1  -0.0230  0.3946  0.5996  11.00000  0.05    3.96
Q2    1   0.8923  0.7838  0.5620  11.00000  0.05    3.80
Q3    1  -0.0422  0.4373  0.6439  11.00000  0.05    3.58
Q4    1  -0.0395  0.3448  0.6661  11.00000  0.05    3.44
Q5    1   0.3190  0.8578  0.3275  11.00000  0.05    3.41
Q6    1   0.9040  0.8812  0.5751  11.00000  0.05    3.10
Q7    1  -0.0660  0.3729  0.7184  11.00000  0.05    3.10
Q8    1  -0.0178  0.3906  0.6931  11.00000  0.05    3.06
Q9    1   0.3276  0.9004  0.3415  11.00000  0.05    3.02
Q10   1  -0.0570  0.4304  0.6953  11.00000  0.05    3.01
Q11   1   0.3960  0.8995  0.3829  11.00000  0.05    2.88
Q12   1   0.3234  0.8676  0.4350  11.00000  0.05    2.87
Q13   1   0.3327  0.9022  0.3992  11.00000  0.05    2.81
Q14   1   0.3690  0.8095  0.3363  11.00000  0.05    2.78
Q15   1   0.9431  0.8786  0.5171  11.00000  0.05    2.69
Q16   1   0.8833  0.8307  0.6161  11.00000  0.05    2.68
Q17   1   0.8867  0.8325  0.5085  11.00000  0.05    2.66
Q18   1   0.8838  0.8809  0.5065  11.00000  0.05    2.60
Q19   1   0.9307  0.7861  0.5251  11.00000  0.05    2.58
Q20   1   0.4993  0.7484  0.5250  11.00000  0.05    2.53
;
_shelx_res_checksum              1177
_shelx_hkl_file
;
   1   0   0 0.05881 0.02006   2
   1   0   0 0.80613 0.05244   1
   2   0   0 674.624 11.1061   1
   2   0   0 47.0738 0.82313   2
   3   0   0 0.05562 0.07766   2
   3   0   0 0.54839 0.09334   1
   4   0   0 1084.92 23.9934   1
   4   0   0 76.1700 1.55147   2
   5   0   0 0.07837 0.19107   2
  -5   0   1 40.5463 1.13834  -2
   5   0   0 40.5463 1.13834   1
   6   0   0 4.43440 0.38008   2
   6   0   0 78.7546 1.96789   1
   7   0   0 0.15747 0.43849   2
   7   0   0 0.92867 0.26599   1
   8   0   0 4.00990 0.45861   2
   8   0   0 62.3674 1.76138   1
   9   0   0 -0.1309 0.78877   2
   9   0   0 -0.0684 0.79196   1
 -10   0   2 265.527 12.3167  -2
  10   0   0 265.527 12.3167   1
  10   0   0 263.559 7.96862   1
  10   0   0 15.8770 1.36568   2
  11   0   0 -0.7840 1.07025   2
  11   0   0 -0.4113 1.06388   1
  12   0   0 54.5982 2.82334   1
  12   0   0 4.03231 1.46545   2
  13   0   0 -1.5995 1.73267   2
  13   0   0 -0.1442 1.63575   1
  14   0   0 134.365 5.09512   1
  14   0   0 10.8249 2.36162   2
  15   0   0 6.07832 3.12184   1
  15   0   0 -1.0381 3.22428   2
   1   1   0 167.814 2.03572   1
   1   1   0 10.5962 0.13503   2
   2   1   0 64.2887 0.84537   2
   2   1   0 1010.75 12.0307   1
   3   1   0 0.57210 0.05386   1
   3   1   0 0.08883 0.04911   2
  -4   1   1 541.675 19.8570  -2
   4   1   0 541.675 19.8570   1
   4   1   0 490.942 7.02652   1
   4   1   0 32.9976 0.58258   2
   5   1   0 42.4756 0.74625   2
  -5   1   1 683.333 11.3361  -2
   5   1   0 683.333 11.3361   1
   6   1   0 1085.64 16.2782   1
   6   1   0 69.0404 1.25421   2
   7   1   0 7.66037 0.32706   2
   7   1   0 134.215 2.11364   1
   8   1   0 7.35586 0.40381   2
   8   1   0 125.894 2.22127   1
   9   1   0 550.301 8.73344   1
   9   1   0 30.3334 0.85893   2
 -10   1   2 140.798 3.76504  -2
  10   1   0 140.798 3.76504   1
  10   1   0 90.3227 3.73696   1
  10   1   0 5.43210 0.53667   2
  11   1   0 11.7090 0.98137   2
  11   1   0 222.286 4.19348   1
  12   1   0 2.22818 0.98370   2
  12   1   0 50.3021 1.97596   1
  13   1   0 0.13186 1.25509   1
  13   1   0 2.28865 1.33766   2
  14   1   0 12.0399 1.82961   2
  14   1   0 222.850 5.28058   1
  15   1   0 10.7307 2.33682   1
  15   1   0 0.41216 2.32708   2
   0   2   0 3450.14 79.3149  -2
   0   2   0 3450.14 79.3149   1
   1   2   0 40.9979 0.65367   1
   1   2   0 2.64933 0.09566   2
   2   2   0 104.071 1.37679   1
   2   2   0 6.52357 0.13313   2
   3   2   0 51.0625 0.76434   2
   3   2   0 777.359 9.74001   1
   4   2   0 430.519 5.79959   1
   4   2   0 27.7302 0.48308   2
  -4   2   1 509.830 18.7453  -2
   4   2   0 509.830 18.7453   1
   5   2   0 159.388 2.39443   2
  -5   2   1 2592.98 36.3141  -2
   5   2   0 2592.98 36.3141   1
   6   2   0 8.22363 0.30907   1
   6   2   0 0.43357 0.16064   2
   7   2   0 13.2293 0.41668   2
   7   2   0 227.973 3.75794   1
   8   2   0 0.97079 0.25165   2
   8   2   0 25.9834 0.83588   1
   9   2   0 0.63036 0.31155   2
   9   2   0 10.0398 0.63408   1
  10   2   0 0.30595 0.50919   2
  10   2   0 1.96388 1.35177   1
 -10   2   2 4.72334 2.13151  -2
  10   2   0 4.72334 2.13151   1
  11   2   0 469.799 7.91486   1
  11   2   0 26.3979 1.39581   2
  12   2   0 44.0878 1.90016   1
  12   2   0 1.62906 0.97715   2
  13   2   0 6.55916 1.32119   1
  13   2   0 0.15061 1.23788   2
  14   2   0 11.2915 1.82983   1
  14   2   0 0.94467 1.71396   2
   0   3   0 1.07168 0.22761  -2
   0   3   0 1.07168 0.22761   1
   1   3   0 56.7926 0.99450   1
   1   3   0 3.01510 0.17735   2
   2   3   0 0.06554 0.06880   2
   2   3   0 1.14213 0.09256   1
   3   3   0 8.24373 0.22380   2
   3   3   0 131.165 1.83726   1
   4   3   0 91.4141 1.50753   2
   4   3   0 1393.77 19.9077   1
  -4   3   1 1484.23 53.9837  -2
   4   3   0 1484.23 53.9837   1
  -5   3   1 1085.31 15.2519  -2
   5   3   0 1085.31 15.2519   1
   5   3   0 69.3709 1.05950   2
   6   3   0 31.9354 0.66479   2
   6   3   0 494.717 7.25304   1
   7   3   0 14.2858 0.44055   2
   7   3   0 241.956 3.96073   1
   8   3   0 14.8318 0.63050   1
   8   3   0 0.94818 0.43864   2
   9   3   0 957.902 14.9006   1
   9   3   0 53.7114 1.51415   2
  10   3   0 12.3024 1.37468   1
  10   3   0 0.59970 0.57773   2
 -10   3   2 20.3813 2.89427  -2
  10   3   0 20.3813 2.89427   1
  11   3   0 13.8787 1.20616   2
  11   3   0 211.288 4.40574   1
  12   3   0 2.82763 1.12900   1
  12   3   0 -0.2557 0.95814   2
  13   3   0 3.74148 1.39225   2
  13   3   0 73.8654 2.89113   1
  14   3   0 64.6895 3.20809   1
  14   3   0 7.37977 1.82777   2
   0   4   0 4543.92 125.467  -2
   0   4   0 4543.92 125.467   1
   1   4   0 61.1698 1.47250   1
   1   4   0 70.9750 2.25584  -2
   1   4   0 70.9750 2.25584   1
   1   4   0 3.76837 0.29720   2
   2   4   0 21.4316 0.56815   2
   2   4   0 358.369 6.37359   1
   3   4   0 189.669 2.82185   1
   3   4   0 12.3393 0.28476   2
   4   4   0 195.195 2.93940   1
   4   4   0 12.0240 0.30315   2
   5   4   0 3.27688 0.24717   2
  -5   4   1 73.5685 1.29296  -2
   5   4   0 73.5685 1.29296   1
   6   4   0 90.1544 1.54611   1
   6   4   0 5.88386 0.26238   2
   7   4   0 871.325 13.4121   1
   7   4   0 53.8040 1.12203   2
   8   4   0 4.12719 0.41959   2
   8   4   0 68.1538 1.47916   1
   9   4   0 12.6898 0.72109   2
   9   4   0 230.549 3.97856   1
  10   4   0 8.19806 0.78668   2
  10   4   0 180.378 4.07597   1
 -10   4   2 183.189 6.26566  -2
  10   4   0 183.189 6.26566   1
  11   4   0 10.1196 1.13785   2
  11   4   0 161.171 3.63592   1
  12   4   0 1.87964 1.12641   1
  12   4   0 -1.6334 1.06332   2
  13   4   0 48.2328 2.46989   1
  13   4   0 4.33591 1.45762   2
  14   4   0 45.1638 2.57138   1
  14   4   0 3.09341 1.82680   2
   0   5   0 6.66799 0.38730  -2
   0   5   0 6.66799 0.38730   1
   1   5   0 1623.37 30.4765   1
   1   5   0 2016.55 59.2259  -2
   1   5   0 2016.55 59.2259   1
   2   5   0 216.427 8.01710   2
   2   5   0 3767.81 72.9141   1
   3   5   0 7.58600 0.26720   2
   3   5   0 131.958 2.18948   1
   4   5   0 14.8913 0.46009   2
  -4   5   1 286.755 10.7449  -2
   4   5   0 286.755 10.7449   1
   4   5   0 252.372 4.52199   1
   5   5   0 37.5544 2.14945   1
   5   5   0 2.61745 0.19119   2
  -5   5   1 37.0813 0.85849  -2
   5   5   0 37.0813 0.85849   1
   6   5   0 539.508 8.55690   1
   6   5   0 33.0665 0.68389   2
   7   5   0 13.2105 0.54888   1
   7   5   0 1.03711 0.24920   2
   8   5   0 1.26744 0.34654   1
   8   5   0 -0.1273 0.31366   2
   9   5   0 1.62142 0.52793   2
   9   5   0 34.0962 1.07541   1
  10   5   0 3.35957 0.73543   2
  10   5   0 37.9623 2.16471   1
 -10   5   2 71.6127 5.95050  -2
  10   5   0 71.6127 5.95050   1
  11   5   0 40.2026 2.14281   1
  11   5   0 1.82136 0.85554   2
  12   5   0 13.6954 1.64134   1
  12   5   0 1.19475 1.34211   2
  13   5   0 110.209 3.49369   1
  13   5   0 8.81013 1.58983   2
  14   5   0 12.0927 1.97627   2
  14   5   0 179.461 4.83557   1
   0   6   0 178.285 7.56749  -2
   0   6   0 178.285 7.56749   1
   1   6   0 47.4938 2.41724  -2
   1   6   0 47.4938 2.41724   1
   1   6   0 42.1240 1.07678   1
   1   6   0 2.71788 0.16744   2
   2   6   0 177.769 4.08154   1
   2   6   0 10.0457 0.40774   2
   3   6   0 431.514 7.48715   1
   3   6   0 25.0540 0.71927   2
   4   6   0 1634.76 25.5606   1
  -4   6   1 1599.06 57.0925  -2
   4   6   0 1599.06 57.0925   1
   4   6   0 110.672 2.23822   2
   5   6   0 78.8490 1.38774   2
  -5   6   1 1210.41 18.5754  -2
   5   6   0 1210.41 18.5754   1
   5   6   0 1186.16 47.7911   1
   6   6   0 2.97703 0.21149   2
   6   6   0 47.0717 0.93412   1
   7   6   0 3.82088 0.35518   2
   7   6   0 66.4658 1.65174   1
   8   6   0 4.99752 0.59378   2
   8   6   0 77.3369 1.65529   1
   9   6   0 0.32517 0.50132   2
   9   6   0 6.00420 0.72146   1
  10   6   0 9.39042 0.94770   2
  10   6   0 166.686 3.92704   1
 -10   6   2 177.154 9.20230  -2
  10   6   0 177.154 9.20230   1
  11   6   0 3.19391 1.00037   2
  11   6   0 62.5364 2.55652   1
  12   6   0 139.347 4.19873   1
  12   6   0 8.18306 1.61999   2
  13   6   0 42.3713 2.42143   1
  13   6   0 5.12165 1.59453   2
  14   6   0 -0.2213 1.86551   2
  14   6   0 5.05018 1.90467   1
   0   7   0 0.51071 0.35189  -2
   0   7   0 0.51071 0.35189   1
   1   7   0 250.064 5.67321   1
   1   7   0 16.6937 0.52712   2
   1   7   0 285.616 8.58792  -2
   1   7   0 285.616 8.58792   1
   2   7   0 2292.33 44.2741   1
   2   7   0 139.105 4.04482   2
   3   7   0 302.903 6.07508   1
   3   7   0 16.0294 0.59369   2
   4   7   0 53.0348 1.29451   2
   4   7   0 856.801 14.7068   1
   5   7   0 11.6974 0.34974   2
   5   7   0 196.006 4.49274   1
  -5   7   1 204.730 3.63047  -2
   5   7   0 204.730 3.63047   1
   6   7   0 68.4999 1.24946   1
   6   7   0 4.60720 0.26114   2
   7   7   0 163.875 2.90300   1
   7   7   0 9.83095 0.53917   2
   8   7   0 5.63837 0.55782   1
   8   7   0 0.12921 0.44312   2
   9   7   0 467.100 8.32288   1
   9   7   0 26.6850 1.30283   2
  10   7   0 1.56670 0.82540   2
  10   7   0 14.4910 1.17049   1
 -10   7   2 13.6279 5.36703  -2
  10   7   0 13.6279 5.36703   1
  11   7   0 3.65698 1.03125   2
  11   7   0 58.7985 2.56727   1
  12   7   0 1.80750 2.00895   2
  12   7   0 40.2315 3.48516   1
  13   7   0 63.8895 3.44180   1
  13   7   0 2.52414 1.79049   2
  14   7   0 -1.2509 1.99118   2
  14   7   0 0.81551 1.96035   1
   0   8   0 673.305 18.6526  -2
   0   8   0 673.305 18.6526   1
   1   8   0 10.9376 0.43713   2
   1   8   0 141.701 3.31386   1
   1   8   0 75.8071 3.66464  -2
   1   8   0 75.8071 3.66464   1
   2   8   0 21.4868 0.71925   1
   2   8   0 1.05613 0.24065   2
   3   8   0 392.133 7.80481   1
   3   8   0 19.8538 0.67846   2
   4   8   0 7.49655 0.44295   2
   4   8   0 132.116 2.54692   1
  -5   8   1 48.6974 1.23034  -2
   5   8   0 48.6974 1.23034   1
   5   8   0 2.98307 0.25770   2
   5   8   0 47.9431 2.52050   1
   6   8   0 164.931 2.91136   1
   6   8   0 10.3752 0.44640   2
   7   8   0 56.0836 1.73972   2
   7   8   0 902.524 15.3210   1
   8   8   0 69.2034 1.87998   1
   8   8   0 3.85868 0.71281   2
   9   8   0 536.727 9.48629   1
   9   8   0 32.6119 1.41818   2
  10   8   0 25.8970 1.42710   2
 -10   8   2 402.239 16.9899  -2
  10   8   0 402.239 16.9899   1
  10   8   0 416.710 8.53631   1
  11   8   0 200.671 4.99360   1
  11   8   0 10.6834 1.19953   2
  12   8   0 28.0258 2.12284   1
  12   8   0 3.08029 1.65131   2
  13   8   0 0.14437 2.20451   2
  13   8   0 21.5733 2.27417   1
  14   8   0 2.29722 2.10193   1
  14   8   0 0.89143 2.13756   2
   0   9   0 1.26234 0.47482  -2
   0   9   0 1.26234 0.47482   1
   1   9   0 1224.54 27.1187   1
   1   9   0 95.8211 2.69165   2
   1   9   0 665.431 27.1655  -2
   1   9   0 665.431 27.1655   1
   2   9   0 15.4907 0.96278   2
   2   9   0 379.779 7.81474   1
   3   9   0 273.812 5.56328   1
   3   9   0 11.1202 0.66339   2
   4   9   0 3.72850 0.29842   2
   4   9   0 63.9370 1.42711   1
   5   9   0 21.1914 0.62764   2
  -5   9   1 354.174 7.04919  -2
   5   9   0 354.174 7.04919   1
   5   9   0 331.562 7.58480   1
   6   9   0 16.7284 0.73579   1
   6   9   0 0.85576 0.27711   2
   7   9   0 254.308 4.75787   1
   7   9   0 14.1104 0.94645   2
   8   9   0 115.077 2.63459   1
   8   9   0 6.22461 0.80435   2
   9   9   0 39.3753 1.77714   1
   9   9   0 2.02354 0.81277   2
  -9   9   2 44.2773 5.77423  -2
   9   9   0 44.2773 5.77423   1
  10   9   0 55.6849 2.20901   1
  10   9   0 4.07576 0.97663   2
 -10   9   2 69.7877 7.01893  -2
  10   9   0 69.7877 7.01893   1
  11   9   0 -0.0764 1.12361   2
  11   9   0 -0.1746 1.15920   1
  12   9   0 1.35211 1.62412   2
  12   9   0 26.8163 2.12386   1
  13   9   0 9.68673 2.20909   2
  13   9   0 127.010 4.56444   1
   0  10   0 401.413 11.3035  -2
   0  10   0 401.413 11.3035   1
   1  10   0 4.89531 0.29544   2
   1  10   0 77.8330 1.94547   1
   1  10   0 46.3463 2.67159  -2
   1  10   0 46.3463 2.67159   1
   2  10   0 372.113 7.69886   1
   2  10   0 17.3255 0.81483   2
   3  10   0 125.979 3.29121   1
   3  10   0 4.80015 0.61674   2
  -4  10   1 959.612 26.4326  -2
   4  10   0 959.612 26.4326   1
   4  10   0 923.950 20.3793   1
   4  10   0 56.1891 2.08476   2
  -5  10   1 230.447 5.74644  -2
   5  10   0 230.447 5.74644   1
   5  10   0 13.4550 0.64907   2
   5  10   0 212.122 4.83866   1
   6  10   0 100.908 2.08002   1
   6  10   0 5.77073 0.46794   2
   7  10   0 16.4967 1.01341   2
   7  10   0 309.478 5.68372   1
   8  10   0 50.5956 1.69918   1
   8  10   0 2.90097 0.77634   2
   9  10   0 5.51990 0.96988   2
   9  10   0 108.815 2.98218   1
  -9  10   2 99.7309 7.23785  -2
   9  10   0 99.7309 7.23785   1
  10  10   0 1.04374 0.97150   2
  10  10   0 25.8404 1.71703   1
 -10  10   2 34.4174 6.61005  -2
  10  10   0 34.4174 6.61005   1
  11  10   0 27.3219 2.31895   1
  11  10   0 0.97457 1.29822   2
  12  10   0 13.3605 1.94600   2
  12  10   0 209.948 5.62411   1
  13  10   0 5.95843 2.22263   2
  13  10   0 73.1402 3.84533   1
   0  11   0 1.84768 0.57294  -2
   0  11   0 1.84768 0.57294   1
   1  11   0 158.519 3.74294   1
   1  11   0 5.57555 0.87730   2
   1  11   0 88.6009 4.41931  -2
   1  11   0 88.6009 4.41931   1
   2  11   0 1148.75 23.0651   1
   2  11   0 54.8201 2.15650   2
   3  11   0 27.1482 1.31137   2
   3  11   0 414.114 9.89498   1
   4  11   0 21.4571 1.11495   2
   4  11   0 329.137 9.67115   1
  -4  11   1 330.913 9.49681  -2
   4  11   0 330.913 9.49681   1
  -5  11   1 47.8924 1.81974  -2
   5  11   0 47.8924 1.81974   1
   5  11   0 2.04855 0.37962   2
   5  11   0 32.6778 1.04653   1
   6  11   0 0.55474 0.56146   2
   6  11   0 19.2116 1.16954   1
   7  11   0 24.7509 1.32766   1
   7  11   0 1.87249 0.71656   2
   8  11   0 46.9399 1.73911   1
   8  11   0 2.55077 0.84401   2
   9  11   0 4.94252 1.04504   1
   9  11   0 -1.2334 0.89927   2
  -9  11   2 4.32200 5.63484  -2
   9  11   0 4.32200 5.63484   1
 -10  11   2 -5.3935 6.77163  -2
  10  11   0 -5.3935 6.77163   1
  10  11   0 -0.4542 1.04536   2
  10  11   0 0.38165 1.15147   1
  11  11   0 3.55975 1.37751   2
  11  11   0 19.6209 1.82030   1
  12  11   0 2.74995 1.90277   2
  12  11   0 10.4864 2.05857   1
  13  11   0 2.65363 2.24843   2
  13  11   0 61.4058 3.66605   1
   1  12   0 455.866 13.0715   1
   1  12   0 16.3310 1.52222   2
   2  12   0 19.8207 0.91498   1
   2  12   0 0.83618 0.46102   2
   3  12   0 324.865 7.89100   1
   3  12   0 12.3937 0.88354   2
   4  12   0 330.334 9.90257   1
   4  12   0 12.5986 1.11214   2
   5  12   0 0.51715 0.41095   2
   5  12   0 0.81147 0.42903   1
  -5  12   1 14.1145 3.18260  -2
   5  12   0 14.1145 3.18260   1
   6  12   0 5.31654 0.86130   2
   6  12   0 69.5385 1.90997   1
   7  12   0 360.281 6.58819   1
   7  12   0 19.4916 1.15641   2
   8  12   0 4.88923 0.94584   2
   8  12   0 83.4553 2.34268   1
   9  12   0 121.393 3.35251   1
  -9  12   2 123.279 8.46346  -2
   9  12   0 123.279 8.46346   1
   9  12   0 6.07358 1.07488   2
  10  12   0 162.222 4.23380   1
 -10  12   2 177.122 11.1160  -2
  10  12   0 177.122 11.1160   1
  10  12   0 8.02633 1.31411   2
  11  12   0 0.54576 1.45047   2
  11  12   0 53.0509 2.90589   1
  12  12   0 47.2830 3.04982   1
  12  12   0 -3.7779 2.02159   2
  13  12   0 0.15873 2.67098   2
  13  12   0 1.95071 2.39010   1
   0  13   0 2.80721 2.38593  -2
   0  13   0 2.80721 2.38593   1
   1  13   0 299.183 8.74233   1
   1  13   0 293.477 9.19682  -2
   1  13   0 293.477 9.19682   1
   1  13   0 9.57839 1.40894   2
   2  13   0 0.46153 0.51888   1
   2  13   0 -0.4752 0.47046   2
   3  13   0 18.7745 1.40112   2
   3  13   0 437.057 8.79811   1
   4  13   0 117.322 4.19139   1
  -4  13   1 156.656 6.62486  -2
   4  13   0 156.656 6.62486   1
   4  13   0 8.31531 0.74342   2
   5  13   0 3.99432 0.55506   2
   5  13   0 58.2554 1.86267   1
  -5  13   1 77.1346 5.10379  -2
   5  13   0 77.1346 5.10379   1
   6  13   0 3.23250 0.85817   2
   6  13   0 72.5335 2.25073   1
   7  13   0 8.80954 1.09376   2
   7  13   0 168.519 3.58392   1
   8  13   0 25.0873 1.50333   2
   8  13   0 447.586 8.12621   1
   9  13   0 7.77551 1.25788   1
   9  13   0 0.27583 1.05249   2
  -9  13   2 16.7559 6.84565  -2
   9  13   0 16.7559 6.84565   1
  10  13   0 4.25877 1.43368   1
  10  13   0 0.65716 1.42340   2
 -10  13   2 -7.7450 8.23338  -2
  10  13   0 -7.7450 8.23338   1
  11  13   0 22.6740 1.86339   1
  11  13   0 -0.9707 1.59409   2
  12  13   0 2.38164 2.36659   2
  12  13   0 86.8154 4.26821   1
   0  14   0 137.940 3.66599  -2
   0  14   0 137.940 3.66599   1
   1  14   0 0.96787 0.58132   2
   1  14   0 10.2527 0.95588   1
   1  14   0 12.2804 3.29600  -2
   1  14   0 12.2804 3.29600   1
   2  14   0 339.915 8.26041   1
   2  14   0 17.0684 1.32146   2
   3  14   0 4.24942 0.69713   1
   3  14   0 0.47477 0.60514   2
   4  14   0 4.60007 0.69143   2
   4  14   0 73.7131 2.46937   1
  -4  14   1 80.5264 4.31881  -2
   4  14   0 80.5264 4.31881   1
   5  14   0 0.59869 0.84482   2
  -5  14   1 35.9120 3.08084  -2
   5  14   0 35.9120 3.08084   1
   6  14   0 15.0920 1.19670   2
   6  14   0 236.060 5.18064   1
   7  14   0 294.249 6.32333   1
   7  14   0 16.8107 1.34638   2
   8  14   0 1.79653 1.08286   1
   8  14   0 0.15097 1.08612   2
   9  14   0 44.3115 2.34003   1
   9  14   0 3.99826 1.41138   2
  -9  14   2 52.1807 8.09414  -2
   9  14   0 52.1807 8.09414   1
  10  14   0 12.9784 1.85220   1
  10  14   0 3.00535 1.59751   2
  11  14   0 3.15679 1.95739   2
  11  14   0 51.7341 2.77071   1
  12  14   0 10.2341 3.18631   2
  12  14   0 106.200 6.17338   1
   0  15   0 2.84119 1.76738  -2
   0  15   0 2.84119 1.76738   1
   1  15   0 5.01413 0.68597   2
   1  15   0 71.4374 5.14596  -2
   1  15   0 71.4374 5.14596   1
   1  15   0 79.7476 2.75310   1
   2  15   0 19.7476 1.11620   2
   2  15   0 382.179 11.1243   1
   3  15   0 239.468 5.90319   1
   3  15   0 13.4032 1.20830   2
   4  15   0 1.19454 0.82696   1
   4  15   0 0.74439 0.86311   2
  -5  15   1 206.085 5.69693  -2
   5  15   0 206.085 5.69693   1
   5  15   0 11.7351 1.21276   2
   5  15   0 178.727 7.77945   1
   6  15   0 30.5934 1.71995   1
   6  15   0 2.63917 1.01309   2
   7  15   0 8.32181 1.23278   1
   7  15   0 0.93119 1.10052   2
   8  15   0 16.9767 1.63160   2
   8  15   0 286.588 6.36857   1
   9  15   0 5.60030 1.58638   2
  -9  15   2 77.2143 9.45484  -2
   9  15   0 77.2143 9.45484   1
   9  15   0 62.0626 3.24768   1
  10  15   0 -0.4402 1.72574   1
  10  15   0 -0.5077 1.69764   2
  11  15   0 3.17462 2.11213   2
  11  15   0 88.9478 4.15338   1
   0  16   0 181.591 6.32841  -2
   0  16   0 181.591 6.32841   1
   1  16   0 439.486 13.7510  -2
   1  16   0 439.486 13.7510   1
   2  16   0 0.17944 0.76431   2
   2  16   0 1.47290 0.86292   1
   3  16   0 385.625 7.73129   1
   3  16   0 22.0385 1.99305   2
   4  16   0 63.4751 2.44748   1
   4  16   0 5.55348 1.06591   2
  -5  16   1 18.0350 2.43299  -2
   5  16   0 18.0350 2.43299   1
   5  16   0 1.04867 0.99697   2
   6  16   0 0.30409 1.09373   2
   6  16   0 7.51973 1.20873   1
   7  16   0 25.2924 1.83510   1
   7  16   0 0.61835 1.22680   2
   8  16   0 -0.8044 1.90212   2
   8  16   0 11.0347 2.31806   1
   9  16   0 0.18333 1.60092   2
   9  16   0 18.5314 2.02872   1
  10  16   0 -0.2814 1.84750   2
  10  16   0 4.59347 2.01593   1
  11  16   0 1.30613 2.32109   2
  11  16   0 5.98542 2.23952   1
   1  17   0 9.61684 3.93087  -2
   1  17   0 9.61684 3.93087   1
   2  17   0 44.1706 4.02064   1
   2  17   0 1.73491 1.08006   2
   3  17   0 420.949 9.93054   1
   3  17   0 33.4729 2.25582   2
   4  17   0 1.45967 1.01173   1
   4  17   0 0.73152 1.02812   2
   5  17   0 0.86974 1.11895   2
  -5  17   1 27.1920 2.78379  -2
   5  17   0 27.1920 2.78379   1
   6  17   0 11.8577 1.50803   2
   6  17   0 169.127 4.87802   1
   7  17   0 7.98190 1.91139   2
   7  17   0 152.098 8.36508   1
   8  17   0 249.792 6.80333   1
   8  17   0 17.9895 1.92909   2
   9  17   0 5.45321 1.88675   1
   9  17   0 -2.1539 1.75207   2
  10  17   0 3.95009 2.19295   1
  10  17   0 -1.5083 2.06390   2
   1  18   0 19.9235 2.79690  -2
   1  18   0 19.9235 2.79690   1
   2  18   0 14.4602 2.17047   2
   2  18   0 322.565 8.24934   1
   3  18   0 0.61392 1.20866   1
   3  18   0 -0.7845 1.09241   2
   4  18   0 1.01764 1.05958   2
   4  18   0 1.76634 1.13430   1
  -4  18   1 6.66999 3.53061  -2
   4  18   0 6.66999 3.53061   1
   5  18   0 3.97518 1.29364   2
  -5  18   1 73.5159 3.71543  -2
   5  18   0 73.5159 3.71543   1
   6  18   0 271.542 7.55720   1
   6  18   0 20.0222 2.28746   2
   7  18   0 14.6463 1.86744   1
   7  18   0 1.13730 1.63597   2
   8  18   0 2.76634 1.70400   1
   8  18   0 -0.7036 1.67740   2
   9  18   0 1.34511 2.00055   2
   9  18   0 5.79803 2.05290   1
  10  18   0 -1.1901 2.19620   2
  10  18   0 19.5387 2.55496   1
   0  19   0 -0.0128 3.38791  -2
   0  19   0 -0.0128 3.38791   1
   1  19   0 21.1318 2.94694  -2
   1  19   0 21.1318 2.94694   1
   1  19   0 18.6986 2.34134   1
   2  19   0 3.04767 1.36653   2
   2  19   0 26.9436 1.92206   1
   3  19   0 3.92807 1.33173   2
   3  19   0 38.6062 2.18893   1
   4  19   0 0.71835 1.39836   2
   4  19   0 29.8759 2.61965   1
  -4  19   1 33.8022 4.40435  -2
   4  19   0 33.8022 4.40435   1
  -5  19   1 68.4995 5.59819  -2
   5  19   0 68.4995 5.59819   1
   5  19   0 5.54366 1.65246   2
   6  19   0 60.5046 3.17629   1
   6  19   0 4.00426 1.71014   2
   7  19   0 4.63684 1.78238   1
   7  19   0 -1.1614 1.68463   2
   8  19   0 337.698 8.87355   1
   8  19   0 23.0849 2.37952   2
   9  19   0 57.6905 4.04844   1
   9  19   0 3.67801 2.38389   2
   0  20   0 35.5457 4.46635  -2
   0  20   0 35.5457 4.46635   1
   1  20   0 174.427 8.50090  -2
   1  20   0 174.427 8.50090   1
   1  20   0 19.0917 2.52340   2
   1  20   0 162.554 7.58515   1
   2  20   0 15.3740 1.74051   1
   2  20   0 3.00025 1.39964   2
   3  20   0 270.864 6.85672   1
   3  20   0 17.5402 2.21394   2
   4  20   0 2.28031 1.58926   1
   4  20   0 0.99090 1.63658   2
  -5  20   1 5.13638 6.66273  -2
   5  20   0 5.13638 6.66273   1
   5  20   0 0.98156 1.71131   2
   5  20   0 11.5908 2.54776   1
   6  20   0 5.18909 1.93411   2
   6  20   0 98.0708 4.60972   1
   7  20   0 20.4060 2.59758   1
   7  20   0 0.85833 2.09634   2
   8  20   0 -0.4015 2.35364   2
   8  20   0 -1.0987 2.49803   1
   0  21   0 5.64549 4.42372  -2
   0  21   0 5.64549 4.42372   1
   1  21   0 56.5808 4.48559   1
   1  21   0 7.15582 2.31893   2
   1  21   0 57.2833 5.50777  -2
   1  21   0 57.2833 5.50777   1
   2  21   0 7.92315 1.47761   1
   2  21   0 2.92346 1.36709   2
   3  21   0 196.578 5.45741   1
   3  21   0 8.82487 1.99066   2
   4  21   0 6.06784 1.89083   2
   4  21   0 87.4125 4.37795   1
   5  21   0 2.04830 1.98722   2
  -5  21   1 36.4853 8.13156  -2
   5  21   0 36.4853 8.13156   1
   5  21   0 42.6052 4.35150   1
   6  21   0 3.48106 2.12143   2
   6  21   0 72.1188 4.34319   1
   7  21   0 27.3410 3.05512   1
   7  21   0 4.51332 2.46997   2
   0  22   0 85.7808 6.46754  -2
   0  22   0 85.7808 6.46754   1
   1  22   0 11.9770 2.80486   2
   1  22   0 121.860 7.47249  -2
   1  22   0 121.860 7.47249   1
   1  22   0 95.8944 5.90017   1
   2  22   0 88.4866 3.53270   1
   2  22   0 5.49350 1.60188   2
   3  22   0 61.6830 3.91670   1
   3  22   0 5.13792 2.00555   2
   4  22   0 1.15889 1.98290   2
   4  22   0 1.09626 1.98165   1
   5  22   0 112.148 6.72866   1
  -5  22   1 122.913 11.1869  -2
   5  22   0 122.913 11.1869   1
   5  22   0 8.27224 2.27582   2
   6  22   0 30.4276 2.94464   1
   6  22   0 1.36249 2.39025   2
   0  23   0 -1.1316 5.51849  -2
   0  23   0 -1.1316 5.51849   1
   1  23   0 14.8564 3.24862   2
   1  23   0 162.374 8.30909   1
   1  23   0 188.564 9.80843  -2
   1  23   0 188.564 9.80843   1
   2  23   0 1.00160 1.73677   2
   2  23   0 2.07843 1.80040   1
   3  23   0 0.30871 2.20054   2
   3  23   0 -1.2778 2.10028   1
   4  23   0 1.36621 2.32629   2
   4  23   0 39.0203 3.66350   1
   0  24   0 17.1239 6.88154  -2
   0  24   0 17.1239 6.88154   1
   1  24   0 7.09702 3.55241   1
 -15   0   1 4.44179 3.28949   2
 -15   0   4 39.1998 7.04866  -2
 -15   0   1 39.1998 7.04866   1
 -14   0   1 0.58972 2.72019   1
 -14   0   1 -2.3192 2.01858   2
 -14   0   4 -8.8172 6.58935  -2
 -14   0   1 -8.8172 6.58935   1
 -13   0   1 262.790 7.19861   1
 -13   0   1 15.9418 2.02186   2
 -12   0   1 3.01374 1.34334   1
 -12   0   1 2.10724 1.31486   2
 -11   0   1 7.24479 1.26869   2
 -11   0   1 99.0943 3.38270   1
 -10   0   1 -0.5058 0.88443   2
 -10   0   3 -0.4032 2.13617  -2
 -10   0   1 -0.4032 2.13617   1
  -9   0   1 28.4284 2.87650   1
  -9   0   3 39.8077 2.70620  -2
  -9   0   1 39.8077 2.70620   1
  -9   0   1 2.64299 0.85998   2
  -8   0   1 1.35010 0.64178   1
  -8   0   1 0.39465 0.29066   2
  -7   0   1 70.9286 1.84407   2
  -7   0   1 1176.36 24.9654   1
  -6   0   1 0.47752 0.25608   1
  -6   0   1 -0.3379 0.20979   2
  -5   0   2 614.694 16.2295  -2
  -5   0   1 614.694 16.2295   1
  -4   0   1 1.47610 0.29762   1
  -4   0   1 0.12482 0.11841   2
  -3   0   1 10.5623 0.34509   2
  -3   0   1 179.761 4.04610   1
  -2   0   1 -0.1927 0.14051   2
  -2   0   1 0.99921 0.21221   1
  -1   0   1 12.8416 0.42272   1
  -1   0   1 0.57838 0.15131   2
   0   0   1 0.80806 0.06383   1
   0   0   1 0.02620 0.02988   2
   1   0   1 158.563 2.22770   2
   1   0   1 2822.53 36.6878   1
   2   0   1 1.78397 0.12994   1
   2   0   1 0.28717 0.09161   2
   3   0   1 1143.94 24.5228   1
   3   0   1 75.4255 1.73909   2
   4   0   1 0.72609 0.13208   1
   4   0   1 0.23608 0.12479   2
   5   0   1 18.3256 0.55229   2
   5   0   1 313.071 6.83283   1
   6   0   1 0.79760 0.22189   1
   6   0   1 -0.0931 0.17444   2
   7   0   1 69.4696 1.83571   1
   7   0   1 3.03272 0.37523   2
   8   0   1 -0.0722 0.36888   2
   8   0   1 -0.2368 0.86870   1
   9   0   1 33.8528 1.26275   2
   9   0   1 625.213 12.1486   1
  10   0   1 0.00311 0.55883   2
  10   0   1 1.02334 0.99225   1
  11   0   1 0.28091 1.09037   1
  11   0   1 0.57866 1.14109   2
  12   0   1 0.00978 1.40161   1
  12   0   1 0.42973 1.43298   2
  13   0   1 12.3175 2.04218   2
  13   0   1 177.009 5.78840   1
  14   0   1 2.71735 2.15201   1
 -15   1   4 19.9648 5.55266  -2
 -15   1   1 19.9648 5.55266   1
 -15   1   1 -2.8370 2.05501   2
 -14   1   1 -0.1306 2.23188   1
 -14   1   1 0.71397 1.45180   2
 -14   1   4 14.3593 4.93033  -2
 -14   1   1 14.3593 4.93033   1
 -13   1   1 8.78046 1.30251   2
 -13   1   1 142.078 3.42515   1
 -12   1   1 0.80678 0.91124   2
 -12   1   1 6.47184 1.06102   1
 -11   1   1 356.854 6.18953   1
 -11   1   1 18.4104 1.09906   2
 -10   1   3 91.9735 2.34030  -2
 -10   1   1 91.9735 2.34030   1
 -10   1   1 4.64743 0.74164   2
  -9   1   1 114.767 4.04891   1
  -9   1   3 124.506 3.80200  -2
  -9   1   1 124.506 3.80200   1
  -9   1   1 6.38162 0.56818   2
  -8   1   1 39.7533 0.85239   2
  -8   1   1 675.769 10.5291   1
  -7   1   1 6.03593 0.30550   2
  -7   1   1 108.569 1.83535   1
  -6   1   1 16.8037 0.48613   2
  -6   1   1 268.349 3.75545   1
  -6   1   2 429.423 15.7646  -2
  -6   1   1 429.423 15.7646   1
  -5   1   2 42.4191 0.78141  -2
  -5   1   1 42.4191 0.78141   1
  -4   1   1 26.6525 0.57570   2
  -4   1   1 417.252 5.69156   1
  -3   1   1 216.546 3.82934   1
  -3   1   1 13.4471 0.28622   2
  -2   1   1 147.108 3.55828   1
  -2   1   1 7.89920 0.27823   2
  -1   1   1 1.42012 0.04492   2
  -1   1   1 24.4723 0.34271   1
   0   1   1 0.48191 0.02508   2
   0   1   1 8.63605 0.11983   1
   1   1   1 1.73029 0.05738   1
   1   1   1 0.14657 0.03019   2
   2   1   1 1537.48 20.1462   1
   2   1   1 90.8057 1.43776   2
   3   1   1 177.077 2.38446   2
   3   1   1 3216.20 45.0418   1
   4   1   1 54.8435 0.83517   2
   4   1   1 830.854 11.5644   1
   5   1   1 10.2663 0.28297   2
   5   1   1 167.796 2.68501   1
   6   1   1 4.92736 0.23052   2
   6   1   1 84.3791 1.49076   1
   7   1   1 96.4273 1.60508   2
   7   1   1 1616.02 22.6588   1
   8   1   1 121.506 2.03897   1
   8   1   1 6.26501 0.40934   2
   9   1   1 319.569 5.30679   1
   9   1   1 17.2797 0.67306   2
  10   1   1 3.36116 0.55003   2
  10   1   1 61.1779 1.76751   1
  11   1   1 0.86525 0.83218   2
  11   1   1 24.2610 1.31156   1
  12   1   1 8.22548 1.18846   2
  12   1   1 158.866 3.45354   1
  13   1   1 0.01283 1.41832   2
  13   1   1 1.35770 1.37705   1
  14   1   1 1.47451 1.70766   1
 -15   2   4 43.6293 5.16550  -2
 -15   2   1 43.6293 5.16550   1
 -15   2   1 2.97123 2.10221   2
 -15   2   1 36.6111 5.18313   1
 -14   2   1 11.1585 2.51966   1
 -14   2   4 15.6349 4.93370  -2
 -14   2   1 15.6349 4.93370   1
 -14   2   1 1.57653 1.61353   2
 -13   2   1 2.30615 1.32820   2
 -13   2   1 29.9629 1.79737   1
 -12   2   1 7.74101 1.05821   2
 -12   2   1 130.217 2.99369   1
 -11   2   1 107.377 2.51730   1
 -11   2   1 5.76345 0.85857   2
 -10   2   3 17.7029 1.59328  -2
 -10   2   1 17.7029 1.59328   1
 -10   2   1 -0.1267 0.46348   2
  -9   2   3 147.096 3.41151  -2
  -9   2   1 147.096 3.41151   1
  -9   2   1 8.44499 0.64076   2
  -9   2   1 139.049 6.74630   1
  -8   2   1 0.30646 0.22395   2
  -8   2   1 6.73057 0.47174   1
  -7   2   1 0.38297 0.15741   2
  -7   2   1 6.35568 0.34128   1
  -6   2   1 27.5741 0.67984   2
  -6   2   1 434.175 6.39292   1
  -5   2   2 78.6827 1.34731  -2
  -5   2   1 78.6827 1.34731   1
  -4   2   1 79.2188 1.52609   2
  -4   2   1 1147.18 16.7064   1
  -3   2   1 1.90293 0.10740   2
  -3   2   1 32.5120 0.81836   1
  -2   2   1 9999.99 297.219   1
  -2   2   1 556.694 15.2129   2
  -1   2   1 0.19557 0.04497   2
  -1   2   1 2.58255 0.07439   1
   0   2   1 195.462 2.60009   1
   0   2   1 11.3831 0.18538   2
   0   2   1 199.127 7.36454  -2
   0   2   1 199.127 7.36454   1
   1   2   1 12.1383 0.21376   2
   1   2   1 195.724 2.49319   1
   2   2   1 423.409 4.82213   1
   2   2   1 28.1282 0.45520   2
   3   2   1 304.366 4.07564   1
   3   2   1 18.8476 0.35467   2
   4   2   1 2.69269 0.14608   2
   4   2   1 44.3296 0.70832   1
   5   2   1 289.455 4.20442   1
   5   2   1 17.3234 0.36515   2
   6   2   1 228.807 3.40654   1
   6   2   1 13.6536 0.37262   2
   7   2   1 42.4175 0.83072   1
   7   2   1 2.40709 0.19781   2
   8   2   1 5.71654 0.40390   2
   8   2   1 105.401 1.81748   1
   9   2   1 2.92257 0.38760   2
   9   2   1 54.0722 1.39718   1
  10   2   1 15.4222 1.08131   1
  10   2   1 0.71792 0.69156   2
  11   2   1 2.31103 0.88252   2
  11   2   1 27.4186 1.42425   1
  12   2   1 16.2380 1.28204   2
  12   2   1 287.373 5.33475   1
  13   2   1 3.01773 1.31255   1
  13   2   1 -0.4945 1.40098   2
  14   2   1 175.881 4.71436   1
 -15   3   1 3.22974 2.11632   2
 -15   3   4 19.1290 5.00754  -2
 -15   3   1 19.1290 5.00754   1
 -15   3   1 12.0370 4.62634   1
 -14   3   1 1.95568 1.64882   2
 -14   3   4 17.8390 4.36093  -2
 -14   3   1 17.8390 4.36093   1
 -14   3   1 11.0418 2.99310   1
 -13   3   1 140.536 3.75705   1
 -13   3   1 6.05944 1.40582   2
 -12   3   1 2.92049 0.99141   1
 -12   3   1 0.50971 0.91243   2
 -11   3   1 5.98231 1.01193   2
 -11   3   1 124.853 3.02060   1
 -10   3   1 8.23037 0.70255   2
 -10   3   3 148.482 3.40419  -2
 -10   3   1 148.482 3.40419   1
  -9   3   3 35.6359 2.21963  -2
  -9   3   1 35.6359 2.21963   1
  -9   3   1 1.89027 0.44047   2
  -9   3   1 29.5793 1.40760   1
  -8   3   1 61.8054 1.38209   2
  -8   3   1 1027.33 15.8070   1
  -7   3   1 1.56530 0.23591   2
  -7   3   1 24.2060 0.66201   1
  -6   3   1 0.25792 0.17501   2
  -6   3   2 19.4551 1.65982  -2
  -6   3   1 19.4551 1.65982   1
  -6   3   1 3.51908 0.46925   1
  -5   3   2 146.428 2.30708  -2
  -5   3   1 146.428 2.30708   1
  -4   3   1 2715.15 46.0357   1
  -4   3   1 149.855 2.74286   2
  -4   3   2 2843.01 114.906  -2
  -4   3   1 2843.01 114.906   1
  -3   3   1 57.3972 1.00344   2
  -3   3   1 931.483 15.9047   1
  -2   3   1 8.49313 0.29350   2
  -2   3   1 146.774 3.47714   1
  -1   3   1 1079.80 18.6292   1
  -1   3   1 1181.34 42.8875  -2
  -1   3   1 1181.34 42.8875   1
  -1   3   1 58.0152 1.33646   2
   0   3   1 87.8396 1.74505   2
   0   3   1 1657.26 29.2821   1
   1   3   1 5.58913 0.15950   2
   1   3   1 86.5485 1.28881   1
   2   3   1 21.1640 0.34277   2
   2   3   1 332.199 4.28093   1
   3   3   1 247.711 3.57399   1
   3   3   1 15.5713 0.29705   2
   4   3   1 574.677 7.60201   1
   4   3   1 37.8991 0.59407   2
   5   3   1 74.3908 1.22601   1
   5   3   1 4.73359 0.22231   2
   6   3   1 155.419 2.38967   1
   6   3   1 8.96747 0.30913   2
   7   3   1 311.825 5.02875   1
   7   3   1 18.8141 0.47530   2
   8   3   1 14.1724 0.52950   2
   8   3   1 245.598 4.12820   1
   9   3   1 120.887 2.40002   1
   9   3   1 7.70214 0.52119   2
  10   3   1 141.526 3.19127   1
  10   3   1 7.79938 0.77047   2
  11   3   1 57.0174 2.09499   1
  11   3   1 3.92058 0.87493   2
  12   3   1 312.563 5.71280   1
  12   3   1 17.3383 1.33446   2
  13   3   1 84.3781 3.12117   1
  13   3   1 3.78102 1.49353   2
  14   3   1 29.5458 2.17251   1
 -14   4   1 48.0171 4.14546   1
 -14   4   4 42.2894 4.88246  -2
 -14   4   1 42.2894 4.88246   1
 -14   4   1 3.39608 1.75147   2
 -13   4   1 103.979 3.28773   1
 -13   4   1 6.37363 1.45578   2
 -12   4   1 65.1809 2.39757   1
 -12   4   1 3.94936 1.01559   2
 -11   4   1 0.83538 0.95007   2
 -11   4   1 9.39646 1.10560   1
 -10   4   1 3.21788 0.84390   2
 -10   4   3 87.6717 2.55562  -2
 -10   4   1 87.6717 2.55562   1
  -9   4   1 0.29414 0.36815   2
  -9   4   1 0.50850 0.42920   1
  -9   4   3 1.83488 1.91750  -2
  -9   4   1 1.83488 1.91750   1
  -8   4   1 44.7596 1.12799   1
  -8   4   1 3.83179 0.57760   2
  -7   4   1 1266.12 18.1958   1
  -7   4   1 82.3014 1.54404   2
  -6   4   1 51.1713 1.04633   2
  -6   4   1 782.399 12.1139   1
  -6   4   2 847.117 34.4078  -2
  -6   4   1 847.117 34.4078   1
  -5   4   2 333.687 5.40236  -2
  -5   4   1 333.687 5.40236   1
  -4   4   1 1.84296 0.12018   1
  -4   4   1 0.14134 0.15981   2
  -4   4   2 143.237 6.26741  -2
  -4   4   1 143.237 6.26741   1
  -3   4   1 93.0637 1.74962   1
  -3   4   1 5.65347 0.21855   2
  -2   4   1 43.8004 1.38734   2
  -2   4   1 713.875 12.2669   1
  -1   4   1 27.9069 0.47033   1
  -1   4   1 1.48951 0.09300   2
   0   4   1 1.54232 0.11145   2
   0   4   1 24.0863 0.69129   1
   1   4   1 153.182 2.62472   2
   1   4   1 2521.64 41.9200   1
   2   4   1 1108.26 14.0652   1
   2   4   1 73.2458 1.12244   2
   3   4   1 272.295 4.24368   2
   3   4   1 4608.24 61.5437   1
   4   4   1 4.14493 0.21131   2
   4   4   1 73.6749 1.18890   1
   5   4   1 123.810 1.92455   1
   5   4   1 7.30128 0.29519   2
   6   4   1 25.8981 0.66930   1
   6   4   1 1.75390 0.19512   2
   7   4   1 2.44488 0.33798   1
   7   4   1 0.13816 0.19488   2
   8   4   1 14.8722 0.67091   2
   8   4   1 257.848 4.32119   1
   9   4   1 217.639 3.80888   1
   9   4   1 11.7262 0.85226   2
  10   4   1 7.92880 0.81432   2
  10   4   1 141.429 2.79834   1
  11   4   1 28.9360 1.64163   1
  11   4   1 1.75828 0.84244   2
  12   4   1 22.1680 1.54850   1
  12   4   1 1.90305 1.18946   2
  13   4   1 141.043 3.92637   1
  13   4   1 7.75007 1.65581   2
  14   4   1 58.7852 3.08891   1
 -14   5   4 33.1130 4.88909  -2
 -14   5   1 33.1130 4.88909   1
 -14   5   1 1.30550 1.73609   2
 -14   5   1 22.6647 3.50061   1
 -13   5   1 337.205 6.92640   1
 -13   5   1 17.3675 1.74479   2
 -12   5   1 0.85992 1.26920   2
 -12   5   1 19.0590 1.75976   1
 -11   5   1 321.162 6.18347   1
 -11   5   1 17.1669 1.23866   2
 -10   5   1 -0.2722 0.65777   2
 -10   5   3 16.0950 1.31884  -2
 -10   5   1 16.0950 1.31884   1
  -9   5   1 17.4580 0.79633   2
  -9   5   3 300.972 6.32487  -2
  -9   5   1 300.972 6.32487   1
  -9   5   1 290.036 8.22147   1
  -8   5   1 6.47068 0.50599   2
  -8   5   1 103.278 1.89304   1
  -7   5   1 244.111 4.40482   1
  -7   5   1 13.3674 0.65056   2
  -6   5   1 56.2703 1.13693   2
  -6   5   1 833.398 12.8908   1
  -6   5   2 911.326 37.0038  -2
  -6   5   1 911.326 37.0038   1
  -5   5   2 71.6704 1.52881  -2
  -5   5   1 71.6704 1.52881   1
  -5   5   1 0.81647 0.46458   2
  -4   5   2 407.486 7.99328  -2
  -4   5   1 407.486 7.99328   1
  -4   5   1 372.527 9.95779   1
  -4   5   1 26.2628 0.53511   2
  -3   5   1 14.7293 0.43533   2
  -3   5   1 177.851 3.17675   1
  -2   5   1 2.17120 0.15910   1
  -2   5   1 0.05985 0.14427   2
  -1   5   1 152.556 2.48464   1
  -1   5   1 8.86788 0.25051   2
   0   5   1 782.804 17.3404   1
   0   5   1 45.3231 1.17389   2
   1   5   1 2.32683 0.18349   2
   1   5   1 47.8856 0.86176   1
   2   5   1 99.4333 1.75380   2
   2   5   1 1391.71 23.6275   1
   3   5   1 113.452 1.72362   2
   3   5   1 1780.47 23.7314   1
   4   5   1 17.6175 0.41885   2
   4   5   1 293.839 4.34112   1
   5   5   1 35.7915 0.69634   1
   5   5   1 2.14746 0.18606   2
   6   5   1 -0.0130 0.15951   2
   6   5   1 1.41258 0.22586   1
   7   5   1 1105.20 17.0815   1
   7   5   1 69.1140 1.25921   2
   8   5   1 56.2463 1.57059   1
   8   5   1 3.38486 0.56002   2
   9   5   1 98.5987 2.35130   1
   9   5   1 5.28798 0.61209   2
  10   5   1 1.38400 0.73043   2
  10   5   1 16.7822 1.03838   1
  11   5   1 2.05573 0.94935   2
  11   5   1 37.1320 2.12727   1
  12   5   1 26.6569 2.07931   1
  12   5   1 2.25381 1.52495   2
  13   5   1 4.52674 1.51560   1
  13   5   1 1.31607 1.52977   2
  14   5   1 57.8438 2.99772   1
 -14   6   1 -0.1716 1.75937   2
 -14   6   4 20.3537 5.90057  -2
 -14   6   1 20.3537 5.90057   1
 -14   6   1 10.1599 2.47800   1
 -13   6   1 84.0332 3.09404   1
 -13   6   1 3.16733 1.52796   2
 -12   6   1 11.0720 1.51877   2
 -12   6   1 195.099 4.98181   1
 -11   6   1 13.1316 1.13115   2
 -11   6   1 221.415 5.24168   1
 -10   6   1 1.99452 0.62354   2
 -10   6   3 5.78286 1.59919  -2
 -10   6   1 5.78286 1.59919   1
  -9   6   1 30.9505 1.11003   2
  -9   6   3 524.165 10.3852  -2
  -9   6   1 524.165 10.3852   1
  -9   6   1 497.747 13.6362   1
  -8   6   1 3.32748 0.40700   2
  -8   6   1 57.8211 1.50036   1
  -7   6   1 1.90035 0.29269   2
  -7   6   1 21.1206 0.68720   1
  -6   6   1 36.0537 0.83161   1
  -6   6   1 2.48782 0.24085   2
  -6   6   2 35.4098 2.30846  -2
  -6   6   1 35.4098 2.30846   1
  -5   6   1 67.9066 2.55196   1
  -5   6   2 67.3416 1.33416  -2
  -5   6   1 67.3416 1.33416   1
  -4   6   1 16.9616 0.51876   2
  -4   6   2 309.260 9.39106  -2
  -4   6   1 309.260 9.39106   1
  -4   6   1 254.106 5.63654   1
  -3   6   1 0.99851 0.22699   2
  -3   6   1 15.1904 0.62780   1
  -2   6   1 1815.71 35.1469   1
  -2   6   1 97.6094 4.40073   2
  -1   6   1 5.56189 0.22529   1
  -1   6   1 0.31659 0.09763   2
   0   6   1 0.25485 0.15382   2
   0   6   1 5.93970 0.35301   1
   1   6   1 771.750 13.6054   1
   1   6   1 31.7098 1.14186   2
   2   6   1 1.08161 0.17249   2
   2   6   1 18.5149 0.50235   1
   3   6   1 85.3452 1.40084   1
   3   6   1 4.56314 0.29495   2
   4   6   1 327.274 4.49754   1
   4   6   1 21.0872 0.53375   2
   5   6   1 119.793 1.89291   2
   5   6   1 1828.68 25.6995   1
   6   6   1 12.3930 0.39898   2
   6   6   1 211.309 3.48451   1
   7   6   1 493.111 8.57748   1
   7   6   1 30.4491 0.76873   2
   8   6   1 352.539 5.79481   1
   8   6   1 20.8546 0.89180   2
   9   6   1 13.2957 0.84298   2
   9   6   1 234.590 4.09477   1
  10   6   1 0.19908 0.76230   2
  10   6   1 1.50801 0.83633   1
  11   6   1 4.81146 1.06769   2
  11   6   1 80.0404 2.89306   1
  12   6   1 4.28649 1.61616   2
  12   6   1 60.8567 3.82132   1
  13   6   1 0.88806 1.57310   1
  13   6   1 -0.0347 1.73353   2
  14   6   1 49.4809 2.78697   1
 -14   7   1 2.50483 1.90584   2
 -14   7   1 6.79163 2.39785   1
 -14   7   4 -7.1461 6.03625  -2
 -14   7   1 -7.1461 6.03625   1
 -13   7   1 7.07378 1.86317   1
 -13   7   1 -1.0302 1.68686   2
 -12   7   1 -1.2931 1.70113   2
 -12   7   1 0.95634 2.39304   1
 -11   7   1 5.55884 1.27544   1
 -11   7   1 0.96721 0.97146   2
 -10   7   3 56.0635 2.21712  -2
 -10   7   1 56.0635 2.21712   1
 -10   7   1 2.26272 0.83423   2
  -9   7   3 93.0034 3.52344  -2
  -9   7   1 93.0034 3.52344   1
  -9   7   1 5.72713 0.81010   2
  -9   7   1 89.7243 3.28187   1
  -8   7   1 281.791 4.42141   1
  -8   7   1 17.9289 0.81197   2
  -7   7   1 8.25740 0.53283   2
  -7   7   1 132.873 2.25413   1
  -6   7   1 10.1472 0.53947   1
  -6   7   1 0.19901 0.18953   2
  -6   7   2 38.6055 1.62986  -2
  -6   7   1 38.6055 1.62986   1
  -5   7   1 3.10437 0.33837   2
  -5   7   2 63.1052 1.26882  -2
  -5   7   1 63.1052 1.26882   1
  -4   7   1 51.0475 1.30533   2
  -4   7   2 886.240 26.0419  -2
  -4   7   1 886.240 26.0419   1
  -4   7   1 836.708 21.8881   1
  -3   7   1 1320.27 25.5266   1
  -3   7   1 84.6337 2.64128   2
  -2   7   1 8.17600 0.51392   2
  -2   7   1 157.898 3.25576   1
  -1   7   1 2968.16 47.4652   1
  -1   7   1 139.218 4.29861   2
   0   7   1 59.5788 2.07045   2
   0   7   1 1170.13 26.4797   1
   0   7   1 1270.13 47.8695  -2
   0   7   1 1270.13 47.8695   1
   1   7   1 3.05285 0.25541   2
   1   7   1 60.5211 1.21270   1
   2   7   1 20.1250 0.72856   2
   2   7   1 344.320 5.99419   1
   3   7   1 248.876 4.33691   1
   3   7   1 15.8001 0.52456   2
   4   7   1 53.8498 0.97638   1
   4   7   1 3.67629 0.24766   2
   5   7   1 3.57183 0.23640   2
   5   7   1 65.2734 1.12373   1
   6   7   1 4.20909 0.39542   1
   6   7   1 0.30918 0.18788   2
   7   7   1 0.16244 0.25291   2
   7   7   1 4.13931 0.42112   1
   8   7   1 168.628 3.04941   1
   8   7   1 9.34863 0.62011   2
   9   7   1 1.77275 0.72727   2
   9   7   1 44.0365 1.60435   1
  10   7   1 1.37355 0.84823   2
  10   7   1 22.2263 1.34155   1
  11   7   1 8.62717 1.16636   2
  11   7   1 161.494 4.30530   1
  12   7   1 213.896 5.48813   1
  12   7   1 12.7156 2.35099   2
  13   7   1 111.367 4.21090   1
  13   7   1 2.85381 2.01128   2
  14   7   1 34.2888 2.51060   1
 -14   8   1 3.97521 2.09355   2
 -14   8   4 62.4187 7.42630  -2
 -14   8   1 62.4187 7.42630   1
 -14   8   1 94.2882 4.97659   1
 -13   8   1 6.38183 1.89654   1
 -13   8   1 -0.0214 1.81671   2
 -12   8   1 70.1014 3.55795   1
 -12   8   1 1.96713 1.64789   2
 -11   8   1 -0.5057 0.99344   2
 -11   8   1 1.34860 1.27546   1
 -10   8   1 6.55413 0.94519   2
 -10   8   3 145.406 3.52497  -2
 -10   8   1 145.406 3.52497   1
  -9   8   1 11.0355 0.93671   2
  -9   8   3 197.511 5.56878  -2
  -9   8   1 197.511 5.56878   1
  -9   8   1 186.194 5.77121   1
  -8   8   1 0.36593 0.60713   2
  -8   8   1 1.51564 0.58623   1
  -7   8   1 24.8557 1.08316   2
  -7   8   1 431.842 8.91591   1
  -6   8   1 76.0559 2.06061   2
  -6   8   1 1280.53 28.0511   1
  -6   8   2 1266.70 32.5700  -2
  -6   8   1 1266.70 32.5700   1
  -5   8   2 8.83854 0.38962  -2
  -5   8   1 8.83854 0.38962   1
  -5   8   1 0.51127 0.24327   2
  -4   8   1 4.95266 0.43794   2
  -4   8   2 94.5235 2.57533  -2
  -4   8   1 94.5235 2.57533   1
  -4   8   1 82.8888 3.86119   1
  -3   8   1 5.06101 0.43567   2
  -3   8   1 72.8537 1.70135   1
  -2   8   1 13.4584 0.87916   2
  -2   8   1 305.819 6.33781   1
  -1   8   1 306.657 5.55535   1
  -1   8   1 15.2209 0.56624   2
   0   8   1 531.624 12.2011   1
   0   8   1 30.0448 0.95513   2
   0   8   1 572.216 21.6955  -2
   0   8   1 572.216 21.6955   1
   1   8   1 101.080 2.14847   1
   1   8   1 4.42983 0.36875   2
   2   8   1 41.1023 1.23657   2
   2   8   1 852.808 18.6579   1
   3   8   1 565.972 9.78049   1
   3   8   1 35.0040 0.86306   2
   4   8   1 140.222 2.42863   1
   4   8   1 8.69120 0.37874   2
   5   8   1 12.4200 0.43815   2
   5   8   1 192.865 3.19077   1
   6   8   1 3.08801 0.36574   2
   6   8   1 54.1129 1.34349   1
   7   8   1 8.54490 0.83330   2
   7   8   1 146.639 3.00743   1
   8   8   1 186.852 3.74748   1
   8   8   1 9.86201 0.87106   2
   9   8   1 0.00457 0.72598   2
   9   8   1 6.58213 0.87300   1
  10   8   1 14.6919 1.19282   2
  10   8   1 241.673 4.84028   1
  11   8   1 10.4272 1.26477   2
  11   8   1 198.980 5.02114   1
  12   8   1 12.7081 1.88671   1
  12   8   1 0.21193 1.64404   2
  13   8   1 2.35096 2.10522   2
  13   8   1 25.1968 2.39615   1
  14   8   1 72.8748 5.48906   1
 -14   9   4 5.80393 7.05952  -2
 -14   9   1 5.80393 7.05952   1
 -14   9   1 17.4934 3.03251   1
 -14   9   1 3.98619 2.09229   2
 -13   9   1 -0.2114 1.92098   2
 -13   9   1 6.66362 2.07553   1
 -12   9   1 43.4590 2.60616   1
 -12   9   1 3.83291 1.61756   2
 -11   9   1 4.28437 1.12952   2
 -11   9   1 54.8612 2.60550   1
 -10   9   3 68.4772 2.58546  -2
 -10   9   1 68.4772 2.58546   1
 -10   9   1 2.95665 0.93917   2
  -9   9   1 4.35846 0.84213   2
  -9   9   1 73.6192 2.60435   1
  -9   9   3 79.2973 4.26674  -2
  -9   9   1 79.2973 4.26674   1
  -8   9   1 0.17507 0.67703   2
  -8   9   1 5.82124 0.70924   1
  -7   9   1 3.81581 0.61409   1
  -7   9   1 -0.5534 0.58825   2
  -6   9   1 624.188 10.6887   1
  -6   9   1 29.5260 1.06766   2
  -6   9   2 653.015 27.1065  -2
  -6   9   1 653.015 27.1065   1
  -5   9   2 359.530 7.13592  -2
  -5   9   1 359.530 7.13592   1
  -5   9   1 22.4144 0.82722   2
  -4   9   2 836.539 22.6107  -2
  -4   9   1 836.539 22.6107   1
  -4   9   1 814.036 31.1627   1
  -4   9   1 31.8565 1.42494   2
  -3   9   1 24.8916 1.15312   2
  -3   9   1 445.858 8.85254   1
  -2   9   1 81.1037 1.93532   1
  -2   9   1 3.33876 0.42811   2
  -1   9   1 1.60168 0.17164   2
  -1   9   1 29.9941 0.90244   1
   0   9   1 1636.93 37.0082   1
   0   9   1 86.1546 2.91799   2
   0   9   1 1765.29 66.3825  -2
   0   9   1 1765.29 66.3825   1
   1   9   1 615.115 10.9386   1
   1   9   1 27.4970 1.30712   2
   2   9   1 547.293 11.1092   1
   2   9   1 25.3603 0.92913   2
   3   9   1 80.1389 1.63242   1
   3   9   1 4.04487 0.36805   2
   4   9   1 65.5213 1.26357   1
   4   9   1 4.03136 0.29002   2
   5   9   1 123.078 2.40339   1
   5   9   1 8.36008 0.44568   2
   5   9   0 145.524 6.19768  -2
   5   9   1 145.524 6.19768   1
   6   9   1 0.39751 0.28704   2
   6   9   1 1.56084 0.53829   1
   7   9   1 287.031 5.29573   1
   7   9   1 17.5511 1.03789   2
   8   9   1 12.5960 0.94899   1
   8   9   1 1.28664 0.71709   2
   9   9   1 1.36483 0.81308   2
   9   9   1 33.0340 1.56462   1
  10   9   1 5.39526 1.03266   2
  10   9   1 101.124 2.70989   1
  11   9   1 5.07225 1.25927   2
  11   9   1 77.2110 2.70048   1
  12   9   1 1.58770 1.69506   2
  12   9   1 9.40880 1.87366   1
  13   9   1 0.73483 2.21053   2
  13   9   1 29.4928 2.59248   1
 -13  10   1 5.49963 2.14461   2
 -13  10   1 81.8839 4.04482   1
 -12  10   1 310.774 7.25074   1
 -12  10   1 16.9300 2.47154   2
 -11  10   1 299.571 6.08229   1
 -11  10   1 15.6622 1.43396   2
 -10  10   1 5.06002 1.02903   2
 -10  10   3 56.7788 2.58427  -2
 -10  10   1 56.7788 2.58427   1
  -9  10   1 10.3951 1.04238   2
  -9  10   1 190.537 4.96779   1
  -9  10   3 210.260 7.42189  -2
  -9  10   1 210.260 7.42189   1
  -8  10   1 8.08237 0.88287   2
  -8  10   1 169.791 3.51287   1
  -7  10   1 5.67863 0.66881   1
  -7  10   1 -0.0867 0.63251   2
  -6  10   2 174.029 4.43252  -2
  -6  10   1 174.029 4.43252   1
  -6  10   1 171.259 3.85031   1
  -6  10   1 9.80708 0.65642   2
  -5  10   1 8.80027 0.57635   2
  -5  10   2 109.299 2.61506  -2
  -5  10   1 109.299 2.61506   1
  -4  10   1 44.6293 1.69609   1
  -4  10   1 3.58453 0.45427   2
  -4  10   2 53.2250 3.34176  -2
  -4  10   1 53.2250 3.34176   1
  -3  10   1 220.322 5.51362   1
  -3  10   1 14.6224 0.94281   2
  -2  10   1 10.7058 0.58354   1
  -2  10   1 0.45254 0.29375   2
  -1  10   1 380.001 9.01204   1
  -1  10   1 19.9967 0.79970   2
  -1  10   1 402.730 16.8569  -2
  -1  10   1 402.730 16.8569   1
   0  10   1 0.31986 0.29722   2
   0  10   1 3.59404 0.59544  -2
   0  10   1 3.59404 0.59544   1
   0  10   1 3.13490 0.40561   1
   1  10   1 0.84552 0.27152   2
   1  10   1 26.4243 0.67007   1
   2  10   1 337.776 7.00551   1
   2  10   1 11.9230 0.58080   2
   3  10   1 106.442 2.71497   1
   3  10   1 5.81902 0.44039   2
   4  10   1 262.445 5.25424   1
   4  10   1 15.3691 0.71074   2
   5  10   1 1182.56 19.9954   1
   5  10   1 74.6258 1.66357   2
   5  10   0 1276.18 46.0020  -2
   5  10   1 1276.18 46.0020   1
   6  10   1 15.7449 0.64758   2
   6  10   1 284.517 5.19648   1
   7  10   1 162.394 3.34245   1
   7  10   1 9.19976 0.85567   2
   8  10   1 471.531 8.41974   1
   8  10   1 27.0889 1.36705   2
   9  10   1 245.151 4.88761   1
   9  10   1 15.0095 1.14854   2
  10  10   1 25.0453 1.46664   1
  10  10   1 1.64359 1.03746   2
  11  10   1 2.20330 1.42739   2
  11  10   1 3.42614 1.30152   1
  12  10   1 -1.1386 1.87071   2
  12  10   1 -1.1669 1.73387   1
  13  10   1 -1.1768 2.26312   2
  13  10   1 15.7512 2.44278   1
 -13  11   1 -1.5260 2.17944   2
 -13  11   1 1.49176 2.26624   1
 -12  11   1 0.90755 1.79151   2
 -12  11   1 5.37125 1.92350   1
 -11  11   1 11.7470 1.48598   1
 -11  11   1 -0.5484 1.27476   2
 -10  11   3 252.302 5.39229  -2
 -10  11   1 252.302 5.39229   1
 -10  11   1 14.0946 1.30848   2
  -9  11   1 157.772 4.38950   1
  -9  11   1 7.89892 1.02422   2
  -9  11   3 170.372 6.71316  -2
  -9  11   1 170.372 6.71316   1
  -8  11   1 0.13653 0.76682   1
  -8  11   1 0.17607 0.74427   2
  -7  11   1 5.95951 0.82000   2
  -7  11   1 103.646 2.27701   1
  -6  11   2 117.076 2.94018  -2
  -6  11   1 117.076 2.94018   1
  -6  11   1 70.0829 2.04789   1
  -6  11   1 4.38049 0.86143   2
  -5  11   2 211.066 4.05130  -2
  -5  11   1 211.066 4.05130   1
  -5  11   1 12.5152 0.96052   2
  -4  11   1 5.87416 0.84570   2
  -4  11   2 73.0998 3.14105  -2
  -4  11   1 73.0998 3.14105   1
  -4  11   1 68.5514 3.40615   1
  -3  11   1 12.7789 1.41173   2
  -3  11   1 418.526 10.1474   1
  -2  11   1 37.9386 1.18439   1
  -2  11   1 1.85681 0.33691   2
  -1  11   1 1346.65 37.1358  -2
  -1  11   1 1346.65 37.1358   1
  -1  11   1 1206.06 27.8291   1
  -1  11   1 52.1628 2.06609   2
   0  11   1 46.1395 1.65005   1
   0  11   1 2.28326 0.35382   2
   0  11   1 47.0809 1.68981  -2
   0  11   1 47.0809 1.68981   1
   1  11   1 504.569 10.3103   1
   1  11   1 18.6388 0.88710   2
   2  11   1 451.522 8.91305   1
   2  11   1 20.0202 0.85515   2
   3  11   1 367.221 8.35907   1
   3  11   1 16.4631 0.96242   2
   4  11   1 3.09369 0.46621   2
   4  11   1 61.9803 1.65665   1
   5  11   1 23.1080 0.85483   2
   5  11   1 397.454 7.00989   1
   6  11   1 26.0433 0.92103   2
   6  11   1 439.790 8.76500   1
   7  11   1 56.4272 1.79091   1
   7  11   1 3.39007 0.77383   2
   8  11   1 1.95421 0.85875   2
   8  11   1 44.1646 1.76054   1
   9  11   1 2.08917 0.94236   2
   9  11   1 40.9342 1.86257   1
  10  11   1 59.3202 2.32921   1
  10  11   1 0.90064 1.11589   2
  11  11   1 216.794 4.85809   1
  11  11   1 10.7051 1.72320   2
  12  11   1 28.8564 2.49310   1
  12  11   1 1.85105 1.93118   2
  13  11   1 46.7093 3.10601   1
  13  11   1 3.44051 2.78490   2
 -13  12   1 -1.1554 2.64733   2
 -13  12   1 24.8675 3.15454   1
 -12  12   1 0.44555 1.97626   1
 -12  12   1 1.20937 1.91713   2
 -11  12   1 4.84077 1.76438   2
 -11  12   1 102.809 3.57929   1
 -10  12   3 68.9611 3.08180  -2
 -10  12   1 68.9611 3.08180   1
 -10  12   1 4.45014 1.19812   2
  -9  12   1 212.414 4.91930   1
  -9  12   3 220.627 11.0975  -2
  -9  12   1 220.627 11.0975   1
  -9  12   1 12.6264 1.19452   2
  -8  12   1 3.64403 0.91766   2
  -8  12   1 76.3467 2.21999   1
  -7  12   1 73.5739 2.05082   1
  -7  12   1 5.08694 0.86314   2
  -6  12   1 32.1854 1.34851   2
  -6  12   1 520.348 11.4572   1
  -6  12   2 539.053 15.3565  -2
  -6  12   1 539.053 15.3565   1
  -5  12   1 8.23742 1.15402   2
  -5  12   2 121.659 3.58058  -2
  -5  12   1 121.659 3.58058   1
  -4  12   1 9.18129 0.98478   2
  -4  12   2 134.926 4.90862  -2
  -4  12   1 134.926 4.90862   1
  -4  12   1 128.307 5.67916   1
  -3  12   1 76.1020 2.30271   1
  -3  12   1 5.82132 0.84077   2
  -2  12   1 20.0235 1.01801   1
  -2  12   1 0.92972 0.47682   2
  -1  12   1 111.809 4.74300  -2
  -1  12   1 111.809 4.74300   1
  -1  12   1 4.00993 0.68578   2
  -1  12   1 106.978 5.36149   1
   0  12   1 19.0921 1.20358   2
   0  12   1 493.641 11.6485   1
   0  12   1 519.638 19.7455  -2
   0  12   1 519.638 19.7455   1
   1  12   1 133.138 3.42381   1
   1  12   1 4.91875 0.62402   2
   2  12   1 8.24500 0.67881   2
   2  12   1 167.290 4.73538   1
   3  12   1 158.070 3.37998   1
   3  12   1 10.0136 0.65661   2
   4  12   1 13.8267 0.91060   2
   4  12   1 247.871 5.15865   1
   5  12   1 20.2958 0.85548   2
   5  12   0 392.320 14.9341  -2
   5  12   1 392.320 14.9341   1
   5  12   1 358.168 7.22613   1
   6  12   1 37.0727 1.48128   1
   6  12   1 2.14317 0.49016   2
   7  12   1 7.75792 0.92622   2
   7  12   1 132.677 2.98945   1
   8  12   1 -0.5560 0.89915   2
   8  12   1 3.53190 0.93023   1
   9  12   1 0.47875 0.96726   2
   9  12   1 36.1546 1.79906   1
  10  12   1 351.045 7.65424   1
  10  12   1 18.5453 1.71481   2
  11  12   1 171.042 4.24153   1
  11  12   1 9.99741 1.69905   2
  12  12   1 0.06915 1.84701   2
  12  12   1 27.7156 2.54054   1
 -12  13   1 3.79100 2.44567   1
 -12  13   1 -0.2429 2.27954   2
 -11  13   1 14.6351 1.77839   1
 -11  13   1 0.72445 1.49868   2
 -10  13   1 1.28174 1.48170   2
 -10  13   3 66.6813 4.35224  -2
 -10  13   1 66.6813 4.35224   1
  -9  13   3 31.8874 4.48746  -2
  -9  13   1 31.8874 4.48746   1
  -9  13   1 2.14536 1.06102   2
  -9  13   1 28.6714 2.16113   1
  -8  13   1 -1.4606 0.85353   2
  -8  13   1 1.17906 0.90058   1
  -7  13   1 7.86630 0.95029   2
  -7  13   1 135.034 3.04849   1
  -6  13   2 155.380 4.48453  -2
  -6  13   1 155.380 4.48453   1
  -6  13   1 151.556 7.22467   1
  -6  13   1 7.57796 0.96757   2
  -5  13   1 31.2837 2.49022   2
  -5  13   2 303.870 7.44204  -2
  -5  13   1 303.870 7.44204   1
  -4  13   1 54.7680 2.60943   2
  -4  13   2 931.110 27.6280  -2
  -4  13   1 931.110 27.6280   1
  -4  13   1 860.054 33.1533   1
  -3  13   1 6.30604 0.95482   2
  -3  13   1 194.503 5.01655   1
  -2  13   1 29.4775 1.28131   1
  -2  13   1 1.61125 0.54509   2
  -1  13   1 1.02290 0.73270   2
  -1  13   1 57.5806 1.72656   1
  -1  13   1 64.1101 2.50538  -2
  -1  13   1 64.1101 2.50538   1
   0  13   1 796.329 18.5738  -2
   0  13   1 796.329 18.5738   1
   0  13   1 29.2281 1.71784   2
   0  13   1 734.572 20.4587   1
   1  13   1 17.0573 1.08434   2
   1  13   1 406.863 8.45680   1
   2  13   1 34.0080 1.28358   1
   2  13   1 2.30882 0.43699   2
   3  13   1 87.8863 2.13588   1
   3  13   1 5.42228 0.59142   2
   4  13   1 7.20548 0.69229   2
   4  13   1 100.280 2.47254   1
   5  13   1 0.48413 0.44072   2
   5  13   1 3.22756 0.56882   1
   5  13   0 2.85916 2.61166  -2
   5  13   1 2.85916 2.61166   1
   6  13   1 9.80862 1.13622   2
   6  13   1 154.490 3.67366   1
   7  13   1 1.83857 0.98237   2
   7  13   1 33.7898 1.58695   1
   8  13   1 1.39811 1.05367   2
   8  13   1 14.9706 1.22669   1
   9  13   1 181.769 4.07598   1
   9  13   1 10.0337 1.29036   2
  10  13   1 1.43345 1.58026   1
  10  13   1 1.46904 1.44954   2
  11  13   1 21.1893 1.86578   1
  11  13   1 0.07509 1.78068   2
  12  13   1 19.6321 2.84607   1
  12  13   1 4.10485 3.12466   2
 -12  14   1 48.7729 3.95917   1
 -12  14   1 -3.1833 2.91926   2
 -11  14   1 69.1963 3.24991   1
 -11  14   1 3.27900 1.87005   2
 -10  14   1 2.60212 1.53002   2
 -10  14   3 50.7060 4.96303  -2
 -10  14   1 50.7060 4.96303   1
  -9  14   1 72.6637 3.13358   1
  -9  14   1 4.32760 1.28698   2
  -9  14   3 85.9604 5.82837  -2
  -9  14   1 85.9604 5.82837   1
  -8  14   1 0.53494 1.03175   2
  -8  14   1 22.8463 1.40165   1
  -7  14   1 -0.0375 0.92702   2
  -7  14   1 3.10511 1.05368   1
  -6  14   1 9.61161 1.07664   2
  -6  14   1 149.519 7.33509   1
  -6  14   2 162.611 4.70559  -2
  -6  14   1 162.611 4.70559   1
  -5  14   2 618.296 12.0473  -2
  -5  14   1 618.296 12.0473   1
  -4  14   1 0.46717 1.09853   2
  -4  14   2 5.85642 3.53784  -2
  -4  14   1 5.85642 3.53784   1
  -4  14   1 2.16789 1.55895   1
  -3  14   1 270.001 6.75551   1
  -3  14   1 19.1916 1.88208   2
  -2  14   1 10.5425 0.96846   2
  -2  14   1 187.116 4.83203   1
  -1  14   1 726.747 21.6710   1
  -1  14   1 27.5468 1.76375   2
  -1  14   1 762.404 21.3662  -2
  -1  14   1 762.404 21.3662   1
   0  14   1 4.36415 1.57381  -2
   0  14   1 4.36415 1.57381   1
   0  14   1 0.08288 0.41485   2
   0  14   1 3.53535 0.58892   1
   1  14   1 247.754 5.36686   1
   1  14   1 9.74913 0.97096   2
   2  14   1 231.309 4.73549   1
   2  14   1 13.9716 1.00642   2
   3  14   1 0.02169 0.50700   2
   3  14   1 0.16059 0.64949   1
   4  14   1 5.46284 0.69085   2
   4  14   1 84.0239 2.21886   1
   5  14   1 418.302 8.48766   1
   5  14   1 23.2637 0.99259   2
   6  14   1 20.0465 1.31334   1
   6  14   1 1.58050 0.95727   2
   7  14   1 0.74474 1.11480   2
   7  14   1 23.0770 1.47457   1
   8  14   1 133.922 3.63991   1
   8  14   1 6.97566 1.35625   2
   9  14   1 48.7251 2.44028   1
   9  14   1 2.39775 1.46537   2
  10  14   1 70.2477 2.90970   1
  10  14   1 2.09603 1.64956   2
  11  14   1 0.00362 1.94790   2
  11  14   1 41.4230 2.73176   1
  12  14   1 18.6486 3.40111   1
  12  14   1 2.59628 3.25048   2
 -11  15   1 0.52355 2.00016   1
 -11  15   1 1.14606 2.57549   2
 -10  15   3 434.031 9.63778  -2
 -10  15   1 434.031 9.63778   1
 -10  15   1 24.3827 2.25036   2
  -9  15   1 9.69537 2.08464   2
  -9  15   3 170.646 7.79325  -2
  -9  15   1 170.646 7.79325   1
  -9  15   1 162.552 9.46821   1
  -8  15   1 4.15471 1.30101   2
  -8  15   1 90.8737 3.01620   1
  -7  15   1 21.1375 1.46443   1
  -7  15   1 1.97731 1.02392   2
  -6  15   2 52.6386 2.86315  -2
  -6  15   1 52.6386 2.86315   1
  -6  15   1 2.93769 0.96136   2
  -6  15   1 30.3709 3.40851   1
  -5  15   2 352.022 8.58324  -2
  -5  15   1 352.022 8.58324   1
  -5  15   1 34.2399 2.90193   2
  -4  15   1 2.91802 1.19832   2
  -4  15   2 57.8876 2.70108  -2
  -4  15   1 57.8876 2.70108   1
  -4  15   1 52.5542 3.80622   1
  -3  15   1 9.24354 2.01342   1
  -3  15   1 2.82595 0.88843   2
  -2  15   1 1.48732 0.72561   2
  -2  15   1 9.66533 0.94353   1
  -1  15   1 5.53331 1.02327   2
  -1  15   1 91.9845 3.31447  -2
  -1  15   1 91.9845 3.31447   1
  -1  15   1 84.6431 3.41455   1
   0  15   1 17.3088 1.91885  -2
   0  15   1 17.3088 1.91885   1
   0  15   1 -0.9216 0.87847   2
   0  15   1 14.2922 1.41005   1
   1  15   1 453.418 9.57792   1
   1  15   1 20.2432 1.12702   2
   2  15   1 3.99111 0.66908   2
   2  15   1 66.1133 2.14427   1
   3  15   1 76.7060 2.14133   1
   3  15   1 4.38118 0.91840   2
   4  15   0 226.752 8.98358  -2
   4  15   1 226.752 8.98358   1
   4  15   1 14.3347 1.29705   2
   4  15   1 211.457 5.42413   1
   5  15   1 5.93107 0.85736   2
   5  15   1 86.4353 2.90137   1
   6  15   1 383.705 7.89988   1
   6  15   1 28.5363 2.13688   2
   7  15   1 2.69309 1.16386   1
   7  15   1 1.15973 1.15346   2
   8  15   1 0.12650 1.26809   2
   8  15   1 1.06304 1.31548   1
   9  15   1 5.96408 1.57388   2
   9  15   1 84.0692 3.55947   1
  10  15   1 1.65764 1.82527   2
  10  15   1 65.7261 3.55628   1
  11  15   1 125.821 4.88619   1
  11  15   1 3.59656 2.30039   2
 -11  16   3 32.8499 10.3982  -2
 -11  16   1 32.8499 10.3982   1
 -11  16   1 2.36106 2.21107   2
 -11  16   1 21.5113 2.99571   1
 -10  16   1 -0.0185 1.87505   2
 -10  16   3 29.0561 4.39091  -2
 -10  16   1 29.0561 4.39091   1
  -9  16   1 9.68619 1.77272   2
  -9  16   3 85.3580 8.83976  -2
  -9  16   1 85.3580 8.83976   1
  -9  16   1 91.4177 4.37182   1
  -8  16   1 167.407 4.77261   1
  -8  16   1 13.4370 3.30325   2
  -7  16   1 18.5287 1.42058   1
  -7  16   1 -1.1553 1.20836   2
  -6  16   1 5.01335 1.16620   2
  -6  16   2 66.3315 3.22277  -2
  -6  16   1 66.3315 3.22277   1
  -6  16   1 67.7900 5.65924   1
  -5  16   2 10.7404 1.55113  -2
  -5  16   1 10.7404 1.55113   1
  -4  16   1 212.742 6.93746   1
  -4  16   2 217.311 6.75210  -2
  -4  16   1 217.311 6.75210   1
  -4  16   1 15.8135 1.49756   2
  -3  16   1 1.62769 0.88577   2
  -3  16   1 6.96852 1.03646   1
  -2  16   1 172.003 5.46512   1
  -2  16   1 14.1060 1.62219   2
  -1  16   1 2.58841 1.05647   2
  -1  16   1 22.1253 1.81469   1
  -1  16   1 30.9321 3.42718  -2
  -1  16   1 30.9321 3.42718   1
   0  16   1 704.680 16.5541   1
   0  16   1 745.015 31.1537  -2
   0  16   1 745.015 31.1537   1
   0  16   1 27.6416 2.11754   2
   1  16   1 13.6020 1.05601   1
   1  16   1 1.07652 0.76201   2
   2  16   1 -0.0011 0.69227   2
   2  16   1 -0.5992 0.65068   1
   3  16   1 5.38785 0.98875   2
   3  16   1 55.1399 2.20355   1
   4  16   1 26.4935 2.18217   2
   4  16   1 508.375 11.8440   1
   5  16   1 11.8461 1.35319   2
   5  16   1 178.539 4.89081   1
   6  16   1 0.68276 1.08512   2
   6  16   1 2.15460 1.20447   1
   7  16   1 8.29214 1.46762   1
   7  16   1 -0.5540 1.23771   2
   8  16   1 20.0360 2.24730   1
   8  16   1 1.96491 1.92975   2
   9  16   1 4.18246 1.74795   2
   9  16   1 55.9779 3.22817   1
  10  16   1 12.4372 2.15671   2
  10  16   1 213.040 6.36734   1
  11  16   1 3.70187 2.29404   2
  11  16   1 9.07466 2.23596   1
 -10  17   1 21.5962 2.48034   2
 -10  17   3 295.676 8.70420  -2
 -10  17   1 295.676 8.70420   1
  -9  17   1 0.49107 1.74460   2
  -9  17   1 0.24980 2.06934   1
  -9  17   3 15.4763 7.58937  -2
  -9  17   1 15.4763 7.58937   1
  -8  17   1 0.50882 1.52451   2
  -8  17   1 17.0369 1.91936   1
  -7  17   1 2.89575 1.74290   2
  -7  17   1 40.6065 3.51833   1
  -6  17   1 -0.9815 1.16220   2
  -6  17   2 10.2292 2.67448  -2
  -6  17   1 10.2292 2.67448   1
  -5  17   2 105.189 3.60567  -2
  -5  17   1 105.189 3.60567   1
  -4  17   1 10.7157 1.26978   2
  -4  17   1 165.130 4.48414   1
  -3  17   1 9.36009 1.06389   1
  -3  17   1 1.25174 1.30022   2
  -2  17   1 11.0765 1.39619   1
  -2  17   1 1.59971 1.89131   2
  -1  17   1 8.48158 3.41319  -2
  -1  17   1 8.48158 3.41319   1
  -1  17   1 4.89237 1.19439   1
  -1  17   1 -0.9493 1.60845   2
   0  17   1 68.6157 2.62608   1
   0  17   1 4.51701 1.19383   2
   1  17   1 168.322 4.15534   1
   1  17   1 8.44630 1.02244   2
   2  17   1 1.21446 1.00756   2
   2  17   1 23.1544 1.71824   1
   3  17   1 12.5742 1.21286   2
   3  17   1 155.676 4.30435   1
   4  17   1 188.010 5.05010   1
   4  17   1 15.5035 1.65722   2
   5  17   1 14.7295 1.47150   1
   5  17   1 2.95500 1.12821   2
   6  17   1 32.2748 2.05803   2
   6  17   1 473.604 11.3019   1
   7  17   1 101.224 3.82860   1
   7  17   1 7.64915 1.85168   2
   8  17   1 0.92949 1.61670   2
   8  17   1 41.6207 2.71285   1
   9  17   1 11.6634 2.02858   2
   9  17   1 177.006 5.58151   1
  10  17   1 -0.0181 2.27874   2
  10  17   1 51.2832 3.84495   1
 -10  18   1 1.10255 2.25334   2
 -10  18   1 10.9558 4.57154   1
 -10  18   3 23.5659 5.96413  -2
 -10  18   1 23.5659 5.96413   1
  -9  18   1 4.64538 2.08517   1
  -9  18   1 -1.5490 1.89933   2
  -8  18   1 -1.0238 1.61961   2
  -8  18   1 37.4758 2.59153   1
  -7  18   1 0.00301 1.69260   2
  -7  18   1 8.77093 1.94574   1
  -6  18   1 2.26451 2.10078   2
  -6  18   2 8.53815 6.39689  -2
  -6  18   1 8.53815 6.39689   1
  -5  18   2 430.289 10.4077  -2
  -5  18   1 430.289 10.4077   1
  -4  18   1 1.55853 1.13859   2
  -4  18   2 18.1368 3.26163  -2
  -4  18   1 18.1368 3.26163   1
  -4  18   1 3.32055 1.49892   1
  -3  18   1 191.930 6.24402   1
  -3  18   1 18.6738 1.60128   2
  -2  18   1 2.49987 1.22959   2
  -2  18   1 60.8975 3.02328   1
  -1  18   1 403.427 15.7739   1
  -1  18   1 361.943 16.2559  -2
  -1  18   1 361.943 16.2559   1
  -1  18   1 40.1222 3.28002   2
   0  18   1 152.955 5.25008   1
   0  18   1 21.9580 2.78099   2
   1  18   1 224.700 6.06190   1
   1  18   1 5.91622 1.77733   2
   2  18   1 1.03611 1.13292   2
   2  18   1 7.01592 1.21811   1
   3  18   1 0.54134 1.16236   2
   3  18   1 26.5428 2.32026   1
   4  18   1 5.49742 1.05628   2
   4  18   1 88.2128 3.12439   1
   5  18   1 3.07130 1.31454   2
   5  18   1 37.0140 2.39939   1
   6  18   1 -1.3001 1.68664   2
   6  18   1 -0.2103 1.40979   1
   7  18   1 -1.7454 1.48522   1
   7  18   1 1.05504 1.56970   2
   8  18   1 11.7760 1.97632   1
   8  18   1 2.48810 1.80183   2
   9  18   1 3.18378 2.16216   2
   9  18   1 -1.4755 2.01426   1
  -9  19   1 3.02679 2.25839   2
  -9  19   1 58.5770 3.75158   1
  -8  19   1 103.037 4.33806   1
  -8  19   1 8.36334 2.02604   2
  -7  19   1 4.85170 1.76182   2
  -7  19   1 84.6907 3.66866   1
  -6  19   1 2.44559 1.65164   2
  -6  19   2 25.9961 3.94718  -2
  -6  19   1 25.9961 3.94718   1
  -5  19   2 298.666 12.7633  -2
  -5  19   1 298.666 12.7633   1
  -4  19   1 2.73743 1.43310   2
  -4  19   1 15.7146 2.47079   1
  -3  19   1 103.829 3.36923   1
  -3  19   1 10.3001 1.30336   2
  -2  19   1 1.04281 1.36232   1
  -2  19   1 -0.8143 0.98874   2
  -1  19   1 33.6639 3.25463   1
  -1  19   1 39.4735 4.23990  -2
  -1  19   1 39.4735 4.23990   1
  -1  19   1 1.81226 1.79881   2
   0  19   1 -0.2025 1.14701   1
   0  19   1 0.19304 1.23370   2
   1  19   1 329.983 9.96235   1
   1  19   1 15.3739 2.76772   2
   2  19   1 -0.3217 1.14946   2
   2  19   1 15.0372 1.58573   1
   3  19   1 4.52134 1.31443   2
   3  19   1 12.3232 1.52233   1
   4  19   1 5.11712 1.73559   2
   4  19   1 126.180 5.64423   1
   5  19   1 0.91968 1.54179   2
   5  19   1 34.4501 2.93429   1
   6  19   1 4.66123 1.86113   2
   6  19   1 67.7027 3.38083   1
   7  19   1 4.39582 1.87287   1
   7  19   1 -1.2489 1.72106   2
   8  19   1 17.1771 2.35503   1
   8  19   1 0.26437 2.05636   2
   9  19   1 5.18342 2.45112   2
   9  19   1 135.756 5.23481   1
  -8  20   1 125.137 5.88717   1
  -8  20   1 6.62206 2.60763   2
  -7  20   1 2.74892 2.14885   2
  -7  20   1 79.5314 4.49349   1
  -6  20   1 0.74875 1.80396   2
  -6  20   2 21.9609 7.15506  -2
  -6  20   1 21.9609 7.15506   1
  -5  20   2 59.6219 4.21783  -2
  -5  20   1 59.6219 4.21783   1
  -5  20   1 4.23856 2.23215   2
  -4  20   1 105.401 5.88290   1
  -4  20   1 8.21788 1.79340   2
  -4  20   2 106.425 8.56221  -2
  -4  20   1 106.425 8.56221   1
  -3  20   1 4.66922 1.30775   2
  -3  20   1 33.9563 2.33501   1
  -2  20   1 235.116 7.46237   1
  -2  20   1 27.5705 2.33175   2
  -1  20   1 129.968 5.12802  -2
  -1  20   1 129.968 5.12802   1
  -1  20   1 15.7302 2.46761   2
  -1  20   1 131.119 6.52333   1
   0  20   1 220.524 7.22643   1
   0  20   1 23.3262 2.67099   2
   1  20   1 -0.5239 1.35227   2
   1  20   1 2.80582 1.40918   1
   2  20   1 -0.9811 3.26912   2
   3  20   0 134.045 7.86330  -2
   3  20   1 134.045 7.86330   1
   3  20   1 8.42101 1.68193   2
   3  20   1 107.756 4.52604   1
   4  20   1 169.613 5.47295   1
   4  20   1 14.4783 1.85454   2
   5  20   1 -2.1046 1.60583   1
   5  20   1 -1.9874 1.60080   2
   6  20   1 2.00512 1.88444   1
   6  20   1 0.09029 1.83657   2
   7  20   1 1.48096 2.14774   2
   7  20   1 11.9716 2.46831   1
   8  20   1 -0.8952 2.53614   1
   8  20   1 -1.4403 2.55223   2
  -7  21   1 2.43518 2.43319   2
  -7  21   1 12.7279 2.59230   1
  -6  21   2 19.3621 4.61310  -2
  -6  21   1 19.3621 4.61310   1
  -6  21   1 1.05181 2.09923   2
  -5  21   1 2.40372 2.36506   2
  -5  21   2 21.4509 3.97267  -2
  -5  21   1 21.4509 3.97267   1
  -4  21   2 27.3903 4.38070  -2
  -4  21   1 27.3903 4.38070   1
  -4  21   1 4.24753 1.80621   2
  -3  21   1 98.2084 3.58025   1
  -3  21   1 12.3790 1.63603   2
  -2  21   1 7.42643 1.48891   1
  -2  21   1 0.14629 1.34209   2
  -1  21   1 4.27804 2.31222   2
  -1  21   1 66.0831 3.86276  -2
  -1  21   1 66.0831 3.86276   1
  -1  21   1 55.6267 4.54885   1
   0  21   1 1.41378 1.95754   2
   0  21   1 9.22264 4.09964  -2
   0  21   1 9.22264 4.09964   1
   0  21   1 0.46396 1.93240   1
   1  21   1 0.12183 1.27837   1
   1  21   1 0.06594 1.25028   2
   2  21   1 98.7880 3.52036   1
   2  21   1 6.04615 1.76025   2
   3  21   1 14.9398 2.07548   1
   3  21   1 2.67615 1.76667   2
   3  21   0 45.8387 6.74027  -2
   3  21   1 45.8387 6.74027   1
   4  21   1 5.00208 1.90567   2
   4  21   1 113.034 4.93054   1
   5  21   1 0.53206 1.97025   2
   5  21   1 4.00778 2.06047   1
   6  21   1 20.8944 2.63948   2
   6  21   1 314.399 10.1534   1
   7  21   1 2.92879 2.33108   2
   7  21   1 76.5758 4.89675   1
  -6  22   2 -3.8701 5.08780  -2
  -6  22   1 -3.8701 5.08780   1
  -6  22   1 -1.1927 2.34247   2
  -5  22   1 15.5538 3.16021   2
  -5  22   2 125.816 6.32558  -2
  -5  22   1 125.816 6.32558   1
  -4  22   2 10.7429 5.41485  -2
  -4  22   1 10.7429 5.41485   1
  -4  22   1 0.95308 1.99069   2
  -4  22   1 4.94503 3.51326   1
  -3  22   1 41.0301 3.34237   1
  -3  22   1 4.05533 1.94258   2
  -2  22   1 -0.9878 2.00399   2
  -2  22   1 20.0649 2.49883   1
  -2  22   1 7.06703 5.57832  -2
  -2  22   1 7.06703 5.57832   1
  -1  22   1 56.9866 4.78696   1
  -1  22   1 6.41001 2.61352   2
  -1  22   1 62.3622 5.45687  -2
  -1  22   1 62.3622 5.45687   1
   0  22   1 35.5636 5.01481  -2
   0  22   1 35.5636 5.01481   1
   0  22   1 0.99527 2.23790   2
   0  22   1 25.7704 3.02398   1
   1  22   1 141.566 5.13451   1
   1  22   1 15.9283 1.94439   2
   2  22   1 1.73322 1.50750   2
   2  22   1 26.6829 1.98851   1
   3  22   1 2.44292 1.58004   2
   3  22   1 35.3598 2.97268   1
   4  22   1 159.777 6.21090   1
   4  22   1 10.7956 2.32766   2
   5  22   1 22.6180 2.74227   1
   5  22   1 3.81886 2.20058   2
   6  22   1 1.30658 3.99289   2
   6  22   1 53.7937 6.34998   1
  -4  23   1 5.96082 4.05113   1
  -4  23   1 0.52711 2.23817   2
  -4  23   2 22.2577 6.82262  -2
  -4  23   1 22.2577 6.82262   1
  -3  23   1 8.60858 2.40494   2
  -3  23   1 56.2101 4.19185   1
  -2  23   1 5.83808 2.52930   1
  -2  23   1 -0.2107 2.35562   2
  -2  23   1 0.29469 5.69843  -2
  -2  23   1 0.29469 5.69843   1
  -1  23   1 -4.6728 2.94241   2
  -1  23   1 26.6502 3.61267   1
  -1  23   1 28.5710 5.08902  -2
  -1  23   1 28.5710 5.08902   1
   0  23   1 10.3562 2.76122   1
   0  23   1 8.11219 5.12965  -2
   0  23   1 8.11219 5.12965   1
   0  23   1 5.02508 2.75896   2
   1  23   1 99.4155 4.46940   1
   1  23   1 10.3261 2.07598   2
   2  23   1 24.0420 2.50142   2
   2  23   1 221.334 6.26054   1
   3  23   1 3.96765 2.22794   1
   3  23   1 -1.9602 2.15991   2
   4  23   1 5.53849 2.46235   2
   4  23   1 31.9376 3.09600   1
  -1  24   1 107.963 7.41249   1
  -1  24   1 5.53263 3.53734   2
   0  24   1 64.8879 5.88662   1
   0  24   1 15.5640 3.50891   2
   1  24   1 11.1015 2.55160   1
   1  24   1 0.71208 2.26088   2
 -15   0   2 -4.3360 2.85531   2
 -15   0   5 3.90056 6.30729  -2
 -15   0   2 3.90056 6.30729   1
 -14   0   2 0.72824 1.97741   2
 -14   0   5 9.13127 4.77180  -2
 -14   0   2 9.13127 4.77180   1
 -13   0   2 0.23979 1.62129   1
 -13   0   2 -1.6524 1.63063   2
 -12   0   2 2.73214 1.30695   2
 -12   0   2 35.9297 2.38524   1
 -11   0   2 0.52026 1.04740   2
 -11   0   2 1.76245 1.08728   1
 -10   0   4 79.3241 3.04489  -2
 -10   0   2 79.3241 3.04489   1
 -10   0   2 3.46636 1.26296   2
  -9   0   4 1.37938 2.42523  -2
  -9   0   2 1.37938 2.42523   1
  -9   0   2 -0.2641 0.75056   2
  -9   0   2 -0.1359 1.17573   1
  -8   0   2 21.5285 0.84479   2
  -8   0   2 409.106 9.44407   1
  -7   0   2 0.91706 0.18201   1
  -7   0   2 0.36960 0.22464   2
  -6   0   2 48.2657 1.55758   2
  -6   0   2 825.841 15.7596   1
  -5   0   2 2.59182 0.54154   1
  -5   0   3 3.51559 0.36095  -2
  -5   0   2 3.51559 0.36095   1
  -4   0   2 455.270 11.7087   2
  -4   0   2 7314.26 199.458   1
  -3   0   2 -0.0453 0.23166   2
  -3   0   2 2.01429 0.17736   1
  -2   0   2 5.60240 0.28688   2
  -2   0   2 105.884 2.43078   1
  -1   0   2 0.07097 0.04657   2
  -1   0   2 1.08881 0.14692   1
   0   0   2 2.23183 0.09091   2
   0   0   2 42.4856 0.87787   1
   1   0   2 1.94809 0.14357   1
   1   0   2 0.00846 0.07379   2
   2   0   2 17.6166 0.44696   1
   2   0   2 1.03008 0.13224   2
   3   0   2 -0.0347 0.11898   2
   3   0   2 0.84164 0.18117   1
   4   0   2 1093.37 20.1659   1
   4   0   2 71.0127 1.49918   2
   5   0   2 -0.0069 0.16383   2
   5   0   2 0.89060 0.21649   1
   6   0   2 8.31648 0.42693   2
   6   0   2 140.024 3.30336   1
   7   0   2 -0.1110 0.23374   2
   7   0   2 0.47693 0.29696   1
   8   0   2 57.7399 1.61648   1
   8   0   2 3.66704 0.47012   2
   9   0   2 0.02234 0.52304   2
   9   0   2 -0.8582 0.48797   1
  10   0   2 34.8322 1.58982   2
  10   0   2 647.062 14.8906   1
  11   0   2 -0.1150 1.23283   2
  11   0   2 2.60201 1.24477   1
  12   0   2 13.2735 1.79910   2
  12   0   2 258.418 6.96513   1
  13   0   2 0.78678 1.91306   1
  13   0   2 1.85612 2.52820   2
  14   0   2 186.352 7.88961   1
 -15   1   5 159.172 6.08035  -2
 -15   1   2 159.172 6.08035   1
 -15   1   2 7.47130 2.02750   2
 -14   1   2 0.63433 1.37987   2
 -14   1   5 1.89327 2.70072  -2
 -14   1   2 1.89327 2.70072   1
 -13   1   2 187.748 4.01067   1
 -13   1   2 11.2432 1.32791   2
 -12   1   2 7.09706 1.03257   2
 -12   1   2 122.135 2.87369   1
 -11   1   2 2.83593 0.81288   2
 -11   1   2 50.4607 1.71233   1
 -10   1   4 815.147 13.0666  -2
 -10   1   2 815.147 13.0666   1
 -10   1   2 48.5730 2.71626   2
  -9   1   2 1.97382 0.38519   2
  -9   1   4 36.8150 2.04904  -2
  -9   1   2 36.8150 2.04904   1
  -9   1   2 32.2214 2.79968   1
  -8   1   2 -0.2687 0.21280   2
  -8   1   2 2.03601 0.26155   1
  -7   1   2 7.06276 0.28454   2
  -7   1   2 123.514 1.94809   1
  -6   1   2 1946.55 23.4833   1
  -6   1   2 118.443 1.77148   2
  -5   1   2 650.875 11.3283   1
  -5   1   3 680.358 18.9177  -2
  -5   1   2 680.358 18.9177   1
  -4   1   2 21.3655 0.55593   2
  -4   1   2 376.942 6.07912   1
  -3   1   2 6.55118 0.31737   2
  -3   1   2 124.759 2.07179   1
  -2   1   2 592.540 8.70074   1
  -2   1   2 34.3094 0.62321   2
  -1   1   2 5.05171 0.11898   2
  -1   1   2 87.8601 1.31496   1
   0   1   2 496.266 5.82352   1
   0   1   2 28.8927 0.45388   2
   1   1   2 2140.67 28.1492   1
   1   1   2 118.575 1.85520   2
   2   1   2 844.551 11.7932   1
   2   1   2 54.6773 0.79600   2
   3   1   2 1.97421 0.12748   2
   3   1   2 36.3824 0.58469   1
   4   1   2 14.9746 0.33899   2
   4   1   2 248.455 3.34873   1
   5   1   2 82.0500 1.23279   2
   5   1   2 1257.87 16.4152   1
   6   1   2 736.595 10.4527   1
   6   1   2 44.3714 0.74041   2
   7   1   2 224.491 4.05068   1
   7   1   2 13.6176 0.38426   2
   8   1   2 517.176 8.11344   1
   8   1   2 28.4652 0.84690   2
   9   1   2 0.48050 0.36778   2
   9   1   2 4.37565 0.52832   1
  10   1   2 18.3913 0.95644   2
  10   1   2 348.623 6.00371   1
  11   1   2 45.9471 1.76065   1
  11   1   2 2.18052 0.92352   2
  12   1   2 24.6095 1.46541   1
  12   1   2 0.36165 1.09546   2
  13   1   2 24.3892 1.67637   1
  13   1   2 -1.1896 1.79106   2
  14   1   2 9.11665 1.96035   1
 -15   2   5 92.8599 4.83304  -2
 -15   2   2 92.8599 4.83304   1
 -15   2   2 8.42155 2.13189   2
 -14   2   5 7.75250 3.12256  -2
 -14   2   2 7.75250 3.12256   1
 -14   2   2 1.39911 1.58191   2
 -13   2   2 55.1033 2.35419   1
 -13   2   2 2.37770 1.24139   2
 -12   2   2 13.6880 1.16487   1
 -12   2   2 1.56733 0.91966   2
 -11   2   2 0.14381 0.77656   2
 -11   2   2 3.68094 0.83139   1
 -10   2   2 2.53416 1.28700   2
 -10   2   4 22.1800 1.69964  -2
 -10   2   2 22.1800 1.69964   1
  -9   2   2 46.0222 1.34870   2
  -9   2   4 835.019 16.0987  -2
  -9   2   2 835.019 16.0987   1
  -8   2   2 36.2564 0.93799   1
  -8   2   2 2.23802 0.34440   2
  -7   2   2 17.3591 0.56165   2
  -7   2   2 301.920 4.57637   1
  -6   2   2 1.00823 0.19280   1
  -6   2   2 0.35363 0.18720   2
  -5   2   3 195.791 5.62077  -2
  -5   2   2 195.791 5.62077   1
  -5   2   2 188.801 4.75519   1
  -4   2   2 311.005 5.59789   1
  -4   2   2 17.3949 0.77399   2
  -3   2   2 -0.1616 0.16156   2
  -3   2   2 0.69305 0.08793   1
  -2   2   2 195.943 2.69582   1
  -2   2   2 11.2194 0.23121   2
  -1   2   2 364.224 6.29591   2
  -1   2   2 7356.03 108.184   1
   0   2   2 22.4872 0.38850   2
   0   2   2 452.567 5.27035   1
   1   2   2 3234.51 38.2576   1
   1   2   2 175.620 2.22665   2
   2   2   2 73.4068 0.98813   1
   2   2   2 4.42210 0.14603   2
   3   2   2 1011.62 12.5613   1
   3   2   2 62.2126 0.87730   2
   4   2   2 1.47133 0.12195   1
   4   2   2 0.06065 0.08917   2
   5   2   2 3.52067 0.19156   2
   5   2   2 63.3512 1.00479   1
   6   2   2 67.3248 1.07914   1
   6   2   2 3.96129 0.21134   2
   7   2   2 32.4134 0.68940   2
   7   2   2 559.333 8.80354   1
   8   2   2 118.583 2.02657   1
   8   2   2 7.56545 0.38809   2
   9   2   2 3.14074 0.47222   2
   9   2   2 53.4067 1.40806   1
  10   2   2 1.37262 0.51928   2
  10   2   2 14.6168 1.10695   1
  11   2   2 82.9319 2.26399   1
  11   2   2 5.26398 0.92156   2
  12   2   2 35.7813 1.80280   1
  12   2   2 3.09972 1.24150   2
  13   2   2 3.06763 1.79747   2
  13   2   2 58.6985 2.80233   1
  14   2   2 20.0925 2.13495   1
 -15   3   5 205.607 6.13208  -2
 -15   3   2 205.607 6.13208   1
 -15   3   2 10.9637 2.20110   2
 -14   3   2 2.16994 1.61632   2
 -14   3   5 13.4491 3.07193  -2
 -14   3   2 13.4491 3.07193   1
 -13   3   2 233.484 5.29436   1
 -13   3   2 12.8989 1.61696   2
 -12   3   2 1.15091 0.94133   2
 -12   3   2 12.7680 1.16383   1
 -11   3   2 10.4977 1.09556   2
 -11   3   2 182.499 3.91827   1
 -10   3   4 146.366 3.38230  -2
 -10   3   2 146.366 3.38230   1
 -10   3   2 8.93737 0.81731   2
  -9   3   4 40.8007 1.47022  -2
  -9   3   2 40.8007 1.47022   1
  -9   3   2 3.03771 0.44559   2
  -9   3   2 38.4263 2.53502   1
  -8   3   2 185.203 3.01916   1
  -8   3   2 11.0191 0.56629   2
  -7   3   2 0.01843 0.18464   2
  -7   3   2 0.08978 0.19391   1
  -6   3   2 5.15707 0.33340   2
  -6   3   2 72.0824 1.44097   1
  -5   3   3 296.875 8.28188  -2
  -5   3   2 296.875 8.28188   1
  -5   3   2 282.849 6.63053   1
  -4   3   2 11.7942 0.49974   2
  -4   3   2 173.074 3.70131   1
  -3   3   2 2.13656 0.22868   2
  -3   3   2 35.2258 0.60315   1
  -2   3   2 50.0475 0.80582   1
  -2   3   2 3.30341 0.12433   2
  -1   3   2 57.7145 0.99190   1
  -1   3   2 3.35108 0.12482   2
   0   3   2 86.9507 1.64700   2
   0   3   2 1997.81 27.4255   1
   1   3   2 299.182 4.21756   2
   1   3   2 5236.19 68.3326   1
   2   3   2 717.052 8.54529   1
   2   3   2 46.9252 0.81959   2
   3   3   2 0.09630 0.09586   2
   3   3   2 2.06856 0.13296   1
   4   3   2 211.263 2.73696   1
   4   3   2 12.5835 0.29798   2
   5   3   2 175.900 2.33533   2
   5   3   2 2851.50 37.3685   1
   6   3   2 13.1020 0.35704   2
   6   3   2 221.785 3.10154   1
   7   3   2 9.13393 0.41520   2
   7   3   2 171.955 3.15061   1
   8   3   2 0.14079 0.27342   2
   8   3   2 2.42344 0.39087   1
   9   3   2 72.6018 1.70788   1
   9   3   2 4.53620 0.50116   2
  10   3   2 11.2046 0.95832   2
  10   3   2 207.479 4.25931   1
  11   3   2 5.07013 0.97308   1
  11   3   2 -0.1252 0.79940   2
  12   3   2 2.50239 1.25682   2
  12   3   2 29.5173 1.78961   1
  13   3   2 2.32490 2.28378   2
  13   3   2 50.9464 2.64527   1
  14   3   2 26.7858 2.31572   1
 -15   4   2 0.92382 2.04570   2
 -15   4   5 25.8718 4.50344  -2
 -15   4   2 25.8718 4.50344   1
 -14   4   2 4.96905 1.74577   2
 -14   4   5 81.6403 4.52472  -2
 -14   4   2 81.6403 4.52472   1
 -13   4   2 108.007 3.27991   1
 -13   4   2 4.80363 1.32964   2
 -12   4   2 -0.6099 0.95806   2
 -12   4   2 5.79593 1.04816   1
 -11   4   2 235.011 4.76713   1
 -11   4   2 13.3183 1.16411   2
 -10   4   2 0.57963 0.53753   2
 -10   4   4 49.7512 2.02395  -2
 -10   4   2 49.7512 2.02395   1
  -9   4   2 0.36443 0.38348   2
  -9   4   4 7.81699 1.05279  -2
  -9   4   2 7.81699 1.05279   1
  -9   4   2 1.79739 0.93801   1
  -8   4   2 19.0929 0.78891   2
  -8   4   2 337.309 5.60542   1
  -7   4   2 0.89251 0.22335   2
  -7   4   2 19.9259 0.58061   1
  -6   4   2 58.2677 1.33023   2
  -6   4   2 913.480 14.3397   1
  -5   4   2 113.839 3.66016   1
  -5   4   3 113.491 2.87600  -2
  -5   4   2 113.491 2.87600   1
  -4   4   2 2764.92 55.2318   1
  -4   4   2 154.762 3.13896   2
  -3   4   2 2.94982 0.14771   2
  -3   4   2 45.5286 0.84391   1
  -2   4   2 0.29478 0.09619   2
  -2   4   2 2.96385 0.22256   1
  -1   4   2 32.4452 0.61429   2
  -1   4   2 462.243 6.36802   1
   0   4   2 0.03153 0.07110   2
   0   4   2 0.96067 0.12849   1
   1   4   2 0.65338 0.10561   2
   1   4   2 9.74995 0.24012   1
   2   4   2 13.4769 0.29261   2
   2   4   2 208.401 2.69468   1
   3   4   2 2101.22 29.5350   1
   3   4   2 129.005 1.73009   2
   4   4   2 34.3832 0.57205   2
   4   4   2 551.060 7.85741   1
   5   4   2 99.7056 1.75715   1
   5   4   2 6.16776 0.24627   2
   6   4   2 42.0023 0.82015   1
   6   4   2 2.25894 0.18820   2
   7   4   2 337.323 6.62324   1
   7   4   2 20.1132 0.51648   2
   8   4   2 2.04233 0.39943   1
   8   4   2 0.44016 0.29219   2
   9   4   2 41.5834 1.62821   1
   9   4   2 2.55846 0.63293   2
  10   4   2 584.584 9.40451   1
  10   4   2 33.8351 1.66167   2
  11   4   2 0.37717 0.88910   2
  11   4   2 5.29740 1.12765   1
  12   4   2 101.339 4.89541   1
  12   4   2 6.43074 1.51034   2
  13   4   2 2.52093 1.55575   1
  13   4   2 0.23613 2.26204   2
  14   4   2 105.674 4.05113   1
 -14   5   2 1.90113 1.71125   2
 -14   5   5 3.25825 3.38960  -2
 -14   5   2 3.25825 3.38960   1
 -13   5   2 1.30437 1.34947   2
 -13   5   2 10.6159 1.55063   1
 -12   5   2 3.10707 1.28866   1
 -12   5   2 0.22177 1.21762   2
 -11   5   2 11.6703 1.27030   1
 -11   5   4 15.6456 4.84620  -2
 -11   5   2 15.6456 4.84620   1
 -11   5   2 0.21194 0.92597   2
 -10   5   4 473.612 8.61188  -2
 -10   5   2 473.612 8.61188   1
 -10   5   2 26.3210 1.92326   2
  -9   5   4 36.4858 1.51817  -2
  -9   5   2 36.4858 1.51817   1
  -9   5   2 0.92049 0.40277   2
  -9   5   2 9.51758 1.20714   1
  -8   5   2 5.83827 0.42528   1
  -8   5   2 0.07935 0.47765   2
  -7   5   2 12.9340 0.57143   2
  -7   5   2 193.568 3.61603   1
  -6   5   2 741.933 11.7136   1
  -6   5   2 46.6342 1.08559   2
  -5   5   2 1052.50 23.3816   1
  -5   5   3 1102.09 24.1676  -2
  -5   5   2 1102.09 24.1676   1
  -4   5   2 347.069 6.03519   1
  -4   5   2 25.0259 0.80403   2
  -3   5   2 983.522 18.9202   1
  -3   5   2 64.2717 2.01084   2
  -2   5   2 1288.53 24.7254   1
  -2   5   2 73.6427 1.74511   2
  -1   5   2 2.98495 0.14529   2
  -1   5   2 49.0628 0.87696   1
   0   5   2 1153.08 20.1908   1
   0   5   2 56.3433 1.52593   2
   1   5   2 139.645 2.25478   1
   1   5   2 8.63477 0.27319   2
   2   5   2 92.5947 1.42350   1
   2   5   2 5.80935 0.23206   2
   3   5   2 335.319 4.57168   1
   3   5   2 21.7664 0.43389   2
   4   5   2 5.25203 0.24128   2
   4   5   2 85.7558 1.38321   1
   5   5   2 3.51723 0.24008   2
   5   5   2 54.1921 0.97202   1
   6   5   2 22.1220 0.55086   2
   6   5   2 390.369 5.70460   1
   7   5   2 3.06587 0.28142   2
   7   5   2 48.0423 1.24668   1
   8   5   2 11.3834 0.54826   2
   8   5   2 167.808 3.04038   1
   9   5   2 197.602 3.56601   1
   9   5   2 12.0263 0.97993   2
  10   5   2 533.977 8.66986   1
  10   5   2 29.6864 1.37108   2
  11   5   2 6.93450 1.12455   2
  11   5   2 135.439 3.81436   1
  12   5   2 155.556 4.71417   1
  12   5   2 7.43483 1.88329   2
  13   5   2 1.17862 1.60036   1
  13   5   2 -1.3078 2.23500   2
  14   5   2 40.3127 2.82088   1
 -14   6   2 3.89669 1.81101   2
 -14   6   5 41.0239 3.75697  -2
 -14   6   2 41.0239 3.75697   1
 -13   6   2 4.44144 1.46649   1
 -13   6   2 -0.3515 1.40322   2
 -12   6   2 3.74814 1.40483   2
 -12   6   2 86.2310 3.16385   1
 -11   6   2 148.905 3.93432   1
 -11   6   2 9.85564 1.31910   2
 -10   6   2 3.18098 0.89201   2
 -10   6   4 47.4057 2.34849  -2
 -10   6   2 47.4057 2.34849   1
  -9   6   2 24.4669 1.11901   2
  -9   6   4 426.717 7.67281  -2
  -9   6   2 426.717 7.67281   1
  -9   6   2 414.287 16.1042   1
  -8   6   2 1002.35 14.5587   1
  -8   6   2 63.0053 1.43439   2
  -7   6   2 1.44469 0.29348   1
  -7   6   2 0.00684 0.27970   2
  -6   6   2 32.2374 0.82043   1
  -6   6   2 2.47941 0.25645   2
  -5   6   3 2.29153 0.68793  -2
  -5   6   2 2.29153 0.68793   1
  -5   6   2 1.66018 0.59090   1
  -4   6   2 626.525 12.3040   1
  -4   6   2 40.1588 1.01332   2
  -3   6   2 111.325 2.31113   1
  -3   6   2 6.68089 0.30841   2
  -2   6   2 31.3921 0.85573   2
  -2   6   2 517.531 9.98904   1
  -1   6   2 1272.08 19.9551   1
  -1   6   2 70.6541 1.49142   2
   0   6   2 1114.10 15.9499   1
   0   6   2 54.3324 1.86727   2
   1   6   2 1241.41 20.9602   1
   1   6   2 84.5511 2.33824   2
   2   6   2 0.13152 0.14786   2
   2   6   2 0.73933 0.13307   1
   3   6   2 18.1229 0.47908   1
   3   6   2 1.14517 0.17019   2
   4   6   2 10.8940 0.35117   1
   4   6   2 0.59343 0.15065   2
   5   6   2 13.3982 0.40425   2
   5   6   2 217.105 3.25941   1
   6   6   2 895.144 13.7146   1
   6   6   2 54.7355 1.09508   2
   7   6   2 42.3918 1.10154   1
   7   6   2 2.71647 0.30735   2
   8   6   2 24.5689 0.97709   2
   8   6   2 445.910 7.17997   1
   9   6   2 237.569 4.15924   1
   9   6   2 14.1827 0.86251   2
  10   6   2 162.015 3.54335   1
  10   6   2 9.78306 1.45466   2
  11   6   2 3.29851 1.11000   2
  11   6   2 72.8656 2.85595   1
  12   6   2 5.73883 2.22021   2
  12   6   2 104.389 3.68238   1
  13   6   2 2.18805 1.65780   1
  13   6   2 1.48721 2.04253   2
  14   6   2 63.5552 3.46345   1
 -14   7   5 17.1794 3.73560  -2
 -14   7   2 17.1794 3.73560   1
 -14   7   2 1.99277 1.80909   2
 -13   7   2 1.86315 1.76505   2
 -13   7   2 40.5195 2.51411   1
 -12   7   2 11.5271 1.76952   1
 -12   7   2 -0.1015 1.38555   2
 -11   7   4 150.282 8.86148  -2
 -11   7   2 150.282 8.86148   1
 -11   7   2 10.1957 1.10319   2
 -11   7   2 147.575 4.62597   1
 -10   7   2 -0.3463 0.79543   2
 -10   7   4 25.7688 1.75596  -2
 -10   7   2 25.7688 1.75596   1
  -9   7   2 1.14148 0.69788   2
  -9   7   2 14.6541 1.24732   1
  -9   7   4 15.7001 1.96963  -2
  -9   7   2 15.7001 1.96963   1
  -8   7   2 390.003 5.95998   1
  -8   7   2 23.9145 1.02706   2
  -7   7   2 35.0698 0.86635   1
  -7   7   2 1.64042 0.30565   2
  -6   7   2 495.578 8.61138   1
  -6   7   2 28.2820 0.88711   2
  -5   7   3 344.816 7.89031  -2
  -5   7   2 344.816 7.89031   1
  -5   7   2 247.940 4.88505   1
  -4   7   2 1.57116 0.16905   1
  -4   7   2 0.28993 0.35830   2
  -3   7   2 357.795 5.68083   1
  -3   7   2 21.4261 0.95978   2
  -2   7   2 1963.93 56.9042   1
  -2   7   2 128.103 2.95032   2
  -1   7   2 144.745 2.67626   1
  -1   7   2 6.21765 0.38840   2
   0   7   2 540.268 10.5073   1
   0   7   2 23.9823 1.06031   2
   1   7   2 1232.49 20.8356   1
   1   7   2 89.2832 2.04134   2
   2   7   2 13.3069 0.44983   2
   2   7   2 231.031 3.64260   1
   3   7   2 3.45188 0.23551   2
   3   7   2 52.5026 1.01148   1
   4   7   2 3.62116 0.24744   1
   4   7   2 0.31011 0.17878   2
   5   7   2 1090.57 15.4345   1
   5   7   2 69.5035 1.31995   2
   6   7   2 1.35006 0.24528   2
   6   7   2 24.5691 0.63104   1
   7   7   2 0.38212 0.29903   2
   7   7   2 11.6521 0.64917   1
   8   7   2 21.3093 0.90461   1
   8   7   2 0.87889 0.51426   2
   9   7   2 16.1443 1.05931   1
   9   7   2 3.11654 1.15716   2
  10   7   2 1.14834 1.62889   2
  10   7   2 21.6392 1.37894   1
  11   7   2 2.65309 1.12802   2
  11   7   2 22.7626 1.73923   1
  12   7   2 277.600 6.67698   1
  12   7   2 15.3345 1.96310   2
  13   7   2 16.2455 1.99012   1
  13   7   2 -1.3388 2.14494   2
 -14   8   2 177.674 11.1227   1
 -14   8   2 11.2344 2.13315   2
 -14   8   5 178.831 6.50943  -2
 -14   8   2 178.831 6.50943   1
 -13   8   2 13.5391 2.02751   2
 -13   8   2 237.157 6.09802   1
 -12   8   2 8.71559 1.70506   1
 -12   8   2 1.38363 1.92529   2
 -11   8   2 13.5302 1.23038   2
 -11   8   2 242.429 8.15026   1
 -11   8   4 246.520 8.59617  -2
 -11   8   2 246.520 8.59617   1
 -10   8   4 43.9381 2.02516  -2
 -10   8   2 43.9381 2.02516   1
 -10   8   2 2.87848 0.94719   2
  -9   8   4 18.1642 1.76402  -2
  -9   8   2 18.1642 1.76402   1
  -9   8   2 0.62373 0.70168   2
  -8   8   2 68.4921 1.70998   1
  -8   8   2 3.80554 0.67979   2
  -7   8   2 31.6574 0.85036   1
  -7   8   2 1.93068 0.68556   2
  -6   8   2 175.844 5.52898   1
  -6   8   2 8.06668 0.85089   2
  -6   8   3 182.616 7.38189  -2
  -6   8   2 182.616 7.38189   1
  -5   8   3 32.5364 1.55447  -2
  -5   8   2 32.5364 1.55447   1
  -5   8   2 16.9012 0.73145   1
  -4   8   2 173.008 3.19527   1
  -4   8   2 14.2020 1.32833   2
  -3   8   2 243.476 4.35898   1
  -3   8   2 11.6774 0.63716   2
  -2   8   2 0.85916 0.21689   2
  -2   8   2 9.60315 0.73192   1
  -1   8   2 449.211 7.93366   1
  -1   8   2 23.6411 0.79827   2
   0   8   2 369.520 7.19272   1
   0   8   2 20.5204 0.66322   2
   1   8   2 1.57718 0.19233   2
   1   8   2 27.3006 0.60733   1
   2   8   2 13.6799 0.41874   2
   2   8   2 223.999 4.40478   1
   3   8   2 2172.81 35.8588   1
   3   8   2 149.863 3.00239   2
   4   8   2 29.6331 0.70968   2
   4   8   2 459.541 7.18391   1
   5   8   2 149.913 2.55683   1
   5   8   2 9.71235 0.41092   2
   6   8   2 626.589 9.78002   1
   6   8   2 38.6744 1.06812   2
   7   8   2 15.2472 0.61758   2
   7   8   2 255.252 4.78373   1
   8   8   2 0.38329 0.67666   2
   8   8   2 14.7380 0.97493   1
   9   8   2 0.94583 1.10914   2
   9   8   2 9.55940 0.97060   1
  10   8   2 0.93641 3.01988   2
  10   8   2 9.82875 1.12689   1
  11   8   2 0.99274 1.21041   2
  11   8   2 32.4847 2.08649   1
  12   8   2 1.26762 1.76037   2
  12   8   2 -0.1092 1.66442   1
  13   8   2 0.63409 2.30918   2
  13   8   2 19.2825 2.40061   1
 -14   9   2 3.27199 2.38975   2
 -14   9   5 21.7080 4.73482  -2
 -14   9   2 21.7080 4.73482   1
 -13   9   2 1.70885 1.90852   2
 -13   9   2 5.69221 2.01504   1
 -12   9   2 5.38867 1.64711   2
 -12   9   2 33.2625 2.51096   1
 -11   9   4 130.333 4.97097  -2
 -11   9   2 130.333 4.97097   1
 -11   9   2 8.04281 1.20361   2
 -11   9   2 124.954 7.77616   1
 -10   9   2 13.1566 1.26542   2
 -10   9   4 193.795 4.22601  -2
 -10   9   2 193.795 4.22601   1
  -9   9   4 212.247 4.99434  -2
  -9   9   2 212.247 4.99434   1
  -9   9   2 183.410 8.38991   1
  -9   9   2 12.3557 1.10707   2
  -8   9   2 -0.1805 0.65742   2
  -8   9   2 0.74894 0.60628   1
  -7   9   2 5.22171 0.62878   2
  -7   9   2 90.1978 2.16816   1
  -6   9   2 240.522 5.73152   1
  -6   9   3 251.666 7.43203  -2
  -6   9   2 251.666 7.43203   1
  -6   9   2 11.9310 1.10279   2
  -5   9   2 630.089 17.5756   1
  -5   9   3 638.890 16.9621  -2
  -5   9   2 638.890 16.9621   1
  -4   9   2 147.855 2.78646   1
  -4   9   2 14.8515 1.33768   2
  -3   9   2 2313.50 44.5707   1
  -3   9   2 143.032 4.22554   2
  -2   9   2 17.3278 0.59943   1
  -2   9   2 0.90576 0.36070   2
  -1   9   2 15.5108 0.80076   2
  -1   9   2 381.930 6.91316   1
   0   9   2 435.557 7.54898   1
   0   9   2 18.5904 0.71617   2
   1   9   2 648.729 8.95176   1
   1   9   2 25.5407 0.76081   2
   2   9   2 10.5649 0.36887   2
   2   9   2 172.184 3.51706   1
   3   9   2 587.093 9.93077   1
   3   9   2 35.3484 0.97016   2
   4   9   2 85.0810 1.56667   1
   4   9   2 4.75469 0.30749   2
   5   9   2 86.0627 1.78351   1
   5   9   2 4.65822 0.36880   2
   6   9   2 164.564 2.88893   1
   6   9   2 8.66623 0.53299   2
   7   9   2 92.3279 2.22638   1
   7   9   2 5.56805 0.81323   2
   8   9   2 1.16457 0.74542   2
   8   9   2 33.5601 1.46897   1
   9   9   2 219.304 4.43599   1
   9   9   2 9.13858 2.97472   2
  10   9   2 52.7175 2.09716   1
  10   9   2 -0.8660 3.24545   2
  11   9   2 99.2347 3.76441   1
  11   9   2 9.31542 1.42631   2
  12   9   2 53.3650 2.97979   1
  12   9   2 2.10075 1.63488   2
  13   9   2 1.15063 2.39249   2
  13   9   2 0.70029 2.58576   1
 -13  10   2 2.67325 2.07216   2
 -13  10   2 30.3633 2.55331   1
 -12  10   2 6.05993 1.82018   2
 -12  10   2 86.5769 3.55033   1
 -11  10   2 9.51829 1.29118   2
 -11  10   2 187.577 9.90355   1
 -11  10   4 188.173 10.8784  -2
 -11  10   2 188.173 10.8784   1
 -10  10   4 17.4635 1.94806  -2
 -10  10   2 17.4635 1.94806   1
 -10  10   2 0.43079 1.02912   2
  -9  10   4 115.602 3.43517  -2
  -9  10   2 115.602 3.43517   1
  -9  10   2 111.991 4.80307   1
  -9  10   2 6.02042 0.97850   2
  -8  10   2 29.9187 1.37078   2
  -8  10   2 530.689 8.68517   1
  -7  10   2 5.08754 0.65014   2
  -7  10   2 81.3752 2.19542   1
  -6  10   3 17.8959 1.77260  -2
  -6  10   2 17.8959 1.77260   1
  -6  10   2 15.3197 0.62906   1
  -6  10   2 1.53392 0.92097   2
  -5  10   2 7.41985 0.61257   1
  -5  10   3 20.0083 1.62891  -2
  -5  10   2 20.0083 1.62891   1
  -4  10   2 127.702 2.49479   1
  -4  10   2 8.67585 0.79197   2
  -3  10   2 170.290 4.35350   1
  -3  10   2 10.3595 0.69650   2
  -2  10   2 645.738 13.1313   1
  -2  10   2 28.5792 1.41984   2
  -1  10   2 1.03046 0.20351   2
  -1  10   2 17.1995 0.54954   1
   0  10   2 162.160 3.39029   1
   0  10   2 6.55798 0.59721   2
   1  10   2 275.208 3.65125   1
   1  10   2 9.80808 0.52936   2
   2  10   2 52.7619 1.28440   1
   2  10   2 3.00423 0.27919   2
   3  10   2 499.708 9.60043   1
   3  10   2 29.7142 0.89399   2
   4  10   2 2.45287 0.31594   2
   4  10   2 40.1794 0.91789   1
   5  10   2 282.614 5.74265   1
   5  10   2 16.4119 0.67693   2
   6  10   2 144.374 3.35088   1
   6  10   2 8.20292 0.56330   2
   7  10   2 1.66901 0.69390   2
   7  10   2 17.3462 1.08305   1
   8  10   2 38.9605 1.62257   2
   8  10   2 696.528 12.1087   1
   9  10   2 15.3261 2.37334   2
   9  10   2 250.946 4.98324   1
  10  10   2 -2.3866 3.51789   2
  10  10   2 0.20134 1.22706   1
  11  10   2 19.8694 1.73636   1
  11  10   2 -1.0050 1.57056   2
  12  10   2 32.3012 2.46964   1
  12  10   2 3.21341 1.66750   2
  13  10   2 8.19869 2.51344   1
  13  10   2 2.41141 3.49230   2
 -13  11   2 0.94662 2.14083   2
 -13  11   2 16.1438 2.46538   1
 -12  11   2 23.2114 2.27260   1
 -12  11   2 -1.1371 1.76121   2
 -11  11   2 0.73524 1.31858   2
 -11  11   4 23.8399 8.06794  -2
 -11  11   2 23.8399 8.06794   1
 -11  11   2 17.2974 4.80196   1
 -10  11   4 34.4723 2.27957  -2
 -10  11   2 34.4723 2.27957   1
 -10  11   2 1.61813 1.16007   2
  -9  11   4 208.890 5.10964  -2
  -9  11   2 208.890 5.10964   1
  -9  11   2 11.5111 1.15625   2
  -9  11   2 195.120 8.94761   1
  -8  11   2 328.423 5.65000   1
  -8  11   2 15.5906 1.18908   2
  -7  11   2 131.422 2.68762   1
  -7  11   2 7.30829 0.83611   2
  -6  11   2 782.185 15.1386   1
  -6  11   2 24.8957 2.00593   2
  -6  11   3 811.289 22.1864  -2
  -6  11   2 811.289 22.1864   1
  -5  11   3 305.571 7.23490  -2
  -5  11   2 305.571 7.23490   1
  -5  11   2 222.174 6.49940   1
  -4  11   2 130.335 2.93239   1
  -4  11   2 10.3039 1.23224   2
  -3  11   2 3.28298 0.77679   1
  -3  11   2 0.72921 0.61985   2
  -2  11   2 990.676 19.9773   1
  -2  11   2 44.1841 1.88237   2
  -1  11   2 204.617 3.86262   1
  -1  11   2 9.63061 0.49439   2
   0  11   2 137.712 2.42719   1
   0  11   2 5.25139 0.41406   2
   1  11   2 26.1190 0.56399   1
   1  11   2 1.38876 0.25369   2
   2  11   2 9.47894 0.52186   2
   2  11   2 156.631 3.25562   1
   3  11   2 0.07785 0.35165   2
   3  11   2 0.97163 0.33291   1
   4  11   2 0.77103 0.55685   2
   4  11   2 19.6516 0.81678   1
   5  11   2 0.31690 0.35493   2
   5  11   2 1.04760 0.35972   1
   6  11   2 0.35229 0.42697   2
   6  11   2 3.59093 0.79290   1
   7  11   2 188.674 3.83704   1
   7  11   2 10.2648 0.93272   2
   8  11   2 144.724 3.26711   1
   8  11   2 6.99995 0.99161   2
   9  11   2 -0.9156 3.22467   2
   9  11   2 0.40386 0.94445   1
  10  11   2 15.5503 1.44844   1
  10  11   2 -1.3025 3.83522   2
  11  11   2 6.10492 1.60724   2
  11  11   2 102.255 3.31399   1
  12  11   2 16.2293 2.01378   2
  12  11   2 328.754 7.81875   1
 -13  12   2 3.64169 2.41128   2
 -13  12   2 103.314 5.33403   1
 -12  12   2 2.31227 1.94009   2
 -12  12   2 17.6761 2.16347   1
 -11  12   2 3.91522 1.59721   2
 -11  12   4 55.1367 5.15360  -2
 -11  12   2 55.1367 5.15360   1
 -11  12   2 49.3102 5.48405   1
 -10  12   4 65.0357 2.80497  -2
 -10  12   2 65.0357 2.80497   1
 -10  12   2 4.36024 1.26991   2
  -9  12   2 -0.1485 1.00685   2
  -9  12   4 1.21730 3.08636  -2
  -9  12   2 1.21730 3.08636   1
  -9  12   2 1.33653 1.65993   1
  -8  12   2 5.58073 0.93938   2
  -8  12   2 92.3268 2.42804   1
  -7  12   2 27.3869 1.34476   2
  -7  12   2 450.140 7.45714   1
  -6  12   2 13.0080 1.54014   1
  -6  12   3 15.0065 2.47047  -2
  -6  12   2 15.0065 2.47047   1
  -6  12   2 -0.5498 1.83554   2
  -5  12   2 15.8263 0.92698   1
  -5  12   3 14.0376 2.11190  -2
  -5  12   2 14.0376 2.11190   1
  -4  12   2 65.2027 1.72986   1
  -4  12   2 2.07623 0.82132   2
  -3  12   2 466.598 9.40711   1
  -3  12   2 13.0272 1.71524   2
  -2  12   2 0.20989 0.47365   2
  -2  12   2 4.69659 0.52063   1
  -1  12   2 0.54301 0.35168   2
  -1  12   2 14.0240 0.50696   1
   0  12   2 346.747 5.75943   1
   0  12   2 13.8185 0.95141   2
   1  12   2 5.82913 0.45669   2
   1  12   2 133.015 2.40508   1
   2  12   2 7.90214 0.59525   2
   2  12   2 147.525 3.48082   1
   3  12   2 61.2765 1.81347   2
   3  12   2 1103.80 20.8257   1
   4  12   2 157.465 3.03525   1
   4  12   2 9.17378 0.57493   2
   5  12   2 0.81438 0.43321   1
   5  12   2 0.50503 0.39031   2
   6  12   2 16.1159 0.79853   2
   6  12   2 305.043 5.65613   1
   7  12   2 157.295 3.39665   1
   7  12   2 8.40764 1.05588   2
   8  12   2 83.1431 2.41640   1
   8  12   2 4.85164 0.99896   2
   9  12   2 10.1125 1.22391   1
   9  12   2 -2.8708 2.05949   2
  10  12   2 26.1280 1.81183   1
  11  12   2 45.1970 2.47451   1
  11  12   2 1.00401 1.63052   2
  12  12   2 6.35694 2.19262   2
  12  12   2 44.5691 3.63961   1
 -12  13   2 156.054 5.87698   1
 -12  13   2 8.57307 2.28334   2
 -11  13   2 103.685 8.62298   1
 -11  13   2 5.94849 1.57776   2
 -11  13   4 128.799 6.77337  -2
 -11  13   2 128.799 6.77337   1
 -10  13   2 3.58084 1.94371   2
 -10  13   4 21.2283 3.96332  -2
 -10  13   2 21.2283 3.96332   1
  -9  13   2 1.21787 1.05610   2
  -9  13   4 23.3809 2.70150  -2
  -9  13   2 23.3809 2.70150   1
  -9  13   2 21.2598 3.72944   1
  -8  13   2 6.22478 0.97969   1
  -8  13   2 0.94720 0.88044   2
  -7  13   2 11.2749 1.02988   2
  -7  13   2 170.648 3.58157   1
  -6  13   2 33.3839 3.58898   1
  -6  13   3 33.7920 2.92916  -2
  -6  13   2 33.7920 2.92916   1
  -6  13   2 -0.2454 1.98281   2
  -5  13   3 72.2127 3.43677  -2
  -5  13   2 72.2127 3.43677   1
  -5  13   2 76.8069 2.30835   1
  -4  13   2 30.2664 1.17679   1
  -4  13   2 5.35478 1.59533   2
  -3  13   2 17.4392 1.53657   2
  -3  13   2 485.833 9.80690   1
  -2  13   2 2.88203 0.61217   2
  -2  13   2 55.1907 1.52480   1
  -1  13   2 288.450 5.91035   1
  -1  13   2 11.3018 0.94955   2
   0  13   2 7.70041 0.45999   2
   0  13   2 170.326 2.58130   1
   1  13   2 378.000 6.68998   1
   1  13   2 14.3496 1.10017   2
   2  13   2 19.1835 1.17853   2
   2  13   2 406.641 7.91523   1
   3  13   2 65.5108 2.03113   1
   3  13   2 5.05618 0.70150   2
   4  13   2 390.207 6.90142   1
   4  13   2 22.8891 0.90020   2
   5  13   2 13.3361 0.75808   1
   5  13   2 0.66605 0.47093   2
   6  13   2 19.0434 1.25969   1
   6  13   2 0.64842 0.72785   2
   7  13   2 8.04961 1.21055   2
   7  13   2 151.068 3.36314   1
   8  13   2 86.2186 2.56768   1
   8  13   2 6.33983 1.29819   2
   9  13   2 190.271 4.26605   1
  10  13   2 1.33425 1.37760   1
  11  13   2 4.47876 1.72286   1
  11  13   2 2.63806 1.96835   2
  12  13   2 0.69775 2.33905   2
  12  13   2 3.97835 2.62061   1
 -12  14   2 81.3237 4.61278   1
 -12  14   2 -0.3671 2.86674   2
 -11  14   2 5.48162 1.68378   2
 -11  14   2 83.5758 8.66321   1
 -11  14   4 107.546 6.65202  -2
 -11  14   2 107.546 6.65202   1
 -10  14   2 4.08320 1.54075   2
 -10  14   2 39.8208 6.64702   1
 -10  14   4 42.8092 4.37570  -2
 -10  14   2 42.8092 4.37570   1
  -9  14   2 1.35927 1.22309   2
  -9  14   2 2.53357 3.25399   1
  -9  14   4 5.84927 3.53710  -2
  -9  14   2 5.84927 3.53710   1
  -8  14   2 204.026 4.82946   1
  -8  14   2 11.7728 1.30499   2
  -7  14   2 21.2221 1.40214   1
  -7  14   2 0.25903 0.93653   2
  -6  14   3 36.5218 3.22826  -2
  -6  14   2 36.5218 3.22826   1
  -6  14   2 -1.6000 2.19028   2
  -6  14   2 38.0909 4.05482   1
  -5  14   2 39.6531 1.86688   1
  -5  14   3 60.0186 3.25609  -2
  -5  14   2 60.0186 3.25609   1
  -4  14   2 136.403 3.19033   1
  -4  14   2 9.56120 1.83331   2
  -3  14   2 18.8020 1.04404   1
  -3  14   2 1.73459 0.68590   2
  -2  14   2 848.037 16.7975   1
  -2  14   2 34.2351 2.03302   2
  -1  14   2 115.888 2.87433   1
  -1  14   2 4.96533 0.87766   2
  -1  14   2 124.342 5.35392  -2
  -1  14   2 124.342 5.35392   1
   0  14   2 0.36706 0.28928   2
   0  14   2 8.38486 0.63464   1
   1  14   2 16.7458 0.95362   1
   1  14   2 0.20748 0.50524   2
   2  14   2 34.5613 1.64797   2
   2  14   2 433.975 10.0080   1
   3  14   2 22.9242 2.11990   2
   3  14   2 479.485 11.0694   1
   4  14   2 45.8468 1.32884   1
   4  14   2 2.85741 0.74847   2
   5  14   2 2.92240 0.78686   2
   5  14   2 49.1031 1.42054   1
   6  14   2 16.4052 1.21002   1
   6  14   2 -0.0796 0.93896   2
   7  14   2 5.72753 1.21104   2
   7  14   2 106.575 3.05488   1
   8  14   2 292.201 7.44840   1
   8  14   2 14.5389 1.59567   2
   9  14   2 97.2534 4.81696   1
  10  14   2 25.2363 2.18520   1
  11  14   2 4.04741 2.04943   1
  11  14   2 1.80546 2.19745   2
 -12  15   2 -2.2718 4.27385   2
 -12  15   2 54.9434 7.86035   1
 -11  15   2 1.22154 2.01379   2
 -11  15   2 -5.0462 5.34164   1
 -11  15   4 0.86431 5.79298  -2
 -11  15   2 0.86431 5.79298   1
 -10  15   4 10.4030 3.07590  -2
 -10  15   2 10.4030 3.07590   1
 -10  15   2 0.62011 1.72926   2
  -9  15   4 118.536 9.04247  -2
  -9  15   2 118.536 9.04247   1
  -9  15   2 3.10733 2.47654   2
  -9  15   2 113.366 7.99162   1
  -8  15   2 88.3401 2.94596   1
  -8  15   2 6.95914 1.28205   2
  -7  15   2 5.79228 1.14253   2
  -7  15   2 100.856 3.02245   1
  -6  15   2 238.940 10.4491   1
  -6  15   3 260.480 8.59924  -2
  -6  15   2 260.480 8.59924   1
  -6  15   2 8.45333 2.78400   2
  -5  15   2 73.3123 4.94130   1
  -5  15   3 100.898 4.35622  -2
  -5  15   2 100.898 4.35622   1
  -4  15   2 80.8816 2.60140   1
  -4  15   2 5.62625 1.87799   2
  -3  15   2 -0.3534 0.86717   2
  -3  15   2 3.05599 0.81451   1
  -2  15   2 7.60107 0.72651   2
  -2  15   2 111.283 2.69232   1
  -1  15   2 157.621 3.73487   1
  -1  15   2 6.16817 0.94326   2
  -1  15   2 170.030 6.91507  -2
  -1  15   2 170.030 6.91507   1
   0  15   2 3.50953 0.59242   1
   0  15   2 0.68843 0.65814   2
   1  15   2 171.802 3.53992   1
   1  15   2 9.36952 0.73864   2
   2  15   2 344.539 8.12009   1
   2  15   2 27.7877 1.50696   2
   3  15   2 0.99140 0.80490   1
   3  15   2 0.12531 0.85540   2
   4  15   2 15.1368 1.05245   2
   4  15   2 236.874 5.09124   1
   5  15   2 6.36121 0.92603   2
   5  15   2 105.721 3.30958   1
   6  15   2 69.7568 2.73454   1
   6  15   2 3.51809 1.19588   2
   7  15   2 376.768 9.22857   1
   7  15   2 21.7839 1.73782   2
   8  15   2 3.13364 1.41233   1
   8  15   2 -0.6707 1.53538   2
   9  15   2 1.51795 1.63757   1
  10  15   2 0.66872 1.88307   1
  11  15   2 1.58409 2.36861   2
  11  15   2 52.6469 3.57838   1
 -11  16   2 1.95521 2.18915   2
 -11  16   4 26.2959 6.58944  -2
 -11  16   2 26.2959 6.58944   1
 -10  16   4 9.44105 4.32532  -2
 -10  16   2 9.44105 4.32532   1
 -10  16   2 0.14020 1.85504   2
  -9  16   4 -1.6279 3.67518  -2
  -9  16   2 -1.6279 3.67518   1
  -9  16   2 0.10777 1.54333   2
  -8  16   2 99.4093 3.45883   1
  -8  16   2 5.70398 1.98102   2
  -7  16   2 35.4264 2.43251   2
  -7  16   2 588.065 11.7879   1
  -6  16   3 30.8896 3.62695  -2
  -6  16   2 30.8896 3.62695   1
  -6  16   2 17.8851 3.25319   1
  -6  16   2 4.85447 2.84499   2
  -5  16   2 130.973 4.32360   1
  -5  16   3 141.260 5.50401  -2
  -5  16   2 141.260 5.50401   1
  -4  16   2 44.7002 2.02089   1
  -4  16   2 3.84313 1.38608   2
  -3  16   2 502.784 11.5792   1
  -3  16   2 42.1491 2.33154   2
  -2  16   2 58.5204 1.76638   1
  -2  16   2 4.32529 0.73631   2
  -1  16   2 157.253 4.30567   1
  -1  16   2 5.56756 1.02470   2
   0  16   2 33.6817 1.62404   1
   0  16   2 1.43808 0.83110   2
   1  16   2 60.4172 1.71155   1
   1  16   2 2.71970 0.83148   2
   2  16   2 2.36334 1.05056   1
   2  16   2 -0.3503 0.68659   2
   3  16   2 133.406 3.79045   1
   3  16   2 7.93779 1.07536   2
   4  16   2 -0.2002 0.76229   2
   4  16   2 0.94948 0.81931   1
   5  16   2 1.08741 0.87179   2
   5  16   2 3.82300 1.11844   1
   6  16   2 5.43723 1.37350   2
   6  16   2 66.7541 2.83355   1
   7  16   2 0.53868 1.32617   2
   7  16   2 2.63486 1.34137   1
   8  16   2 50.1460 2.96053   1
   8  16   2 4.42543 1.61354   2
   9  16   2 126.418 4.52069   1
  10  16   2 42.1833 2.84269   1
 -10  17   4 65.2765 4.52929  -2
 -10  17   2 65.2765 4.52929   1
 -10  17   2 1.18093 2.02421   2
  -9  17   4 95.8371 5.02399  -2
  -9  17   2 95.8371 5.02399   1
  -9  17   2 7.20222 1.85234   2
  -8  17   2 0.27810 1.57223   2
  -8  17   2 0.04536 1.43672   1
  -7  17   2 5.65842 1.66508   2
  -7  17   2 79.6631 3.48483   1
  -6  17   3 81.5686 3.60469  -2
  -6  17   2 81.5686 3.60469   1
  -6  17   2 58.9691 5.70492   1
  -5  17   3 50.7371 3.79443  -2
  -5  17   2 50.7371 3.79443   1
  -5  17   2 44.7673 4.96757   1
  -4  17   2 2.75906 1.04357   2
  -4  17   2 13.5426 1.20078   1
  -3  17   2 4.47228 0.95036   2
  -3  17   2 61.8322 2.32697   1
  -2  17   2 -0.2849 1.04963   2
  -2  17   2 15.1445 1.53651   1
  -1  17   2 279.417 6.25080   1
  -1  17   2 24.7947 2.59759   2
   0  17   2 0.57464 0.83143   2
   0  17   2 22.8843 1.46602   1
   1  17   2 -0.6933 0.83068   2
   1  17   2 8.79679 1.06045   1
   2  17   2 226.749 5.18325   1
   2  17   2 12.3212 1.38764   2
   3  17   2 3.76170 1.05905   1
   3  17   2 -0.7225 0.90156   2
   4  17   2 206.291 4.64152   1
   4  17   2 15.0484 1.18733   2
   5  17   2 1.55971 1.13843   1
   5  17   2 1.44453 1.17633   2
   6  17   2 16.6397 1.68130   1
   6  17   2 1.85576 1.38844   2
   7  17   2 300.413 9.48749   1
   7  17   2 20.3375 2.26861   2
   8  17   2 34.4036 2.36896   1
   8  17   2 2.10124 1.74255   2
   9  17   2 46.5389 3.14937   1
  10  17   2 34.0070 2.88659   1
 -10  18   2 5.68307 2.34918   2
 -10  18   4 78.7716 5.04710  -2
 -10  18   2 78.7716 5.04710   1
  -9  18   4 21.1468 4.75336  -2
  -9  18   2 21.1468 4.75336   1
  -9  18   2 0.49420 1.94691   2
  -8  18   2 9.03599 1.85122   1
  -8  18   2 1.29393 1.67981   2
  -7  18   2 1.48465 1.56849   2
  -7  18   2 20.0585 2.27276   1
  -6  18   3 99.5553 7.75391  -2
  -6  18   2 99.5553 7.75391   1
  -5  18   3 23.9840 2.69108  -2
  -5  18   2 23.9840 2.69108   1
  -4  18   2 275.417 8.42498   1
  -4  18   2 30.6639 3.23638   2
  -3  18   2 4.37704 1.39791   2
  -3  18   2 56.0169 2.95388   1
  -2  18   2 459.093 13.2747   1
  -2  18   2 18.7022 2.88934   2
  -1  18   2 8.07898 1.80303   2
  -1  18   2 84.3581 4.56491   1
  -1  18   2 88.1099 6.54906  -2
  -1  18   2 88.1099 6.54906   1
   0  18   2 35.5344 2.08995   1
   0  18   2 2.84762 1.23192   2
   1  18   2 2.37476 1.12174   2
   1  18   2 57.7997 2.63120   1
   2  18   2 350.700 8.92189   1
   2  18   2 14.5254 2.27477   2
   3  18   2 30.3215 2.13051   1
   3  18   2 0.71017 1.20438   2
   4  18   2 3.24993 1.18576   1
   4  18   2 0.37556 0.94668   2
   5  18   2 -0.4164 1.33778   1
   5  18   2 0.83322 1.33551   2
   6  18   2 1.79383 1.60785   2
   6  18   2 7.41651 1.57765   1
   7  18   2 -0.8506 1.58546   2
   7  18   2 5.79914 1.72646   1
   8  18   2 161.494 5.22948   1
   8  18   2 8.20886 2.02491   2
   9  18   2 30.3094 2.71901   1
  -9  19   4 27.7909 5.46406  -2
  -9  19   2 27.7909 5.46406   1
  -9  19   2 3.39156 2.23553   2
  -8  19   2 0.26486 1.96118   2
  -8  19   2 1.92632 2.03590   1
  -7  19   2 6.58700 1.81881   2
  -7  19   2 89.8807 3.82931   1
  -6  19   3 34.2122 3.86956  -2
  -6  19   2 34.2122 3.86956   1
  -5  19   3 19.5957 3.28947  -2
  -5  19   2 19.5957 3.28947   1
  -4  19   2 58.3868 3.25838   1
  -4  19   2 6.42736 2.19686   2
  -3  19   2 6.36893 1.54760   1
  -3  19   2 0.23578 1.41165   2
  -2  19   2 0.92320 1.34547   2
  -2  19   2 5.75078 1.51215   1
  -1  19   2 39.5309 5.58578  -2
  -1  19   2 39.5309 5.58578   1
  -1  19   2 4.20005 1.84351   2
  -1  19   2 39.0679 3.48675   1
   0  19   2 46.1656 2.79783   1
   0  19   2 3.53280 1.73090   2
   1  19   2 58.1943 2.85446   1
   1  19   2 4.58313 1.40094   2
   2  19   2 371.422 9.45271   1
   2  19   2 16.5840 2.48389   2
   3  19   2 7.57437 1.49954   1
   3  19   2 -2.9018 1.22510   2
   4  19   2 271.597 9.07111   1
   4  19   2 16.3053 2.01975   2
   5  19   2 9.74783 1.87027   2
   5  19   2 133.348 5.20792   1
   6  19   2 85.1693 3.64891   1
   6  19   2 5.91370 1.96279   2
   7  19   2 4.54213 1.92261   2
   7  19   2 111.800 4.34815   1
   8  19   2 50.4859 3.52550   1
   8  19   2 6.67399 2.24636   2
  -8  20   2 1.50802 2.43404   1
  -8  20   2 1.31756 2.46869   2
  -7  20   2 14.8383 2.39982   2
  -7  20   2 252.906 8.62456   1
  -6  20   3 23.5939 4.02203  -2
  -6  20   2 23.5939 4.02203   1
  -5  20   3 45.2947 3.89384  -2
  -5  20   2 45.2947 3.89384   1
  -4  20   2 3.11425 1.66263   1
  -4  20   2 -0.4390 1.89920   2
  -3  20   2 182.995 6.31965   1
  -3  20   2 14.9021 1.62668   2
  -2  20   2 79.3655 4.38270   1
  -2  20   2 6.78203 2.08428   2
  -1  20   2 168.679 7.71375   1
  -1  20   2 17.7418 2.56857   2
   0  20   2 3.25661 1.89030   2
   0  20   2 27.9405 3.29950   1
   1  20   2 39.0158 2.89541   1
   1  20   2 1.84279 1.43760   2
   2  20   2 13.2938 3.72464   2
   2  20   2 124.361 6.61651   1
   3  20   2 2.24229 1.26385   2
   3  20   2 44.9745 2.79550   1
   4  20   2 44.9885 3.26158   1
   4  20   2 1.75258 1.63393   2
   5  20   2 -0.6482 1.68814   2
   5  20   2 2.39390 1.77808   1
   6  20   2 2.96931 2.02375   2
   6  20   2 53.4241 3.87300   1
   7  20   2 -0.6355 2.15578   2
   7  20   2 1.12415 2.31386   1
  -7  21   2 77.2199 4.70235   1
  -7  21   2 7.68371 2.56108   2
  -6  21   3 7.53610 4.16553  -2
  -6  21   2 7.53610 4.16553   1
  -5  21   3 110.331 5.44801  -2
  -5  21   2 110.331 5.44801   1
  -4  21   2 13.9748 2.27859   1
  -3  21   2 0.93621 1.42442   2
  -3  21   2 2.91268 1.47245   1
  -2  21   2 20.9061 1.76881   1
  -2  21   2 1.00557 1.33371   2
  -1  21   2 13.4008 2.61728   2
  -1  21   2 173.193 8.08331   1
   0  21   2 12.4882 2.47089   2
   0  21   2 116.732 6.15982   1
   1  21   2 2.22798 2.03443   2
   1  21   2 0.82251 1.70380   1
   2  21   2 53.7933 3.51752   1
   2  21   2 4.03569 1.74791   2
   3  21   2 1.36074 1.74480   1
   3  21   2 1.46334 1.74527   2
   4  21   2 1.46533 1.84375   2
   4  21   2 38.2362 3.37886   1
   5  21   2 0.55613 1.96231   2
   5  21   2 18.5378 2.39450   1
   6  21   2 2.57637 2.05824   2
   6  21   2 21.5270 2.51204   1
  -6  22   3 47.9401 5.28515  -2
  -6  22   2 47.9401 5.28515   1
  -5  22   3 30.5630 4.42903  -2
  -5  22   2 30.5630 4.42903   1
  -4  22   3 109.375 6.18238  -2
  -4  22   2 109.375 6.18238   1
  -4  22   2 1.83866 3.75485   2
  -3  22   2 99.3839 4.88108   1
  -3  22   2 8.03549 2.24660   2
  -2  22   2 8.08332 1.76864   2
  -2  22   2 115.611 4.06114   1
  -1  22   2 0.96684 2.49968   2
  -1  22   2 -0.3517 2.43478   1
  -1  22   2 3.85278 4.96724  -2
  -1  22   2 3.85278 4.96724   1
   0  22   2 2.81470 2.36002   2
   0  22   2 1.09895 5.41038  -2
   0  22   2 1.09895 5.41038   1
   0  22   2 3.91446 2.34532   1
   1  22   2 48.5489 3.21152   1
   1  22   2 3.97710 2.31911   2
   2  22   2 45.7424 2.92216   1
   2  22   2 1.17009 1.87667   2
   3  22   2 0.68101 1.68748   1
   3  22   2 0.58497 1.91698   2
   4  22   2 1.83112 2.05288   1
   4  22   2 -1.8161 2.02891   2
   5  22   2 77.1037 4.70206   1
   5  22   2 8.76640 2.46995   2
  -4  23   2 18.6238 2.68432   1
  -4  23   2 3.72674 4.04707   2
  -3  23   2 4.64640 2.30466   2
  -3  23   2 59.3484 4.37127   1
  -2  23   2 0.84094 3.83509   2
  -2  23   2 13.3546 2.63932   1
  -1  23   2 -6.5868 5.61845  -2
  -1  23   2 -6.5868 5.61845   1
  -1  23   2 7.01578 3.09090   1
  -1  23   2 3.10281 3.19736   2
   0  23   2 56.4788 6.78208  -2
   0  23   2 56.4788 6.78208   1
   0  23   2 10.2737 3.04101   2
   0  23   2 58.9623 5.21389   1
   1  23   2 4.40625 2.01768   1
   1  23   2 1.44062 1.82638   2
   2  23   2 90.9359 4.53801   1
   2  23   2 9.49316 2.14666   2
   3  23   2 10.3339 2.53301   1
   3  23   2 3.46318 2.33866   2
   4  23   2 6.19842 5.10107   2
   4  23   2 140.482 10.1733   1
   0  24   2 9.43917 3.85693   2
   0  24   2 76.2053 6.59585   1
 -15   0   6 54.7228 6.96936  -2
 -15   0   3 54.7228 6.96936   1
 -15   0   3 5.77613 3.12066   2
 -14   0   3 0.72416 1.98924   2
 -14   0   6 10.7940 5.29978  -2
 -14   0   3 10.7940 5.29978   1
 -14   0   3 -0.1396 3.69018   1
 -13   0   3 146.703 5.24334   1
 -13   0   3 9.38036 1.90568   2
 -12   0   3 -0.4558 1.20187   2
 -12   0   3 -0.5240 1.27087   1
 -11   0   3 20.2536 1.60516   2
 -11   0   3 331.497 8.22213   1
 -10   0   3 -0.1802 1.05098   1
 -10   0   5 -0.2895 3.84801  -2
 -10   0   3 -0.2895 3.84801   1
  -9   0   3 112.312 2.99880   1
  -9   0   3 5.47553 1.65421   2
  -8   0   3 -0.1446 0.25008   2
  -8   0   3 0.73723 0.23587   1
  -7   0   3 249.995 5.12668   1
  -7   0   3 14.1172 0.55586   2
  -6   0   3 0.73419 0.10637   1
  -6   0   3 -0.1529 0.16454   2
  -5   0   3 1.11096 0.45642   2
  -5   0   3 20.4315 0.70851   1
  -4   0   3 0.63292 0.13437   1
  -3   0   3 9948.83 279.511   1
  -3   0   3 515.876 11.3409   2
  -2   0   3 0.42861 0.08613   1
  -2   0   3 0.28430 0.11252   2
  -1   0   3 193.928 3.83211   1
  -1   0   3 9.59452 0.33240   2
   0   0   3 0.05827 0.08063   2
   0   0   3 1.50422 0.16252   1
   1   0   3 2076.08 38.4927   1
   1   0   3 112.358 2.18224   2
   2   0   3 0.41735 0.14619   1
   2   0   3 0.19099 0.13558   2
   3   0   3 13.8545 0.45256   2
   3   0   3 249.327 4.74371   1
   4   0   3 0.20470 0.15140   1
   4   0   3 -0.0224 0.16469   2
   5   0   3 831.145 15.4499   1
   5   0   3 50.7898 1.20469   2
   6   0   3 1.73447 0.23046   1
   6   0   3 0.58868 0.24823   2
   7   0   3 22.2375 1.36187   1
   7   0   3 1.20805 0.29325   2
   8   0   3 1.07171 0.34709   2
   8   0   3 0.73907 0.44731   1
   9   0   3 1.57773 0.50995   1
  10   0   3 0.98467 1.42054   2
  10   0   3 0.11787 1.02069   1
  11   0   3 19.0357 1.79327   2
  11   0   3 353.139 8.79046   1
  12   0   3 0.36777 1.82689   2
  12   0   3 -1.8144 1.81941   1
  13   0   3 571.237 13.8645   1
  13   0   3 29.7186 3.34672   2
  14   0   3 0.45969 3.01132   1
 -15   1   3 7.11860 1.94531   2
 -15   1   6 90.2660 4.71665  -2
 -15   1   3 90.2660 4.71665   1
 -14   1   6 53.9652 4.19649  -2
 -14   1   3 53.9652 4.19649   1
 -14   1   3 4.82624 1.44174   2
 -14   1   3 57.7737 4.53986   1
 -13   1   3 2.28152 1.17274   2
 -13   1   3 38.1049 2.02184   1
 -12   1   3 249.809 4.71701   1
 -12   1   3 14.2839 1.17293   2
 -11   1   3 27.5029 1.35644   1
 -11   1   3 2.54554 0.77553   2
 -10   1   3 0.81361 0.74107   1
 -10   1   5 -1.1790 3.98178  -2
 -10   1   3 -1.1790 3.98178   1
  -9   1   3 126.748 2.42715   1
  -9   1   3 5.92734 1.24853   2
  -8   1   3 81.6061 1.99000   1
  -8   1   3 4.23179 0.38082   2
  -7   1   3 109.268 1.76494   1
  -7   1   3 5.55742 0.31952   2
  -6   1   3 296.033 4.92939   1
  -6   1   3 17.8839 0.64227   2
  -5   1   3 111.468 1.98799   1
  -5   1   3 6.25587 0.28314   2
  -4   1   3 0.18441 0.08158   2
  -4   1   3 0.22317 0.14210   1
  -3   1   3 31.1899 0.70160   2
  -3   1   3 545.390 9.70091   1
  -2   1   3 960.439 15.4522   1
  -2   1   3 54.5119 1.01450   2
  -1   1   3 3147.52 43.3500   1
  -1   1   3 149.180 2.67621   2
   0   1   3 1271.71 17.3386   1
   0   1   3 65.4179 1.18821   2
   1   1   3 12.7541 0.26605   2
   1   1   3 224.736 2.84276   1
   2   1   3 1168.68 15.3070   1
   2   1   3 66.4289 1.03904   2
   3   1   3 2483.56 32.5012   1
   3   1   3 137.700 1.93047   2
   4   1   3 443.694 5.89259   1
   4   1   3 25.7430 0.47185   2
   5   1   3 195.577 2.71780   1
   5   1   3 12.9095 0.34069   2
   6   1   3 640.592 8.08015   1
   6   1   3 37.6537 0.67196   2
   7   1   3 15.5685 0.52550   1
   7   1   3 0.43116 0.19480   2
   8   1   3 21.0968 0.62885   2
   8   1   3 359.236 5.37750   1
   9   1   3 1.06329 0.37266   1
  10   1   3 1.15849 0.77070   1
  10   1   3 0.98647 0.81979   2
  11   1   3 38.0449 1.73630   1
  11   1   3 2.83415 0.91795   2
  12   1   3 2.12828 1.30916   2
  12   1   3 6.65247 1.54604   1
  13   1   3 2.87224 1.70614   2
  13   1   3 5.97083 1.52967   1
  14   1   3 4.00266 4.49674   2
  14   1   3 42.8115 2.52121   1
 -15   2   3 -0.2515 1.97674   2
 -15   2   6 43.5042 4.51317  -2
 -15   2   3 43.5042 4.51317   1
 -14   2   3 1.57690 1.53585   2
 -14   2   6 37.3738 3.92049  -2
 -14   2   3 37.3738 3.92049   1
 -14   2   3 54.0506 5.84554   1
 -13   2   3 0.36885 1.17659   2
 -13   2   3 4.17714 1.21415   1
 -12   2   3 5.82609 1.01180   2
 -12   2   3 86.0793 2.39506   1
 -11   2   3 2.11936 0.78906   1
 -11   2   3 0.29946 0.77850   2
 -10   2   5 308.013 13.5309  -2
 -10   2   3 308.013 13.5309   1
 -10   2   3 304.155 5.78845   1
  -9   2   3 3.98774 0.68689   1
  -9   2   3 -0.1321 1.49309   2
  -8   2   3 1132.00 16.3730   1
  -8   2   3 65.0973 1.67720   2
  -7   2   3 5.43487 0.31548   2
  -7   2   3 86.2449 1.45992   1
  -6   2   3 1806.72 31.4252   1
  -6   2   3 108.145 2.04571   2
  -5   2   3 58.9561 1.16045   1
  -5   2   3 3.64746 0.46537   2
  -4   2   3 5.87060 0.35438   2
  -4   2   3 102.188 1.75827   1
  -3   2   3 583.009 8.49866   1
  -3   2   3 33.9397 0.76466   2
  -2   2   3 8.16737 0.23231   2
  -2   2   3 152.373 2.79795   1
  -1   2   3 31.7287 0.55030   1
  -1   2   3 1.35055 0.11842   2
   0   2   3 2.60424 0.10563   2
   0   2   3 51.6160 0.65748   1
   1   2   3 585.165 6.97502   1
   1   2   3 36.0761 0.60013   2
   2   2   3 2426.01 30.2340   1
   2   2   3 135.538 1.99135   2
   3   2   3 9.53656 0.24706   1
   3   2   3 0.57699 0.10366   2
   4   2   3 6.36009 0.22731   1
   4   2   3 0.15363 0.11804   2
   5   2   3 101.959 1.43413   1
   5   2   3 5.58003 0.24187   2
   6   2   3 0.58842 0.16357   2
   6   2   3 14.5921 0.40315   1
   7   2   3 30.7958 0.69150   1
   7   2   3 2.10347 0.21020   2
   8   2   3 68.5328 1.40462   2
   8   2   3 1184.52 16.8238   1
   9   2   3 45.6391 1.34996   1
  10   2   3 101.093 2.40546   1
  10   2   3 5.57202 0.90116   2
  11   2   3 0.57791 0.84930   2
  11   2   3 15.5021 1.19965   1
  12   2   3 17.2849 1.58398   2
  12   2   3 301.291 6.30547   1
  13   2   3 27.6761 2.06232   1
  13   2   3 -0.0440 2.36212   2
  14   2   3 66.2259 3.49558   1
  14   2   3 0.15016 4.63293   2
 -15   3   6 21.8038 4.49577  -2
 -15   3   3 21.8038 4.49577   1
 -15   3   3 0.53526 1.97607   2
 -14   3   3 3.70455 1.61131   2
 -14   3   6 91.6352 4.66617  -2
 -14   3   3 91.6352 4.66617   1
 -14   3   3 95.1995 7.86889   1
 -13   3   3 0.52892 1.41691   2
 -13   3   3 13.4764 1.54461   1
 -12   3   3 25.3462 1.42371   2
 -12   3   3 451.298 7.72837   1
 -11   3   3 0.03188 0.83245   2
 -11   3   3 1.16622 0.78875   1
 -10   3   3 54.2522 2.52561   1
 -10   3   5 59.3732 2.91888  -2
 -10   3   3 59.3732 2.91888   1
  -9   3   3 143.679 2.74882   1
  -9   3   3 8.74538 0.70562   2
  -8   3   3 37.0295 0.95635   2
  -8   3   3 592.047 9.31474   1
  -7   3   3 40.7355 1.00436   2
  -7   3   3 684.288 9.48102   1
  -6   3   3 17.3870 0.60588   2
  -6   3   3 292.449 5.43501   1
  -5   3   3 90.4282 1.89447   1
  -5   3   3 5.98952 0.69146   2
  -4   3   3 154.944 2.91535   1
  -4   3   3 9.22585 0.50040   2
  -3   3   3 10.8597 0.27941   2
  -3   3   3 198.465 3.22502   1
  -2   3   3 209.439 3.39887   1
  -2   3   3 11.0321 0.33430   2
  -1   3   3 294.070 4.77403   1
  -1   3   3 17.8322 0.39718   2
   0   3   3 4.41219 0.15309   2
   0   3   3 88.5707 1.14418   1
   1   3   3 380.368 4.56984   1
   1   3   3 24.5802 0.44055   2
   2   3   3 69.5731 1.02527   2
   2   3   3 1085.41 14.3133   1
   3   3   3 331.380 4.20371   1
   3   3   3 19.9261 0.43648   2
   4   3   3 593.040 7.44359   1
   4   3   3 35.9017 0.60552   2
   5   3   3 5.37205 0.24234   2
   5   3   3 84.7834 1.22739   1
   6   3   3 59.1181 0.94158   2
   6   3   3 965.882 12.7937   1
   7   3   3 6.34970 0.31311   2
   7   3   3 101.123 1.70118   1
   8   3   3 23.6787 0.76679   2
   8   3   3 434.873 6.43450   1
   9   3   3 157.506 2.99714   1
  10   3   3 5.92367 1.64444   2
  10   3   3 116.169 2.52329   1
  11   3   3 36.1477 1.75483   1
  11   3   3 2.27197 0.90799   2
  12   3   3 -0.4708 1.36230   2
  12   3   3 6.66062 1.66177   1
  13   3   3 -0.9601 2.40745   2
  13   3   3 3.02485 1.66932   1
  14   3   3 50.1549 3.10159   1
  14   3   3 2.92988 4.87802   2
 -15   4   6 4.87795 4.68775  -2
 -15   4   3 4.87795 4.68775   1
 -15   4   3 4.39607 2.26477   2
 -14   4   6 92.2431 4.84201  -2
 -14   4   3 92.2431 4.84201   1
 -14   4   3 2.78562 1.65084   2
 -14   4   3 70.7638 7.27689   1
 -13   4   3 41.7405 2.21606   1
 -13   4   3 2.26051 1.31108   2
 -12   4   3 5.74041 1.04274   2
 -12   4   3 94.0025 2.51176   1
 -11   4   3 11.5443 1.14819   2
 -11   4   3 201.141 4.23510   1
 -10   4   3 320.284 8.04934   1
 -10   4   5 329.979 8.25040  -2
 -10   4   3 329.979 8.25040   1
  -9   4   3 20.8666 0.76952   1
  -9   4   3 1.90228 0.45823   2
  -8   4   3 52.6010 1.21559   1
  -8   4   3 3.14452 0.42038   2
  -7   4   3 200.948 3.49178   1
  -7   4   3 12.3378 0.48680   2
  -6   4   3 131.240 2.43743   1
  -6   4   3 8.80904 0.51412   2
  -5   4   3 39.1494 1.15786   1
  -5   4   3 2.14203 0.41471   2
  -4   4   3 256.624 3.85274   1
  -4   4   3 14.2700 0.73606   2
  -3   4   3 177.617 3.14970   2
  -3   4   3 3286.83 57.9662   1
  -2   4   3 314.890 5.06230   1
  -2   4   3 18.3672 0.42392   2
  -1   4   3 642.355 9.57023   1
  -1   4   3 41.0176 0.79827   2
   0   4   3 16.1906 0.39620   2
   0   4   3 317.040 4.38760   1
   1   4   3 149.828 1.98069   1
   1   4   3 8.85665 0.20049   2
   2   4   3 0.15323 0.10029   2
   2   4   3 1.26495 0.10406   1
   3   4   3 24.7580 0.47755   2
   3   4   3 398.650 5.03601   1
   4   4   3 74.8521 1.08679   2
   4   4   3 1162.07 14.4359   1
   5   4   3 100.251 1.51277   1
   5   4   3 5.46231 0.24506   2
   6   4   3 20.8610 0.47315   2
   6   4   3 346.057 4.76615   1
   7   4   3 255.252 4.23869   1
   7   4   3 14.1369 0.54455   2
   8   4   3 10.4921 0.51071   2
   8   4   3 178.689 3.59207   1
   9   4   3 49.9813 1.51845   1
  10   4   3 43.4523 1.58711   1
  10   4   3 0.89520 2.46524   2
  11   4   3 52.2145 2.21960   1
  11   4   3 2.56325 0.93438   2
  12   4   3 42.0370 2.27059   1
  12   4   3 3.40167 1.74272   2
  13   4   3 9.59641 2.41022   2
  13   4   3 196.163 4.92928   1
  14   4   3 2.99888 2.69405   2
  14   4   3 0.23160 2.16781   1
 -15   5   3 32.8639 2.53896   1
 -15   5   3 4.81199 2.09681   2
 -14   5   3 1.00366 1.66854   2
 -14   5   6 -2.3697 4.14028  -2
 -14   5   3 -2.3697 4.14028   1
 -14   5   3 -1.2964 3.78006   1
 -13   5   3 96.8516 3.19572   1
 -13   5   3 4.72467 1.42294   2
 -12   5   3 1.69786 1.25103   2
 -12   5   3 62.4699 2.69659   1
 -11   5   3 4.36433 0.98776   1
 -11   5   3 1.44305 0.96136   2
 -10   5   3 212.895 5.72601   1
 -10   5   5 206.331 6.87842  -2
 -10   5   3 206.331 6.87842   1
  -9   5   3 3.67932 0.59907   2
  -9   5   3 42.8907 1.14707   1
  -8   5   3 13.9432 0.60852   2
  -8   5   3 202.769 3.34558   1
  -7   5   3 139.997 3.93162   1
  -7   5   3 8.67152 0.53637   2
  -6   5   3 35.2147 0.99169   1
  -6   5   3 2.06456 0.30731   2
  -5   5   3 41.6661 1.33849   2
  -5   5   3 725.572 14.6636   1
  -4   5   3 39.5112 0.87225   2
  -4   5   3 614.192 10.8352   1
  -3   5   3 57.3520 1.04950   1
  -3   5   3 2.95122 0.33820   2
  -2   5   3 1675.62 26.5553   1
  -2   5   3 110.039 2.58392   2
  -1   5   3 210.965 4.27440   2
  -1   5   3 4012.01 59.7289   1
   0   5   3 670.712 9.98767   1
   0   5   3 34.6102 0.79889   2
   1   5   3 3.61987 0.16204   2
   1   5   3 52.0062 0.86019   1
   2   5   3 2.59490 0.16170   2
   2   5   3 38.9474 0.76029   1
   3   5   3 1508.09 18.9385   1
   3   5   3 101.946 1.49413   2
   4   5   3 189.187 2.84411   1
   4   5   3 11.6721 0.34926   2
   5   5   3 24.5428 0.58139   1
   5   5   3 1.47943 0.19414   2
   6   5   3 -0.1022 0.20328   2
   6   5   3 0.56775 0.19177   1
   7   5   3 0.13640 0.27972   2
   7   5   3 1.09171 0.34506   1
   8   5   3 3.11521 0.41756   2
   8   5   3 59.5575 1.48675   1
   9   5   3 1.44534 0.67616   1
  10   5   3 182.320 3.49838   1
  10   5   3 9.10180 1.80593   2
  11   5   3 9.91390 1.25845   2
  11   5   3 175.924 4.60347   1
  12   5   3 151.755 4.01017   1
  12   5   3 8.90721 1.85631   2
  13   5   3 14.1440 1.90231   1
  13   5   3 -3.4712 2.33990   2
  14   5   3 23.0271 3.27217   1
  14   5   3 -0.9373 5.19249   2
 -14   6   3 -1.7122 1.69310   2
 -14   6   6 1.57687 3.90209  -2
 -14   6   3 1.57687 3.90209   1
 -13   6   3 162.092 4.16473   1
 -13   6   3 7.30964 1.56280   2
 -12   6   3 -0.6291 1.30021   2
 -12   6   3 0.85873 1.32283   1
 -11   6   3 9.55906 1.31145   1
 -11   6   3 1.62796 1.12919   2
 -10   6   3 5.73473 1.84092   1
 -10   6   5 7.72024 2.83479  -2
 -10   6   3 7.72024 2.83479   1
  -9   6   3 0.80277 0.45121   1
  -9   6   3 4.38987 1.66300   2
  -8   6   3 399.487 6.43817   1
  -8   6   3 19.6107 1.24348   2
  -7   6   3 24.2143 0.71890   2
  -7   6   3 404.873 6.64099   1
  -6   6   3 34.9768 0.95391   2
  -6   6   3 590.733 10.3688   1
  -5   6   3 0.86951 0.35005   2
  -5   6   3 7.40724 0.58926   1
  -4   6   3 2.35420 0.20085   1
  -4   6   3 0.02733 0.09494   2
  -3   6   3 34.0517 1.07482   2
  -3   6   3 629.579 12.1412   1
  -2   6   3 20.3237 0.60762   2
  -2   6   3 314.293 6.13635   1
  -1   6   3 153.883 2.57767   1
  -1   6   3 8.71996 0.34804   2
   0   6   3 45.9864 0.87530   1
   0   6   3 2.39209 0.18527   2
   1   6   3 141.770 3.34524   2
   1   6   3 2621.87 40.7165   1
   2   6   3 975.092 14.8225   1
   2   6   3 65.8387 1.27636   2
   3   6   3 0.60499 0.16367   2
   3   6   3 9.38878 0.35911   1
   4   6   3 205.336 3.12099   1
   4   6   3 12.3439 0.36395   2
   5   6   3 8.36957 0.36300   2
   5   6   3 121.899 1.94510   1
   6   6   3 5.37088 0.33026   1
   6   6   3 0.10181 0.23992   2
   7   6   3 1.53678 0.33343   2
   7   6   3 28.9515 0.98283   1
   8   6   3 17.9845 0.71551   2
   8   6   3 320.121 5.33465   1
   9   6   3 39.1583 1.34245   1
  10   6   3 22.9162 1.46261   1
  10   6   3 2.15701 2.80343   2
  11   6   3 -0.2030 1.13816   2
  11   6   3 0.34349 1.31771   1
  12   6   3 57.9076 3.04385   1
  12   6   3 3.06013 1.77942   2
  13   6   3 1.81797 2.53554   2
  13   6   3 20.4097 2.12207   1
 -14   7   3 1.66189 1.79586   2
 -14   7   6 14.6262 4.42781  -2
 -14   7   3 14.6262 4.42781   1
 -14   7   3 6.70279 5.21139   1
 -13   7   3 36.8964 2.40726   1
 -13   7   3 1.07569 1.66719   2
 -12   7   3 15.0852 1.69760   2
 -12   7   3 282.280 6.69161   1
 -11   7   3 20.0579 1.56211   1
 -11   7   3 1.26544 1.18396   2
 -10   7   5 51.1874 2.33105  -2
 -10   7   3 51.1874 2.33105   1
 -10   7   3 39.8644 3.39821   1
  -9   7   3 47.6203 1.33850   1
  -9   7   3 1.94562 0.96259   2
  -8   7   3 217.392 4.16136   1
  -8   7   3 13.4248 0.65826   2
  -7   7   3 39.1250 0.99568   2
  -7   7   3 624.349 10.0037   1
  -6   7   3 290.285 4.81343   1
  -6   7   3 20.7915 0.73408   2
  -5   7   3 1328.36 20.7057   1
  -5   7   3 76.2787 2.24619   2
  -4   7   3 43.1719 1.06875   1
  -4   7   3 2.65650 0.23238   2
  -3   7   3 7.26777 0.37694   2
  -3   7   3 121.291 2.52600   1
  -2   7   3 25.8295 0.95339   2
  -2   7   3 437.243 10.1319   1
  -1   7   3 556.291 9.84893   1
  -1   7   3 23.4235 0.91303   2
   0   7   3 106.138 2.03200   1
   0   7   3 4.32015 0.33900   2
   1   7   3 231.464 4.06404   1
   1   7   3 13.7090 0.51649   2
   2   7   3 57.8825 1.16513   1
   2   7   3 3.76991 0.35837   2
   3   7   3 0.17017 0.17039   2
   3   7   3 0.77359 0.20935   1
   4   7   3 22.9195 0.60947   2
   4   7   3 385.589 6.06366   1
   5   7   3 3.82581 0.28995   2
   5   7   3 49.8180 0.93881   1
   6   7   3 301.324 4.84157   1
   6   7   3 16.2470 0.55900   2
   7   7   3 19.1739 0.71359   2
   7   7   3 335.715 5.50804   1
   8   7   3 7.62308 0.69871   2
   8   7   3 129.577 2.86245   1
   9   7   3 332.912 6.23066   1
  10   7   3 5.21074 3.07734   2
  10   7   3 188.512 4.05311   1
  11   7   3 0.75648 1.26594   2
  11   7   3 13.5092 1.74964   1
  12   7   3 2.20996 1.74626   1
  12   7   3 1.17975 1.87645   2
  13   7   3 133.566 4.29683   1
  13   7   3 4.32242 2.45065   2
 -14   8   3 4.38797 1.96340   2
 -14   8   6 96.8829 5.49018  -2
 -14   8   3 96.8829 5.49018   1
 -14   8   3 97.6798 9.76129   1
 -13   8   3 6.02837 1.87069   2
 -13   8   3 161.568 4.84626   1
 -12   8   3 89.5477 3.59299   1
 -12   8   3 6.12138 1.74574   2
 -11   8   3 124.527 3.64645   1
 -11   8   3 6.46491 1.36996   2
 -10   8   5 301.512 6.54096  -2
 -10   8   3 301.512 6.54096   1
 -10   8   3 293.510 9.71593   1
  -9   8   3 36.3099 1.42969   1
  -9   8   3 2.39973 1.03650   2
  -8   8   3 1.78144 0.58230   2
  -8   8   3 39.5626 1.42530   1
  -7   8   3 0.29833 0.41329   2
  -7   8   3 3.15077 0.43382   1
  -6   8   3 6.90524 0.72062   2
  -6   8   3 93.9195 2.00121   1
  -5   8   3 304.108 5.44668   1
  -5   8   3 23.7889 0.73575   2
  -4   8   3 820.083 14.1350   1
  -4   8   3 64.2147 1.36534   2
  -3   8   3 216.629 4.35232   1
  -3   8   3 11.2240 0.47041   2
  -2   8   3 4.99086 0.63703   2
  -2   8   3 125.780 3.17382   1
  -1   8   3 614.769 10.8891   1
  -1   8   3 26.3273 1.02006   2
   0   8   3 2.20585 0.28496   2
   0   8   3 57.1763 1.34865   1
   1   8   3 16.9390 0.60820   2
   1   8   3 306.468 5.34308   1
   2   8   3 1.06409 0.19671   2
   2   8   3 11.6121 0.60206   1
   3   8   3 472.930 7.35791   1
   3   8   3 28.8668 0.73225   2
   4   8   3 85.8118 1.56677   2
   4   8   3 1347.48 20.5213   1
   5   8   3 0.83362 0.29329   1
   5   8   3 -0.0774 0.44069   2
   6   8   3 49.3044 1.17352   2
   6   8   3 830.824 12.8673   1
   7   8   3 463.003 8.18227   1
   7   8   3 27.4625 1.02505   2
   8   8   3 16.9285 1.10875   2
   8   8   3 304.605 5.70089   1
   9   8   3 25.5801 1.40615   1
  10   8   3 86.1566 2.55213   1
  10   8   3 2.44686 3.24078   2
  11   8   3 -0.2108 1.27169   2
  11   8   3 0.84700 1.45848   1
  12   8   3 38.2225 2.67633   1
  12   8   3 2.08765 1.69751   2
  13   8   3 64.3713 3.31809   1
  13   8   3 1.91027 2.42543   2
 -14   9   6 -1.8292 4.97669  -2
 -14   9   3 -1.8292 4.97669   1
 -14   9   3 -2.1464 5.66755   1
 -14   9   3 -0.0842 2.37761   2
 -13   9   3 0.37596 1.87225   2
 -13   9   3 22.1088 2.34042   1
 -12   9   3 1.84292 1.61071   2
 -12   9   3 3.71733 1.64273   1
 -11   9   3 3.82061 1.12206   2
 -11   9   3 74.0067 2.91576   1
 -10   9   5 405.292 8.48540  -2
 -10   9   3 405.292 8.48540   1
 -10   9   3 388.909 12.2180   1
  -9   9   3 42.6646 1.58172   1
  -9   9   3 2.10621 0.96996   2
  -8   9   3 17.6351 1.03507   2
  -8   9   3 397.013 6.68821   1
  -7   9   3 133.457 2.87886   1
  -7   9   3 5.72449 0.71483   2
  -6   9   3 95.2000 2.16551   1
  -6   9   3 9.24915 1.77170   2
  -5   9   3 3.56546 0.68507   2
  -5   9   3 84.2693 1.64461   1
  -4   9   3 1029.63 17.6958   1
  -4   9   3 62.8773 2.16246   2
  -3   9   3 3.68110 0.35603   1
  -3   9   3 -0.0660 0.19674   2
  -2   9   3 47.0012 1.58464   2
  -2   9   3 517.757 12.0257   1
  -1   9   3 21.4884 1.10943   2
  -1   9   3 471.853 8.44130   1
   0   9   3 9.69101 0.52578   2
   0   9   3 138.606 2.92868   1
   1   9   3 21.2515 0.58040   1
   1   9   3 1.12117 0.25612   2
   2   9   3 1.69524 0.23837   2
   2   9   3 32.1560 0.74547   1
   3   9   3 394.228 6.81468   1
   3   9   3 22.6158 0.65182   2
   4   9   3 0.89831 0.26611   2
   4   9   3 7.96777 0.52561   1
   5   9   3 12.0474 0.55490   2
   5   9   3 179.491 3.76349   1
   6   9   3 196.976 3.75392   1
   6   9   3 10.7567 0.60577   2
   7   9   3 7.13580 0.81377   1
   7   9   3 -0.4117 0.45262   2
   8   9   3 0.37190 0.74927   2
   8   9   3 -0.4899 0.75342   1
   9   9   3 57.3256 2.04752   1
  10   9   3 453.555 8.36941   1
  10   9   3 20.5959 4.24166   2
  11   9   3 3.58305 1.62472   2
  11   9   3 50.6714 2.57162   1
  12   9   3 252.551 6.44077   1
  12   9   3 11.0276 1.73456   2
  13   9   3 32.1286 2.97958   1
  13   9   3 2.67405 3.47395   2
 -13  10   3 1.84454 2.06769   2
 -13  10   3 43.9598 2.92529   1
 -12  10   3 6.09665 1.74542   2
 -12  10   3 69.4331 3.28557   1
 -11  10   5 22.4223 7.87765  -2
 -11  10   3 22.4223 7.87765   1
 -11  10   3 -0.1824 1.13658   2
 -11  10   3 3.29933 1.57976   1
 -10  10   5 48.9576 2.69128  -2
 -10  10   3 48.9576 2.69128   1
 -10  10   3 48.2041 3.78793   1
  -9  10   3 157.792 3.22686   1
  -9  10   3 10.1022 1.23932   2
  -8  10   3 39.2669 1.46142   1
  -8  10   3 2.59926 0.67966   2
  -7  10   3 3.17886 0.66010   2
  -7  10   3 69.7672 1.88250   1
  -6  10   3 1.63286 0.53986   1
  -6  10   3 0.04376 0.79371   2
  -5  10   3 261.130 5.31645   1
  -5  10   3 9.37337 0.90545   2
  -4  10   3 2.17503 0.29101   1
  -4  10   3 -0.0391 0.28622   2
  -3  10   3 18.4313 0.90380   2
  -3  10   3 214.874 4.51012   1
  -2  10   3 253.619 5.24188   1
  -2  10   3 9.33318 0.92138   2
  -1  10   3 171.067 2.94677   1
  -1  10   3 6.73406 0.62391   2
   0  10   3 332.316 6.06950   1
   0  10   3 12.8565 0.79413   2
   1  10   3 84.6615 2.93748   2
   1  10   3 1835.81 28.2632   1
   2  10   3 416.043 7.99643   1
   2  10   3 22.8069 0.77820   2
   3  10   3 5.20007 0.40490   1
   3  10   3 0.31739 0.26030   2
   4  10   3 671.150 11.4131   1
   4  10   3 38.2160 1.07119   2
   5  10   3 8.05678 0.57638   2
   5  10   3 130.141 2.38937   1
   6  10   3 4.53049 0.47902   2
   6  10   3 76.3349 1.66803   1
   7  10   3 0.78567 0.56960   2
   7  10   3 2.31969 0.77877   1
   8  10   3 -0.1754 0.81371   2
   8  10   3 11.3757 1.04693   1
   9  10   3 123.909 3.08566   1
  10  10   3 35.3969 1.96679   1
  10  10   3 -1.8845 3.79130   2
  11  10   3 3.73952 1.57971   2
  11  10   3 50.7110 2.96059   1
  12  10   3 2.17032 1.83871   2
  12  10   3 10.5490 2.20867   1
 -13  11   3 5.67906 2.22928   2
 -13  11   3 41.9199 3.38410   1
 -12  11   3 8.24409 1.92544   1
 -12  11   3 -0.9003 1.79244   2
 -11  11   3 -0.3365 1.26343   2
 -11  11   3 7.39671 2.12243   1
 -11  11   5 15.3938 8.22671  -2
 -11  11   3 15.3938 8.22671   1
 -10  11   5 10.6780 2.54327  -2
 -10  11   3 10.6780 2.54327   1
 -10  11   3 4.80144 2.92721   1
  -9  11   3 5.31373 1.20545   2
  -9  11   3 52.8523 2.07170   1
  -9  11   5 106.377 6.90718  -2
  -9  11   3 106.377 6.90718   1
  -8  11   3 0.58670 0.73027   2
  -8  11   3 12.7953 0.95994   1
  -7  11   3 275.909 5.29880   1
  -7  11   3 13.4287 1.13345   2
  -6  11   3 83.9591 2.05335   1
  -6  11   3 4.92987 0.97657   2
  -5  11   3 1149.78 19.8068   1
  -5  11   3 103.953 4.10809   2
  -4  11   3 50.5672 1.41170   1
  -4  11   3 3.31418 0.45265   2
  -3  11   3 3.03945 0.41856   2
  -3  11   3 44.8075 1.34832   1
  -2  11   3 217.756 4.57559   1
  -2  11   3 18.0884 0.91983   2
  -1  11   3 20.7536 1.01912   2
  -1  11   3 509.280 8.28093   1
   0  11   3 741.155 11.9311   1
   0  11   3 30.6494 1.24622   2
   1  11   3 11.2892 0.55026   2
   1  11   3 145.132 2.75681   1
   2  11   3 229.776 4.58403   1
   2  11   3 12.3493 0.94652   2
   3  11   3 34.8112 0.91251   1
   3  11   3 2.66036 0.32029   2
   4  11   3 137.272 2.68152   1
   4  11   3 8.32025 0.54966   2
   5  11   3 10.6679 0.62555   2
   5  11   3 184.728 3.22707   1
   6  11   3 0.91799 0.70027   1
   6  11   3 -0.5825 0.41363   2
   7  11   3 166.338 3.52068   1
   7  11   3 8.75358 0.92687   2
   8  11   3 4.65199 0.99062   1
   8  11   3 1.69581 0.90854   2
   9  11   3 92.6575 2.69039   1
  10  11   3 80.3624 2.91807   1
  11  11   3 8.35638 1.61660   1
  11  11   3 1.17172 1.64507   2
  12  11   3 1.32322 2.09070   2
  12  11   3 20.6087 2.70781   1
 -13  12   3 5.50644 2.44435   2
 -13  12   3 89.9423 5.03054   1
 -12  12   3 0.03614 2.08598   1
 -12  12   3 0.46751 1.92317   2
 -11  12   3 1.17795 1.41372   2
 -11  12   3 49.8761 3.74738   1
 -11  12   5 62.9804 7.95313  -2
 -11  12   3 62.9804 7.95313   1
 -10  12   5 277.515 7.33495  -2
 -10  12   3 277.515 7.33495   1
 -10  12   3 243.763 11.5207   1
  -9  12   3 2.15178 1.06084   2
  -9  12   5 29.6349 4.76655  -2
  -9  12   3 29.6349 4.76655   1
  -9  12   3 29.4058 1.72582   1
  -8  12   3 -0.6025 0.81585   2
  -8  12   3 4.53707 0.84874   1
  -7  12   3 61.8544 1.87284   1
  -7  12   3 3.65266 0.78348   2
  -6  12   3 49.1670 1.56486   1
  -6  12   3 1.59972 1.26685   2
  -5  12   3 27.6662 1.12331   1
  -5  12   3 2.77191 0.52423   2
  -4  12   3 766.031 15.2288   1
  -4  12   3 33.1117 1.96840   2
  -3  12   3 148.648 3.32899   1
  -3  12   3 7.98631 0.77627   2
  -2  12   3 -0.1099 0.33098   2
  -2  12   3 4.78259 0.48633   1
  -1  12   3 112.643 2.07490   1
  -1  12   3 4.96859 0.67736   2
   0  12   3 8.77953 0.60762   2
   0  12   3 224.182 3.89874   1
   1  12   3 612.989 10.7133   1
   1  12   3 26.5186 1.26899   2
   2  12   3 72.5356 1.91074   1
   2  12   3 3.20617 0.53177   2
   3  12   3 9.18650 0.80275   2
   3  12   3 154.987 3.27367   1
   4  12   3 174.206 3.31845   1
   4  12   3 9.64544 0.77559   2
   5  12   3 62.7468 1.55572   1
   5  12   3 4.37301 0.51761   2
   6  12   3 531.934 10.5664   1
   6  12   3 31.1940 1.15306   2
   7  12   3 239.855 4.73853   1
   7  12   3 13.6380 1.28270   2
   8  12   3 1.25650 0.95717   1
   8  12   3 -0.7974 1.09705   2
   9  12   3 31.6013 1.85213   1
  10  12   3 5.70584 1.46581   1
  11  12   3 27.5740 2.12313   1
  11  12   3 0.18781 1.97406   2
  12  12   3 35.3043 3.20205   1
  12  12   3 2.58522 2.59204   2
 -12  13   3 -0.5827 2.33467   1
 -12  13   3 2.69572 2.17968   2
 -11  13   3 234.441 12.0146   1
 -11  13   5 246.047 9.33235  -2
 -11  13   3 246.047 9.33235   1
 -11  13   3 18.0833 1.79067   2
 -10  13   5 214.355 10.1581  -2
 -10  13   3 214.355 10.1581   1
 -10  13   3 211.536 10.7509   1
  -9  13   3 61.2423 2.42246   1
  -9  13   3 3.65060 1.29790   2
  -8  13   3 19.0465 1.29215   2
  -8  13   3 332.254 6.24608   1
  -7  13   3 13.0554 1.08101   2
  -7  13   3 207.804 4.65527   1
  -6  13   3 63.5792 2.20748   1
  -6  13   3 1.76214 2.12461   2
  -5  13   3 0.55292 0.50821   2
  -5  13   3 0.84236 0.52009   1
  -4  13   3 193.237 4.25147   1
  -4  13   3 7.12790 1.13648   2
  -3  13   3 213.950 4.60030   1
  -3  13   3 9.91549 1.23608   2
  -2  13   3 6.76971 0.61289   2
  -2  13   3 102.560 2.55436   1
  -1  13   3 6.12815 0.44317   1
  -1  13   3 0.09407 0.45899   2
   0  13   3 587.812 9.57364   1
   0  13   3 21.6717 1.32071   2
   1  13   3 1.28951 0.51030   2
   1  13   3 34.5492 1.26303   1
   2  13   3 2.86250 0.61946   2
   2  13   3 39.1648 1.53807   1
   3  13   3 2.29798 0.81039   2
   3  13   3 46.9661 1.86037   1
   4  13   3 3.13525 0.73172   2
   4  13   3 63.6671 1.59841   1
   5  13   3 546.584 9.53181   1
   5  13   3 28.9939 1.38851   2
   6  13   3 59.5284 2.14274   1
   6  13   3 3.08483 0.81575   2
   7  13   3 0.03030 1.08674   2
   7  13   3 0.75709 0.96269   1
   8  13   3 4.73646 1.11917   1
   8  13   3 -1.4777 1.14811   2
   9  13   3 159.019 4.88596   1
  10  13   3 330.402 7.39246   1
  11  13   3 1.51648 2.21093   2
  11  13   3 18.5917 2.11723   1
 -12  14   3 25.1136 3.04353   1
 -12  14   3 1.97362 2.48869   2
 -11  14   5 5.16479 5.03654  -2
 -11  14   3 5.16479 5.03654   1
 -11  14   3 -0.4518 1.75429   2
 -11  14   3 0.60472 4.55871   1
 -10  14   3 154.876 9.40279   1
 -10  14   5 152.107 6.71472  -2
 -10  14   3 152.107 6.71472   1
  -9  14   3 384.805 8.16762   1
  -9  14   3 26.2545 2.09075   2
  -8  14   3 1.49639 1.06291   2
  -8  14   3 19.8059 1.46079   1
  -7  14   3 0.25771 0.92949   2
  -7  14   3 12.3062 1.50852   1
  -6  14   3 1.79179 2.18714   2
  -6  14   3 36.6433 2.21046   1
  -5  14   3 26.6983 1.62274   2
  -5  14   3 298.947 7.34678   1
  -5  14   4 320.280 13.6438  -2
  -5  14   3 320.280 13.6438   1
  -4  14   3 6.32051 0.70345   1
  -4  14   3 -0.2816 0.52789   2
  -3  14   3 1.69254 0.77953   2
  -3  14   3 45.8879 1.51829   1
  -2  14   3 9.54183 0.75287   2
  -2  14   3 144.176 3.29963   1
  -1  14   3 5.02948 0.89838   2
  -1  14   3 130.902 2.61136   1
   0  14   3 52.5799 1.51979   1
   0  14   3 3.22477 0.43440   2
   1  14   3 16.3192 1.31451   2
   1  14   3 437.009 8.07928   1
   2  14   3 1.99331 0.73234   1
   2  14   3 0.23663 0.57322   2
   3  14   3 9.83394 0.85454   1
   3  14   3 0.61734 0.79131   2
   4  14   3 15.1690 1.05053   2
   4  14   3 259.386 5.48059   1
   5  14   3 0.88446 0.74752   2
   5  14   3 2.31468 0.99047   1
   6  14   3 75.4047 2.79980   1
   6  14   3 3.88701 1.10613   2
   7  14   3 6.38493 1.32855   2
   7  14   3 102.656 3.48300   1
   8  14   3 31.5873 2.13772   1
   8  14   3 2.92727 1.38968   2
   9  14   3 153.233 4.80520   1
  10  14   3 24.8525 2.36147   1
  11  14   3 25.8239 3.56761   2
  11  14   3 310.975 8.38918   1
 -12  15   3 27.3077 3.04855   1
 -12  15   3 1.17121 3.04954   2
 -11  15   3 60.8195 6.41982   1
 -11  15   3 4.66201 2.09052   2
 -11  15   5 79.4676 6.35494  -2
 -11  15   3 79.4676 6.35494   1
 -10  15   3 -0.9790 4.17757   1
 -10  15   5 3.50997 3.57381  -2
 -10  15   3 3.50997 3.57381   1
  -9  15   3 0.61328 3.76096   2
  -9  15   3 33.3937 2.77154   1
  -8  15   3 3.70361 1.24204   2
  -8  15   3 41.3725 2.16158   1
  -7  15   3 0.72077 1.04579   2
  -7  15   3 1.89750 1.38467   1
  -6  15   3 61.1206 2.71850   1
  -6  15   3 2.69557 2.57564   2
  -5  15   4 316.114 13.5683  -2
  -5  15   3 316.114 13.5683   1
  -5  15   3 308.345 14.0239   1
  -4  15   3 2.92520 0.91580   2
  -4  15   3 36.9952 1.57141   1
  -3  15   3 15.7751 1.30295   2
  -3  15   3 300.003 7.44003   1
  -2  15   3 4.96694 0.65890   2
  -2  15   3 64.0076 2.06331   1
  -1  15   3 197.106 3.96690   1
  -1  15   3 13.5424 1.01288   2
   0  15   3 389.201 7.25609   1
   0  15   3 16.3209 1.42846   2
   1  15   3 0.69146 0.56749   2
   1  15   3 1.24054 0.57021   1
   2  15   3 319.173 7.60564   1
   2  15   3 15.6132 1.35655   2
   3  15   3 0.41944 0.84204   2
   3  15   3 2.77232 0.78821   1
   4  15   3 20.4279 1.28872   1
   4  15   3 2.54625 0.81786   2
   5  15   3 451.450 10.6901   1
   5  15   3 29.0785 1.53461   2
   6  15   3 5.66729 1.26713   2
   6  15   3 89.6671 3.19065   1
   7  15   3 70.4850 2.96066   1
   7  15   3 4.24137 1.42698   2
   8  15   3 38.2692 3.24866   1
   8  15   3 2.14039 1.81394   2
   9  15   3 36.7546 2.48579   1
  10  15   3 4.59381 2.10797   1
  11  15   3 1.36166 2.61095   2
  11  15   3 32.1014 2.66566   1
 -11  16   5 -8.0410 6.16343  -2
 -11  16   3 -8.0410 6.16343   1
 -11  16   3 -3.3046 2.55775   2
 -11  16   3 3.06134 5.05928   1
 -10  16   5 37.3859 4.16145  -2
 -10  16   3 37.3859 4.16145   1
 -10  16   3 28.0683 5.34735   1
  -9  16   3 -2.3297 1.43921   1
  -9  16   3 1.74724 1.86563   2
  -8  16   3 75.3792 3.13529   1
  -8  16   3 7.49238 1.65870   2
  -7  16   3 2.97222 1.15901   2
  -7  16   3 1.02065 1.15940   1
  -6  16   3 8.57565 3.01317   2
  -6  16   3 253.233 8.21513   1
  -6  16   4 264.688 12.3980  -2
  -6  16   3 264.688 12.3980   1
  -5  16   3 -2.1607 2.43606   2
  -5  16   3 1.08597 1.22208   1
  -4  16   3 519.695 11.9829   1
  -4  16   3 25.0274 2.21688   2
  -3  16   3 110.026 2.92269   1
  -3  16   3 11.3787 1.31796   2
  -2  16   3 136.728 3.29545   1
  -2  16   3 11.4584 1.05527   2
  -1  16   3 -0.0146 0.90750   2
  -1  16   3 15.4042 1.12608   1
   0  16   3 365.872 7.87503   1
   0  16   3 14.3282 1.42533   2
   1  16   3 198.271 4.05994   1
   1  16   3 7.31700 1.19754   2
   2  16   3 2.30074 0.88203   2
   2  16   3 34.2833 1.70796   1
   3  16   3 0.86549 0.75229   2
   3  16   3 7.02082 0.90641   1
   4  16   3 0.59098 0.88495   2
   4  16   3 3.69397 0.89727   1
   5  16   3 67.0720 2.76852   1
   5  16   3 5.08447 1.03067   2
   6  16   3 274.236 7.06015   1
   6  16   3 16.0120 1.59075   2
   7  16   3 2.65484 1.94678   1
   7  16   3 1.01785 1.56086   2
   8  16   3 28.4745 2.11849   1
   8  16   3 1.89786 1.59376   2
   9  16   3 14.1557 2.12226   1
  10  16   3 21.0286 2.62108   1
 -10  17   5 44.6429 4.52872  -2
 -10  17   3 44.6429 4.52872   1
  -9  17   3 6.00569 2.16868   2
  -9  17   3 63.5775 2.98966   1
  -8  17   3 25.1756 2.09422   1
  -8  17   3 0.41049 1.51111   2
  -7  17   3 -1.2208 2.24659   2
  -7  17   3 5.64605 1.83931   1
  -6  17   4 189.571 10.3435  -2
  -6  17   3 189.571 10.3435   1
  -6  17   3 13.9949 3.40176   2
  -6  17   3 187.737 6.72969   1
  -5  17   3 8.48310 1.83448   1
  -5  17   4 3.62869 5.66048  -2
  -5  17   3 3.62869 5.66048   1
  -5  17   3 0.51796 2.92621   2
  -4  17   3 -0.2804 0.97553   2
  -4  17   3 1.64948 1.09432   1
  -3  17   3 57.4608 2.81987   1
  -3  17   3 4.79768 1.09637   2
  -2  17   3 3.88370 1.17724   2
  -2  17   3 38.4843 2.11599   1
  -1  17   3 7.06070 1.72516   2
  -1  17   3 156.263 4.51938   1
   0  17   3 411.180 8.82313   1
   0  17   3 15.4149 1.51537   2
   1  17   3 3.94865 1.09290   1
   1  17   3 0.24061 0.88219   2
   2  17   3 8.90351 1.91583   2
   2  17   3 223.418 5.11736   1
   3  17   3 186.785 4.27620   1
   3  17   3 7.05201 1.48543   2
   4  17   3 142.628 3.56006   1
   4  17   3 8.71864 1.07096   2
   5  17   3 321.764 8.05901   1
   6  17   3 -0.1768 1.64381   1
   6  17   3 -0.6314 1.59113   2
   7  17   3 1.23738 1.56691   1
   7  17   3 -1.6186 1.55475   2
   8  17   3 1.07763 1.81201   2
   8  17   3 7.76642 1.83402   1
   9  17   3 19.6602 2.33597   1
 -10  18   5 4.16249 8.86797  -2
 -10  18   3 4.16249 8.86797   1
 -10  18   3 -0.5624 4.40817   2
  -9  18   3 401.886 10.1640   1
  -9  18   3 30.5832 2.56776   2
  -8  18   3 0.06520 1.71408   2
  -8  18   3 17.7171 2.00881   1
  -7  18   3 4.42484 1.81329   2
  -7  18   3 36.4428 2.70751   1
  -6  18   3 4.87806 3.52021   1
  -6  18   4 31.4834 7.38496  -2
  -6  18   3 31.4834 7.38496   1
  -5  18   4 325.843 10.7501  -2
  -5  18   3 325.843 10.7501   1
  -5  18   3 301.380 12.8654   1
  -4  18   3 4.81753 1.44176   2
  -4  18   3 44.6779 2.76611   1
  -3  18   3 9.24480 1.49917   2
  -3  18   3 154.500 5.34988   1
  -2  18   3 5.90022 1.37223   1
  -2  18   3 0.15052 1.20840   2
  -1  18   3 76.4173 3.01125   1
  -1  18   3 4.88658 1.35110   2
   0  18   3 35.1807 1.86315   1
   0  18   3 2.02621 1.02840   2
   1  18   3 6.46452 1.26207   2
   1  18   3 67.9370 2.87219   1
   2  18   3 51.4362 2.60130   1
   2  18   3 1.43830 1.26757   2
   3  18   3 3.00758 1.07594   2
   3  18   3 37.1013 1.95703   1
   4  18   3 3.08553 1.29708   1
   4  18   3 0.93554 1.07524   2
   5  18   3 21.3925 1.85304   1
   6  18   3 28.2785 2.50973   1
   6  18   3 -0.2976 1.70180   2
   7  18   3 131.033 4.56788   1
   7  18   3 6.63291 1.81454   2
   8  18   3 44.0684 3.25048   1
   8  18   3 1.81311 2.10975   2
   9  18   3 88.8784 4.54653   1
  -9  19   3 6.66604 2.31363   2
  -9  19   3 39.5257 2.92133   1
  -8  19   3 4.85286 1.99540   2
  -8  19   3 8.77207 2.09143   1
  -7  19   3 4.04373 1.78044   2
  -7  19   3 70.6947 3.45828   1
  -6  19   4 18.5827 4.12455  -2
  -6  19   3 18.5827 4.12455   1
  -5  19   4 51.6368 6.96369  -2
  -5  19   3 51.6368 6.96369   1
  -4  19   3 -0.9329 2.82460   2
  -3  19   3 15.9896 2.35688   2
  -3  19   3 138.389 5.09704   1
  -2  19   3 2.72330 1.47270   2
  -2  19   3 30.4317 2.75962   1
  -1  19   3 0.07389 1.37462   2
  -1  19   3 1.87893 1.42284   1
   0  19   3 187.724 4.91962   1
   0  19   3 24.7550 3.17048   2
   1  19   3 1.65502 1.27101   2
   1  19   3 12.6453 1.50436   1
   2  19   3 112.943 3.95846   1
   2  19   3 4.71070 1.43833   2
   3  19   3 26.7864 1.86312   1
   3  19   3 1.78760 1.17211   2
   4  19   3 31.4003 3.01971   1
   4  19   3 4.48248 1.66626   2
   5  19   3 448.778 13.3612   1
   6  19   3 2.58951 1.86612   2
   6  19   3 55.3162 3.24681   1
   7  19   3 4.25615 2.01533   1
   7  19   3 0.35240 1.89900   2
   8  19   3 5.22866 2.29091   2
   8  19   3 54.2793 3.77190   1
  -8  20   3 14.9378 2.81530   1
  -8  20   3 1.85666 2.49936   2
  -7  20   3 8.64548 2.30833   1
  -7  20   3 1.48297 2.10372   2
  -6  20   4 204.141 7.95040  -2
  -6  20   3 204.141 7.95040   1
  -5  20   4 87.9658 5.34508  -2
  -5  20   3 87.9658 5.34508   1
  -4  20   3 10.6230 3.08550   2
  -4  20   3 268.293 13.2563   1
  -3  20   3 35.7894 3.13713   1
  -3  20   3 4.00158 1.80855   2
  -2  20   3 0.55614 1.63727   2
  -2  20   3 13.7165 1.97524   1
  -1  20   3 17.9195 2.26531   1
  -1  20   3 1.91901 1.76651   2
   0  20   3 11.6397 2.03070   2
   0  20   3 132.504 6.55093   1
   1  20   3 -1.2001 2.55786   2
   1  20   3 8.24616 4.02686   1
   2  20   3 1.07960 1.27797   1
   2  20   3 -0.2597 1.67213   2
   3  20   3 3.48114 1.44347   2
   3  20   3 63.6472 3.28878   1
   4  20   3 5.43956 1.78517   1
   4  20   3 1.26911 1.64570   2
   5  20   3 0.11370 1.81597   1
   6  20   3 89.3584 4.67141   1
   6  20   3 5.10485 2.23544   2
   7  20   3 4.55901 2.55201   2
   7  20   3 120.048 5.83624   1
  -7  21   3 89.9688 5.16369   1
  -7  21   3 10.6110 2.62878   2
  -6  21   4 35.2463 5.36893  -2
  -6  21   3 35.2463 5.36893   1
  -5  21   4 19.2019 4.89784  -2
  -5  21   3 19.2019 4.89784   1
  -4  21   3 5.63818 1.96225   2
  -4  21   3 66.3672 3.97344   1
  -3  21   3 1.97857 1.74599   2
  -3  21   3 1.57812 2.00330   1
  -2  21   3 75.6447 3.99608   1
  -2  21   3 5.26067 1.90921   2
  -1  21   3 8.84539 1.94730   1
  -1  21   3 0.17896 1.79694   2
   0  21   3 346.221 14.1153   1
   0  21   3 31.6276 3.97287   2
   1  21   3 -0.2081 2.00015   2
   1  21   3 11.9701 1.95470   1
   2  21   3 185.910 5.27929   1
   2  21   3 11.7709 1.61999   2
   3  21   3 4.18387 1.99615   2
   3  21   3 64.1013 3.83171   1
   4  21   3 48.3280 3.71950   1
   4  21   3 5.55240 2.09988   2
   5  21   3 17.9088 2.35198   1
   6  21   3 3.08258 2.59864   2
   6  21   3 19.9240 2.62720   1
  -6  22   3 0.98750 2.96957   1
  -5  22   4 52.3690 5.74155  -2
  -5  22   3 52.3690 5.74155   1
  -4  22   3 56.1281 4.12697   1
  -3  22   3 5.14275 2.12364   2
  -3  22   3 83.0041 4.46282   1
  -2  22   3 7.32443 1.73254   2
  -2  22   3 86.5934 4.65765   1
  -1  22   3 12.9674 2.92152   2
  -1  22   3 100.378 6.16474   1
   0  22   3 111.923 6.33828   1
   0  22   3 6.08974 2.57493   2
   1  22   3 23.1178 3.07524   1
   1  22   3 3.01643 2.46694   2
   2  22   3 14.3859 2.10644   2
   2  22   3 181.134 6.65747   1
   3  22   3 -1.7351 2.06471   1
   3  22   3 0.00640 2.11371   2
   4  22   3 82.4916 4.68156   1
   4  22   3 4.65488 2.36913   2
   5  22   3 -2.8569 2.28814   1
  -4  23   3 5.67909 2.49123   2
  -4  23   3 72.0362 4.77008   1
  -3  23   3 4.35494 2.38786   2
  -3  23   3 58.6863 4.44769   1
  -2  23   3 13.7002 2.53673   2
  -2  23   3 182.780 6.90449   1
  -1  23   3 3.81896 2.09092   1
  -1  23   3 -1.8594 2.04231   2
   0  23   3 0.06041 2.03658   2
   0  23   3 1.35851 1.97714   1
   1  23   3 0.24173 2.07335   2
   1  23   3 17.0287 2.02006   1
   2  23   3 2.40117 2.80855   2
   2  23   3 5.81591 2.31306   1
   3  23   3 10.1910 2.62486   1
   3  23   3 3.69312 2.88541   2
 -15   0   4 -1.0335 2.91284   1
 -14   0   4 97.3015 4.39869   1
 -14   0   4 8.93126 2.80003   2
 -13   0   4 -0.7864 1.62736   2
 -13   0   4 2.16693 1.92393   1
 -12   0   4 14.5666 1.64002   2
 -12   0   4 215.736 5.96380   1
 -11   0   4 -0.1420 1.07336   2
 -11   0   4 0.23506 1.11645   1
 -10   0   4 768.357 15.5542   1
  -9   0   4 0.40424 1.17323   2
  -9   0   4 0.48759 0.78811   1
  -8   0   4 58.9990 1.83644   2
  -8   0   4 1030.05 18.0653   1
  -7   0   4 0.04936 0.31611   2
  -7   0   4 0.50990 0.19921   1
  -6   0   4 147.726 3.16456   1
  -6   0   4 9.96667 0.30076   2
  -5   0   4 -0.0297 0.12972   2
  -5   0   4 1.01673 0.46908   1
  -4   0   4 34.1626 1.00905   1
  -4   0   4 2.69490 0.25839   2
  -3   0   4 0.06656 0.15491   2
  -3   0   4 0.72973 0.16015   1
  -2   0   4 30.3965 0.78010   2
  -2   0   4 487.542 9.54513   1
  -1   0   4 0.11886 0.09743   2
  -1   0   4 0.90637 0.15347   1
   0   0   4 3116.80 59.9762   1
   0   0   4 160.355 4.34285   2
   1   0   4 0.01829 0.07803   2
   1   0   4 0.56636 0.14856   1
   2   0   4 16.4693 0.50518   2
   2   0   4 292.104 5.52969   1
   3   0   4 -0.1037 0.16592   2
   3   0   4 0.92099 0.17777   1
   4   0   4 70.0881 1.54635   1
   4   0   4 4.16267 0.30734   2
   5   0   4 1.03809 0.21862   1
   5   0   4 -0.0124 0.28837   2
   6   0   4 1550.25 28.6667   1
   6   0   4 95.7477 2.09343   2
   7   0   4 0.12047 0.27582   2
   7   0   4 1.48955 0.31228   1
   8   0   4 4.34113 0.73684   2
   8   0   4 80.9484 2.12309   1
   9   0   4 0.73267 0.68390   1
  10   0   4 586.185 13.6852   1
  10   0   4 28.9738 1.87167   2
  11   0   4 0.77614 1.45397   1
  11   0   4 -2.1476 1.39885   2
  12   0   4 4.34967 2.15113   2
  12   0   4 33.3427 3.41726   1
  14   0   1 2.19984 6.67887  -2
  13   0   4 2.19984 6.67887   1
  13   0   4 -2.8298 2.34809   2
  14   0   4 24.3473 5.14206   1
 -15   1   4 5.22093 1.97768   1
 -15   1   4 -1.9113 4.17346   2
 -14   1   4 10.5756 2.02089   2
 -14   1   4 200.989 4.44060   1
 -13   1   4 2.30303 1.16775   2
 -13   1   4 9.88177 1.43586   1
 -12   1   4 1.97215 0.93580   2
 -12   1   4 14.1437 1.19090   1
 -11   1   4 7.29719 0.91355   2
 -11   1   4 124.592 2.76603   1
 -10   1   4 173.915 3.17444   1
  -9   1   4 155.843 2.48244   1
  -9   1   4 7.99265 1.14487   2
  -8   1   4 146.745 2.42827   1
  -8   1   4 7.36067 0.46920   2
  -7   1   4 1.94617 0.21014   2
  -7   1   4 22.9900 0.58123   1
  -6   1   4 0.18353 0.08946   2
  -6   1   4 1.57156 0.16374   1
  -5   1   4 7.56803 0.30511   2
  -5   1   4 120.415 1.95162   1
  -4   1   4 318.017 5.21599   1
  -4   1   4 18.2041 0.42442   2
  -3   1   4 983.271 15.7915   1
  -3   1   4 50.9759 1.54145   2
  -2   1   4 104.168 1.62368   1
  -2   1   4 5.85489 0.20913   2
  -1   1   4 15.4482 0.36467   2
  -1   1   4 302.632 3.98306   1
   0   1   4 519.925 7.14194   1
   0   1   4 29.5706 0.54621   2
   1   1   4 1229.86 15.3470   1
   1   1   4 72.7258 1.13580   2
   2   1   4 46.5021 0.73393   2
   2   1   4 749.609 9.32996   1
   3   1   4 10.4554 0.27682   2
   3   1   4 184.046 2.53905   1
   4   1   4 99.3816 1.39775   2
   4   1   4 1588.88 19.6865   1
   5   1   4 246.134 3.22768   1
   5   1   4 17.0103 0.49088   2
   6   1   4 389.260 5.01840   1
   6   1   4 22.3471 0.49358   2
   7   1   4 2.88917 0.30684   2
   7   1   4 46.1203 0.96411   1
   8   1   4 6.79424 0.54598   2
   8   1   4 122.189 2.15142   1
   9   1   4 91.1829 1.73700   1
  10   1   4 0.78679 0.77067   2
  10   1   4 1.90030 0.84682   1
  11   1   4 1.12471 0.91483   2
  11   1   4 1.76164 1.03840   1
  12   1   4 3.07484 1.64212   2
  12   1   4 57.0374 2.48475   1
  14   1   1 5.96299 3.77034  -2
  13   1   4 5.96299 3.77034   1
  13   1   4 1.03173 1.66630   2
 -15   2   4 48.8056 2.75544   1
 -15   2   4 -2.2658 4.77939   2
 -14   2   4 1.58330 2.25484   2
 -14   2   4 33.1192 2.09295   1
 -13   2   4 89.8604 2.89773   1
 -13   2   4 4.74959 1.24713   2
 -12   2   4 82.6406 2.37495   1
 -12   2   4 4.72050 1.00253   2
 -11   2   4 47.3675 1.73006   1
 -11   2   4 2.55991 0.81533   2
 -10   2   4 3.31397 0.71375   1
  -9   2   4 248.426 3.85324   1
  -8   2   4 36.4712 0.93470   1
  -8   2   4 1.51085 0.52721   2
  -7   2   4 1.84571 0.24095   2
  -7   2   4 35.6567 1.04882   1
  -6   2   4 11.6569 0.40989   1
  -6   2   4 0.32202 0.26334   2
  -5   2   4 4543.61 72.1318   1
  -5   2   4 237.120 3.97448   2
  -4   2   4 100.703 1.98627   1
  -4   2   4 5.29874 0.25450   2
  -3   2   4 12.2548 0.32759   2
  -3   2   4 226.173 3.73408   1
  -2   2   4 236.444 3.88286   1
  -2   2   4 12.0794 0.35660   2
  -1   2   4 424.683 5.89532   1
  -1   2   4 23.1089 0.51864   2
   0   2   4 1.56532 0.10544   2
   0   2   4 31.9323 0.50104   1
   1   2   4 33.6064 0.62621   2
   1   2   4 543.621 6.50746   1
   2   2   4 43.3681 0.66006   2
   2   2   4 712.171 8.87343   1
   3   2   4 457.875 5.77456   1
   3   2   4 27.2598 0.48604   2
   4   2   4 5.31771 0.25736   2
   4   2   4 95.6905 1.35374   1
   5   2   4 202.045 2.68901   1
   6   2   4 77.7346 1.33389   1
   6   2   4 4.42102 0.25463   2
   7   2   4 0.43867 0.27159   2
   7   2   4 1.93046 0.25560   1
   8   2   4 1.88616 0.55198   2
   8   2   4 16.9236 0.80361   1
   9   2   4 447.025 6.69161   1
  10   2   4 2.86189 0.76092   2
  10   2   4 49.9946 1.58242   1
  11   2   4 613.403 10.2038   1
  11   2   4 36.8448 1.66505   2
  12   2   4 1.17981 1.30369   1
  12   2   4 -0.8083 1.67103   2
  13   2   4 2.25923 1.96838   2
  14   2   1 18.0916 3.83765  -2
  13   2   4 18.0916 3.83765   1
 -15   3   4 28.3933 2.45374   1
 -15   3   4 6.10904 4.77084   2
 -14   3   4 9.93691 2.96662   2
 -14   3   4 156.811 4.25165   1
 -13   3   4 21.7265 1.60253   1
 -13   3   4 0.79254 1.31008   2
 -12   3   4 0.92129 0.90796   2
 -12   3   4 18.6362 1.28525   1
 -11   3   4 6.67076 0.91381   2
 -11   3   4 94.6145 2.35643   1
 -10   3   4 33.9302 1.46133   1
  -9   3   4 10.0933 0.60190   1
  -8   3   4 0.12683 0.29863   2
  -8   3   4 7.65655 0.49729   1
  -7   3   4 23.0251 0.82316   2
  -7   3   4 425.224 7.80015   1
  -6   3   4 200.495 3.86751   1
  -6   3   4 11.6923 0.55427   2
  -5   3   4 210.534 4.53610   1
  -5   3   4 11.6883 0.55936   2
  -4   3   4 44.8170 1.01421   2
  -4   3   4 776.946 13.3261   1
  -3   3   4 3854.82 66.0195   1
  -3   3   4 190.901 3.38273   2
  -2   3   4 25.4684 0.56099   2
  -2   3   4 444.086 7.94181   1
  -1   3   4 189.080 2.51371   1
  -1   3   4 10.0123 0.33760   2
   0   3   4 80.2428 1.38171   2
   0   3   4 1612.89 19.9360   1
   1   3   4 134.455 2.24469   2
   1   3   4 2755.20 41.7721   1
   2   3   4 4.88998 0.17891   2
   2   3   4 89.5309 1.17974   1
   3   3   4 11.3912 0.29919   2
   3   3   4 191.427 2.50713   1
   4   3   4 14.4076 0.36333   2
   4   3   4 246.179 3.20662   1
   5   3   4 83.3766 1.23011   1
   5   3   4 5.00126 0.36949   2
   6   3   4 202.423 2.88502   1
   6   3   4 11.9475 0.39356   2
   7   3   4 0.79414 0.25643   2
   7   3   4 9.89072 0.42684   1
   8   3   4 67.1467 1.44417   1
   8   3   4 3.92310 0.61464   2
   9   3   4 259.334 4.93936   1
  10   3   2 258.938 11.6299  -2
   9   3   4 258.938 11.6299   1
  10   3   4 10.1031 0.92509   2
  10   3   4 172.360 3.37257   1
  11   3   4 2.36337 0.98471   2
  11   3   4 52.6700 2.10819   1
  12   3   4 1.96671 1.59411   2
  12   3   4 33.9119 2.02123   1
  13   3   4 3.95898 2.31175   2
  14   3   1 101.485 4.63397  -2
  13   3   4 101.485 4.63397   1
 -15   4   4 3.95811 2.09383   2
 -15   4   4 29.7814 2.50817   1
 -14   4   4 0.41635 2.86186   2
 -14   4   4 30.5020 2.12633   1
 -13   4   4 1.65862 1.31450   2
 -13   4   4 1.50860 1.33721   1
 -12   4   4 0.54264 0.96815   2
 -12   4   4 21.2417 1.34657   1
 -11   4   4 1.72896 0.92279   2
 -11   4   4 6.40909 1.02554   1
 -10   4   4 776.139 12.5831   1
  -9   4   4 99.9687 1.97776   1
  -9   4   4 8.04173 1.22930   2
  -8   4   4 36.0167 1.23700   2
  -8   4   4 601.170 10.8151   1
  -7   4   4 11.3381 0.77959   1
  -7   4   4 0.56364 0.39830   2
  -6   4   4 -0.0712 0.24636   2
  -6   4   4 3.69454 0.37175   1
  -5   4   4 29.9002 0.89054   2
  -5   4   4 529.546 9.51045   1
  -4   4   4 7.32751 0.31537   2
  -4   4   4 132.842 2.55590   1
  -3   4   4 7.12794 0.26087   2
  -3   4   4 132.449 2.23865   1
  -2   4   4 20.5380 0.45681   1
  -2   4   4 1.01768 0.12497   2
  -1   4   4 129.619 2.32033   2
  -1   4   4 2345.89 34.3132   1
   0   4   4 2247.94 30.5526   1
   0   4   4 126.407 2.23787   2
   1   4   4 0.95699 0.12218   2
   1   4   4 12.5619 0.30321   1
   2   4   4 2.63579 0.13999   1
   2   4   4 0.04559 0.09481   2
   3   4   4 18.4937 0.39215   2
   3   4   4 302.243 3.87307   1
   4   4   4 8.20903 0.28386   1
   4   4   4 0.44388 0.12649   2
   5   4   4 99.8625 1.43653   1
   5   4   4 5.48234 0.45027   2
   6   4   4 1239.39 16.3778   1
   6   4   4 75.3890 1.18615   2
   7   4   4 84.8679 1.58596   1
   7   4   4 5.23935 0.34222   2
   8   4   4 3.77608 0.62819   2
   8   4   4 59.4373 1.72949   1
   9   4   4 21.7392 1.30831   1
  10   4   2 54.8313 4.04669  -2
   9   4   4 54.8313 4.04669   1
  10   4   4 164.095 3.27068   1
  10   4   4 8.61419 1.10133   2
  11   4   4 4.37216 1.05138   2
  11   4   4 85.6285 2.79742   1
  12   4   4 23.1121 1.84004   1
  12   4   4 -0.5534 1.61034   2
  13   4   4 3.85766 2.35623   2
  14   4   1 52.6751 4.30021  -2
  13   4   4 52.6751 4.30021   1
 -15   5   4 1.87471 2.09025   1
 -15   5   4 -0.1434 2.01619   2
 -14   5   4 211.207 5.13725   1
 -14   5   4 14.6106 3.19454   2
 -13   5   4 12.9904 1.59825   1
 -13   5   4 2.53747 1.35864   2
 -12   5   4 7.42792 1.37965   2
 -12   5   4 94.9254 2.85918   1
 -11   5   4 41.3788 1.79110   1
 -11   5   4 3.62000 1.10766   2
 -10   5   4 114.901 2.60652   1
  -9   5   4 448.026 6.82662   1
  -9   5   4 32.9627 2.18743   2
  -8   5   4 12.4273 0.60351   2
  -8   5   4 185.611 3.78415   1
  -7   5   4 21.4866 0.71221   2
  -7   5   4 322.430 6.58243   1
  -6   5   4 3.17318 0.30350   2
  -6   5   4 46.7408 1.38425   1
  -5   5   4 62.1342 1.61586   1
  -5   5   4 3.17429 0.43680   2
  -4   5   4 106.383 1.85974   1
  -4   5   4 6.29180 0.25773   2
  -3   5   4 5.69513 0.22750   2
  -3   5   4 103.324 1.78562   1
  -2   5   4 0.88506 0.11958   2
  -2   5   4 10.4409 0.30367   1
  -1   5   4 20.9130 0.59089   2
  -1   5   4 361.306 5.46713   1
   0   5   4 105.888 2.61385   2
   0   5   4 2132.24 29.6918   1
   1   5   4 47.0294 0.79715   1
   1   5   4 2.44571 0.15562   2
   2   5   4 243.416 3.57293   1
   2   5   4 14.3906 0.34630   2
   3   5   4 3.19738 0.19062   2
   3   5   4 55.2585 0.80423   1
   4   5   4 1384.82 18.2964   1
   4   5   4 89.7212 1.29781   2
   5   5   4 444.081 6.46752   1
   5   5   4 26.8623 0.80357   2
   6   5   4 271.045 4.10093   1
   6   5   4 15.4591 0.49507   2
   7   5   4 14.1521 0.61582   2
   7   5   4 251.872 3.90693   1
   8   5   4 16.6873 0.75741   2
   8   5   4 305.445 5.55969   1
   9   5   2 324.752 14.4061  -2
   8   5   4 324.752 14.4061   1
   9   5   4 4.44922 0.77091   1
  10   5   4 4.11163 1.02297   1
  10   5   4 1.89806 1.33855   2
  11   5   4 3.62413 1.24047   2
  11   5   4 82.8322 3.21741   1
  12   5   4 39.4427 2.27769   1
  12   5   4 2.15629 1.69197   2
  13   5   4 4.84773 2.49082   2
  14   5   1 86.2176 4.76558  -2
  13   5   4 86.2176 4.76558   1
 -14   6   4 86.4352 3.51895   1
 -14   6   4 4.70196 2.31304   2
 -13   6   4 1.56694 1.41049   2
 -13   6   4 47.5759 2.42860   1
 -12   6   4 15.6082 1.66190   2
 -12   6   4 247.728 5.88023   1
 -11   6   4 1.91778 1.11963   2
 -11   6   4 1.77025 1.09450   1
 -10   6   4 46.6284 1.46077   1
  -9   6   4 97.1946 1.92890   1
  -9   6   4 6.72198 1.02605   2
  -8   6   4 99.1925 2.20143   1
  -8   6   4 6.78113 0.49283   2
  -7   6   4 -0.4809 0.44172   2
  -7   6   4 2.91755 0.52608   1
  -6   6   4 23.1822 0.73865   2
  -6   6   4 351.849 8.35824   1
  -5   6   4 869.751 15.3086   1
  -5   6   4 46.7909 1.51472   2
  -4   6   4 4.87837 0.29581   2
  -4   6   4 87.4008 1.75324   1
  -3   6   4 11.2686 0.41316   2
  -3   6   4 201.113 3.33420   1
  -2   6   4 2.82949 0.19100   2
  -2   6   4 51.1207 1.10428   1
  -1   6   4 4.05059 0.23288   2
  -1   6   4 69.5780 1.18808   1
   0   6   4 0.05948 0.11925   2
   0   6   4 0.64287 0.12136   1
   1   6   4 781.924 11.2288   1
   1   6   4 48.9738 1.12931   2
   2   6   4 107.224 1.95204   2
   2   6   4 1501.71 21.1226   1
   3   6   4 0.35779 0.15678   2
   3   6   4 4.21903 0.24864   1
   4   6   4 908.303 13.9160   1
   4   6   4 59.3363 1.16827   2
   5   6   4 449.324 7.72309   1
   5   6   4 17.2758 0.98195   2
   6   6   4 35.9433 0.84551   2
   6   6   4 618.366 8.94514   1
   7   6   4 26.6268 0.82250   1
   7   6   4 1.37902 0.36678   2
   8   6   4 6.69064 0.60343   2
   8   6   4 100.820 2.31589   1
   9   6   2 116.084 6.80401  -2
   8   6   4 116.084 6.80401   1
  10   6   2 73.6224 3.59385  -2
   9   6   4 73.6224 3.59385   1
   9   6   4 75.4463 2.98080   1
  10   6   4 64.7372 2.24263   1
  10   6   4 5.49249 2.55696   2
  11   6   4 146.669 6.14814   1
  11   6   4 8.55500 1.62013   2
  12   6   4 -0.6752 1.71492   2
  12   6   4 7.41461 1.71060   1
  14   6   1 9.78366 4.39683  -2
  13   6   4 9.78366 4.39683   1
  13   6   4 -2.8380 2.45894   2
 -14   7   4 8.10491 1.94806   1
 -14   7   4 5.50516 2.29393   2
 -13   7   4 11.7035 1.68985   1
 -13   7   4 -0.0271 1.67786   2
 -12   7   4 180.602 5.08088   1
 -12   7   4 11.6129 1.71701   2
 -11   7   4 1.87345 1.37347   2
 -11   7   4 19.2877 1.53385   1
 -10   7   4 198.554 3.80349   1
  -9   7   4 3.43786 0.71528   2
  -9   7   4 43.0044 1.30554   1
  -8   7   4 0.15461 0.51295   2
  -8   7   4 3.11456 0.57306   1
  -7   7   4 345.910 5.76363   1
  -7   7   4 23.4298 0.89220   2
  -6   7   4 48.8852 1.68230   2
  -6   7   4 884.740 20.2913   1
  -5   7   4 2.00244 0.39438   2
  -5   7   4 27.4006 0.77519   1
  -4   7   4 982.355 18.8934   1
  -4   7   4 56.3736 1.92314   2
  -3   7   4 911.629 17.5495   1
  -3   7   4 56.8954 1.84703   2
  -2   7   4 112.336 2.41722   1
  -2   7   4 5.94609 0.29036   2
  -1   7   4 13.4782 0.46240   2
  -1   7   4 211.253 3.52204   1
   0   7   4 136.043 2.40011   1
   0   7   4 6.81497 0.31643   2
   1   7   4 494.495 7.16854   1
   1   7   4 30.7625 0.81625   2
   2   7   4 43.6069 0.97048   1
   2   7   4 2.67929 0.20406   2
   3   7   4 101.630 1.78019   1
   3   7   4 6.56255 0.32551   2
   4   7   4 98.2221 1.75736   1
   4   7   4 9.15216 0.51954   2
   5   7   4 55.1599 1.17464   1
   5   7   4 3.01531 0.92379   2
   6   7   4 3.64091 0.35301   1
   6   7   4 0.34289 0.32130   2
   7   7   4 0.55777 0.47333   1
   7   7   4 0.70170 0.34947   2
   8   7   4 26.0121 0.91196   2
   9   7   2 443.879 12.7491  -2
   8   7   4 443.879 12.7491   1
   8   7   4 430.333 9.97530   1
  10   7   2 228.743 6.07704  -2
   9   7   4 228.743 6.07704   1
   9   7   4 233.483 7.64755   1
  10   7   4 242.798 4.97154   1
  10   7   4 9.98015 2.26449   2
  11   7   4 1.09526 1.31874   2
  11   7   4 18.9769 2.46871   1
  12   7   4 1.71802 1.76562   2
  12   7   4 17.5774 2.22670   1
  13   7   4 4.87269 2.53879   2
  14   7   1 91.2862 5.25407  -2
  13   7   4 91.2862 5.25407   1
 -14   8   4 0.89365 2.15095   1
 -14   8   4 0.90794 2.44279   2
 -13   8   4 19.3421 2.13918   1
 -13   8   4 -0.6506 1.71930   2
 -12   8   4 2.69780 1.56640   2
 -12   8   4 31.9544 2.24763   1
 -11   8   4 2.85228 1.55266   2
 -11   8   4 21.4823 1.63076   1
 -10   8   4 135.383 2.94491   1
  -9   8   4 297.263 5.21151   1
  -8   8   4 5.38364 0.62490   1
  -8   8   4 0.34599 0.59338   2
  -7   8   4 11.1767 0.66947   1
  -7   8   4 0.22447 0.41623   2
  -6   8   4 6.21770 0.65107   1
  -6   8   4 0.41085 0.34034   2
  -5   8   4 461.326 9.06384   1
  -5   8   4 28.6773 0.99226   2
  -4   8   4 416.906 8.18748   1
  -4   8   4 25.9020 0.83858   2
  -3   8   4 11.5624 0.48278   2
  -3   8   4 180.531 3.66752   1
  -2   8   4 0.02155 0.24840   2
  -2   8   4 0.90363 0.25718   1
  -1   8   4 106.690 2.91105   2
  -1   8   4 2480.28 43.4032   1
   0   8   4 22.1001 0.95044   2
   0   8   4 561.613 9.21484   1
   1   8   4 0.03686 0.21636   2
   1   8   4 1.19303 0.30881   1
   2   8   4 14.9400 0.64399   2
   2   8   4 179.596 3.21118   1
   3   8   4 28.7759 0.70085   1
   3   8   4 2.21926 0.25855   2
   4   8   4 189.509 3.47793   1
   4   8   4 13.6992 0.73289   2
   5   8   4 20.2231 0.77403   1
   5   8   4 1.01632 0.76988   2
   6   8   4 55.5972 1.37327   1
   6   8   4 2.79795 0.40661   2
   7   8   4 9.96726 0.67021   2
   7   8   4 182.050 3.66557   1
   9   8   2 41.5912 2.87027  -2
   8   8   4 41.5912 2.87027   1
   8   8   4 1.47978 0.79496   2
   8   8   4 40.7579 2.41669   1
  10   8   2 39.0683 2.45249  -2
   9   8   4 39.0683 2.45249   1
   9   8   4 41.6335 5.10632   1
  10   8   4 13.3584 1.32390   1
  10   8   4 2.11896 1.38328   2
  11   8   4 44.9808 2.50127   1
  11   8   4 2.14467 1.76343   2
  12   8   4 0.39790 1.82550   2
  12   8   4 15.5370 2.27345   1
  13   8   4 146.855 6.51583   1
  13   8   4 6.17738 3.02056   2
 -14   9   4 33.9307 2.62545   1
 -14   9   4 2.02855 2.68530   2
 -13   9   4 -0.5242 1.89278   2
 -13   9   4 21.0820 2.28218   1
 -12   9   4 2.94494 1.68739   2
 -12   9   4 42.3464 2.66308   1
 -11   9   4 11.9428 1.49597   1
 -11   9   4 2.86972 3.09087   2
 -10   9   4 26.6962 1.47406   1
  -9   9   4 331.621 5.76377   1
  -9   9   4 19.5852 2.77603   2
  -8   9   4 191.259 4.01575   1
  -8   9   4 11.7119 0.92318   2
  -7   9   4 894.005 17.0554   1
  -7   9   4 37.7395 1.88008   2
  -6   9   4 79.8398 2.13393   1
  -6   9   4 4.45768 0.68198   2
  -5   9   4 4.05253 0.30043   2
  -5   9   4 56.9099 1.39587   1
  -4   9   4 5.64950 0.36168   2
  -4   9   4 75.6955 1.72467   1
  -3   9   4 336.323 7.97532   1
  -3   9   4 21.4084 0.72837   2
  -2   9   4 578.806 13.4329   1
  -2   9   4 24.9465 1.39815   2
  -1   9   4 5.11964 0.41299   2
  -1   9   4 117.408 2.31899   1
   0   9   4 0.07774 0.20986   2
   0   9   4 3.73943 0.28173   1
   1   9   4 1.00022 0.25953   1
   1   9   4 0.04130 0.20605   2
   2   9   4 25.2820 0.78349   2
   2   9   4 416.724 7.15871   1
   3   9   4 15.8407 0.58139   2
   3   9   4 268.040 5.31728   1
   4   9   4 151.003 2.92516   1
   4   9   4 10.1218 1.09433   2
   5   9   4 367.803 6.39961   1
   5   9   4 20.9306 1.66501   2
   6   9   4 1.46222 0.40640   1
   6   9   4 -0.1373 0.38296   2
   7   9   4 16.4658 0.84220   2
   7   9   4 296.142 5.53968   1
   8   9   4 7.72136 0.95436   2
   8   9   4 119.174 6.80975   1
   9   9   2 125.030 3.55791  -2
   8   9   4 125.030 3.55791   1
  10   9   2 28.2673 2.44690  -2
   9   9   4 28.2673 2.44690   1
   9   9   4 22.1583 3.81030   1
  10   9   4 43.0178 2.15914   1
  10   9   4 2.29139 1.51842   2
  11   9   4 8.76291 1.65873   2
  11   9   4 190.994 5.26088   1
  12   9   4 13.0974 2.35411   1
  12   9   4 0.88231 2.09159   2
 -13  10   4 44.3771 2.96405   1
 -13  10   4 -0.3912 2.03732   2
 -12  10   4 154.063 4.80025   1
 -12  10   4 10.4165 1.85567   2
 -11  10   4 39.2947 2.34417   1
 -11  10   4 1.73555 3.22446   2
 -10  10   4 0.94059 0.95193   1
  -9  10   4 9.35703 0.98908   1
  -9  10   4 0.83056 1.88490   2
  -8  10   4 32.9711 1.64226   1
  -8  10   4 2.40056 0.76621   2
  -7  10   4 0.28167 0.67245   2
  -7  10   4 27.7027 1.30619   1
  -6  10   4 24.0575 1.08072   2
  -6  10   4 451.941 9.21958   1
  -5  10   4 3.86718 0.36897   1
  -5  10   4 0.24939 0.30592   2
  -4  10   4 37.4394 1.00757   1
  -4  10   4 2.67211 0.31610   2
  -3  10   4 77.0191 2.16087   1
  -3  10   4 6.15759 0.48702   2
  -2  10   4 0.12195 0.30537   2
  -2  10   4 10.4411 0.66607   1
  -1  10   4 34.8244 1.31784   2
  -1  10   4 848.864 15.0217   1
   0  10   4 -0.1162 0.20968   2
   0  10   4 1.56485 0.25750   1
   1  10   4 19.4461 0.94681   2
   1  10   4 477.427 9.45910   1
   2  10   4 1053.04 19.9588   1
   2  10   4 69.6133 1.88057   2
   3  10   4 136.003 2.56489   1
   3  10   4 8.00708 0.50345   2
   4  10   4 477.036 8.27594   1
   4  10   4 28.7666 1.17332   2
   5  10   4 438.025 7.00127   1
   5  10   4 24.5462 1.84003   2
   6  10   4 11.9056 0.73062   2
   6  10   4 206.252 3.60084   1
   7  10   4 0.91101 0.54334   2
   7  10   4 4.49835 0.84674   1
   8  10   4 0.65206 0.85675   2
   9  10   2 20.1489 2.45893  -2
   8  10   4 20.1489 2.45893   1
   8  10   4 2.22389 1.89114   1
  10  10   2 -1.8050 2.30394  -2
   9  10   4 -1.8050 2.30394   1
   9  10   4 0.37969 3.36653   1
  10  10   4 37.6665 2.23048   1
  10  10   4 6.29852 3.25868   2
  11  10   4 6.22618 1.61928   1
  11  10   4 0.39459 1.58268   2
  12  10   4 45.4785 3.34935   1
  12  10   4 5.57435 2.48666   2
 -13  11   4 12.2906 2.43968   2
 -13  11   4 175.852 6.29809   1
 -12  11   4 12.2494 2.01330   2
 -12  11   4 249.959 7.27820   1
 -11  11   4 2.55466 1.64576   1
 -11  11   4 -1.4012 4.76706   2
 -10  11   4 293.233 5.74282   1
  -9  11   4 129.977 2.90854   1
  -9  11   4 5.78286 2.67149   2
  -8  11   4 5.56442 0.89158   2
  -8  11   4 95.4779 2.62706   1
  -7  11   4 1.77727 0.88765   2
  -7  11   4 33.0892 1.40421   1
  -6  11   4 13.6990 1.25948   2
  -6  11   4 342.998 7.16451   1
  -5  11   4 13.7168 0.67784   1
  -5  11   4 1.78319 0.38446   2
  -4  11   4 391.751 8.00014   1
  -4  11   4 33.8426 1.34665   2
  -3  11   4 3.18228 0.43397   2
  -3  11   4 67.5496 1.75424   1
  -2  11   4 352.354 10.1760   1
  -2  11   4 29.1037 1.24422   2
  -1  11   4 7.03180 0.64835   2
  -1  11   4 183.811 3.52544   1
   0  11   4 4.60858 0.40182   1
   0  11   4 0.20056 0.23728   2
   1  11   4 12.8284 0.90581   1
   1  11   4 0.72548 0.32764   2
   2  11   4 69.2352 1.45076   1
   2  11   4 4.46956 0.52571   2
   3  11   4 24.8362 0.94524   2
   3  11   4 455.955 8.00427   1
   4  11   4 268.229 4.84450   1
   4  11   4 17.6214 2.33279   2
   5  11   4 38.6187 1.17553   1
   5  11   4 2.05061 1.22428   2
   6  11   4 1.71434 0.72809   1
   6  11   4 0.23324 0.66435   2
   7  11   4 6.95145 1.18111   2
   7  11   4 129.070 2.99600   1
   9  11   2 542.782 12.8556  -2
   8  11   4 542.782 12.8556   1
   8  11   4 29.3519 1.95394   2
   8  11   4 528.676 20.5654   1
  10  11   2 57.2528 4.10377  -2
   9  11   4 57.2528 4.10377   1
   9  11   4 55.6663 6.47883   1
  10  11   4 176.181 4.37640   1
  10  11   4 10.9096 3.90334   2
  11  11   4 7.89633 1.77852   1
  11  11   4 -0.9736 2.18623   2
  12  11   4 2.24595 4.36040   2
  12  11   4 2.55019 2.71066   1
 -13  12   4 3.39847 2.67007   1
 -13  12   4 0.97847 2.66229   2
 -12  12   4 1.68650 2.00314   2
 -12  12   4 58.5034 3.72936   1
 -11  12   4 154.871 5.27191   1
 -11  12   4 10.6287 4.56248   2
 -10  12   4 0.96493 1.24164   1
  -9  12   4 2.04578 1.68792   2
  -9  12   4 39.8742 1.90245   1
  -8  12   4 50.4466 2.03490   1
  -8  12   4 3.03101 0.90212   2
  -7  12   4 43.9186 1.61021   1
  -7  12   4 2.74957 0.86639   2
  -6  12   4 0.43415 0.62782   2
  -6  12   4 12.4381 1.01700   1
  -5  12   4 1.32631 0.47930   2
  -5  12   4 25.1713 1.11965   1
  -4  12   4 340.784 8.22503   1
  -4  12   4 24.6059 1.16454   2
  -3  12   4 34.0061 1.41081   2
  -3  12   4 406.312 8.29074   1
  -2  12   4 10.1699 0.76679   2
  -2  12   4 188.069 4.07735   1
  -1  12   4 27.3150 1.31794   2
  -1  12   4 670.528 10.8855   1
   0  12   4 6.99441 0.73401   2
   0  12   4 191.244 3.35075   1
   1  12   4 2.64791 0.38259   2
   1  12   4 43.6387 1.11147   1
   2  12   4 37.1652 1.37192   2
   2  12   4 649.784 17.4720   1
   3  12   4 0.84597 0.57704   2
   3  12   4 10.0338 0.72288   1
   4  12   4 130.878 3.01987   1
   5  12   4 11.6013 0.74476   1
   6  12   4 68.3869 2.52927   1
   6  12   4 3.92492 0.83090   2
   7  12   4 23.7343 1.61748   2
   7  12   4 453.416 8.18771   1
   8  12   4 101.764 4.80852   1
   9  12   2 112.733 4.11547  -2
   8  12   4 112.733 4.11547   1
   8  12   4 6.29482 1.29993   2
  10  12   2 118.630 8.90323  -2
   9  12   4 118.630 8.90323   1
  10  12   4 -1.2856 3.74693   2
  10  12   4 7.57472 1.65556   1
  11  12   4 18.3980 2.11094   1
  11  12   4 -1.6779 2.33587   2
 -12  13   4 0.50652 2.33529   2
 -12  13   4 9.74232 2.46084   1
 -11  13   4 -6.6385 4.40521   2
 -11  13   4 5.66554 2.04646   1
 -10  13   4 40.2884 2.45790   1
  -9  13   4 75.6315 2.69089   1
  -9  13   4 5.26747 3.25706   2
  -8  13   4 93.0908 3.40119   1
  -8  13   4 5.86770 1.01763   2
  -7  13   4 568.894 11.8059   1
  -7  13   4 26.0068 1.94616   2
  -6  13   4 104.513 3.59968   1
  -6  13   4 4.85369 1.00957   2
  -5  13   4 0.34974 0.49374   2
  -5  13   4 20.3616 1.10172   1
  -4  13   4 36.6842 1.35987   1
  -4  13   4 1.21966 0.52914   2
  -3  13   4 464.332 9.47570   1
  -3  13   4 42.3840 1.68232   2
  -2  13   4 587.164 11.8338   1
  -2  13   4 50.6608 1.86976   2
  -1  13   4 0.57886 0.48230   2
  -1  13   4 1.45105 0.43383   1
   0  13   4 87.2953 1.79945   1
   0  13   4 5.95371 0.55886   2
   1  13   4 1.50082 0.50848   1
   1  13   4 0.47339 0.34676   2
   2  13   4 2.30903 0.62639   2
   2  13   4 41.0635 2.09624   1
   3  13   4 15.1111 0.96738   2
   3  13   4 275.197 5.72054   1
   4  13   4 28.7266 1.36011   1
   5  13   4 79.3483 2.72992   1
   6  13   4 41.9059 2.16180   1
   6  13   4 3.59470 0.89706   2
   7  13   4 2.22038 1.17400   2
   7  13   4 25.4123 1.83806   1
   9  13   2 21.6310 3.04527  -2
   8  13   4 21.6310 3.04527   1
   8  13   4 1.72968 1.31991   2
  10  13   2 60.3798 4.48776  -2
   9  13   4 60.3798 4.48776   1
  10  13   4 85.9795 3.91371   1
  10  13   4 8.80661 2.37390   2
  11  13   4 86.5552 4.29358   1
  11  13   4 2.07630 2.65438   2
 -12  14   4 1.39078 2.58592   2
 -12  14   4 46.5908 3.69385   1
 -11  14   4 -7.2850 4.71711   2
 -11  14   4 14.3613 2.38585   1
 -10  14   4 4.76536 1.63546   1
 -10  14   4 0.52374 4.02958   2
  -9  14   4 13.7548 1.48975   1
  -9  14   4 0.18512 3.37749   2
  -8  14   4 308.548 7.90566   1
  -8  14   4 22.4416 1.62850   2
  -7  14   4 20.1172 1.79842   1
  -7  14   4 1.96948 1.00087   2
  -6  14   4 429.320 10.7963   1
  -6  14   4 23.4354 1.79258   2
  -5  14   4 118.929 3.00688   1
  -5  14   4 5.84452 1.32398   2
  -4  14   4 205.395 5.60984   1
  -4  14   4 15.0366 1.05262   2
  -3  14   4 65.3602 2.05459   1
  -3  14   4 3.45157 0.97769   2
  -2  14   4 14.4749 1.14783   2
  -2  14   4 161.386 3.69508   1
  -1  14   4 316.880 5.98173   1
  -1  14   4 27.8564 1.49253   2
   0  14   4 3.31655 0.47125   2
   0  14   4 58.3509 1.62759   1
   1  14   4 1.51606 0.55261   2
   1  14   4 38.2552 1.34804   1
   2  14   4 179.263 4.60290   1
   2  14   4 8.68887 1.10196   2
   3  14   4 6.30031 0.81527   2
   3  14   4 111.351 2.76525   1
   4  14   4 233.764 5.03188   1
   5  14   4 87.8025 2.47529   1
   6  14   4 1.78772 1.09454   1
   6  14   4 2.06893 1.14896   2
   7  14   4 36.4277 2.35577   1
   7  14   4 2.48752 1.28357   2
   8  14   4 6.23546 2.10958   2
  10  14   2 38.7771 3.94404  -2
   9  14   4 38.7771 3.94404   1
  10  14   4 4.90259 2.07267   1
  10  14   4 0.62551 2.23880   2
  11  14   4 -0.6347 2.74118   2
  11  14   4 29.2983 2.71075   1
 -12  15   4 141.421 7.89883   1
 -12  15   4 5.46676 4.49501   2
 -11  15   4 22.1472 2.72872   1
 -11  15   4 9.01150 5.58945   2
 -10  15   4 24.9461 2.01386   1
  -9  15   4 58.1521 3.57341   1
  -9  15   4 4.93824 3.90038   2
  -8  15   4 102.497 3.18415   1
  -8  15   4 5.77721 1.31501   2
  -7  15   4 -0.8077 1.02567   2
  -7  15   4 1.43649 1.39915   1
  -6  15   4 -1.0812 1.16992   2
  -6  15   4 1.82361 1.24137   1
  -5  15   4 78.0776 2.46066   1
  -5  15   4 5.52345 1.54124   2
  -4  15   4 15.7988 1.12734   1
  -4  15   4 1.74870 0.80943   2
  -3  15   4 13.6821 1.30587   2
  -3  15   4 144.825 3.52804   1
  -2  15   4 50.1210 2.10711   2
  -2  15   4 581.283 11.7529   1
  -1  15   4 1.48983 0.62776   2
  -1  15   4 26.5605 1.51480   1
   0  15   4 0.19814 0.75664   2
   0  15   4 13.9236 0.88166   1
   1  15   4 285.936 5.55384   1
   1  15   4 10.0002 1.29114   2
   2  15   4 1.16963 0.83853   2
   2  15   4 25.1998 1.49796   1
   3  15   4 42.4953 1.69696   2
   3  15   4 700.947 13.7655   1
   4  15   4 64.3385 2.10912   1
   5  15   4 -0.3398 1.08211   1
   6  15   4 25.8570 1.91788   1
   6  15   4 0.72785 1.25712   2
   7  15   4 2.26459 1.40039   2
   7  15   4 73.2872 3.15692   1
   9  15   2 286.070 7.94265  -2
   8  15   4 286.070 7.94265   1
   8  15   4 18.0416 2.04020   2
  10  15   2 -5.7433 3.83719  -2
   9  15   4 -5.7433 3.83719   1
  10  15   4 8.03585 2.33421   1
  10  15   4 -2.9549 3.20506   2
 -11  16   4 305.001 8.75793   1
 -10  16   4 35.2406 2.29666   1
  -9  16   4 -0.9033 1.48595   1
  -8  16   4 4.86469 1.80523   1
  -8  16   4 0.49003 1.65320   2
  -7  16   4 157.098 4.88993   1
  -7  16   4 7.97754 1.69110   2
  -6  16   4 1.75519 1.65967   2
  -6  16   4 4.55660 1.42393   1
  -5  16   4 74.8223 3.66554   1
  -5  16   4 2.10874 1.30355   2
  -4  16   4 11.4124 1.13034   1
  -4  16   4 1.11738 0.95019   2
  -3  16   4 300.977 6.47828   1
  -3  16   4 19.4190 1.34868   2
  -2  16   4 19.3289 1.50810   1
  -2  16   4 0.62712 0.97090   2
  -1  16   4 3.75885 1.57686   2
  -1  16   4 118.486 3.65656   1
   0  16   4 2.56261 0.89583   2
   0  16   4 56.9328 2.08793   1
   1  16   4 78.2738 2.49496   1
   1  16   4 3.96021 0.95138   2
   2  16   4 162.586 3.48244   1
   2  16   4 8.74628 1.06546   2
   3  16   4 64.6694 2.14843   1
   3  16   4 3.57251 0.87536   2
   4  16   4 52.6461 2.04292   1
   5  16   4 84.9398 3.16415   1
   6  16   4 27.1851 2.10568   1
   6  16   4 0.43326 1.37433   2
   7  16   4 241.385 8.09941   1
   7  16   4 14.1140 2.18290   2
   9  16   2 10.9177 3.81206  -2
   8  16   4 10.9177 3.81206   1
   8  16   4 1.46432 1.74223   2
  10  16   2 287.746 8.44903  -2
   9  16   4 287.746 8.44903   1
   9  16   4 18.2363 4.15312   2
  10  16   4 16.5293 2.60310   1
  10  16   4 0.18005 3.56024   2
 -10  17   4 12.4392 2.02368   1
  -9  17   4 10.9073 1.78275   1
  -8  17   4 30.4585 2.12629   1
  -8  17   4 1.50120 1.57124   2
  -7  17   4 16.5536 1.84092   2
  -7  17   4 226.504 6.41440   1
  -6  17   4 0.04265 1.81682   2
  -6  17   4 6.77447 1.72257   1
  -5  17   4 4.77040 1.79119   2
  -5  17   4 78.5234 3.95499   1
  -4  17   4 -0.5539 1.03494   2
  -4  17   4 0.64153 1.08656   1
  -3  17   4 1.31846 1.05421   2
  -3  17   4 12.4695 1.36298   1
  -2  17   4 7.61392 1.86973   2
  -2  17   4 212.880 5.79298   1
  -1  17   4 19.7381 1.53891   1
  -1  17   4 1.46540 1.08951   2
   0  17   4 202.056 4.84128   1
   0  17   4 7.43060 1.82970   2
   1  17   4 6.88694 1.11343   2
   1  17   4 120.855 3.86491   1
   2  17   4 6.45666 0.93990   1
   2  17   4 0.89370 1.29443   2
   3  17   4 677.440 12.2752   1
   3  17   4 48.6747 2.24423   2
   5  17   3 98.5084 4.01433  -2
   4  17   4 98.5084 4.01433   1
   4  17   4 71.0546 4.82438   1
   5  17   4 5.82970 1.47197   1
   6  17   4 69.1099 3.47088   1
   6  17   4 4.54030 1.60033   2
   7  17   4 6.23106 1.77346   2
   7  17   4 73.4081 3.53266   1
   9  17   2 6.26714 4.25074  -2
   8  17   4 6.26714 4.25074   1
   8  17   4 2.59288 1.94785   2
  10  17   2 37.2822 5.03661  -2
   9  17   4 37.2822 5.03661   1
   9  17   4 -0.7118 4.10673   2
 -10  18   4 17.1943 2.53439   1
  -9  18   4 7.85041 2.08187   1
  -8  18   4 21.0168 2.19312   2
  -8  18   4 293.457 6.76206   1
  -7  18   4 2.11894 1.58542   2
  -7  18   4 15.1123 2.04486   1
  -6  18   4 284.210 7.56102   1
  -6  18   4 14.2691 4.03267   2
  -5  18   4 61.3108 3.13945   1
  -5  18   4 3.94635 3.40374   2
  -4  18   4 9.99930 2.07165   2
  -4  18   4 133.093 4.82689   1
  -3  18   4 29.1669 2.50630   1
  -3  18   4 1.85998 1.37766   2
  -2  18   4 99.5433 3.52470   1
  -2  18   4 6.24158 1.45964   2
  -1  18   4 12.2527 1.45376   1
  -1  18   4 0.58405 1.23557   2
   0  18   4 -1.5182 1.18828   2
   0  18   4 4.41151 1.10271   1
   1  18   4 0.85650 1.21563   2
   1  18   4 48.2715 2.56742   1
   2  18   4 1.43430 1.01533   2
   2  18   4 30.2469 1.82213   1
   3  18   4 -1.4902 1.01790   2
   3  18   4 1.21295 1.10826   1
   5  18   3 115.416 5.34628  -2
   4  18   4 115.416 5.34628   1
   5  18   4 35.6253 2.87562   1
   6  18   4 43.9803 2.86974   1
   6  18   4 4.14518 1.82755   2
   7  18   4 20.2062 2.29987   1
   7  18   4 1.91321 1.82341   2
   9  18   2 98.6398 5.78214  -2
   8  18   4 98.6398 5.78214   1
   8  18   4 8.68603 2.43916   2
  -9  19   4 10.3000 2.43123   1
  -8  19   4 8.25457 2.05884   2
  -8  19   4 65.8553 3.77425   1
  -7  19   4 1.05207 1.90359   1
  -7  19   4 2.18868 1.73345   2
  -6  19   4 116.407 7.65014   1
  -5  19   4 27.9244 3.09888   1
  -4  19   4 3.17506 3.22541   2
  -4  19   4 38.9135 5.08800   1
  -3  19   4 0.71499 1.52172   2
  -3  19   4 22.0120 2.11431   1
  -2  19   4 529.788 15.2908   1
  -2  19   4 45.2567 3.84513   2
  -1  19   4 5.35674 1.57570   1
  -1  19   4 1.36282 1.47150   2
   0  19   4 162.855 6.02554   1
   0  19   4 10.5191 1.60640   2
   1  19   4 94.9942 3.65271   1
   1  19   4 7.47503 1.87125   2
   2  19   4 73.3036 2.71294   1
   2  19   4 4.02177 1.24301   2
   3  19   4 87.8289 3.04892   1
   3  19   4 6.12612 1.30317   2
   5  19   3 24.7901 4.24933  -2
   4  19   4 24.7901 4.24933   1
   5  19   4 43.5849 3.05854   1
   6  19   4 3.55638 2.07852   2
   6  19   4 57.8916 3.46584   1
   7  19   4 0.99000 2.12029   1
   7  19   4 -5.0055 2.18290   2
   8  19   4 60.7062 4.62013   1
   8  19   4 3.61024 2.99087   2
  -8  20   4 3.43082 2.43758   2
  -8  20   4 12.9969 2.75692   1
  -7  20   4 5.58800 2.23286   2
  -7  20   4 101.466 5.04454   1
  -6  20   4 30.6997 2.75706   1
  -5  20   4 150.942 9.12811   1
  -4  20   4 4.24699 3.01223   2
  -4  20   4 92.1718 6.89300   1
  -3  20   4 97.3281 4.41837   1
  -3  20   4 6.93713 3.04405   2
  -2  20   4 -2.3407 1.71361   2
  -2  20   4 1.61530 1.67289   1
  -1  20   4 5.52941 1.84052   1
  -1  20   4 -2.0077 2.54496   2
   0  20   4 11.7944 3.42330   2
   1  20   4 42.7105 3.24786   1
   1  20   4 1.35799 2.04766   2
   2  20   4 0.88958 1.34403   2
   2  20   4 0.55554 1.44546   1
   3  20   4 34.2648 2.63978   1
   3  20   4 3.66574 1.48101   2
   5  20   3 -6.0632 3.96099  -2
   4  20   4 -6.0632 3.96099   1
   5  20   4 57.0390 3.56054   1
   6  20   4 11.5473 2.43465   1
   7  20   4 0.94822 2.82498   2
   7  20   4 90.7509 4.84043   1
  -7  21   4 1.89490 2.49573   2
  -7  21   4 18.6297 2.92565   1
  -6  21   4 41.1434 3.21223   1
  -5  21   4 39.0544 3.41289   1
  -4  21   4 7.70937 2.13590   2
  -4  21   4 98.6627 7.42517   1
  -3  21   4 0.30355 2.99787   1
  -3  21   4 -4.9428 2.84393   2
  -2  21   4 33.9866 2.73980   1
  -2  21   4 4.11366 2.01761   2
  -1  21   4 4.50276 1.93287   2
  -1  21   4 46.1120 4.55510   1
   0  21   4 71.7077 5.08324   1
   0  21   4 3.75580 2.44353   2
   1  21   4 57.0423 3.34764   1
   1  21   4 7.53920 2.45866   2
   2  21   4 47.0067 2.84950   1
   2  21   4 4.21460 1.73292   2
   3  21   4 281.898 9.13219   1
   3  21   4 17.3119 2.43429   2
   5  21   3 32.4568 4.85734  -2
   4  21   4 32.4568 4.85734   1
   5  21   4 13.8799 2.49905   1
   6  21   4 56.7265 4.54409   1
  -6  22   4 79.5409 8.39930   1
  -5  22   4 11.7229 2.60922   1
  -4  22   4 -1.3023 2.07799   1
  -4  22   4 -0.8525 2.07027   2
  -3  22   4 2.54081 3.67202   1
  -3  22   4 2.78695 2.09381   2
  -2  22   4 -0.0254 3.58905   2
  -2  22   4 48.3317 4.09770   1
  -1  22   4 3.03911 2.89853   2
  -1  22   4 28.2057 3.43862   1
   0  22   4 0.51579 2.63436   1
   0  22   4 3.27238 2.73797   2
   1  22   4 14.2918 2.07741   2
   1  22   4 164.117 5.84186   1
   2  22   4 5.70707 1.94001   2
   2  22   4 23.3834 3.31473   1
   3  22   4 2.71280 2.87257   2
   3  22   4 28.3816 3.02152   1
   5  22   3 67.2378 7.71706  -2
   4  22   4 67.2378 7.71706   1
  -4  23   4 29.0541 5.21584   1
  -4  23   4 4.58930 4.00278   2
  -3  23   4 -1.7982 2.28256   2
  -3  23   4 3.56391 2.43952   1
  -2  23   4 17.4895 2.78098   2
  -1  23   4 80.3187 6.61242   1
  -1  23   4 15.5116 4.77522   2
   0  23   4 69.3450 4.21291   1
   0  23   4 4.59655 3.39778   2
   1  23   4 4.65846 2.20241   2
   1  23   4 39.2535 5.05991   1
   2  23   4 -4.5254 2.98822   2
   2  23   4 7.89766 3.20946   1
 -15   0   5 30.7786 3.73281   1
 -14   0   5 -1.7008 1.91637   1
 -13   0   5 159.788 5.23639   1
 -13   0   5 11.1421 1.88995   2
 -12   0   5 0.66250 1.33519   2
 -12   0   5 1.44150 1.36889   1
 -11   0   5 284.948 7.25304   1
 -11   0   5 17.2699 1.54472   2
 -10   0   5 -1.0012 1.05488   2
 -10   0   5 1.51958 0.95770   1
  -9   0   5 16.2465 1.17216   2
  -9   0   5 246.084 5.54194   1
  -8   0   5 0.97762 0.29433   1
  -8   0   5 -0.2494 0.75293   2
  -7   0   5 207.813 4.86380   2
  -7   0   5 3466.72 75.5523   1
  -6   0   5 -0.1504 0.15900   2
  -6   0   5 1.28070 0.34839   1
  -5   0   5 2.16905 0.26656   2
  -5   0   5 43.1349 1.28203   1
  -4   0   5 0.25875 0.18881   1
  -4   0   5 -0.2183 0.15468   2
  -3   0   5 118.355 2.46608   1
  -3   0   5 6.12474 0.36182   2
  -2   0   5 0.05955 0.11682   2
  -2   0   5 1.30024 0.15914   1
  -1   0   5 29.4745 0.77837   2
  -1   0   5 499.682 11.2527   1
   0   0   5 -0.2250 0.16280   2
   1   0   5 56.9727 1.04106   1
   1   0   5 2.93133 0.23934   2
   2   0   5 0.31431 0.17409   1
   2   0   5 -0.1722 0.11818   2
   3   0   5 7.81664 0.50880   2
   3   0   5 129.292 2.63246   1
   5   0   4 0.61729 0.75579  -2
   4   0   5 0.61729 0.75579   1
   4   0   5 1.63486 0.33016   1
   5   0   5 3.33291 0.32341   1
   5   0   5 0.17414 0.38171   2
   6   0   5 0.08026 0.26754   2
   6   0   5 5.78735 0.76053   1
   7   0   5 1152.48 19.5376   1
   7   0   5 62.2743 1.74922   2
   8   0   5 0.58573 0.57901   2
   9   0   3 2.52553 1.57397  -2
   8   0   5 2.52553 1.57397   1
   9   0   5 750.114 21.0370   1
  10   0   3 767.605 20.7219  -2
   9   0   5 767.605 20.7219   1
   9   0   5 44.3597 2.11399   2
  10   0   5 -0.0987 0.98287   2
  10   0   5 0.56282 1.29288   1
  11   0   5 104.369 4.01769   1
  11   0   5 4.51090 1.34365   2
  12   0   5 -0.5860 2.55533   1
  12   0   5 2.54616 2.06820   2
  13   0   2 -4.2560 7.29284  -2
  12   0   5 -4.2560 7.29284   1
  13   0   5 7.41019 3.41394   2
  14   0   2 150.004 8.64894  -2
  13   0   5 150.004 8.64894   1
 -15   1   5 3.12998 2.00941   1
 -14   1   5 18.6568 1.67555   1
 -13   1   5 127.795 3.26155   1
 -13   1   5 5.48980 1.28958   2
 -12   1   5 0.08900 0.94009   2
 -12   1   5 7.09323 1.06602   1
 -11   1   5 20.8117 1.16357   1
 -11   1   5 1.61171 0.79226   2
 -10   1   5 17.6865 0.95908   1
 -10   1   5 0.95014 0.73135   2
  -9   1   5 303.238 4.33884   1
  -9   1   5 16.0707 0.85969   2
  -8   1   5 3.11363 0.55956   2
  -8   1   5 53.6600 0.97612   1
  -7   1   5 723.573 10.7737   1
  -7   1   5 46.1440 0.99338   2
  -6   1   5 108.223 1.82483   1
  -6   1   5 6.54053 0.27904   2
  -5   1   5 62.4251 1.11534   2
  -5   1   5 1005.01 16.1312   1
  -4   1   5 3.14555 0.21173   2
  -4   1   5 56.2945 1.21142   1
  -3   1   5 26.0908 0.64610   2
  -3   1   5 460.660 7.47849   1
  -2   1   5 2087.24 28.8730   1
  -2   1   5 106.605 2.22908   2
  -1   1   5 1975.98 27.3228   1
  -1   1   5 100.502 1.80020   2
   0   1   5 8.37387 0.23728   2
   0   1   5 168.212 2.40370   1
   1   1   5 521.996 6.04410   1
   1   1   5 31.0710 0.57115   2
   2   1   5 65.1642 0.94670   2
   2   1   5 1036.14 12.8740   1
   3   1   5 68.4619 1.01170   2
   3   1   5 1140.92 14.1842   1
   4   1   5 210.530 3.42162   1
   5   1   4 235.012 5.34152  -2
   4   1   5 235.012 5.34152   1
   5   1   5 284.710 3.72646   1
   5   1   5 16.5896 0.80094   2
   6   1   5 -0.0103 0.21115   2
   6   1   5 2.27064 0.22930   1
   7   1   5 397.394 5.54159   1
   7   1   5 23.1101 0.69500   2
   9   1   3 151.402 2.81348  -2
   8   1   5 151.402 2.81348   1
   8   1   5 8.19416 0.54039   2
  10   1   3 82.6851 3.05878  -2
   9   1   5 82.6851 3.05878   1
   9   1   5 4.71824 0.66290   2
   9   1   5 80.4660 2.19796   1
  10   1   5 0.82716 0.72138   2
  10   1   5 21.5544 1.28002   1
  11   1   5 -0.4151 1.00648   2
  11   1   5 30.2767 1.62804   1
  12   1   5 0.77121 1.83624   1
  12   1   5 -0.0278 1.58010   2
  13   1   2 2.30411 5.16592  -2
  12   1   5 2.30411 5.16592   1
  14   1   2 251.648 6.61260  -2
  13   1   5 251.648 6.61260   1
  13   1   5 14.4820 3.06505   2
 -15   2   5 5.54276 2.07203   1
 -14   2   5 19.0651 1.90473   1
 -13   2   5 12.7115 1.48558   1
 -13   2   5 0.99623 1.23072   2
 -12   2   5 30.4681 1.49147   2
 -12   2   5 566.359 9.46660   1
 -11   2   5 14.4493 1.04130   1
 -11   2   5 0.99998 0.82845   2
 -10   2   5 283.564 4.48946   1
 -10   2   5 17.1667 1.14551   2
  -9   2   5 0.62880 0.66710   2
  -9   2   5 13.9328 0.64214   1
  -8   2   5 3.52856 0.36513   2
  -8   2   5 53.6567 1.38986   1
  -7   2   5 124.347 2.20074   1
  -7   2   5 6.22549 0.53287   2
  -6   2   5 65.3723 1.19636   1
  -6   2   5 3.40146 0.38246   2
  -5   2   5 97.6208 1.78606   1
  -5   2   5 5.45148 0.26419   2
  -4   2   5 662.390 9.76700   1
  -4   2   5 37.4939 0.90319   2
  -3   2   5 22.0674 0.57264   2
  -3   2   5 404.558 6.59366   1
  -2   2   5 1019.62 16.3488   1
  -2   2   5 57.2309 1.18335   2
  -1   2   5 0.45446 0.10763   2
  -1   2   5 5.07286 0.23890   1
   0   2   5 785.625 11.4709   1
   0   2   5 46.5228 0.91916   2
   1   2   5 106.849 1.46156   1
   1   2   5 5.96945 0.27342   2
   2   2   5 323.097 3.95345   1
   2   2   5 17.7098 0.37810   2
   3   2   5 48.9821 0.82307   1
   3   2   5 2.33301 0.15528   2
   4   2   4 55.6998 2.66480  -2
   3   2   5 55.6998 2.66480   1
   4   2   5 2225.68 37.2828   1
   5   2   4 2435.79 45.1472  -2
   4   2   5 2435.79 45.1472   1
   5   2   5 6.53367 0.29279   1
   5   2   5 0.20148 0.35787   2
   6   2   5 2.08810 0.25915   2
   6   2   5 37.9597 0.77487   1
   7   2   5 23.3796 0.65907   1
   7   2   5 1.17701 0.32349   2
   8   2   5 13.7421 0.68229   2
   9   2   3 250.751 4.45311  -2
   8   2   5 250.751 4.45311   1
   9   2   5 2.67493 0.63528   2
  10   2   3 38.5231 2.43024  -2
   9   2   5 38.5231 2.43024   1
   9   2   5 30.8717 1.47459   1
  10   2   5 64.1014 1.84139   1
  10   2   5 4.18824 0.78189   2
  11   2   5 2.59729 1.05521   2
  11   2   5 31.5828 1.77314   1
  13   2   2 242.096 9.49584  -2
  12   2   5 242.096 9.49584   1
  12   2   5 10.1979 1.77085   2
  12   2   5 227.644 6.88075   1
  14   2   2 17.2558 4.29511  -2
  13   2   5 17.2558 4.29511   1
  13   2   5 -1.4667 2.91033   2
 -15   3   5 3.10253 2.05686   1
 -14   3   5 100.146 3.50778   1
 -13   3   5 3.02215 1.31515   2
 -13   3   5 58.9369 2.37253   1
 -12   3   5 1.84650 0.96027   2
 -12   3   5 31.2209 1.56927   1
 -11   3   5 120.807 2.61871   1
 -11   3   5 6.70347 0.94386   2
 -10   3   5 3.40278 1.46206   2
 -10   3   5 64.8964 1.91254   1
  -9   3   5 74.3769 1.58687   1
  -9   3   5 4.45709 0.75689   2
  -8   3   5 1.45005 0.32019   2
  -8   3   5 19.6876 0.81547   1
  -7   3   5 4.48380 0.52912   2
  -7   3   5 88.8468 2.54963   1
  -6   3   5 2.74885 0.26445   1
  -6   3   5 0.39292 0.28527   2
  -5   3   5 2.96786 0.21204   2
  -5   3   5 50.0207 1.15620   1
  -4   3   5 -0.0945 0.11787   2
  -4   3   5 0.90019 0.12278   1
  -3   3   5 35.7049 0.77253   2
  -3   3   5 616.657 9.96846   1
  -2   3   5 145.840 2.99613   2
  -2   3   5 2979.66 48.0541   1
  -1   3   5 508.014 7.09569   1
  -1   3   5 27.2992 0.71389   2
   0   3   5 69.0464 0.94980   1
   0   3   5 3.63741 0.17216   2
   1   3   5 78.8727 1.17960   1
   1   3   5 4.18211 0.17696   2
   2   3   5 2522.42 30.0290   1
   2   3   5 149.492 2.24896   2
   3   3   5 162.705 2.17929   1
   3   3   5 9.76614 0.29384   2
   5   3   4 77.0712 1.59900  -2
   4   3   5 77.0712 1.59900   1
   4   3   5 69.1097 1.56050   1
   5   3   5 136.692 1.91223   1
   5   3   5 9.86177 0.77663   2
   6   3   5 321.137 4.48125   1
   6   3   5 17.5807 0.54547   2
   7   3   5 55.1945 1.20685   1
   7   3   5 3.26670 0.38624   2
   8   3   5 2.75127 0.51610   2
   9   3   3 64.0318 1.91221  -2
   8   3   5 64.0318 1.91221   1
   9   3   5 1.50067 0.67738   2
  10   3   3 11.8474 1.98196  -2
   9   3   5 11.8474 1.98196   1
   9   3   5 5.31894 1.61827   1
  10   3   5 1.71644 0.77885   2
  10   3   5 13.5755 1.02709   1
  11   3   5 0.42795 1.09651   2
  11   3   5 19.1109 1.52536   1
  12   3   5 -1.0202 1.90455   2
  12   3   5 11.0346 2.44667   1
  13   3   2 9.95527 5.45461  -2
  12   3   5 9.95527 5.45461   1
  13   3   5 3.87715 3.02941   2
  14   3   2 54.7964 4.69010  -2
  13   3   5 54.7964 4.69010   1
 -15   4   5 14.8779 2.24523   1
 -14   4   5 110.208 3.66897   1
 -13   4   5 0.94331 1.32804   2
 -13   4   5 5.15475 1.41623   1
 -12   4   5 0.46006 0.99158   2
 -12   4   5 17.3142 1.31002   1
 -11   4   5 15.7958 1.22373   2
 -11   4   5 269.914 4.65725   1
 -10   4   5 13.6534 0.77569   1
 -10   4   5 1.18227 1.39231   2
  -9   4   5 42.2358 1.04537   1
  -9   4   5 2.92589 0.51842   2
  -8   4   5 0.14680 0.34961   2
  -8   4   5 6.48652 0.91930   1
  -7   4   5 1274.68 22.4352   1
  -7   4   5 72.8505 1.70502   2
  -6   4   5 0.90930 0.28134   2
  -6   4   5 17.5756 0.58025   1
  -5   4   5 53.6538 1.21949   1
  -5   4   5 3.12507 0.20451   2
  -4   4   5 365.037 5.93526   1
  -4   4   5 20.1274 0.49626   2
  -3   4   5 2.60905 0.18603   2
  -3   4   5 48.6002 0.93916   1
  -2   4   5 2.18175 0.16917   1
  -2   4   5 -0.0932 0.15027   2
  -1   4   5 37.3307 0.91694   2
  -1   4   5 654.528 9.72306   1
   0   4   5 1709.15 25.2353   1
   0   4   5 96.9208 2.04048   2
   1   4   5 49.4649 0.79476   1
   1   4   5 2.41354 0.15743   2
   2   4   5 16.7083 0.40311   2
   2   4   5 279.099 3.43994   1
   3   4   5 12.7883 0.39830   2
   3   4   5 204.431 2.58080   1
   4   4   5 301.914 5.81009   1
   5   4   4 319.559 5.62211  -2
   4   4   5 319.559 5.62211   1
   5   4   5 5.78128 0.29199   1
   5   4   5 6.40395 1.19911   2
   6   4   5 5.68726 0.35035   1
   6   4   5 0.55961 0.22902   2
   7   4   5 664.049 8.98767   1
   7   4   5 37.2956 0.87196   2
   8   4   5 1.16610 0.56423   2
   9   4   3 23.1425 1.52069  -2
   8   4   5 23.1425 1.52069   1
  10   4   3 323.277 6.19617  -2
   9   4   5 323.277 6.19617   1
   9   4   5 17.7150 1.00776   2
   9   4   5 328.041 13.7936   1
  10   4   5 1.81769 0.95002   1
  10   4   5 1.27380 0.87314   2
  11   4   5 3.09595 1.19888   2
  11   4   5 74.6450 3.33933   1
  12   4   5 3.92315 2.42401   1
  12   4   5 0.36415 1.95653   2
  13   4   2 -0.8106 7.87734  -2
  12   4   5 -0.8106 7.87734   1
  14   4   2 60.0334 4.81259  -2
  13   4   5 60.0334 4.81259   1
  13   4   5 3.37554 3.50914   2
 -15   5   5 6.82856 3.91961   2
 -15   5   5 4.23005 3.76102   1
 -14   5   5 59.0423 3.09235   1
 -13   5   5 146.224 3.87809   1
 -13   5   5 7.47983 1.50544   2
 -12   5   5 47.4029 2.24413   1
 -12   5   5 3.36102 1.30189   2
 -11   5   5 7.16309 1.07936   1
 -11   5   5 0.74539 0.95836   2
 -10   5   5 -0.0139 1.21399   2
 -10   5   5 3.13624 0.84102   1
  -9   5   5 22.3685 0.87581   2
  -9   5   5 365.661 6.16493   1
  -8   5   5 19.3365 0.74833   2
  -8   5   5 277.920 5.57789   1
  -7   5   5 10.1181 0.65606   2
  -7   5   5 149.336 3.95839   1
  -6   5   5 567.483 11.6562   1
  -6   5   5 30.0775 0.96294   2
  -5   5   5 1195.84 19.0041   1
  -5   5   5 67.1685 1.76658   2
  -4   5   5 124.211 2.15735   1
  -4   5   5 7.28107 0.28872   2
  -3   5   5 33.5064 0.74671   2
  -3   5   5 553.771 8.87701   1
  -2   5   5 2.02164 0.20836   2
  -2   5   5 42.2525 0.82572   1
  -1   5   5 296.077 4.13691   1
  -1   5   5 17.3849 0.38819   2
   0   5   5 193.048 2.59836   1
   0   5   5 11.4736 0.31557   2
   1   5   5 0.08909 0.11671   2
   1   5   5 1.80107 0.16220   1
   2   5   5 0.86179 0.14430   2
   2   5   5 14.6442 0.36292   1
   3   5   5 146.969 2.01917   1
   3   5   5 8.85892 0.33876   2
   5   5   4 174.573 3.23394  -2
   4   5   5 174.573 3.23394   1
   4   5   5 141.795 2.61708   1
   5   5   5 11.1400 0.45359   1
   6   5   5 475.633 7.51671   1
   6   5   5 27.9089 0.71972   2
   7   5   5 20.3744 0.65270   2
   7   5   5 342.761 5.20187   1
   8   5   5 19.1916 0.88532   2
   9   5   3 371.769 6.26221  -2
   8   5   5 371.769 6.26221   1
  10   5   3 224.405 5.24291  -2
   9   5   5 224.405 5.24291   1
   9   5   5 12.6945 1.15173   2
   9   5   5 211.207 6.76282   1
  10   5   5 0.95249 0.97365   2
  10   5   5 47.1021 2.07975   1
  11   5   5 3.55552 1.24940   2
  11   5   5 67.4119 3.70863   1
  12   5   5 2.81802 2.05268   2
  12   5   5 28.9939 2.89794   1
  13   5   2 28.9587 5.72010  -2
  12   5   5 28.9587 5.72010   1
  14   5   2 162.536 5.93074  -2
  13   5   5 162.536 5.93074   1
  13   5   5 10.9810 3.21038   2
 -14   6   5 14.1353 1.99951   1
 -13   6   5 -0.0758 1.37673   2
 -13   6   5 3.87064 1.49520   1
 -12   6   5 218.140 5.36875   1
 -12   6   5 13.6593 1.67771   2
 -11   6   5 240.219 5.13661   1
 -11   6   5 14.5072 1.44582   2
 -10   6   5 3.62010 1.34561   2
 -10   6   5 56.4053 1.85751   1
  -9   6   5 1.55928 0.47034   2
  -9   6   5 20.1393 1.08533   1
  -8   6   5 10.0059 1.02785   1
  -8   6   5 0.67336 0.40509   2
  -7   6   5 16.5498 0.73131   2
  -7   6   5 265.472 5.62871   1
  -6   6   5 293.447 6.27605   1
  -6   6   5 14.6526 0.89600   2
  -5   6   5 29.1640 1.02523   2
  -5   6   5 536.858 8.66940   1
  -4   6   5 62.1453 1.18904   1
  -4   6   5 3.62163 0.26525   2
  -3   6   5 1356.30 21.4998   1
  -3   6   5 86.9121 1.66656   2
  -2   6   5 826.628 14.7201   1
  -2   6   5 51.6215 1.04420   2
  -1   6   5 0.11280 0.15935   2
  -1   6   5 1.31971 0.17011   1
   0   6   5 1.86675 0.15613   2
   0   6   5 35.5321 0.65539   1
   1   6   5 1.79188 0.15237   2
   1   6   5 25.6312 0.59926   1
   2   6   5 17.4694 0.45223   2
   2   6   5 287.528 4.56554   1
   3   6   5 28.7196 0.66643   2
   3   6   5 479.968 7.52346   1
   4   6   4 530.771 19.7509  -2
   3   6   5 530.771 19.7509   1
   5   6   4 595.787 16.6592  -2
   4   6   5 595.787 16.6592   1
   4   6   5 543.778 14.4524   1
   5   6   5 398.641 5.56346   1
   5   6   5 14.8341 0.95516   2
   6   6   5 1.72240 0.39170   2
   6   6   5 24.2467 0.74763   1
   7   6   5 6.83009 0.55758   2
   7   6   5 121.180 2.15481   1
   8   6   5 4.58540 0.74565   2
   9   6   3 75.7805 2.61777  -2
   8   6   5 75.7805 2.61777   1
   9   6   5 3.49987 0.99678   2
  10   6   3 68.8822 2.77976  -2
   9   6   5 68.8822 2.77976   1
   9   6   5 63.4612 5.53232   1
  10   6   5 0.47913 1.10446   2
  10   6   5 0.39937 1.08212   1
  11   6   5 13.3923 1.92989   2
  11   6   5 229.963 6.79112   1
  12   6   5 115.189 4.45072   1
  12   6   5 8.07885 2.23447   2
  13   6   2 107.204 10.0504  -2
  12   6   5 107.204 10.0504   1
  13   6   5 6.46577 3.83828   2
  14   6   2 54.6773 5.12039  -2
  13   6   5 54.6773 5.12039   1
 -14   7   5 56.8217 3.11588   1
 -13   7   5 1.76116 1.53245   1
 -13   7   5 1.01699 1.69678   2
 -12   7   5 7.70814 2.72944   1
 -12   7   5 -5.5035 3.06706   2
 -11   7   5 500.465 9.43795   1
 -11   7   5 30.3346 1.82858   2
 -10   7   5 7.12981 2.11417   2
 -10   7   5 155.299 3.18531   1
  -9   7   5 31.1918 1.13604   2
  -9   7   5 533.751 8.81912   1
  -8   7   5 49.2542 1.60598   1
  -8   7   5 2.73666 0.48232   2
  -7   7   5 21.1442 1.13714   1
  -7   7   5 0.90252 0.40803   2
  -6   7   5 -0.1546 0.40487   2
  -6   7   5 0.14185 0.52070   1
  -5   7   5 419.106 7.55816   1
  -5   7   5 21.5628 0.95876   2
  -4   7   5 34.1725 0.75219   1
  -4   7   5 1.50800 0.21159   2
  -3   7   5 3.57899 0.28968   2
  -3   7   5 68.5276 1.27035   1
  -2   7   5 48.5161 1.19276   2
  -2   7   5 777.478 13.8781   1
  -1   7   5 111.546 1.84318   1
  -1   7   5 5.66295 0.35956   2
   0   7   5 16.7878 0.55854   2
   0   7   5 249.896 3.83599   1
   1   7   5 8.34085 0.34076   2
   1   7   5 150.469 2.75975   1
   2   7   5 85.7921 1.87223   2
   2   7   5 1259.06 19.3185   1
   3   7   5 608.548 9.47981   1
   3   7   5 36.7405 0.79687   2
   4   7   4 618.072 22.9528  -2
   3   7   5 618.072 22.9528   1
   5   7   4 23.1494 1.23427  -2
   4   7   5 23.1494 1.23427   1
   4   7   5 19.4311 1.93988   1
   5   7   5 318.403 5.71404   1
   6   7   5 6.85760 0.52282   2
   6   7   5 117.297 2.06041   1
   7   7   5 11.0456 0.65390   1
   7   7   5 0.04761 0.68409   2
   8   7   5 2.22448 0.72533   2
   9   7   3 56.0990 2.20037  -2
   8   7   5 56.0990 2.20037   1
   9   7   5 372.092 15.5086   1
   9   7   5 19.5282 1.38416   2
  10   7   3 379.817 8.07723  -2
   9   7   5 379.817 8.07723   1
  10   7   5 3.98175 1.21248   1
  10   7   5 -0.4293 1.10535   2
  11   7   5 13.7177 1.98027   2
  11   7   5 234.395 6.03620   1
  12   7   5 25.9330 2.63691   1
  12   7   5 3.01652 1.80003   2
  13   7   2 58.5377 8.98770  -2
  12   7   5 58.5377 8.98770   1
 -14   8   5 100.869 4.01905   1
 -14   8   5 5.37488 5.21553   2
 -13   8   5 1.03919 1.80599   2
 -13   8   5 3.47433 1.85987   1
 -12   8   5 1.33785 1.47009   2
 -12   8   5 29.6746 2.14421   1
 -11   8   5 -1.9332 1.19233   2
 -11   8   5 1.23099 1.23700   1
 -10   8   5 4.75452 0.94540   1
 -10   8   5 0.79463 2.06770   2
  -9   8   5 1.08700 0.86445   1
  -9   8   5 -1.0867 0.69620   2
  -8   8   5 117.442 2.73604   1
  -8   8   5 6.96384 0.77825   2
  -7   8   5 94.0513 2.27002   1
  -7   8   5 5.84231 0.54201   2
  -6   8   5 -0.1368 0.47251   2
  -6   8   5 0.28273 0.56024   1
  -5   8   5 4.51860 0.68465   2
  -5   8   5 86.6844 1.95333   1
  -4   8   5 307.339 6.11613   1
  -4   8   5 15.9412 0.59690   2
  -3   8   5 16.1752 0.74697   2
  -3   8   5 375.300 8.84647   1
  -2   8   5 13.1007 0.55543   1
  -2   8   5 0.23071 0.28642   2
  -1   8   5 52.0174 1.65700   2
  -1   8   5 694.218 11.1662   1
   0   8   5 78.0389 2.26223   2
   0   8   5 1877.52 27.8676   1
   1   8   5 6.04715 0.36435   2
   1   8   5 74.5103 1.39211   1
   2   8   5 345.460 5.46801   1
   2   8   5 20.3710 0.60414   2
   3   8   5 41.0015 1.06499   2
   3   8   5 709.083 15.6547   1
   4   8   4 691.358 26.5036  -2
   3   8   5 691.358 26.5036   1
   5   8   4 515.078 10.1011  -2
   4   8   5 515.078 10.1011   1
   4   8   5 507.557 18.5797   1
   5   8   5 26.6757 0.86360   1
   6   8   5 0.65503 0.40842   2
   6   8   5 2.15627 0.43635   1
   7   8   5 6.28507 0.83324   1
   7   8   5 -0.1663 0.58639   2
   8   8   5 1.59978 0.88694   2
   9   8   3 25.4414 1.97301  -2
   8   8   5 25.4414 1.97301   1
   9   8   5 7.27384 1.21621   2
  10   8   3 99.0546 3.33434  -2
   9   8   5 99.0546 3.33434   1
   9   8   5 86.4024 6.69650   1
  10   8   5 8.67929 1.60965   1
  10   8   5 0.32318 1.51778   2
  11   8   5 1.76316 1.68071   2
  11   8   5 6.28599 1.93149   1
  12   8   5 3.86152 2.34865   1
  12   8   5 0.74319 1.91588   2
 -14   9   5 184.810 5.74922   1
 -13   9   5 20.9533 2.34765   1
 -13   9   5 2.97428 1.95773   2
 -12   9   5 129.889 4.16763   1
 -12   9   5 8.48744 1.89613   2
 -11   9   5 2.80978 1.39906   2
 -11   9   5 28.2479 1.83705   1
 -10   9   5 3.68256 2.78171   2
 -10   9   5 76.8967 2.23372   1
  -9   9   5 8.77208 0.94061   2
  -9   9   5 142.587 3.38435   1
  -8   9   5 265.183 6.00967   1
  -8   9   5 16.1384 1.05130   2
  -7   9   5 1.72538 0.66461   2
  -7   9   5 23.7333 1.31581   1
  -6   9   5 754.707 16.8265   1
  -6   9   5 38.6069 1.43587   2
  -5   9   5 159.228 3.36619   1
  -5   9   5 8.76567 0.44113   2
  -4   9   5 84.8114 2.32491   1
  -4   9   5 5.11562 0.38713   2
  -3   9   5 9.34520 0.54200   2
  -3   9   5 179.202 4.45922   1
  -2   9   5 244.830 5.94714   1
  -2   9   5 8.51704 0.85628   2
  -1   9   5 1.15086 0.23866   1
  -1   9   5 -0.2172 0.29959   2
   0   9   5 16.7852 0.60139   1
   0   9   5 0.72011 0.22946   2
   1   9   5 10.3098 0.45929   2
   1   9   5 186.428 3.46171   1
   2   9   5 650.449 12.4185   1
   2   9   5 40.0333 1.22416   2
   3   9   5 15.0677 0.69354   2
   4   9   4 256.773 7.19745  -2
   3   9   5 256.773 7.19745   1
   3   9   5 252.586 7.08070   1
   5   9   4 33.0132 1.60078  -2
   4   9   5 33.0132 1.60078   1
   4   9   5 13.4610 1.38746   1
   5   9   5 3.08460 0.43686   1
   6   9   5 25.6357 1.10204   2
   6   9   5 487.278 7.83841   1
   7   9   5 10.5644 0.82594   2
   7   9   5 176.427 3.68049   1
   9   9   3 354.336 6.78247  -2
   8   9   5 354.336 6.78247   1
   8   9   5 18.9146 1.39698   2
   9   9   5 3.07561 1.14545   2
  10   9   3 54.9697 2.87908  -2
   9   9   5 54.9697 2.87908   1
   9   9   5 22.8581 4.04560   1
  10   9   5 35.2093 2.12551   1
  10   9   5 1.12904 1.57000   2
  11   9   5 2.60076 1.83116   2
  11   9   5 29.6981 2.07461   1
  12   9   5 7.23904 2.78699   1
  12   9   5 -1.8469 2.38550   2
 -13  10   5 3.46084 2.15152   2
 -13  10   5 17.0784 2.59261   1
 -12  10   5 0.50331 1.68379   2
 -12  10   5 14.8252 2.18240   1
 -11  10   5 96.8479 3.62160   1
 -11  10   5 3.99442 2.65648   2
 -10  10   5 25.7772 1.49076   1
 -10  10   5 -1.6502 2.75668   2
  -9  10   5 6.29884 1.09601   1
  -9  10   5 -0.1011 0.80156   2
  -8  10   5 0.72874 0.75372   2
  -8  10   5 8.75099 1.24180   1
  -7  10   5 113.653 2.94907   1
  -7  10   5 6.78891 0.79577   2
  -6  10   5 337.683 7.07883   1
  -6  10   5 20.5701 1.15690   2
  -5  10   5 32.6044 1.01255   2
  -5  10   5 502.159 9.88855   1
  -4  10   5 5.52272 0.45481   2
  -4  10   5 87.8385 2.48144   1
  -3  10   5 46.6899 2.37813   2
  -3  10   5 1081.95 24.8275   1
  -2  10   5 16.8360 1.20519   2
  -2  10   5 428.395 10.1136   1
  -1  10   5 27.1607 0.79372   1
  -1  10   5 1.56860 0.30977   2
   0  10   5 19.3974 0.95632   2
   0  10   5 508.148 9.16220   1
   1  10   5 0.34825 0.24303   2
   1  10   5 3.44412 0.35854   1
   2  10   5 111.325 2.47387   1
   2  10   5 5.72303 0.46644   2
   3  10   5 56.2394 1.70177   1
   3  10   5 3.00690 0.62639   2
   4  10   4 81.5070 2.76042  -2
   3  10   5 81.5070 2.76042   1
   5  10   4 31.1060 2.17110  -2
   4  10   5 31.1060 2.17110   1
   4  10   5 6.21663 1.00536   1
   5  10   5 548.721 9.53367   1
   6  10   5 103.041 2.16066   1
   6  10   5 5.57635 0.65245   2
   7  10   5 1.47343 0.78237   2
   7  10   5 31.3707 1.51756   1
   8  10   5 -0.6942 1.07074   2
   9  10   3 9.88061 2.25381  -2
   8  10   5 9.88061 2.25381   1
   9  10   5 5.02156 1.38006   2
   9  10   5 78.8895 6.99843   1
  10  10   3 73.0898 3.64170  -2
   9  10   5 73.0898 3.64170   1
  10  10   5 1.63472 1.85718   2
  10  10   5 48.6998 2.51386   1
  11  10   5 6.83932 2.33970   2
  11  10   5 120.342 4.11749   1
  12  10   5 7.08495 3.75365   1
  12  10   5 3.04493 2.71166   2
  13  10   2 -5.6209 10.1525  -2
  12  10   5 -5.6209 10.1525   1
 -13  11   5 3.05020 2.44972   1
 -13  11   5 -1.9146 2.37382   2
 -12  11   5 17.9950 2.36017   1
 -12  11   5 -1.9807 1.77884   2
 -11  11   5 149.909 5.06011   1
 -11  11   5 6.40291 2.00067   2
 -10  11   5 76.2453 2.57477   1
 -10  11   5 0.11019 3.06803   2
  -9  11   5 36.9410 1.82948   2
  -9  11   5 658.229 11.9420   1
  -8  11   5 4.83026 0.88553   2
  -8  11   5 70.6909 2.61913   1
  -7  11   5 0.73368 0.75912   2
  -7  11   5 0.89899 0.65534   1
  -6  11   5 26.1547 1.75252   1
  -6  11   5 0.78837 0.64859   2
  -5  11   5 276.892 5.95200   1
  -5  11   5 19.7009 0.87235   2
  -4  11   5 390.186 9.34313   1
  -4  11   5 29.8494 1.22130   2
  -3  11   5 0.31507 0.41641   1
  -3  11   5 -0.2080 0.34670   2
  -2  11   5 1.26668 0.42280   2
  -2  11   5 15.3006 1.04433   1
  -1  11   5 28.4081 0.93189   1
  -1  11   5 1.48520 0.50917   2
   0  11   5 1.68887 0.34552   2
   0  11   5 34.5998 1.31181   1
   1  11   5 11.7802 0.76232   2
   1  11   5 245.965 4.71036   1
   2  11   5 0.18227 0.36144   2
   2  11   5 7.75443 0.85926   1
   3  11   5 4.76012 0.61378   2
   4  11   4 105.629 5.12219  -2
   3  11   5 105.629 5.12219   1
   3  11   5 98.1055 4.94383   1
   5  11   4 67.2495 2.55955  -2
   4  11   5 67.2495 2.55955   1
   4  11   5 69.2200 3.76425   1
   5  11   5 333.049 5.99162   1
   6  11   5 3.50359 0.76551   2
   6  11   5 65.1752 2.13950   1
   7  11   5 69.3991 2.18968   1
   7  11   5 4.06115 0.93828   2
   8  11   5 6.68179 1.28138   2
   9  11   3 105.067 3.89135  -2
   8  11   5 105.067 3.89135   1
   9  11   5 19.1252 2.19475   2
  10  11   3 379.509 17.7973  -2
   9  11   5 379.509 17.7973   1
  10  11   5 -1.5205 1.84498   2
  10  11   5 9.27161 1.67081   1
  11  11   5 271.017 6.58949   1
  11  11   5 14.3291 2.77496   2
 -13  12   5 32.8280 3.27590   1
 -13  12   5 2.34309 2.66675   2
 -12  12   5 5.72864 2.25971   1
 -12  12   5 0.18552 2.22395   2
 -11  12   5 0.62068 2.28901   2
 -11  12   5 21.1751 2.28776   1
 -10  12   5 225.972 5.35883   1
 -10  12   5 7.89267 3.45337   2
  -9  12   5 33.5554 2.14334   1
  -9  12   5 3.55967 1.17365   2
  -8  12   5 170.832 4.47877   1
  -8  12   5 9.61313 1.03095   2
  -7  12   5 53.9720 2.29276   1
  -7  12   5 2.34801 1.05197   2
  -6  12   5 8.67312 0.88082   2
  -6  12   5 158.854 4.72093   1
  -5  12   5 1.24172 0.43550   2
  -5  12   5 34.6045 1.36889   1
  -4  12   5 6.47670 0.67353   1
  -4  12   5 0.81690 0.50444   2
  -3  12   5 461.052 9.56245   1
  -3  12   5 38.3431 1.53809   2
  -2  12   5 0.85443 0.41159   2
  -2  12   5 9.81614 0.97615   1
  -1  12   5 194.715 4.36158   1
  -1  12   5 5.65808 1.49944   2
   0  12   5 240.709 9.61266  -2
  -1  12   5 240.709 9.61266   1
   0  12   5 28.7084 1.52372   2
   0  12   5 712.571 12.7836   1
   1  12   5 5.51013 0.54622   2
   1  12   5 94.9538 1.94654   1
   2  12   5 260.927 6.12325   1
   2  12   5 12.2789 0.93338   2
   4  12   4 260.350 5.51951  -2
   3  12   5 260.350 5.51951   1
   3  12   5 13.4000 0.92415   2
   5  12   4 54.0339 2.02444  -2
   4  12   5 54.0339 2.02444   1
   5  12   5 13.5591 1.00711   1
   6  12   5 5.48182 0.88182   2
   6  12   5 115.069 3.53548   1
   7  12   5 9.02211 1.27817   1
   7  12   5 -0.7592 1.05116   2
   8  12   5 0.29014 1.29687   2
   9  12   3 5.11249 2.72943  -2
   8  12   5 5.11249 2.72943   1
   9  12   5 -1.5437 1.48553   2
  10  12   3 9.39449 5.90415  -2
   9  12   5 9.39449 5.90415   1
  10  12   5 170.932 5.48328   1
  10  12   5 4.82384 2.22473   2
  11  12   5 34.5619 2.73805   1
  11  12   5 1.68306 2.58635   2
 -12  13   5 4.47005 2.41367   2
 -12  13   5 45.2148 3.28925   1
 -11  13   5 17.7954 2.30935   1
 -11  13   5 1.81044 4.25255   2
 -10  13   5 36.3082 2.46385   1
  -9  13   5 1.38837 1.16670   2
  -9  13   5 0.92960 1.17122   1
  -8  13   5 40.3459 2.31421   1
  -8  13   5 2.59696 1.06216   2
  -7  13   5 2.00418 1.14836   2
  -7  13   5 43.7004 2.22040   1
  -6  13   5 187.468 5.42464   1
  -6  13   5 11.1106 1.29706   2
  -5  13   5 13.3266 0.93732   1
  -5  13   5 1.18356 1.07018   2
  -4  13   5 522.596 10.6459   1
  -4  13   5 41.4793 1.76002   2
  -3  13   5 3.44647 0.62209   2
  -3  13   5 48.2485 2.28851   1
  -2  13   5 9.32093 0.79099   1
  -2  13   5 0.27179 0.74346   2
  -1  13   5 231.634 4.51834   1
  -1  13   5 6.96318 1.41554   2
   0  13   5 229.993 9.34000  -2
  -1  13   5 229.993 9.34000   1
   0  13   5 0.52123 0.50123   2
   0  13   5 2.69042 0.47485   1
   1  13   5 562.214 10.2612   1
   1  13   5 25.6211 1.40935   2
   2  13   5 112.617 2.71480   1
   2  13   5 5.69136 0.70434   2
   4  13   4 14.5625 1.59862  -2
   3  13   5 14.5625 1.59862   1
   3  13   5 0.47151 0.63353   2
   5  13   4 116.842 3.08357  -2
   4  13   5 116.842 3.08357   1
   5  13   5 201.583 4.49904   1
   6  13   5 30.8127 1.64199   2
   6  13   5 545.616 12.7585   1
   7  13   5 13.0181 1.53577   1
   7  13   5 -0.3194 1.17494   2
   8  13   5 0.05817 2.01444   2
   9  13   3 27.5729 6.99771  -2
   8  13   5 27.5729 6.99771   1
  10  13   3 32.2693 3.82731  -2
   9  13   5 32.2693 3.82731   1
   9  13   5 2.90328 1.89980   2
  10  13   5 -1.4312 2.32154   2
  10  13   5 14.4297 2.29175   1
  11  13   5 -0.3541 2.30399   1
  11  13   5 -3.4643 2.72111   2
 -12  14   5 1.45452 2.61072   2
 -12  14   5 0.27838 2.64703   1
 -11  14   5 18.0153 2.58325   1
 -11  14   5 1.52470 4.72813   2
 -10  14   5 -0.0547 3.84225   2
 -10  14   5 0.87123 1.51361   1
  -9  14   5 3.38466 1.47786   2
  -9  14   5 67.2118 2.90641   1
  -8  14   5 0.58722 1.44793   1
  -8  14   5 0.53388 1.07953   2
  -7  14   5 2.50863 1.29490   2
  -7  14   5 17.2757 1.58084   1
  -6  14   5 64.5260 2.99470   1
  -6  14   5 3.81267 1.15487   2
  -5  14   5 430.689 8.95743   1
  -5  14   5 18.4727 2.22032   2
  -4  14   5 70.8556 2.21502   1
  -4  14   5 4.91215 0.67458   2
  -3  14   5 5.61142 0.87459   2
  -3  14   5 92.7494 2.55776   1
  -2  14   5 15.3412 1.00534   1
  -2  14   5 0.45939 0.63260   2
  -1  14   5 117.436 3.47036   1
  -1  14   5 7.22876 0.81497   2
   0  14   5 143.632 6.49595  -2
  -1  14   5 143.632 6.49595   1
   0  14   5 19.8729 1.65422   2
   0  14   5 462.151 8.52626   1
   1  14   5 6.99826 0.73181   2
   1  14   5 128.102 3.18561   1
   2  14   5 87.3248 2.17631   1
   2  14   5 4.91446 0.73792   2
   3  14   5 2.29410 0.72229   2
   4  14   4 53.8440 2.19231  -2
   3  14   5 53.8440 2.19231   1
   5  14   4 79.1495 2.58043  -2
   4  14   5 79.1495 2.58043   1
   5  14   5 564.370 11.2952   1
   6  14   5 2.35695 1.03367   2
   6  14   5 55.7684 2.61122   1
   7  14   5 161.268 4.80495   1
   7  14   5 7.49525 1.46560   2
   9  14   3 12.4405 3.89876  -2
   8  14   5 12.4405 3.89876   1
   8  14   5 -1.3137 1.45628   2
   9  14   5 0.69109 1.98858   2
  10  14   3 0.82486 3.86051  -2
   9  14   5 0.82486 3.86051   1
  10  14   5 -2.2197 2.39614   2
  10  14   5 9.26631 2.38411   1
 -11  15   5 22.4781 2.84512   1
 -11  15   5 -1.6514 5.21783   2
 -10  15   5 42.4834 2.58593   1
 -10  15   5 -3.5344 4.16700   2
  -9  15   5 15.6271 1.97494   2
  -9  15   5 222.913 5.50425   1
  -8  15   5 5.41018 1.31451   2
  -8  15   5 84.7492 3.60650   1
  -7  15   5 2.82960 1.42116   2
  -7  15   5 9.64788 1.64716   1
  -6  15   5 2.61220 1.46484   1
  -6  15   5 -0.9012 1.28263   2
  -5  15   5 4.56652 1.37970   2
  -5  15   5 68.1452 3.03127   1
  -4  15   5 15.0231 1.24346   2
  -4  15   5 239.120 5.35683   1
  -3  15   5 0.87348 0.86147   2
  -3  15   5 14.1717 1.11651   1
  -2  15   5 209.110 4.68283   1
  -2  15   5 7.37092 1.64989   2
  -1  15   5 3.64084 0.74621   2
  -1  15   5 70.8233 3.60018   1
   0  15   5 67.2783 4.23179  -2
  -1  15   5 67.2783 4.23179   1
   0  15   5 37.9739 1.41349   1
   0  15   5 1.68727 1.45401   2
   1  15   5 448.339 8.24872   1
   1  15   5 15.7855 1.46652   2
   2  15   5 4.01407 0.78265   2
   2  15   5 59.2352 1.84029   1
   3  15   5 1.04911 0.76086   2
   4  15   4 3.17281 1.85565  -2
   3  15   5 3.17281 1.85565   1
   5  15   4 89.7095 2.87894  -2
   4  15   5 89.7095 2.87894   1
   5  15   5 1.37824 1.20214   1
   6  15   5 -0.2393 1.25532   2
   6  15   5 6.30126 1.37951   1
   7  15   5 64.2711 3.83354   1
   7  15   5 5.01494 1.81920   2
   8  15   5 3.44816 1.91623   2
   9  15   3 45.6962 3.94491  -2
   8  15   5 45.6962 3.94491   1
  10  15   3 41.4302 4.56506  -2
   9  15   5 41.4302 4.56506   1
   9  15   5 5.02695 2.35303   2
  10  15   5 13.6506 2.53793   1
  10  15   5 -0.6307 2.77775   2
 -11  16   5 20.6320 2.94389   1
 -11  16   5 -3.2325 5.01924   2
 -10  16   5 290.086 6.85250   1
 -10  16   5 18.8478 5.23644   2
  -9  16   5 1.40700 1.50755   2
  -9  16   5 5.74422 1.61714   1
  -8  16   5 220.205 7.22962   1
  -8  16   5 14.5229 1.99057   2
  -7  16   5 95.8485 3.78909   1
  -7  16   5 4.73073 1.71193   2
  -6  16   5 184.040 6.57425   1
  -6  16   5 10.5077 1.64216   2
  -5  16   5 54.1317 2.93457   1
  -5  16   5 1.35073 1.53449   2
  -4  16   5 5.18156 1.05052   2
  -4  16   5 67.1128 2.37033   1
  -3  16   5 3.54335 0.96675   2
  -3  16   5 55.7770 2.11832   1
  -2  16   5 16.7080 1.42555   1
  -2  16   5 0.99279 0.92647   2
  -1  16   5 -0.3769 1.46127   1
   0  16   5 6.14860 3.23535  -2
  -1  16   5 6.14860 3.23535   1
  -1  16   5 0.63318 0.99512   2
   0  16   5 0.71001 1.38936   2
   0  16   5 99.7635 2.88355   1
   1  16   5 0.25587 0.88043   2
   1  16   5 5.87793 0.86312   1
   2  16   5 5.77127 0.90310   2
   2  16   5 89.2082 2.37556   1
   3  16   5 -0.3443 0.83713   2
   4  16   4 8.44781 1.97582  -2
   3  16   5 8.44781 1.97582   1
   5  16   4 40.1848 2.34395  -2
   4  16   5 40.1848 2.34395   1
   5  16   5 53.4501 2.80995   1
   6  16   5 8.22016 1.62374   2
   6  16   5 222.863 6.17852   1
   7  16   5 47.4144 3.08020   1
   7  16   5 1.05113 1.85109   2
   9  16   3 11.6811 3.97006  -2
   8  16   5 11.6811 3.97006   1
   8  16   5 -0.8763 2.12633   2
   9  16   5 0.17780 2.53057   2
  10  16   3 27.0226 4.80974  -2
   9  16   5 27.0226 4.80974   1
 -10  17   5 31.8297 2.42695   1
  -9  17   5 0.26914 1.71902   1
  -9  17   5 1.03064 1.68531   2
  -8  17   5 57.9889 2.95274   1
  -8  17   5 4.34765 1.55969   2
  -7  17   5 3.40724 1.44846   2
  -7  17   5 55.9078 3.41183   1
  -6  17   5 2.64783 1.64284   1
  -6  17   5 0.35826 1.97733   2
  -5  17   5 6.45447 1.62935   2
  -5  17   5 83.9458 4.10006   1
  -4  17   5 462.538 9.67969   1
  -4  17   5 28.8688 2.62059   2
  -3  17   5 0.08695 1.03938   2
  -3  17   5 2.67081 1.26390   1
  -2  17   5 45.7432 2.45945   1
  -2  17   5 4.56754 1.22082   2
  -1  17   5 337.254 11.1621   1
  -1  17   5 12.7201 2.14203   2
   0  17   5 344.076 13.8777  -2
  -1  17   5 344.076 13.8777   1
   0  17   5 32.1873 1.85100   1
   0  17   5 1.18384 1.57882   2
   1  17   5 368.788 7.89688   1
   1  17   5 15.3563 2.23744   2
   2  17   5 13.8614 1.13204   1
   2  17   5 1.88007 0.96968   2
   3  17   5 1.67370 0.96847   2
   4  17   4 12.6650 2.21434  -2
   3  17   5 12.6650 2.21434   1
   5  17   4 90.9746 3.49015  -2
   4  17   5 90.9746 3.49015   1
   5  17   5 40.1047 2.73332   1
   6  17   5 7.90141 1.78229   2
   6  17   5 122.257 4.33033   1
   7  17   5 9.59586 1.99008   1
   7  17   5 0.52809 1.91040   2
   8  17   5 -1.5513 2.09177   2
   9  17   3 10.7066 4.49705  -2
   8  17   5 10.7066 4.49705   1
   9  17   5 1.97495 2.66291   1
   9  17   5 1.56863 2.49730   2
 -10  18   5 2.24983 2.20917   1
  -9  18   5 81.5359 3.70820   1
  -9  18   5 6.34785 2.15283   2
  -8  18   5 12.0086 1.86690   1
  -8  18   5 -1.0400 1.70852   2
  -7  18   5 132.588 4.84848   1
  -7  18   5 8.70009 1.61548   2
  -6  18   5 1.75597 1.76583   2
  -6  18   5 3.28814 1.87435   1
  -5  18   5 11.4992 2.38336   2
  -4  18   5 3.73255 2.55350   2
  -4  18   5 23.1337 2.18526   1
  -3  18   5 -0.7987 1.39672   2
  -3  18   5 9.03041 1.51113   1
  -2  18   5 59.6197 2.89724   1
  -2  18   5 2.59996 1.38648   2
  -1  18   5 6.93215 1.47600   2
  -1  18   5 104.169 6.50885   1
   0  18   5 104.405 5.19053  -2
  -1  18   5 104.405 5.19053   1
   0  18   5 97.1072 4.32853   1
   0  18   5 3.99230 2.29664   2
   1  18   5 8.35247 1.33481   2
   1  18   5 90.9415 2.86447   1
   2  18   5 0.79480 1.03014   2
   2  18   5 7.16209 1.18843   1
   4  18   4 77.8928 3.76084  -2
   3  18   5 77.8928 3.76084   1
   3  18   5 6.73991 1.30808   2
   5  18   4 31.8464 3.71505  -2
   4  18   5 31.8464 3.71505   1
   5  18   5 217.213 6.48047   1
   6  18   5 1.14563 1.68391   2
   6  18   5 0.62728 1.77667   1
   7  18   5 286.422 7.87256   1
   7  18   5 15.6011 2.49238   2
   8  18   5 0.64944 2.57858   2
   9  18   3 8.06655 5.63643  -2
   8  18   5 8.06655 5.63643   1
  -9  19   5 5.32696 2.30625   2
  -9  19   5 46.5741 3.27895   1
  -8  19   5 2.76657 2.04899   2
  -8  19   5 1.13988 2.38717   1
  -7  19   5 11.5438 2.78717   1
  -7  19   5 -0.5848 1.97967   2
  -6  19   5 20.0115 2.92763   1
  -6  19   5 2.04858 1.80823   2
  -5  19   5 -0.9884 2.76761   1
  -5  19   5 -0.9591 2.38038   2
  -4  19   5 3.42011 2.15431   2
  -4  19   5 96.9082 6.69486   1
  -3  19   5 4.31579 2.08902   2
  -3  19   5 56.2376 4.42613   1
  -2  19   5 114.645 4.64445   1
  -2  19   5 8.55671 1.80647   2
  -1  19   5 159.626 8.75551   1
   0  19   5 167.470 6.87770  -2
  -1  19   5 167.470 6.87770   1
  -1  19   5 10.1140 1.77028   2
   0  19   5 -1.0764 2.53180   2
   0  19   5 6.50448 1.90173   1
   1  19   5 32.7695 2.50651   2
   1  19   5 431.201 9.25998   1
   2  19   5 5.17505 1.49007   2
   2  19   5 77.2943 2.88095   1
   3  19   5 4.18134 1.73182   2
   4  19   4 44.8358 5.18756  -2
   3  19   5 44.8358 5.18756   1
   5  19   4 111.724 4.94646  -2
   4  19   5 111.724 4.94646   1
   5  19   5 54.8349 3.46935   1
   6  19   5 7.79322 2.00507   1
   6  19   5 -1.3425 2.41183   2
   7  19   5 39.7937 2.76534   1
   7  19   5 1.18764 2.81529   2
  -8  20   5 105.486 5.56156   1
  -8  20   5 6.53509 2.74464   2
  -7  20   5 1.95900 2.33208   2
  -7  20   5 14.2373 2.69944   1
  -6  20   5 60.0805 6.76333   1
  -6  20   5 3.75361 2.17343   2
  -5  20   5 12.9287 3.79236   1
  -5  20   5 1.98914 3.23033   2
  -4  20   5 3.15411 2.88602   2
  -4  20   5 45.0541 5.89004   1
  -3  20   5 0.23861 2.85335   2
  -3  20   5 13.3602 2.45756   1
  -2  20   5 0.63909 1.85728   2
  -2  20   5 -1.0052 2.65996   1
  -1  20   5 6.33201 3.10761   2
  -1  20   5 135.337 8.26739   1
   0  20   5 40.7896 2.63863   1
   1  20   5 3.03980 1.59262   2
   1  20   5 30.6182 2.74351   1
   2  20   5 5.79307 1.66050   2
   2  20   5 72.9195 3.02713   1
   3  20   5 7.85361 1.64263   2
   4  20   4 129.433 5.55733  -2
   3  20   5 129.433 5.55733   1
   5  20   4 56.3228 4.35306  -2
   4  20   5 56.3228 4.35306   1
   6  20   4 30.8651 5.72100  -2
   5  20   5 30.8651 5.72100   1
   5  20   5 35.5100 5.28894   1
   6  20   5 74.9195 4.42785   1
   6  20   5 7.60631 3.00871   2
  -7  21   5 -1.5663 2.42788   2
  -7  21   5 8.70134 2.72744   1
  -6  21   5 -0.9323 2.41728   2
  -6  21   5 11.9882 2.57316   1
  -5  21   5 -3.6544 2.00169   2
  -5  21   5 -2.9688 3.52836   1
  -4  21   5 350.521 16.7292   1
  -4  21   5 4.58972 3.49129   2
  -3  21   5 2.68801 3.47108   2
  -3  21   5 39.6987 4.64177   1
  -2  21   5 64.8065 4.16083   1
  -2  21   5 3.39001 3.30828   2
  -1  21   5 3.95639 2.15703   2
   0  21   5 43.6448 6.04984  -2
  -1  21   5 43.6448 6.04984   1
   1  21   5 -5.5442 5.26699  -2
   0  21   5 -5.5442 5.26699   1
   0  21   5 9.92663 2.71336   1
   1  21   5 1.17551 2.48411   2
   1  21   5 18.9400 2.10039   1
   2  21   5 10.1042 1.79531   1
   2  21   5 2.09225 1.82595   2
   4  21   4 59.5230 5.85918  -2
   3  21   5 59.5230 5.85918   1
   3  21   5 4.16284 2.43689   2
   5  21   4 109.250 6.53958  -2
   4  21   5 109.250 6.53958   1
   5  21   5 18.3021 4.05098   1
  -5  22   5 93.1320 5.27499   1
  -5  22   5 5.49291 2.61277   2
  -4  22   5 -0.6438 2.20728   2
  -4  22   5 11.3429 4.08638   1
  -3  22   5 -3.6273 3.55836   2
  -3  22   5 8.86283 4.18706   1
  -2  22   5 4.28478 3.67250   2
  -2  22   5 136.701 6.35495   1
  -1  22   5 2.80710 3.20793   2
   0  22   5 -1.6707 4.38135  -2
  -1  22   5 -1.6707 4.38135   1
   1  22   5 0.56145 4.29511  -2
   0  22   5 0.56145 4.29511   1
   1  22   5 9.56884 2.18178   1
   2  22   5 8.07790 2.97573   1
   2  22   5 4.11118 2.06930   2
   4  22   4 6.09961 6.50279  -2
   3  22   5 6.09961 6.50279   1
   3  22   5 3.41941 3.08787   2
  -3  23   5 52.0604 6.29563   1
  -3  23   5 1.41305 4.18697   2
  -1  23   5 19.8915 7.14437  -2
  -2  23   5 19.8915 7.14437   1
   0  23   5 28.5736 5.10135  -2
  -1  23   5 28.5736 5.10135   1
   1  23   5 154.155 8.48396   1
 -15   0   6 -1.3311 3.07483   1
 -14   0   6 220.008 6.66248   1
 -14   0   6 11.4881 4.18112   2
 -13   0   6 1.51697 1.69395   2
 -13   0   6 -2.7245 1.74513   1
 -12   0   6 4.97284 1.43315   2
 -12   0   6 97.3948 3.63859   1
 -11   0   6 -0.1075 1.14757   2
 -11   0   6 1.31795 1.12990   1
 -10   0   6 62.7597 2.36025   1
 -10   0   6 3.81406 1.14821   2
  -9   0   6 0.40682 0.93485   1
  -9   0   6 -0.7888 0.82121   2
  -8   0   6 4.45746 0.38151   2
  -8   0   6 70.9857 1.92628   1
  -7   0   6 0.20120 0.27151   1
  -7   0   6 0.44362 0.22092   2
  -6   0   6 29.8927 0.90839   2
  -6   0   6 488.093 9.73703   1
  -5   0   6 -0.1637 0.17642   2
  -5   0   6 0.43871 0.19950   1
  -4   0   6 230.065 5.55976   1
  -4   0   6 12.0413 0.56239   2
  -3   0   6 0.63061 0.16420   1
  -3   0   6 -0.2827 0.16978   2
  -2   0   6 37.8937 0.93409   2
  -2   0   6 676.337 15.4468   1
  -1   0   6 651.149 24.8672  -2
  -2   0   6 651.149 24.8672   1
  -1   0   6 3.50129 0.74432   1
   0   0   6 69.5962 3.03276  -2
  -1   0   6 69.5962 3.03276   1
  -1   0   6 -0.2172 0.17062   2
   0   0   6 54.3067 1.86462   2
   0   0   6 1110.81 21.3558   1
   1   0   6 0.14762 0.17301   1
   1   0   6 0.53123 0.33642   2
   2   0   6 167.283 2.99928   2
   2   0   6 2855.35 48.2491   1
   4   0   5 0.72978 0.52326  -2
   3   0   6 0.72978 0.52326   1
   3   0   6 0.45864 0.15533   2
   5   0   5 18.0461 0.79995  -2
   4   0   6 18.0461 0.79995   1
   4   0   6 19.3611 1.60029   1
   5   0   6 0.36186 0.22162   1
   5   0   6 0.27000 0.24013   2
   6   0   6 11.0059 0.66698   2
   6   0   6 209.814 4.42655   1
   7   0   6 1.20128 0.65697   1
   7   0   6 -0.3676 0.43737   2
   8   0   6 8.60529 0.76138   2
   9   0   4 151.456 3.72721  -2
   8   0   6 151.456 3.72721   1
   9   0   6 1.39621 1.07686   1
   9   0   6 0.69365 0.75050   2
  10   0   4 23.2624 4.56741  -2
   9   0   6 23.2624 4.56741   1
  10   0   6 34.2138 1.71480   2
  10   0   6 576.811 13.5922   1
  11   0   6 0.64784 1.92595   1
  11   0   6 1.19369 1.99308   2
  12   0   6 1.47906 2.77467   1
  13   0   3 42.1895 8.67555  -2
  12   0   6 42.1895 8.67555   1
  12   0   6 0.09323 2.86829   2
  14   0   3 0.75952 8.25798  -2
  13   0   6 0.75952 8.25798   1
  13   0   6 -3.7125 3.37903   2
 -15   1   6 84.0135 3.80498   1
 -14   1   6 10.7526 1.59908   1
 -14   1   6 1.21954 2.47994   2
 -13   1   6 31.6764 1.82032   1
 -13   1   6 2.93095 1.29613   2
 -12   1   6 2.26960 0.99599   1
 -12   1   6 1.39055 0.98701   2
 -11   1   6 0.73315 0.84784   2
 -11   1   6 7.41211 0.89760   1
 -10   1   6 3.33819 0.73529   1
 -10   1   6 1.07925 0.70740   2
  -9   1   6 13.8714 0.82466   2
  -9   1   6 229.191 3.88396   1
  -8   1   6 8.70355 0.44375   1
  -8   1   6 0.70406 0.29698   2
  -7   1   6 92.5779 1.58003   1
  -7   1   6 6.27366 0.29911   2
  -6   1   6 5.27943 0.27375   2
  -6   1   6 89.7385 1.57821   1
  -5   1   6 449.520 7.51440   1
  -5   1   6 26.7919 0.62022   2
  -4   1   6 96.5593 2.27206   2
  -4   1   6 1737.65 25.8579   1
  -3   1   6 39.6492 0.83522   2
  -3   1   6 716.051 9.92506   1
  -2   1   6 4.11230 0.19909   2
  -2   1   6 68.4702 1.25298   1
  -1   1   6 80.7221 2.41180  -2
  -2   1   6 80.7221 2.41180   1
   0   1   6 314.345 6.95591  -2
  -1   1   6 314.345 6.95591   1
  -1   1   6 10.7781 0.28058   2
  -1   1   6 235.122 4.88016   1
   0   1   6 1554.55 21.2882   1
   0   1   6 63.2127 2.37486   2
   1   1   6 488.834 6.06075   1
   1   1   6 31.3742 0.72155   2
   2   1   6 110.079 1.47152   1
   2   1   6 5.48886 0.26558   2
   3   1   6 5.99762 0.26245   2
   4   1   5 107.658 1.53947  -2
   3   1   6 107.658 1.53947   1
   4   1   6 137.281 3.37637   1
   5   1   5 158.806 2.65434  -2
   4   1   6 158.806 2.65434   1
   5   1   6 9.77633 0.41931   2
   5   1   6 166.230 2.58104   1
   6   1   6 83.8863 1.37947   1
   6   1   6 4.25445 0.36157   2
   7   1   6 41.3567 1.08631   1
   7   1   6 2.29319 0.35534   2
   8   1   4 52.5907 2.84215  -2
   7   1   6 52.5907 2.84215   1
   9   1   4 60.8320 1.59409  -2
   8   1   6 60.8320 1.59409   1
   8   1   6 3.02835 0.48008   2
   9   1   6 -0.4677 0.52630   2
   9   1   6 0.48840 0.74202   1
  10   1   4 1.49248 3.03062  -2
   9   1   6 1.49248 3.03062   1
  10   1   6 1.93488 0.75469   2
  10   1   6 38.4465 1.91173   1
  11   1   6 12.6174 1.59478   2
  11   1   6 230.093 5.26222   1
  12   1   6 33.6350 2.18024   1
  12   1   6 -1.6105 2.05210   2
  13   1   3 21.7857 8.90682  -2
  12   1   6 21.7857 8.90682   1
  14   1   3 33.9366 6.03492  -2
  13   1   6 33.9366 6.03492   1
  13   1   6 0.34952 3.20415   2
  13   1   6 38.4019 5.10811   1
 -15   2   6 80.1693 3.75435   1
 -14   2   6 0.57349 1.64031   1
 -14   2   6 -6.1211 3.86640   2
 -13   2   6 178.354 3.94015   1
 -13   2   6 11.2912 1.40555   2
 -12   2   6 -0.4294 0.97895   2
 -12   2   6 0.68275 0.96526   1
 -11   2   6 13.7935 1.08193   2
 -11   2   6 257.807 4.49773   1
 -10   2   6 2.84107 0.71906   1
 -10   2   6 0.45471 0.70532   2
  -9   2   6 1217.30 18.2085   1
  -9   2   6 64.0814 1.76565   2
  -8   2   6 7.32736 0.53943   1
  -8   2   6 -0.1393 0.24987   2
  -7   2   6 31.7219 0.79236   1
  -7   2   6 0.98573 0.47784   2
  -6   2   6 37.7043 1.00957   1
  -6   2   6 2.51280 0.20263   2
  -5   2   6 1.87168 0.22714   1
  -5   2   6 0.18487 0.15332   2
  -4   2   6 16.3021 0.45280   1
  -4   2   6 0.62681 0.15708   2
  -3   2   6 186.541 3.15751   1
  -3   2   6 10.2476 0.34430   2
  -2   2   6 32.3804 0.78325   2
  -2   2   6 651.571 10.5391   1
  -1   2   6 628.784 14.1267  -2
  -2   2   6 628.784 14.1267   1
  -1   2   6 5.02222 0.25169   2
  -1   2   6 95.9343 1.88851   1
   0   2   6 98.1182 2.83473  -2
  -1   2   6 98.1182 2.83473   1
   0   2   6 37.7788 0.72870   1
   0   2   6 2.07660 0.22756   2
   1   2   6 17.2313 0.37903   1
   1   2   6 1.17501 0.15984   2
   2   2   6 80.8273 1.12427   1
   2   2   6 4.18521 0.23937   2
   3   2   6 0.07809 0.14837   2
   4   2   5 136.832 1.89730  -2
   3   2   6 136.832 1.89730   1
   5   2   5 21.7347 0.62224  -2
   4   2   6 21.7347 0.62224   1
   4   2   6 22.4410 0.94411   1
   5   2   6 1474.86 18.3782   1
   5   2   6 88.5384 1.54741   2
   6   2   6 0.18818 0.33654   2
   6   2   6 1.26773 0.29474   1
   7   2   6 522.468 8.35434   1
   7   2   6 29.2920 0.83104   2
   8   2   4 534.126 14.4183  -2
   7   2   6 534.126 14.4183   1
   9   2   4 25.8848 1.35213  -2
   8   2   6 25.8848 1.35213   1
   8   2   6 0.68714 0.44065   2
   9   2   6 203.796 3.51156   1
   9   2   6 10.9827 0.67783   2
  10   2   4 222.364 10.4142  -2
   9   2   6 222.364 10.4142   1
  10   2   6 0.44862 0.80205   2
  10   2   6 13.3187 1.08953   1
  11   2   6 4.09391 1.39649   2
  11   2   6 64.4999 2.93557   1
  13   2   3 16.7501 6.14870  -2
  12   2   6 16.7501 6.14870   1
  12   2   6 1.25512 2.04760   2
  12   2   6 25.0806 2.93129   1
  14   2   3 15.8786 7.23543  -2
  13   2   6 15.8786 7.23543   1
  13   2   6 -1.3926 3.16666   2
  13   2   6 8.81682 4.65168   1
 -15   3   6 85.3738 3.89916   1
 -14   3   6 23.8214 1.99919   1
 -14   3   6 0.00890 4.03178   2
 -13   3   6 8.81255 1.39217   1
 -13   3   6 1.03595 1.31810   2
 -12   3   6 1.16930 1.01451   2
 -12   3   6 1.73357 1.01993   1
 -11   3   6 11.8256 1.04568   2
 -11   3   6 200.850 3.71838   1
 -10   3   6 128.184 2.48755   1
 -10   3   6 6.24281 0.90809   2
  -9   3   6 23.3114 0.90885   2
  -9   3   6 342.315 5.96233   1
  -8   3   6 13.9958 0.79593   2
  -8   3   6 213.668 3.88594   1
  -7   3   6 36.5669 1.63596   2
  -7   3   6 636.661 9.54309   1
  -6   3   6 2.18685 0.21215   2
  -6   3   6 40.6559 0.91055   1
  -5   3   6 282.415 4.31135   1
  -5   3   6 14.7727 0.54260   2
  -4   3   6 762.009 11.2370   1
  -4   3   6 43.5022 0.90136   2
  -3   3   6 706.049 11.4167   1
  -3   3   6 41.2967 0.89481   2
  -2   3   6 2.70215 0.21029   2
  -1   3   6 70.1598 2.14242  -2
  -2   3   6 70.1598 2.14242   1
  -2   3   6 49.2362 1.25161   1
  -1   3   6 335.305 6.90239   1
  -1   3   6 16.0986 0.51536   2
   0   3   6 344.789 7.61533  -2
  -1   3   6 344.789 7.61533   1
   0   3   6 7.58567 0.41973   2
   0   3   6 182.942 2.82317   1
   1   3   6 30.9751 0.72433   2
   1   3   6 535.709 7.42696   1
   2   3   6 11.9485 0.32652   2
   2   3   6 234.460 2.93670   1
   4   3   5 386.310 5.03574  -2
   3   3   6 386.310 5.03574   1
   3   3   6 20.3649 0.46327   2
   5   3   5 391.439 5.70768  -2
   4   3   6 391.439 5.70768   1
   4   3   6 376.941 10.4556   1
   4   3   6 21.5411 1.30633   2
   5   3   6 503.080 6.86243   1
   5   3   6 28.4530 0.82509   2
   6   3   6 563.569 7.27195   1
   6   3   6 31.6198 0.89316   2
   7   3   6 225.818 3.60906   1
   7   3   6 11.6596 0.53545   2
   8   3   4 233.450 9.40326  -2
   7   3   6 233.450 9.40326   1
   8   3   6 0.04376 0.46379   2
   9   3   4 14.3537 1.48629  -2
   8   3   6 14.3537 1.48629   1
  10   3   4 88.6221 4.51481  -2
   9   3   6 88.6221 4.51481   1
   9   3   6 4.16500 0.60722   2
   9   3   6 72.3869 2.12982   1
  10   3   6 27.5380 1.34456   1
  10   3   6 0.72272 0.90104   2
  11   3   6 263.337 6.46010   1
  11   3   6 14.6550 1.63675   2
  12   3   6 4.57929 2.55633   1
  12   3   6 1.08486 2.59588   2
  13   3   3 6.98576 6.02235  -2
  12   3   6 6.98576 6.02235   1
  14   3   3 41.6560 9.37014  -2
  13   3   6 41.6560 9.37014   1
  13   3   6 3.58792 3.13161   2
  13   3   6 43.0288 5.40625   1
 -15   4   6 23.9998 2.38223   1
 -14   4   6 171.913 4.58065   1
 -14   4   6 10.3897 4.26386   2
 -13   4   6 63.5043 2.76940   1
 -13   4   6 4.20727 1.44054   2
 -12   4   6 106.706 2.66636   1
 -12   4   6 7.93279 1.15532   2
 -11   4   6 33.9295 1.48716   1
 -11   4   6 1.60584 0.89631   2
 -10   4   6 8.51121 0.97466   2
 -10   4   6 111.805 2.28243   1
  -9   4   6 130.477 2.51061   1
  -9   4   6 8.54697 0.85137   2
  -8   4   6 48.1821 1.38132   1
  -8   4   6 3.53369 0.46321   2
  -7   4   6 155.092 2.60693   1
  -7   4   6 7.67843 0.71544   2
  -6   4   6 35.3191 1.06048   2
  -6   4   6 629.395 10.2592   1
  -5   4   6 30.8918 0.83538   2
  -5   4   6 548.471 8.16863   1
  -4   4   6 400.465 6.00235   1
  -4   4   6 22.1323 0.55698   2
  -3   4   6 41.0162 0.86041   1
  -3   4   6 2.47969 0.18443   2
  -2   4   6 72.5395 1.72132   1
  -2   4   6 3.61882 0.24789   2
  -1   4   6 75.7048 2.30782  -2
  -2   4   6 75.7048 2.30782   1
   0   4   6 119.911 2.80448  -2
  -1   4   6 119.911 2.80448   1
  -1   4   6 4.78811 0.35518   2
  -1   4   6 98.3112 1.97933   1
   0   4   6 21.5326 0.74013   2
   0   4   6 481.382 7.22313   1
   1   4   6 29.8413 0.71431   2
   1   4   6 481.353 7.14120   1
   2   4   6 1323.62 17.7381   1
   2   4   6 81.2725 1.43439   2
   3   4   6 8.61335 0.38137   2
   4   4   5 165.068 2.40179  -2
   3   4   6 165.068 2.40179   1
   5   4   5 16.5385 0.58917  -2
   4   4   6 16.5385 0.58917   1
   4   4   6 17.1453 1.57032   1
   5   4   6 12.5936 0.55911   2
   5   4   6 232.721 3.32819   1
   6   4   6 127.652 2.04198   1
   6   4   6 7.07805 0.48737   2
   7   4   6 3.34663 0.40295   2
   7   4   6 64.6613 1.63523   1
   8   4   4 72.5238 3.45875  -2
   7   4   6 72.5238 3.45875   1
   8   4   6 4.63769 0.55216   2
   9   4   4 83.1296 2.24391  -2
   8   4   6 83.1296 2.24391   1
   9   4   6 10.3085 0.80266   2
   9   4   6 195.279 4.49669   1
  10   4   4 205.886 7.52186  -2
   9   4   6 205.886 7.52186   1
  10   4   6 273.867 4.66409   1
  10   4   6 12.7725 1.19731   2
  11   4   6 2.45390 1.61294   2
  11   4   6 56.1934 2.85780   1
  12   4   6 38.2172 3.02297   1
  12   4   6 3.95337 2.66665   2
  13   4   3 42.3990 7.18741  -2
  12   4   6 42.3990 7.18741   1
 -14   5   6 4.68767 1.82963   1
 -14   5   6 6.13364 4.29808   2
 -13   5   6 196.374 4.66705   1
 -13   5   6 10.5164 1.63082   2
 -12   5   6 3.67394 1.19837   2
 -12   5   6 51.9355 2.23151   1
 -11   5   6 128.582 3.01571   1
 -11   5   6 9.02023 1.19359   2
 -10   5   6 0.35238 0.80181   2
 -10   5   6 12.7726 0.88600   1
  -9   5   6 33.2363 1.33825   1
  -9   5   6 1.88741 0.52194   2
  -8   5   6 4.27254 0.56797   1
  -8   5   6 0.20704 0.50660   2
  -7   5   6 8.16709 0.65746   2
  -7   5   6 120.087 3.05754   1
  -6   5   6 2.08930 0.23921   1
  -6   5   6 0.29054 0.44825   2
  -5   5   6 266.505 4.44270   1
  -5   5   6 15.9089 0.57916   2
  -4   5   6 105.391 2.00543   2
  -4   5   6 1706.83 24.9271   1
  -3   5   6 59.9051 1.05572   1
  -3   5   6 3.47911 0.23387   2
  -2   5   6 14.9512 0.50883   1
  -2   5   6 0.60681 0.16286   2
  -1   5   6 19.8042 1.27890  -2
  -2   5   6 19.8042 1.27890   1
  -1   5   6 2.28256 0.23659   2
  -1   5   6 47.0644 1.50599   1
   0   5   6 190.260 4.33072  -2
  -1   5   6 190.260 4.33072   1
   0   5   6 2257.29 31.2498   1
   0   5   6 89.0236 3.07231   2
   1   5   6 498.461 7.48291   1
   1   5   6 24.2317 0.72619   2
   2   5   6 3.33120 0.22541   2
   2   5   6 62.0230 1.07384   1
   4   5   5 163.160 2.55929  -2
   3   5   6 163.160 2.55929   1
   3   5   6 8.71319 0.44062   2
   4   5   6 113.708 3.45751   1
   5   5   5 127.003 2.78098  -2
   4   5   6 127.003 2.78098   1
   4   5   6 10.2770 0.89218   2
   5   5   6 0.21495 0.27885   2
   5   5   6 1.10642 0.22274   1
   6   5   6 46.3587 1.01635   1
   6   5   6 2.30040 0.36438   2
   7   5   6 4.55510 0.46499   2
   7   5   6 77.8122 1.62430   1
   8   5   6 1.22674 0.57050   2
   9   5   4 27.9686 1.66763  -2
   8   5   6 27.9686 1.66763   1
   9   5   6 10.1748 1.01377   2
   9   5   6 177.862 5.01813   1
  10   5   4 181.944 5.43495  -2
   9   5   6 181.944 5.43495   1
  10   5   6 -0.7191 1.03057   2
  10   5   6 0.50953 1.19810   1
  11   5   6 3.23401 1.63551   2
  11   5   6 60.8447 2.95768   1
  12   5   6 13.1551 2.90536   2
  12   5   6 125.776 5.45685   1
  13   5   3 102.295 8.10581  -2
  12   5   6 102.295 8.10581   1
 -14   6   6 4.45728 1.92480   1
 -13   6   6 4.50891 1.49652   2
 -13   6   6 49.6277 2.51344   1
 -12   6   6 2.06134 1.70013   2
 -12   6   6 17.4416 1.59383   1
 -11   6   6 2.76134 1.21148   2
 -11   6   6 47.4726 2.22816   1
 -10   6   6 1.84562 0.71087   1
 -10   6   6 0.57178 0.85455   2
  -9   6   6 15.4783 0.82772   2
  -9   6   6 245.906 4.09193   1
  -8   6   6 5.71529 0.68658   2
  -8   6   6 90.4539 2.80678   1
  -7   6   6 -0.6744 0.52337   2
  -7   6   6 4.78800 0.67495   1
  -6   6   6 537.907 11.9360   1
  -6   6   6 28.2809 1.37324   2
  -5   6   6 10.3653 0.67588   2
  -5   6   6 199.239 3.38670   1
  -4   6   6 59.8772 1.16915   1
  -4   6   6 3.19473 0.24467   2
  -3   6   6 31.7728 0.74838   2
  -3   6   6 550.309 8.85709   1
  -2   6   6 1828.94 32.3153   1
  -2   6   6 110.368 2.06277   2
  -1   6   6 1730.71 65.6370  -2
  -2   6   6 1730.71 65.6370   1
  -1   6   6 158.887 3.92778   1
  -1   6   6 6.38573 0.69702   2
   0   6   6 184.339 4.44124  -2
  -1   6   6 184.339 4.44124   1
   0   6   6 339.260 4.49273   1
   0   6   6 13.8216 0.85673   2
   1   6   6 7.77676 0.29532   2
   1   6   6 144.850 2.32432   1
   2   6   6 354.671 5.67214   1
   2   6   6 20.8768 0.51278   2
   4   6   5 36.1750 0.93012  -2
   3   6   6 36.1750 0.93012   1
   3   6   6 0.57350 0.24320   2
   5   6   5 25.8254 1.03749  -2
   4   6   6 25.8254 1.03749   1
   4   6   6 1.24117 0.72917   1
   5   6   6 424.291 6.29316   1
   5   6   6 26.8627 0.92175   2
   6   6   6 0.69467 0.40924   2
   6   6   6 8.47456 0.59587   1
   7   6   6 13.4000 0.80061   2
   7   6   6 264.596 4.53398   1
   9   6   4 6.92470 1.55694  -2
   8   6   6 6.92470 1.55694   1
   8   6   6 0.28654 0.64821   2
   9   6   6 0.52069 0.95526   2
  10   6   4 21.1876 2.67259  -2
   9   6   6 21.1876 2.67259   1
   9   6   6 17.0476 2.95093   1
  10   6   6 1.25209 1.46754   1
  10   6   6 1.70597 1.66159   2
  11   6   6 1.88204 1.62668   1
  11   6   6 1.19056 1.69935   2
  12   6   6 57.8778 3.93880   1
  13   6   3 59.1666 7.86961  -2
  12   6   6 59.1666 7.86961   1
  12   6   6 8.58494 3.31681   2
 -14   7   6 72.4249 3.46224   1
 -14   7   6 0.34313 5.11602   2
 -13   7   6 5.67993 1.65949   1
 -13   7   6 -1.4473 1.52054   2
 -12   7   6 2.53904 1.48467   2
 -12   7   6 17.3023 1.87415   1
 -11   7   6 11.1259 1.49442   2
 -11   7   6 174.137 4.15923   1
 -10   7   6 204.160 3.93763   1
 -10   7   6 11.3271 1.25917   2
  -9   7   6 8.73561 0.83030   2
  -9   7   6 102.494 2.67815   1
  -8   7   6 19.5982 0.98243   2
  -8   7   6 303.413 6.69598   1
  -7   7   6 280.759 6.96764   1
  -7   7   6 16.3374 0.84766   2
  -6   7   6 5.55661 0.73888   2
  -6   7   6 94.0050 2.87854   1
  -5   7   6 190.905 3.25958   1
  -5   7   6 10.3125 0.42348   2
  -4   7   6 3.46373 0.23297   1
  -4   7   6 -0.0829 0.20095   2
  -3   7   6 5.38844 0.34039   1
  -3   7   6 0.21059 0.15283   2
  -2   7   6 0.99116 0.21990   2
  -2   7   6 15.4753 0.54958   1
  -1   7   6 14.7848 1.22969  -2
  -2   7   6 14.7848 1.22969   1
  -1   7   6 4.05986 0.38783   1
   0   7   6 18.1318 0.89794  -2
  -1   7   6 18.1318 0.89794   1
  -1   7   6 -0.0171 0.18332   2
   0   7   6 217.144 3.18174   1
   0   7   6 11.8612 0.62543   2
   1   7   6 348.213 6.26431   1
   1   7   6 21.1348 0.59353   2
   2   7   6 47.5780 0.95620   1
   2   7   6 2.88834 0.27725   2
   4   7   5 51.6722 1.52612  -2
   3   7   6 51.6722 1.52612   1
   3   7   6 2.30512 0.32997   2
   4   7   6 43.5233 2.24644   2
   5   7   5 765.209 14.8032  -2
   4   7   6 765.209 14.8032   1
   4   7   6 773.897 28.0445   1
   5   7   6 214.262 3.64675   1
   5   7   6 12.4581 0.69427   2
   6   7   6 28.9673 0.97219   2
   6   7   6 495.003 7.92204   1
   7   7   6 17.2712 0.95393   2
   7   7   6 301.866 4.70145   1
   9   7   4 42.2359 2.10690  -2
   8   7   6 42.2359 2.10690   1
   8   7   6 1.54842 0.75158   2
  10   7   4 29.9005 3.06615  -2
   9   7   6 29.9005 3.06615   1
   9   7   6 -0.5459 1.05230   2
   9   7   6 14.1177 2.34131   1
  10   7   6 27.5598 1.83452   1
  10   7   6 1.44352 1.45939   2
  11   7   6 155.342 4.93166   1
  11   7   6 6.45297 1.94985   2
  12   7   6 69.7149 4.26989   1
  12   7   6 1.69151 2.72155   2
  13   7   3 100.107 10.9959  -2
  12   7   6 100.107 10.9959   1
 -14   8   6 70.9965 4.12097   1
 -14   8   6 -0.9224 5.21667   2
 -13   8   6 11.6566 2.51574   2
 -13   8   6 102.277 3.58707   1
 -12   8   6 -0.8963 1.56541   2
 -12   8   6 9.73779 1.67682   1
 -11   8   6 1.93132 1.29095   2
 -11   8   6 10.1452 1.11788   1
 -10   8   6 8.19978 1.02892   1
 -10   8   6 0.31083 0.85505   2
  -9   8   6 1.54661 0.80420   2
  -9   8   6 29.2376 1.62826   1
  -8   8   6 22.3929 1.14329   2
  -8   8   6 380.971 7.19136   1
  -7   8   6 28.9054 1.41341   2
  -7   8   6 552.597 13.0288   1
  -6   8   6 1.55846 0.65732   1
  -6   8   6 0.13359 0.59589   2
  -5   8   6 471.290 10.3278   1
  -5   8   6 22.8738 0.79619   2
  -4   8   6 495.057 9.00223   1
  -4   8   6 27.1791 0.86003   2
  -3   8   6 19.6197 0.64570   1
  -3   8   6 0.90900 0.20780   2
  -2   8   6 146.348 2.86227   1
  -2   8   6 7.25007 0.49315   2
  -1   8   6 0.46136 0.22486   2
  -1   8   6 10.0841 0.69294   1
   0   8   6 39.7349 1.45346  -2
  -1   8   6 39.7349 1.45346   1
   0   8   6 433.721 6.54638   1
   0   8   6 28.8845 1.59781   2
   1   8   6 25.2706 0.65340   2
   1   8   6 424.711 6.90464   1
   2   8   6 2.44848 0.33902   2
   2   8   6 44.6547 1.11926   1
   3   8   6 25.1892 1.03682   2
   4   8   5 525.339 9.05173  -2
   3   8   6 525.339 9.05173   1
   5   8   5 194.997 4.15596  -2
   4   8   6 194.997 4.15596   1
   4   8   6 197.096 7.70672   1
   4   8   6 7.76737 1.45358   2
   5   8   6 5.24144 0.48517   2
   5   8   6 105.494 2.05690   1
   6   8   6 -0.0796 0.51321   2
   6   8   6 0.69117 0.47643   1
   7   8   6 61.5233 1.94333   1
   7   8   6 2.89776 0.74552   2
   9   8   4 50.2226 2.28785  -2
   8   8   6 50.2226 2.28785   1
   8   8   6 2.68255 0.87229   2
   9   8   6 14.0533 1.66356   2
   9   8   6 300.209 7.59154   1
  10   8   4 320.843 10.4768  -2
   9   8   6 320.843 10.4768   1
  10   8   6 152.837 3.95163   1
  10   8   6 9.01685 1.94665   2
  11   8   6 26.9487 2.58170   1
  11   8   6 0.13805 2.18028   2
  12   8   6 3.83944 2.53976   2
  12   8   6 69.3617 5.38624   1
  13   8   3 77.9879 10.6993  -2
  12   8   6 77.9879 10.6993   1
 -14   9   6 12.9344 2.53895   1
 -14   9   6 4.65529 5.97712   2
 -13   9   6 231.591 6.12204   1
 -13   9   6 12.6204 2.22185   2
 -12   9   6 32.5666 2.26237   1
 -12   9   6 4.06101 1.72215   2
 -11   9   6 394.048 6.98934   1
 -11   9   6 21.3179 2.13234   2
 -10   9   6 114.805 2.76465   1
 -10   9   6 6.80008 1.06679   2
  -9   9   6 1.04164 0.80533   2
  -9   9   6 4.31243 0.99964   1
  -8   9   6 1.80672 0.85927   2
  -8   9   6 24.4535 1.35852   1
  -7   9   6 17.9537 1.09323   2
  -7   9   6 326.555 6.94362   1
  -6   9   6 3.58764 0.73706   2
  -6   9   6 56.4098 2.02672   1
  -5   9   6 2.81392 0.35804   2
  -5   9   6 46.6999 1.28358   1
  -4   9   6 7.37377 0.50167   2
  -4   9   6 128.890 3.43474   1
  -3   9   6 1.50996 0.36701   2
  -3   9   6 38.7602 1.30356   1
  -2   9   6 3.40113 0.31832   1
  -2   9   6 0.66131 0.32571   2
   0   9   6 151.225 4.72572  -2
  -1   9   6 151.225 4.72572   1
  -1   9   6 123.966 3.84942   1
  -1   9   6 8.05771 0.47765   2
   0   9   6 375.968 5.72962   1
   0   9   6 27.5790 1.56250   2
   1   9   6 23.0435 0.76974   2
   1   9   6 384.941 8.05988   1
   2   9   6 185.606 4.43486   1
   2   9   6 9.43930 0.58779   2
   3   9   6 21.1666 0.90905   2
   4   9   5 395.634 6.91932  -2
   3   9   6 395.634 6.91932   1
   5   9   5 50.2892 1.67211  -2
   4   9   6 50.2892 1.67211   1
   4   9   6 2.88110 1.00495   2
   5   9   6 1.65127 0.53387   2
   5   9   6 19.2931 0.87020   1
   6   9   6 4.03395 0.67080   2
   6   9   6 69.3306 1.74674   1
   7   9   6 656.208 11.4699   1
   7   9   6 36.4616 1.53483   2
   9   9   4 8.37244 2.22596  -2
   8   9   6 8.37244 2.22596   1
   8   9   6 -0.3964 1.04678   2
   9   9   6 370.776 9.11854   1
   9   9   6 20.7574 2.11871   2
  10   9   6 -0.1025 1.87015   2
  10   9   6 34.8905 2.13237   1
  11   9   6 -2.4957 2.32707   1
  11   9   6 1.93888 2.31487   2
  12   9   6 63.0425 5.43587   1
  12   9   6 3.39749 2.37539   2
 -13  10   6 -0.8032 2.31908   1
 -13  10   6 2.31201 2.15454   2
 -12  10   6 5.54944 1.81617   2
 -12  10   6 87.8537 4.12591   1
 -11  10   6 4.25878 2.30082   1
 -11  10   6 -0.7639 1.64214   2
 -10  10   6 3.49523 1.05030   2
 -10  10   6 44.8823 2.13359   1
  -9  10   6 3.22077 1.08055   1
  -9  10   6 0.47105 0.87347   2
  -8  10   6 2.88880 0.93137   2
  -8  10   6 41.2047 1.65846   1
  -7  10   6 2.06817 0.76163   2
  -7  10   6 25.6701 1.30477   1
  -6  10   6 5.79539 0.84627   2
  -6  10   6 92.0484 4.03481   1
  -5  10   6 465.709 11.0593   1
  -5  10   6 25.1749 0.92626   2
  -4  10   6 0.86764 0.42398   2
  -4  10   6 9.43157 0.78128   1
  -3  10   6 352.635 13.2497   1
  -3  10   6 18.3922 1.01230   2
  -2  10   6 64.6978 2.67679   2
  -2  10   6 1538.08 61.9734   1
  -1  10   6 1457.84 53.2776  -2
  -2  10   6 1457.84 53.2776   1
  -1  10   6 13.2634 1.38901   2
   0  10   6 239.923 9.28711  -2
  -1  10   6 239.923 9.28711   1
  -1  10   6 233.167 10.1736   1
   0  10   6 80.5585 1.68722   1
   0  10   6 4.64429 0.92359   2
   1  10   6 21.0710 0.93676   2
   1  10   6 489.206 9.60076   1
   2  10   6 3.84680 0.52632   2
   2  10   6 99.2457 2.72080   1
   3  10   6 0.41585 0.44796   2
   4  10   5 17.6851 1.31830  -2
   3  10   6 17.6851 1.31830   1
   4  10   6 5.74456 0.86529   2
   5  10   5 141.588 4.69002  -2
   4  10   6 141.588 4.69002   1
   5  10   6 -0.0674 0.58878   2
   5  10   6 4.84980 0.64876   1
   6  10   6 3.31070 0.88671   1
   6  10   6 0.27075 0.71785   2
   7  10   6 3.82232 0.97009   1
   7  10   6 0.69487 0.84782   2
   8  10   6 9.71569 1.38695   2
   9  10   4 151.004 4.21660  -2
   8  10   6 151.004 4.21660   1
   9  10   6 3.11676 2.94036   2
   9  10   6 15.9034 3.55614   1
  10  10   6 3.36576 1.64453   1
  10  10   6 0.35730 1.97474   2
  11  10   6 -1.5826 2.46468   2
  11  10   6 34.3525 3.81345   1
 -13  11   6 1.98609 3.23224   2
 -13  11   6 -1.1431 2.50719   1
 -12  11   6 0.38890 2.08337   2
 -12  11   6 22.5968 2.65611   1
 -11  11   6 9.12622 1.82502   1
 -11  11   6 0.63280 1.62842   2
 -10  11   6 6.43951 1.25037   2
 -10  11   6 98.0770 3.00260   1
  -9  11   6 1.56204 0.95551   2
  -9  11   6 22.2351 1.72928   1
  -8  11   6 26.5701 1.57147   2
  -8  11   6 483.780 10.2720   1
  -7  11   6 0.76545 0.98002   2
  -7  11   6 3.27659 1.20750   1
  -6  11   6 4.39975 0.68694   2
  -6  11   6 85.8208 3.14038   1
  -5  11   6 9.07024 0.65612   2
  -5  11   6 156.761 4.20049   1
  -4  11   6 74.9064 2.36738   1
  -4  11   6 5.38171 0.64447   2
  -3  11   6 308.638 7.55519   1
  -3  11   6 15.2256 0.99220   2
  -2  11   6 -0.5394 0.44591   2
  -1  11   6 5.16638 3.88950  -2
  -2  11   6 5.16638 3.88950   1
  -2  11   6 0.99317 1.32624   1
  -1  11   6 5.46156 1.46575   2
   0  11   6 223.911 11.3553  -2
  -1  11   6 223.911 11.3553   1
  -1  11   6 200.037 9.11227   1
   0  11   6 365.237 6.13227   1
   0  11   6 11.2700 1.73920   2
   1  11   6 11.6672 0.75899   2
   1  11   6 267.552 5.67076   1
   2  11   6 104.606 2.47903   1
   2  11   6 5.31129 0.56633   2
   3  11   6 1.51128 0.50995   2
   4  11   5 24.6132 1.58555  -2
   3  11   6 24.6132 1.58555   1
   4  11   6 28.2349 2.34511   2
   5  11   5 618.784 12.2047  -2
   4  11   6 618.784 12.2047   1
   5  11   6 4.81455 0.81293   2
   5  11   6 91.7049 2.45572   1
   6  11   6 12.5693 1.00608   2
   6  11   6 263.210 6.63938   1
   7  11   6 -0.4552 0.88407   2
   7  11   6 4.21810 1.21808   1
   8  11   6 1.03758 1.43241   2
   9  11   4 25.1914 3.04371  -2
   8  11   6 25.1914 3.04371   1
   9  11   6 11.0933 3.74236   1
  10  11   4 22.2849 4.29245  -2
   9  11   6 22.2849 4.29245   1
   9  11   6 0.87440 1.69924   2
  10  11   6 4.73127 1.97717   1
  10  11   6 0.22738 2.13845   2
  11  11   6 -1.4876 2.67558   2
  11  11   6 4.77240 4.53442   1
 -13  12   6 2.91392 2.73285   2
 -13  12   6 62.7362 4.48769   1
 -12  12   6 22.3287 2.66661   1
 -12  12   6 2.98925 2.59268   2
 -11  12   6 0.93188 1.89939   2
 -11  12   6 1.69869 1.83934   1
 -10  12   6 1.81428 1.72135   1
 -10  12   6 -0.7649 1.78380   2
  -9  12   6 -0.5220 1.08998   2
  -9  12   6 8.48326 1.46680   1
  -8  12   6 9.18319 1.39210   2
  -8  12   6 145.954 4.05033   1
  -7  12   6 457.540 11.5295   1
  -7  12   6 22.6124 1.90612   2
  -6  12   6 71.1336 2.93833   1
  -6  12   6 3.74257 1.23786   2
  -5  12   6 4.11070 1.59178   2
  -5  12   6 114.488 2.89198   1
  -4  12   6 106.943 3.13181   1
  -4  12   6 6.95404 0.77289   2
  -3  12   6 1.90975 0.53253   2
  -3  12   6 37.1417 1.78929   1
  -2  12   6 21.8733 2.07730   2
  -1  12   6 540.070 15.5989  -2
  -2  12   6 540.070 15.5989   1
  -2  12   6 514.767 21.6442   1
   0  12   6 182.366 6.00291  -2
  -1  12   6 182.366 6.00291   1
  -1  12   6 6.26639 1.59647   2
  -1  12   6 176.612 8.37622   1
   0  12   6 102.337 2.07126   1
   0  12   6 4.19626 1.54424   2
   1  12   6 0.72100 0.45550   2
   1  12   6 14.8041 0.83545   1
   2  12   6 2.89877 0.56363   2
   2  12   6 49.7156 1.70053   1
   4  12   5 729.974 14.2782  -2
   3  12   6 729.974 14.2782   1
   3  12   6 35.7783 1.50397   2
   5  12   5 132.510 3.32626  -2
   4  12   6 132.510 3.32626   1
   4  12   6 6.12143 1.12755   2
   5  12   6 0.68227 0.76912   2
   5  12   6 13.4536 1.01452   1
   6  12   6 4.50292 1.15353   1
   6  12   6 1.32853 0.90064   2
   7  12   6 0.31200 1.15620   1
   7  12   6 0.01148 1.12205   2
   9  12   4 43.2478 8.00778  -2
   8  12   6 43.2478 8.00778   1
  10  12   4 160.641 6.85844  -2
   9  12   6 160.641 6.85844   1
   9  12   6 10.2553 2.14009   2
   9  12   6 144.525 9.33572   1
  10  12   6 2.38104 2.16720   1
  10  12   6 3.19986 2.36470   2
  11  12   6 6.03330 4.33873   1
  11  12   6 2.85452 2.63631   2
 -12  13   6 -1.0500 2.46054   2
 -12  13   6 16.0174 2.76874   1
 -11  13   6 266.906 7.59195   1
 -11  13   6 11.4630 2.84209   2
 -10  13   6 156.815 4.30123   1
 -10  13   6 10.7336 1.61238   2
  -9  13   6 7.24360 1.57921   1
  -9  13   6 1.05192 1.29347   2
  -8  13   6 0.62870 1.28996   1
  -8  13   6 0.66024 1.25782   2
  -7  13   6 5.35183 1.33770   2
  -7  13   6 79.4147 3.34976   1
  -6  13   6 15.2110 2.09109   2
  -6  13   6 384.619 9.83122   1
  -5  13   6 10.5437 0.88078   1
  -5  13   6 1.35439 1.13666   2
  -4  13   6 2.08588 0.59156   2
  -4  13   6 41.5796 2.26472   1
  -3  13   6 101.073 2.71195   1
  -3  13   6 7.39481 0.86496   2
  -1  13   6 5.74763 2.17660  -2
  -2  13   6 5.74763 2.17660   1
  -2  13   6 0.72701 1.53992   1
  -2  13   6 -0.6932 0.78001   2
   0  13   6 161.138 5.55915  -2
  -1  13   6 161.138 5.55915   1
  -1  13   6 5.26659 1.72996   2
  -1  13   6 157.312 7.72492   1
   0  13   6 43.7660 1.46065   1
   0  13   6 3.28966 1.54343   2
   1  13   6 1.82188 0.64507   1
   1  13   6 0.04556 0.58257   2
   2  13   6 17.4407 1.09730   2
   2  13   6 357.726 6.68576   1
   4  13   5 218.833 4.84723  -2
   3  13   6 218.833 4.84723   1
   3  13   6 9.63148 0.85805   2
   5  13   5 14.5290 1.69755  -2
   4  13   6 14.5290 1.69755   1
   4  13   6 0.07304 1.32284   2
   5  13   6 5.19335 0.91458   2
   5  13   6 131.296 3.29580   1
   6  13   6 196.617 5.35658   1
   6  13   6 9.46979 1.11863   2
   7  13   6 242.224 6.45105   1
   7  13   6 17.4806 2.01175   2
   8  13   6 0.46844 1.69537   2
   9  13   4 65.4202 4.70960  -2
   8  13   6 65.4202 4.70960   1
   9  13   6 10.9009 2.34805   2
   9  13   6 183.080 6.95796   1
  10  13   4 197.543 11.6387  -2
   9  13   6 197.543 11.6387   1
  10  13   6 95.0573 5.40284   1
  10  13   6 4.32373 2.61457   2
 -12  14   6 15.6760 2.97009   2
 -12  14   6 267.248 8.18730   1
 -11  14   6 54.2855 3.64812   1
 -11  14   6 2.14404 2.26984   2
 -10  14   6 4.21303 1.61464   2
 -10  14   6 85.8092 3.29745   1
  -9  14   6 6.70866 1.71114   2
  -9  14   6 107.093 8.98335   1
  -8  14   6 122.306 3.85321   1
  -8  14   6 8.30193 1.63405   2
  -7  14   6 0.92053 1.33099   2
  -7  14   6 29.9500 2.39366   1
  -6  14   6 1.53302 1.14819   2
  -6  14   6 -0.0880 1.31611   1
  -5  14   6 16.1790 1.70545   2
  -5  14   6 247.416 6.73831   1
  -4  14   6 0.19174 0.73060   2
  -4  14   6 3.69835 0.91877   1
  -3  14   6 6.68074 0.94662   2
  -3  14   6 104.703 2.81501   1
  -2  14   6 461.525 13.3854   1
  -2  14   6 30.3784 1.72942   2
  -1  14   6 476.427 14.0461  -2
  -2  14   6 476.427 14.0461   1
   0  14   6 22.8481 2.39339  -2
  -1  14   6 22.8481 2.39339   1
  -1  14   6 1.90508 0.90869   2
  -1  14   6 19.2223 1.53766   1
   1  14   6 82.5198 5.32311  -2
   0  14   6 82.5198 5.32311   1
   0  14   6 69.7460 1.94498   1
   0  14   6 4.48375 1.00954   2
   1  14   6 164.560 3.45486   1
   1  14   6 7.29153 0.83839   2
   2  14   6 -0.3561 0.69371   2
   2  14   6 2.27400 0.72624   1
   4  14   5 60.9940 2.16260  -2
   3  14   6 60.9940 2.16260   1
   3  14   6 3.14511 0.80487   2
   5  14   5 272.438 5.97356  -2
   4  14   6 272.438 5.97356   1
   4  14   6 10.5722 1.88426   2
   5  14   6 65.4120 2.36545   1
   5  14   6 3.03147 0.93843   2
   6  14   6 3.54245 1.03920   2
   6  14   6 54.5166 2.69054   1
   7  14   6 -1.4716 2.07998   2
   7  14   6 10.6274 1.79795   1
   9  14   4 351.476 9.39594  -2
   8  14   6 351.476 9.39594   1
   8  14   6 16.1320 2.22981   2
   9  14   6 3.66104 2.34813   2
   9  14   6 46.8005 4.09166   1
  10  14   6 5.47250 2.82640   1
  10  14   6 1.55232 2.54867   2
 -11  15   6 -0.2564 2.35216   2
 -11  15   6 2.51273 2.47170   1
 -10  15   6 6.56457 1.72837   1
 -10  15   6 1.40941 1.66174   2
  -9  15   6 4.02006 1.91749   1
  -9  15   6 0.70827 1.46817   2
  -8  15   6 7.81153 1.61596   2
  -8  15   6 105.104 4.22541   1
  -7  15   6 1.22781 1.49230   2
  -7  15   6 40.1075 2.79030   1
  -6  15   6 18.5865 2.19001   2
  -6  15   6 428.144 12.9446   1
  -5  15   7 421.662 20.8018  -2
  -6  15   6 421.662 20.8018   1
  -5  15   6 14.4717 1.65921   1
  -5  15   6 0.77038 1.39035   2
  -4  15   6 25.1204 1.56109   1
  -4  15   6 1.30642 0.92691   2
  -3  15   6 378.536 7.98819   1
  -3  15   6 15.6331 2.12402   2
  -2  15   6 -0.0341 0.85895   2
  -1  15   6 20.7355 2.86676  -2
  -2  15   6 20.7355 2.86676   1
  -2  15   6 1.89177 1.85144   1
  -1  15   6 349.100 15.5168   1
   0  15   6 372.499 11.3249  -2
  -1  15   6 372.499 11.3249   1
   0  15   6 30.1468 1.45683   1
   0  15   6 1.95941 1.80376   2
   1  15   6 1.80326 0.84697   2
   1  15   6 11.6157 0.95275   1
   2  15   6 251.866 5.00571   1
   2  15   6 15.2676 1.11039   2
   4  15   5 59.6021 2.26102  -2
   3  15   6 59.6021 2.26102   1
   3  15   6 2.23278 0.87242   2
   5  15   5 203.289 4.82703  -2
   4  15   6 203.289 4.82703   1
   5  15   6 0.16450 1.28907   1
   5  15   6 -1.3825 1.18803   2
   6  15   6 0.19034 2.13402   2
   6  15   6 10.7123 2.25693   1
   7  15   6 2.49427 1.78348   1
   7  15   6 1.54438 1.61160   2
   8  15   6 7.16750 1.99044   2
   9  15   4 96.7012 5.81353  -2
   8  15   6 96.7012 5.81353   1
  10  15   4 7.22904 8.41030  -2
   9  15   6 7.22904 8.41030   1
   9  15   6 8.04963 3.57897   1
   9  15   6 0.38375 2.24712   2
 -11  16   6 49.4197 3.69316   1
 -11  16   6 4.54433 2.54160   2
 -10  16   6 0.81647 1.77152   2
 -10  16   6 -0.7541 1.81857   1
  -9  16   6 5.00692 1.62135   2
  -9  16   6 92.9054 3.49851   1
  -8  16   6 0.50686 1.45811   2
  -8  16   6 3.09490 1.87657   1
  -7  16   6 21.9787 2.27307   2
  -7  16   6 336.342 10.7386   1
  -6  16   7 344.756 15.5938  -2
  -7  16   6 344.756 15.5938   1
  -6  16   6 1.38255 1.55187   2
  -6  16   6 56.0508 3.60748   1
  -5  16   7 55.8787 9.41714  -2
  -6  16   6 55.8787 9.41714   1
  -5  16   6 3.00079 1.70435   2
  -5  16   6 0.94128 1.47370   1
  -4  16   6 2.91574 1.08994   1
  -4  16   6 1.01160 1.40031   2
  -3  16   6 132.828 3.49842   1
  -3  16   6 8.35445 1.14959   2
  -1  16   6 192.077 6.86471  -2
  -2  16   6 192.077 6.86471   1
  -2  16   6 12.3881 1.24697   2
  -2  16   6 186.106 9.27666   1
   0  16   6 241.021 7.93727  -2
  -1  16   6 241.021 7.93727   1
  -1  16   6 5.98152 2.03416   2
  -1  16   6 224.249 10.6868   1
   0  16   6 4.48382 1.01974   1
   1  16   6 12.5742 6.29417  -2
   0  16   6 12.5742 6.29417   1
   0  16   6 1.68317 2.00366   2
   1  16   6 1.55172 1.13285   2
   1  16   6 26.7588 1.43421   1
   2  16   6 4.70167 0.94727   2
   2  16   6 71.1712 2.20288   1
   4  16   5 479.729 9.03344  -2
   3  16   6 479.729 9.03344   1
   3  16   6 25.7636 1.48955   2
   5  16   5 3.29170 2.08618  -2
   4  16   6 3.29170 2.08618   1
   5  16   6 11.3222 1.57306   2
   5  16   6 212.758 7.43514   1
   6  16   6 2.28632 1.61476   1
   6  16   6 -0.4356 1.62047   2
   7  16   6 26.4495 2.31966   1
   7  16   6 3.11788 1.81831   2
   8  16   6 -3.4913 3.30947   1
   9  16   4 13.5663 6.80260  -2
   8  16   6 13.5663 6.80260   1
   8  16   6 0.20247 2.10774   2
   9  16   6 0.59929 2.46412   2
   9  16   6 24.4898 4.26746   1
 -10  17   6 -0.5111 2.00584   2
 -10  17   6 15.7232 2.26390   1
  -9  17   6 2.51706 1.77185   2
  -9  17   6 1.68680 1.80008   1
  -8  17   6 0.82131 1.53048   2
  -8  17   6 15.0546 2.27935   1
  -7  17   6 11.8257 2.75357   1
  -7  17   6 3.33147 2.98654   2
  -6  17   6 100.062 6.75685   1
  -6  17   6 6.28678 2.32185   2
  -5  17   6 47.0468 2.98438   1
  -5  17   6 3.18271 1.88256   2
  -4  17   6 7.65448 1.80049   2
  -4  17   6 160.766 4.17744   1
  -3  17   6 9.00326 2.12284   2
  -3  17   6 282.734 7.42836   1
  -2  17   6 0.94617 1.24081   2
  -2  17   6 4.19728 2.38653   1
  -1  17   6 22.3218 3.61184  -2
  -2  17   6 22.3218 3.61184   1
  -1  17   6 16.5911 2.82485   2
   0  17   6 448.949 13.6101  -2
  -1  17   6 448.949 13.6101   1
  -1  17   6 423.588 18.6909   1
   0  17   6 75.5095 3.16195   1
   0  17   6 3.80177 2.22222   2
   1  17   6 70.1393 8.62916  -2
   0  17   6 70.1393 8.62916   1
   1  17   6 5.39933 1.25920   2
   1  17   6 45.8054 2.09826   1
   2  17   6 8.32641 1.21962   2
   2  17   6 143.541 3.38621   1
   4  17   5 13.3893 2.20189  -2
   3  17   6 13.3893 2.20189   1
   3  17   6 0.07714 1.02487   2
   5  17   5 -3.2016 4.00671  -2
   4  17   6 -3.2016 4.00671   1
   5  17   6 16.8314 2.05016   1
   5  17   6 2.06919 1.83213   2
   6  17   6 4.43872 1.75125   1
   6  17   6 0.59620 1.80294   2
   7  17   6 87.6527 4.75833   1
   7  17   6 4.20736 2.11134   2
   8  17   6 -2.3812 2.37592   2
   8  17   6 10.1969 4.40640   1
   9  17   4 11.9816 7.92981  -2
   8  17   6 11.9816 7.92981   1
  -9  18   6 1.61071 2.19327   2
  -9  18   6 10.4650 2.12191   1
  -8  18   6 127.133 5.11181   1
  -8  18   6 10.4011 1.88155   2
  -7  18   6 45.4952 3.80920   1
  -7  18   6 3.48778 1.58996   2
  -6  18   7 42.4238 9.32084  -2
  -7  18   6 42.4238 9.32084   1
  -6  18   6 -0.7436 2.24256   2
  -6  18   6 26.8744 2.67903   1
  -5  18   6 0.04336 1.71368   2
  -5  18   6 -2.4946 2.47635   1
  -4  18   6 4.80048 2.63631   1
  -4  18   6 -0.1606 2.72593   2
  -3  18   6 3.71656 1.52771   2
  -3  18   6 55.8476 2.98477   1
  -2  18   6 7.56125 1.48475   2
  -2  18   6 74.4723 5.74067   1
  -1  18   6 77.1874 4.72862  -2
  -2  18   6 77.1874 4.72862   1
  -1  18   6 3.70264 2.40214   2
   0  18   6 53.7430 2.93641  -2
  -1  18   6 53.7430 2.93641   1
  -1  18   6 46.4069 4.73907   1
   1  18   6 30.3462 2.79861  -2
   0  18   6 30.3462 2.79861   1
   0  18   6 -1.4123 2.35393   2
   1  18   6 8.58841 1.26139   1
   2  18   6 89.1457 3.07634   1
   2  18   6 6.63765 1.42069   2
   4  18   5 55.3212 3.40921  -2
   3  18   6 55.3212 3.40921   1
   3  18   6 4.91662 1.43669   2
   5  18   5 254.988 9.25581  -2
   4  18   6 254.988 9.25581   1
   5  18   6 8.52458 1.77727   1
   5  18   6 -0.3831 1.85403   2
   6  18   6 52.1946 3.17994   1
   6  18   6 0.01555 2.13125   2
   7  18   6 20.9139 2.71490   1
   7  18   6 1.93156 2.37452   2
  -8  19   6 11.6257 2.30566   1
  -8  19   6 -0.3884 2.38531   2
  -7  19   6 5.94047 3.47068   1
  -6  19   7 5.42758 10.0095  -2
  -7  19   6 5.42758 10.0095   1
  -7  19   6 -0.1719 2.14416   2
  -6  19   6 11.6501 2.69066   2
  -5  19   7 277.021 13.9952  -2
  -6  19   6 277.021 13.9952   1
  -6  19   6 256.327 13.0461   1
  -5  19   6 7.84914 3.24980   1
  -5  19   6 -0.0117 2.43973   2
  -4  19   6 2.37605 2.85025   2
  -4  19   6 13.5879 3.33196   1
  -3  19   6 133.926 5.24257   1
  -3  19   6 5.98959 2.87335   2
  -2  19   6 -0.9587 1.73979   2
  -1  19   6 11.0762 4.30835  -2
  -2  19   6 11.0762 4.30835   1
  -2  19   6 0.70303 2.67119   1
  -1  19   6 2.49383 3.01157   2
  -1  19   6 112.436 8.19347   1
   0  19   6 103.302 10.3701  -2
  -1  19   6 103.302 10.3701   1
   0  19   6 -0.6146 2.90857   1
   1  19   6 3.63782 10.5356  -2
   0  19   6 3.63782 10.5356   1
   1  19   6 41.4249 3.33829   1
   1  19   6 1.69007 2.37499   2
   2  19   6 15.7082 1.86775   2
   2  19   6 226.553 6.97216   1
   3  19   6 2.28471 1.54312   2
   4  19   5 21.6015 3.38712  -2
   3  19   6 21.6015 3.38712   1
   5  19   5 21.8428 3.98465  -2
   4  19   6 21.8428 3.98465   1
   5  19   6 3.50969 2.16968   1
   5  19   6 -2.8319 2.59437   2
   6  19   6 100.795 5.87054   1
   6  19   6 9.56769 2.93186   2
  -7  20   6 8.97386 2.57909   2
  -7  20   6 132.820 9.59298   1
  -6  20   6 -3.0327 2.06166   2
  -6  20   6 18.2358 4.44329   1
  -5  20   6 -0.1187 3.45564   2
  -5  20   6 0.31830 3.33490   1
  -4  20   6 82.7745 6.84681   1
  -4  20   6 5.55333 3.41312   2
  -3  20   6 16.9443 3.57505   1
  -3  20   6 3.08201 3.30120   2
  -1  20   6 6.24810 5.24030  -2
  -2  20   6 6.24810 5.24030   1
  -2  20   6 -1.2557 1.97412   2
  -2  20   6 8.57159 3.35442   1
   0  20   6 50.3073 3.48760  -2
  -1  20   6 50.3073 3.48760   1
  -1  20   6 2.86680 3.00382   2
   1  20   6 22.0867 3.56664  -2
   0  20   6 22.0867 3.56664   1
   1  20   6 16.6884 1.86899   1
   2  20   6 9.59180 1.69882   1
   2  20   6 -0.0166 1.70815   2
   3  20   6 11.9964 1.99664   2
   4  20   5 149.749 5.82614  -2
   3  20   6 149.749 5.82614   1
   4  20   6 6.25716 2.76859   2
   5  20   5 90.1612 6.25696  -2
   4  20   6 90.1612 6.25696   1
   5  20   6 123.724 6.40327   1
   5  20   6 7.40912 3.16512   2
  -6  21   6 24.6339 4.96867   1
  -6  21   6 3.90194 2.64970   2
  -5  21   6 0.87974 3.75102   2
  -5  21   6 81.4539 7.85012   1
  -4  21   6 79.0560 7.48604   1
  -4  21   6 4.29529 3.55807   2
  -3  21   6 7.26523 3.81503   2
  -3  21   6 227.344 12.1606   1
  -2  21   6 5.24441 3.64805   1
  -1  21   6 25.0736 4.11480  -2
  -2  21   6 25.0736 4.11480   1
  -2  21   6 1.58660 3.50209   2
   0  21   6 267.489 8.41781  -2
  -1  21   6 267.489 8.41781   1
   1  21   6 45.3025 4.47241  -2
   0  21   6 45.3025 4.47241   1
   1  21   6 55.8399 3.64551   1
   2  21   6 33.5757 3.34982   1
   2  21   6 0.92094 2.01505   2
   4  21   5 37.7899 5.89867  -2
   3  21   6 37.7899 5.89867   1
   3  21   6 3.37681 2.58435   2
   5  21   5 51.1221 6.21621  -2
   4  21   6 51.1221 6.21621   1
   4  21   6 5.45973 3.25050   2
  -4  22   6 -1.6994 4.08931   2
  -4  22   6 10.3481 4.51387   1
  -3  22   6 100.076 5.23813   1
  -3  22   6 5.65824 4.07868   2
  -1  22   6 34.1501 6.54831  -2
  -2  22   6 34.1501 6.54831   1
  -2  22   6 6.42526 4.11956   2
   0  22   6 134.274 5.80702  -2
  -1  22   6 134.274 5.80702   1
   1  22   6 24.2994 4.92362  -2
   0  22   6 24.2994 4.92362   1
   1  22   6 96.5389 4.61972   1
   2  22   6 2.67041 2.22320   2
   2  22   6 51.0132 5.63415   1
 -15   0   7 141.326 7.08589   1
 -15   0   7 7.77720 3.16353   2
 -14   0   7 -0.8852 2.09716   2
 -14   0   7 2.56955 2.22308   1
 -13   0   7 438.085 10.9091   1
 -13   0   7 22.1179 2.38421   2
 -12   0   7 0.30866 1.77218   1
 -11   0   9 -0.9871 4.92492  -2
 -12   0   7 -0.9871 4.92492   1
 -12   0   7 -1.8149 1.42308   2
 -11   0   7 647.183 15.4355   1
 -11   0   7 35.6062 2.34461   2
 -10   0   9 677.537 28.5875  -2
 -11   0   7 677.537 28.5875   1
 -10   0   7 1.49432 1.12241   1
 -10   0   7 2.28178 1.03405   2
  -9   0   7 9.48497 1.26105   1
  -9   0   7 0.15835 0.85337   2
  -8   0   7 -0.0379 0.27957   2
  -8   0   7 0.02406 0.41121   1
  -7   0   7 0.40344 0.29912   2
  -6   0   8 22.3540 1.13171  -2
  -7   0   7 22.3540 1.13171   1
  -5   0   8 0.43699 0.66451  -2
  -6   0   7 0.43699 0.66451   1
  -6   0   7 -0.0634 0.24340   2
  -5   0   7 0.93273 0.25935   2
  -5   0   7 16.3102 0.72121   1
  -4   0   7 0.08804 0.21702   2
  -4   0   7 2.17132 0.28427   1
  -3   0   7 669.459 13.2022   1
  -3   0   7 37.0929 1.16371   2
  -1   0   7 21.5972 0.83794  -2
  -2   0   7 21.5972 0.83794   1
   0   0   7 419.542 9.60139  -2
  -1   0   7 419.542 9.60139   1
   0   0   7 0.39902 0.20183   1
   1   0   7 0.14539 0.22773   2
   1   0   7 0.70418 0.24520   1
   2   0   7 0.33317 0.15196   1
   2   0   7 0.09262 0.19554   2
   4   0   6 2381.78 37.0601  -2
   3   0   7 2381.78 37.0601   1
   3   0   7 138.722 2.86505   2
   4   0   7 0.46936 0.25678   2
   4   0   7 1.09744 0.27358   1
   5   0   7 34.2705 1.03991   2
   5   0   7 642.810 12.3576   1
   6   0   7 0.59260 0.57638   1
   6   0   7 0.26728 0.44521   2
   7   0   7 23.8155 0.99334   2
   7   0   7 456.244 8.09567   1
   8   0   7 0.33943 0.90235   1
   9   0   5 42.3163 2.89349  -2
   8   0   7 42.3163 2.89349   1
   8   0   7 -0.5163 0.65365   2
   9   0   7 10.4815 1.20331   1
   9   0   7 1.39769 0.87516   2
  10   0   7 1.83359 1.11889   2
  10   0   7 3.95860 1.72818   1
  11   0   7 5.67231 2.15089   1
  11   0   7 0.59012 1.81719   2
  12   0   7 8.06478 3.27499   1
  12   0   7 0.78659 3.29674   2
 -15   1   7 0.88049 1.94263   2
 -15   1   7 -0.7576 2.06451   1
 -14   1   7 -0.3364 1.50274   2
 -14   1   7 -0.1195 1.54558   1
 -13   1   7 5.21882 1.45852   2
 -13   1   7 116.752 3.33730   1
 -12   1   7 0.52440 1.01124   2
 -12   1   7 24.8645 1.68329   1
 -11   1   9 27.0256 3.83202  -2
 -12   1   7 27.0256 3.83202   1
 -11   1   7 15.9597 1.14691   2
 -11   1   7 285.216 5.39614   1
 -10   1   9 304.735 9.99375  -2
 -11   1   7 304.735 9.99375   1
 -10   1   7 -0.4246 0.72068   2
 -10   1   7 3.62568 0.81826   1
  -9   1   7 123.729 2.38685   1
  -9   1   7 6.83068 0.73627   2
  -8   1   7 6.30665 0.53351   2
  -8   1   7 104.521 1.84339   1
  -6   1   8 238.967 4.25772  -2
  -7   1   7 238.967 4.25772   1
  -7   1   7 12.4672 0.51827   2
  -6   1   7 62.9857 1.19233   2
  -5   1   8 1100.42 21.5098  -2
  -6   1   7 1100.42 21.5098   1
  -6   1   7 1072.08 38.6885   1
  -5   1   7 425.854 7.15216   1
  -5   1   7 22.1518 0.65650   2
  -4   1   7 -0.0374 0.15946   2
  -4   1   7 1.48941 0.17573   1
  -3   1   7 16.3678 0.43600   2
  -3   1   7 313.273 5.11584   1
  -2   1   7 371.762 16.6041  -2
  -3   1   7 371.762 16.6041   1
  -1   1   7 770.555 11.4219  -2
  -2   1   7 770.555 11.4219   1
  -2   1   7 40.8416 0.83670   2
   0   1   7 706.894 11.2858  -2
  -1   1   7 706.894 11.2858   1
   0   1   7 136.043 2.17341   1
   1   1   7 755.709 9.80594   1
   1   1   7 43.6594 1.05388   2
   2   1   7 4.76192 0.28326   2
   2   1   7 105.535 1.55307   1
   3   1   6 108.631 4.64293  -2
   2   1   7 108.631 4.64293   1
   4   1   6 275.618 3.67580  -2
   3   1   7 275.618 3.67580   1
   3   1   7 12.8704 0.36660   2
   4   1   7 14.4640 0.43715   2
   4   1   7 270.603 4.41016   1
   5   1   7 254.773 3.45833   1
   5   1   7 12.8096 0.45622   2
   6   1   7 0.05864 0.29641   2
   6   1   7 6.49662 0.42419   1
   7   1   7 0.71916 0.36493   2
   7   1   7 2.64255 0.47543   1
   8   1   5 9.08932 3.79395  -2
   7   1   7 9.08932 3.79395   1
   9   1   5 20.1971 2.07610  -2
   8   1   7 20.1971 2.07610   1
   8   1   7 15.8677 0.87536   1
   8   1   7 1.01948 0.47949   2
   9   1   7 18.9839 0.93447   2
   9   1   7 335.960 5.00350   1
  10   1   7 17.3036 1.40593   1
  10   1   7 0.57758 0.82533   2
  11   1   7 4.04499 1.48439   1
  11   1   7 -1.1618 1.32268   2
  12   1   7 99.4002 4.62304   1
  12   1   7 5.86904 2.34514   2
 -15   2   7 -1.0962 1.95515   2
 -15   2   7 11.5409 2.18896   1
 -14   2   7 60.4152 3.13938   1
 -14   2   7 2.16415 1.71710   2
 -13   2   7 35.4412 2.05404   1
 -13   2   7 1.96442 1.29537   2
 -12   2   7 9.36257 1.17040   2
 -12   2   7 141.175 3.54044   1
 -11   2   9 153.965 9.01481  -2
 -12   2   7 153.965 9.01481   1
 -11   2   7 20.8043 1.39646   1
 -11   2   7 2.61080 0.91438   2
 -10   2   9 17.0894 3.20016  -2
 -11   2   7 17.0894 3.20016   1
 -10   2   7 2.37958 0.76012   2
 -10   2   7 35.0785 1.50282   1
  -9   2   7 21.3464 0.89916   1
  -9   2   7 2.80630 0.63698   2
  -8   2   7 48.3185 1.52130   2
  -8   2   7 889.320 12.4472   1
  -6   2   8 81.9097 1.51008  -2
  -7   2   7 81.9097 1.51008   1
  -7   2   7 4.44421 0.33949   2
  -6   2   7 4.81822 0.31061   2
  -5   2   8 73.2874 1.54883  -2
  -6   2   7 73.2874 1.54883   1
  -5   2   7 57.8582 1.18805   1
  -5   2   7 3.30588 0.28114   2
  -4   2   7 308.843 4.76675   1
  -4   2   7 17.0379 0.52423   2
  -3   2   7 2.44044 0.21561   2
  -3   2   7 50.0131 0.96621   1
  -2   2   7 100.611 5.23269  -2
  -3   2   7 100.611 5.23269   1
  -2   2   7 61.6636 1.56239   2
  -1   2   7 1113.60 19.5876  -2
  -2   2   7 1113.60 19.5876   1
   0   2   7 491.910 7.92830  -2
  -1   2   7 491.910 7.92830   1
   0   2   7 1773.54 25.7780   1
   0   2   7 113.170 4.64528   2
   1   2   7 39.6366 0.79522   1
   1   2   7 1.80417 0.28796   2
   2   2   7 3.52598 0.24880   2
   2   2   7 62.1815 1.06260   1
   3   2   6 63.2236 2.97313  -2
   2   2   7 63.2236 2.97313   1
   4   2   6 81.5848 1.33223  -2
   3   2   7 81.5848 1.33223   1
   3   2   7 4.37970 0.27154   2
   3   2   7 79.9576 3.53788   1
   4   2   7 2.02407 0.24395   2
   4   2   7 33.4209 0.70523   1
   5   2   7 10.0781 0.47453   1
   5   2   7 0.44757 0.28559   2
   6   2   7 285.865 3.87125   1
   6   2   7 15.6516 0.60382   2
   7   2   7 150.517 2.44231   1
   7   2   7 7.88510 0.47683   2
   8   2   5 161.556 7.22098  -2
   7   2   7 161.556 7.22098   1
   8   2   7 43.3866 1.15143   2
   9   2   5 764.235 13.4445  -2
   8   2   7 764.235 13.4445   1
   8   2   7 765.310 14.7273   1
   9   2   7 3.97900 0.80422   1
   9   2   7 -0.1013 0.65988   2
  10   2   7 1.93148 1.05136   1
  10   2   7 0.49313 1.01578   2
  11   2   7 3.07231 1.49848   1
  11   2   7 2.26872 1.43720   2
  12   2   7 118.600 4.75596   1
  12   2   7 6.83774 3.01255   2
 -15   3   7 17.0385 5.05417   1
 -14   3   7 -0.3525 1.68681   2
 -14   3   7 3.29574 1.80780   1
 -13   3   7 4.85140 1.42613   2
 -13   3   7 37.6347 2.25548   1
 -12   3   7 4.59654 1.26863   1
 -12   3   7 -0.6748 1.04506   2
 -11   3   9 4.47185 5.05662  -2
 -12   3   7 4.47185 5.05662   1
 -11   3   7 2.74971 0.93540   2
 -11   3   7 47.5872 2.19420   1
 -10   3   9 76.5049 4.32844  -2
 -11   3   7 76.5049 4.32844   1
 -10   3   7 36.5617 1.42729   1
 -10   3   7 2.29401 0.76673   2
  -9   3   7 0.11803 0.41441   2
  -9   3   7 1.05641 0.47097   1
  -8   3   7 4.42401 0.54289   2
  -8   3   7 73.0249 1.62324   1
  -6   3   8 131.438 2.50957  -2
  -7   3   7 131.438 2.50957   1
  -7   3   7 6.41337 0.68562   2
  -5   3   8 1730.26 37.0923  -2
  -6   3   7 1730.26 37.0923   1
  -6   3   7 97.4045 2.30782   2
  -6   3   7 1645.91 65.9939   1
  -5   3   7 38.3854 0.78310   1
  -5   3   7 2.78680 0.24729   2
  -4   3   7 34.9718 0.79420   1
  -4   3   7 1.92640 0.18962   2
  -3   3   7 23.4095 0.61702   2
  -2   3   7 532.422 15.3596  -2
  -3   3   7 532.422 15.3596   1
  -3   3   7 413.907 8.26091   1
  -1   3   7 1668.75 26.7768  -2
  -2   3   7 1668.75 26.7768   1
  -2   3   7 84.8114 2.24414   2
   0   3   7 579.219 10.3168  -2
  -1   3   7 579.219 10.3168   1
   0   3   7 6.54697 0.30966   1
   1   3   7 2.41902 0.22566   1
   1   3   7 0.24679 0.15904   2
   2   3   7 28.5332 0.56126   1
   2   3   7 1.38535 0.19088   2
   3   3   6 50.2476 2.48561  -2
   2   3   7 50.2476 2.48561   1
   4   3   6 48.2078 1.01689  -2
   3   3   7 48.2078 1.01689   1
   3   3   7 1.32955 0.23066   2
   3   3   7 24.0887 1.41060   1
   4   3   7 54.8288 1.10714   1
   4   3   7 2.92833 0.27093   2
   5   3   6 85.4087 2.84686  -2
   4   3   7 85.4087 2.84686   1
   5   3   7 0.32449 0.28018   2
   5   3   7 2.37694 0.31612   1
   6   3   7 29.4759 0.84342   1
   6   3   7 1.75543 0.37169   2
   7   3   7 5.13846 0.46361   2
   7   3   7 97.9016 1.79468   1
   8   3   7 105.387 2.40200   1
   8   3   7 6.19860 0.61090   2
   9   3   5 114.957 4.24699  -2
   8   3   7 114.957 4.24699   1
   9   3   7 157.839 3.04156   1
   9   3   7 9.31536 0.76977   2
  10   3   7 147.162 3.19569   1
  10   3   7 8.95315 1.26711   2
  11   3   7 24.4401 2.05382   1
  11   3   7 0.02512 1.43723   2
  12   3   7 8.57746 3.11593   2
  12   3   7 180.745 5.74542   1
 -14   4   7 0.95043 1.87377   1
 -14   4   7 -0.7087 1.73846   2
 -13   4   7 6.93220 1.54600   2
 -13   4   7 122.671 3.61395   1
 -12   4   7 3.42049 1.29075   1
 -12   4   7 0.17641 1.08866   2
 -11   4   9 17.5805 6.11506  -2
 -12   4   7 17.5805 6.11506   1
 -11   4   7 19.1010 1.22036   2
 -11   4   7 290.485 5.40502   1
 -10   4   9 304.382 14.1485  -2
 -11   4   7 304.382 14.1485   1
 -10   4   7 0.09867 0.83357   2
 -10   4   7 11.4560 0.77171   1
  -9   4   7 8.29320 1.03352   1
  -9   4   7 -0.2401 0.44731   2
  -8   4   7 10.8738 0.86005   2
  -8   4   7 203.039 3.76685   1
  -6   4   8 121.290 2.57354  -2
  -7   4   7 121.290 2.57354   1
  -7   4   7 7.01673 0.55536   2
  -6   4   7 10.4010 0.45666   2
  -5   4   8 161.755 3.56382  -2
  -6   4   7 161.755 3.56382   1
  -6   4   7 159.440 6.40252   1
  -5   4   7 20.1281 0.67487   2
  -5   4   7 368.770 5.58988   1
  -4   4   7 1257.46 18.4408   1
  -4   4   7 74.4962 1.50339   2
  -3   4   7 2.66032 0.21399   2
  -3   4   7 49.6956 1.35332   1
  -2   4   7 50.5384 1.70449  -2
  -3   4   7 50.5384 1.70449   1
  -1   4   7 2.10322 0.32941  -2
  -2   4   7 2.10322 0.32941   1
  -2   4   7 0.14663 0.20364   2
   0   4   7 23.7755 0.73506  -2
  -1   4   7 23.7755 0.73506   1
   0   4   7 361.838 5.44173   1
   1   4   7 0.08040 0.15529   2
   1   4   7 4.08609 0.23702   1
   2   4   7 0.39685 0.16484   2
   3   4   6 10.3517 0.87911  -2
   2   4   7 10.3517 0.87911   1
   2   4   7 1.42721 0.19571   1
   3   4   7 104.435 2.54308   2
   4   4   6 1921.85 36.8106  -2
   3   4   7 1921.85 36.8106   1
   3   4   7 1826.60 69.2180   1
   4   4   7 0.16057 0.27402   2
   4   4   7 3.99667 0.39210   1
   5   4   6 12.8669 1.33680  -2
   4   4   7 12.8669 1.33680   1
   5   4   7 324.277 4.11786   1
   5   4   7 18.0151 0.65057   2
   6   4   7 11.8322 0.54655   1
   6   4   7 0.61034 0.34911   2
   7   4   7 7.21164 0.51778   2
   7   4   7 133.291 2.43460   1
   8   4   7 23.4940 1.64291   1
   8   4   7 1.31017 0.57594   2
   9   4   5 41.7934 3.23809  -2
   8   4   7 41.7934 3.23809   1
   9   4   7 5.43239 1.03378   1
   9   4   7 -1.1079 0.80102   2
  10   4   7 126.927 3.27956   1
  10   4   7 6.08329 1.32399   2
  11   4   7 -0.9053 1.65465   2
  11   4   7 0.02256 1.66782   1
  12   4   7 6.67519 2.76767   2
  12   4   7 133.680 5.14865   1
 -14   5   7 0.11076 1.78286   2
 -14   5   7 1.58668 1.89833   1
 -13   5   7 50.8259 2.69324   1
 -13   5   7 3.68453 1.53576   2
 -12   5   7 9.34697 1.76365   2
 -12   5   7 159.043 5.29520   1
 -11   5   9 147.371 9.13148  -2
 -12   5   7 147.371 9.13148   1
 -10   5   9 191.021 6.24686  -2
 -11   5   7 191.021 6.24686   1
 -11   5   7 182.329 4.54742   1
 -11   5   7 12.8649 1.25348   2
 -10   5   7 12.9111 1.11516   2
 -10   5   7 199.171 3.55932   1
  -9   5   7 138.617 2.89486   1
  -9   5   7 10.3744 0.72150   2
  -8   5   7 6.84220 0.85441   2
  -8   5   7 86.9483 2.03782   1
  -6   5   8 157.722 3.69731  -2
  -7   5   7 157.722 3.69731   1
  -7   5   7 6.51549 0.72121   2
  -5   5   8 26.1787 0.98446  -2
  -6   5   7 26.1787 0.98446   1
  -6   5   7 19.7614 1.44187   1
  -6   5   7 0.99331 0.54460   2
  -5   5   7 0.46635 0.17391   1
  -5   5   7 0.13301 0.21061   2
  -4   5   7 1.11077 0.18364   1
  -4   5   7 0.52279 0.16341   2
  -3   5   7 353.236 5.33349   1
  -3   5   7 19.9820 0.50866   2
  -1   5   7 20.0664 0.75472  -2
  -2   5   7 20.0664 0.75472   1
  -2   5   7 0.20872 0.23473   2
   0   5   7 381.459 6.31445  -2
  -1   5   7 381.459 6.31445   1
   0   5   7 123.811 2.19926   1
   1   5   7 32.1853 0.79871   2
   1   5   7 559.249 8.40001   1
   2   5   7 605.191 10.3066   1
   2   5   7 35.2585 0.95224   2
   3   5   6 621.058 23.9813  -2
   2   5   7 621.058 23.9813   1
   3   5   7 8.30497 0.40232   2
   4   5   6 178.468 5.48071  -2
   3   5   7 178.468 5.48071   1
   3   5   7 166.613 6.80522   1
   4   5   7 29.9097 0.74284   2
   4   5   7 570.941 7.88552   1
   5   5   6 462.604 17.5032  -2
   4   5   7 462.604 17.5032   1
   5   5   7 35.5702 0.89935   2
   5   5   7 667.393 8.18906   1
   6   5   7 10.1174 0.58167   1
   6   5   7 -0.0799 0.41116   2
   7   5   7 -0.1450 0.49784   2
   7   5   7 0.94706 0.59228   1
   8   5   7 59.1556 2.20357   1
   9   5   5 67.4433 4.35373  -2
   8   5   7 67.4433 4.35373   1
   8   5   7 3.12052 0.68493   2
   9   5   7 264.212 4.84113   1
   9   5   7 13.6271 1.16772   2
  10   5   7 51.1943 2.29033   1
  10   5   7 2.87650 2.05034   2
  11   5   7 4.65236 1.82375   2
  11   5   7 25.7988 2.43016   1
  12   5   7 -0.7298 3.71686   2
  12   5   7 7.65107 2.63291   1
 -14   6   7 2.19413 1.88621   2
 -14   6   7 6.28631 2.07140   1
 -13   6   7 0.72793 1.52105   2
 -13   6   7 37.3674 2.20082   1
 -12   6   7 5.95862 1.51587   2
 -12   6   7 60.6856 3.88044   1
 -11   6   9 54.0943 11.1168  -2
 -12   6   7 54.0943 11.1168   1
 -11   6   7 84.8972 3.51144   1
 -11   6   7 4.85870 1.27469   2
 -10   6   9 92.4136 5.81943  -2
 -11   6   7 92.4136 5.81943   1
 -10   6   7 74.5228 1.92119   1
 -10   6   7 5.18750 0.79778   2
  -9   6   7 21.4410 1.32444   2
  -9   6   7 398.758 6.78225   1
  -8   6   7 172.972 3.75961   1
  -8   6   7 11.5199 0.86344   2
  -7   6   7 10.5011 0.86075   2
  -6   6   8 241.511 5.25297  -2
  -7   6   7 241.511 5.25297   1
  -6   6   7 280.492 8.05383   1
  -6   6   7 15.0512 0.99480   2
  -5   6   8 287.464 7.35060  -2
  -6   6   7 287.464 7.35060   1
  -5   6   7 0.90336 0.20586   1
  -5   6   7 0.07621 0.17710   2
  -4   6   7 26.8455 0.61681   1
  -4   6   7 1.52382 0.22238   2
  -3   6   7 21.0434 0.60848   1
  -3   6   7 1.01462 0.17857   2
  -2   6   7 50.0306 1.88178  -2
  -3   6   7 50.0306 1.88178   1
  -2   6   7 32.8821 0.84767   2
  -1   6   7 575.925 8.57338  -2
  -2   6   7 575.925 8.57338   1
   0   6   7 619.967 9.20545  -2
  -1   6   7 619.967 9.20545   1
   0   6   7 135.586 2.39236   1
   1   6   7 498.798 7.52617   1
   1   6   7 28.4489 0.74410   2
   2   6   7 8.60988 0.38603   2
   2   6   7 161.969 3.93987   1
   3   6   7 32.5208 0.87344   2
   4   6   6 655.087 11.2232  -2
   3   6   7 655.087 11.2232   1
   3   6   7 639.268 24.6016   1
   4   6   7 0.35616 0.28901   2
   5   6   6 40.8497 2.83102  -2
   4   6   7 40.8497 2.83102   1
   4   6   7 17.0846 0.70236   1
   5   6   7 0.67180 0.38655   2
   5   6   7 14.5683 0.76535   1
   6   6   7 3.44989 0.63463   1
   6   6   7 0.34874 0.46134   2
   7   6   7 22.9971 1.14954   2
   7   6   7 405.575 6.68859   1
   8   6   5 403.161 16.5141  -2
   7   6   7 403.161 16.5141   1
   8   6   7 15.6155 1.20540   2
   8   6   7 276.129 6.02238   1
   9   6   5 288.166 13.5699  -2
   8   6   7 288.166 13.5699   1
   9   6   7 21.1332 1.51013   1
   9   6   7 -0.7225 1.18313   2
  10   6   7 0.03052 1.59454   2
  10   6   7 19.4873 1.85386   1
  11   6   7 69.2595 3.66004   1
  11   6   7 5.04492 2.28822   2
  12   6   7 -1.9140 2.58190   1
  12   6   7 -3.1698 3.89296   2
 -14   7   7 8.37127 2.33764   1
 -14   7   7 -1.5535 2.03850   2
 -13   7   7 9.69554 1.71369   2
 -13   7   7 132.803 3.78012   1
 -12   7   7 33.6452 2.49921   1
 -12   7   7 3.15473 1.59534   2
 -11   7   9 25.7663 6.94168  -2
 -12   7   7 25.7663 6.94168   1
 -10   7   9 16.8302 3.59682  -2
 -11   7   7 16.8302 3.59682   1
 -11   7   7 -0.6350 1.20555   2
 -11   7   7 3.48979 2.03553   1
 -10   7   7 3.69185 1.09825   2
 -10   7   7 72.9144 1.94299   1
  -9   7   7 11.5961 0.96481   2
  -9   7   7 175.244 3.43104   1
  -8   7   7 -0.1411 0.63217   2
  -8   7   7 5.50427 0.82354   1
  -6   7   8 96.4979 2.61042  -2
  -7   7   7 96.4979 2.61042   1
  -7   7   7 6.26714 0.78032   2
  -6   7   7 540.925 12.0472   1
  -6   7   7 29.2074 1.38722   2
  -5   7   8 558.941 12.8466  -2
  -6   7   7 558.941 12.8466   1
  -5   7   7 56.9557 1.10630   1
  -5   7   7 3.71760 0.33416   2
  -4   7   7 1.64240 0.23400   2
  -4   7   7 28.5621 0.73212   1
  -3   7   7 0.60540 0.25024   1
  -3   7   7 -0.1840 0.18528   2
  -2   7   7 60.6530 2.82075  -2
  -3   7   7 60.6530 2.82075   1
  -2   7   7 50.1508 1.46806   2
  -1   7   7 873.619 14.1760  -2
  -2   7   7 873.619 14.1760   1
   0   7   7 434.419 7.18736  -2
  -1   7   7 434.419 7.18736   1
   0   7   7 109.452 1.71705   1
   1   7   7 35.4080 0.86954   2
   1   7   7 573.193 10.0902   1
   2   7   7 0.33183 0.33094   2
   2   7   7 5.37612 0.45140   1
   3   7   7 1.00704 0.35723   2
   4   7   6 57.3057 1.41317  -2
   3   7   7 57.3057 1.41317   1
   3   7   7 14.2837 1.14505   1
   5   7   6 52.6914 3.27912  -2
   4   7   7 52.6914 3.27912   1
   4   7   7 2.55208 0.42105   2
   4   7   7 45.7127 1.39596   1
   5   7   7 32.5046 0.97938   2
   5   7   7 587.780 8.60462   1
   6   7   7 81.5036 1.90279   1
   6   7   7 3.28815 0.51290   2
   7   7   7 382.527 6.99165   1
   7   7   7 22.9171 1.20093   2
   8   7   5 398.872 16.4616  -2
   7   7   7 398.872 16.4616   1
   8   7   7 -0.3393 0.95029   2
   9   7   5 22.3155 7.38683  -2
   8   7   7 22.3155 7.38683   1
   8   7   7 0.87709 0.98803   1
   9   7   7 0.75574 1.41232   2
   9   7   7 53.4771 2.25003   1
  10   7   7 132.711 3.86692   1
  10   7   7 7.27205 1.98983   2
  11   7   7 10.7921 2.35614   1
  11   7   7 -1.4678 2.30320   2
  12   7   7 -1.8044 3.76666   2
  12   7   7 49.9058 3.79985   1
 -14   8   7 15.7679 2.60956   1
 -14   8   7 2.48262 2.17477   2
 -13   8   7 9.91070 1.94038   1
 -13   8   7 2.07764 1.74695   2
 -12   8   7 1.26259 1.82344   1
 -11   8   9 6.72831 7.03175  -2
 -12   8   7 6.72831 7.03175   1
 -12   8   7 -1.1541 1.79803   2
 -11   8   7 3.35752 1.33228   2
 -10   8   9 10.3511 3.82789  -2
 -11   8   7 10.3511 3.82789   1
 -11   8   7 3.46138 2.18239   1
 -10   8   7 20.9294 1.27909   1
 -10   8   7 1.24193 1.12209   2
  -9   8   7 38.8137 1.54989   1
  -9   8   7 1.93291 0.82738   2
  -8   8   7 24.9151 1.13324   2
  -8   8   7 363.488 6.78019   1
  -7   8   7 16.7289 1.15771   2
  -6   8   8 343.760 8.52330  -2
  -7   8   7 343.760 8.52330   1
  -5   8   8 52.1858 5.66514  -2
  -6   8   7 52.1858 5.66514   1
  -6   8   7 48.9334 2.05175   1
  -6   8   7 2.48169 0.77289   2
  -5   8   7 169.141 3.20731   1
  -5   8   7 9.11823 0.54724   2
  -4   8   7 1946.86 31.2420   1
  -4   8   7 117.707 2.54937   2
  -3   8   7 232.518 5.29572   1
  -3   8   7 13.6099 0.58946   2
  -2   8   7 255.693 11.0639  -2
  -3   8   7 255.693 11.0639   1
  -2   8   7 4.52962 0.43386   2
  -1   8   7 61.5950 1.55320  -2
  -2   8   7 61.5950 1.55320   1
   0   8   7 166.898 3.55181  -2
  -1   8   7 166.898 3.55181   1
   0   8   7 61.4613 1.30553   1
   1   8   7 2.80979 0.32699   2
   1   8   7 54.9407 1.33822   1
   2   8   7 7.59206 0.65480   1
   2   8   7 0.52085 0.32416   2
   4   8   6 94.0370 2.24552  -2
   3   8   7 94.0370 2.24552   1
   3   8   7 3.61275 0.48718   2
   3   8   7 75.9391 3.94877   1
   4   8   7 1.79721 0.43764   2
   4   8   7 36.5144 1.02202   1
   5   8   7 3.49540 0.47041   2
   5   8   7 57.2687 1.50687   1
   6   8   7 3.04705 0.51019   2
   6   8   7 48.3147 1.48311   1
   7   8   7 -0.3176 0.85739   2
   7   8   7 2.97516 0.98238   1
   8   8   5 -1.0727 5.97215  -2
   7   8   7 -1.0727 5.97215   1
   8   8   7 3.18756 1.07216   2
   9   8   5 64.6542 8.21984  -2
   8   8   7 64.6542 8.21984   1
   8   8   7 50.3835 2.47368   1
   9   8   7 16.8533 1.58434   1
   9   8   7 2.84930 1.72863   2
  10   8   7 171.124 4.78429   1
  10   8   7 8.81455 2.13812   2
  11   8   7 37.3247 4.02448   1
  11   8   7 0.93241 2.23309   2
 -13   9   7 2.91422 2.05932   2
 -13   9   7 44.0877 2.78456   1
 -12   9   7 131.784 5.91536   1
 -12   9   7 7.53419 1.84902   2
 -11   9   9 107.551 9.52288  -2
 -12   9   7 107.551 9.52288   1
 -11   9   7 81.4387 6.35923   1
 -11   9   7 1.83550 2.91591   2
 -10   9   9 87.5436 5.15055  -2
 -11   9   7 87.5436 5.15055   1
 -10   9   7 459.121 7.93143   1
 -10   9   7 27.6464 1.75252   2
  -9   9   7 9.27598 0.96450   1
  -9   9   7 0.50945 0.88251   2
  -8   9   7 32.8765 1.47624   1
  -8   9   7 2.10015 0.90985   2
  -7   9   7 5.83536 0.82397   2
  -6   9   8 106.939 5.01589  -2
  -7   9   7 106.939 5.01589   1
  -6   9   7 57.0428 4.01210   1
  -6   9   7 2.42015 0.84574   2
  -5   9   8 62.7803 6.08361  -2
  -6   9   7 62.7803 6.08361   1
  -5   9   7 5.34213 0.44371   2
  -5   9   7 95.9761 2.80061   1
  -4   9   7 0.31050 0.40437   2
  -4   9   7 15.1431 1.04632   1
  -3   9   7 16.9409 0.90599   1
  -3   9   7 0.88421 0.40566   2
  -2   9   7 32.3519 2.43026  -2
  -3   9   7 32.3519 2.43026   1
  -2   9   7 13.6523 1.03876   2
  -1   9   7 322.575 6.69407  -2
  -2   9   7 322.575 6.69407   1
   0   9   7 367.545 9.02641  -2
  -1   9   7 367.545 9.02641   1
   0   9   7 167.068 2.74025   1
   1   9   7 2.78630 0.36984   2
   1   9   7 42.4831 1.09747   1
   2   9   7 546.264 9.79258   1
   2   9   7 28.9185 0.91676   2
   3   9   7 6.15206 0.59156   2
   4   9   6 136.273 4.65040  -2
   3   9   7 136.273 4.65040   1
   3   9   7 128.692 3.97816   1
   4   9   7 475.892 8.29972   1
   4   9   7 25.6189 1.11484   2
   5   9   7 109.768 2.38931   1
   5   9   7 6.29038 0.60664   2
   6   9   7 73.0521 1.99356   1
   6   9   7 3.33022 0.89119   2
   7   9   7 13.9291 1.24687   1
   7   9   7 -0.4118 0.95197   2
   8   9   5 37.6813 7.14606  -2
   7   9   7 37.6813 7.14606   1
   8   9   7 47.9575 2.28520   1
   8   9   7 2.39774 1.42139   2
   9   9   7 44.4233 3.12626   1
   9   9   7 2.21684 1.72266   2
  10   9   7 5.85326 2.23213   2
  10   9   7 143.783 4.86272   1
  11   9   7 1.46186 2.38989   2
  11   9   7 72.0706 5.33751   1
 -13  10   7 9.01197 2.61093   2
 -13  10   7 12.3572 2.33264   1
 -12  10   7 5.26708 2.47782   1
 -12  10   7 -2.0417 1.98615   2
 -11  10   9 7.86953 6.99570  -2
 -12  10   7 7.86953 6.99570   1
 -11  10   7 0.39919 1.55350   2
 -11  10   7 0.97208 2.10984   1
 -10  10   9 5.02267 3.56111  -2
 -11  10   7 5.02267 3.56111   1
 -10  10   7 10.5156 1.25724   2
 -10  10   7 156.190 3.80634   1
  -9  10   7 20.1350 1.36156   2
  -9  10   7 291.409 6.76941   1
  -8  10   7 50.5835 2.32221   1
  -8  10   7 2.77852 1.03106   2
  -6  10   8 91.3763 4.85235  -2
  -7  10   7 91.3763 4.85235   1
  -7  10   7 1.70087 0.74197   2
  -6  10   7 5.73047 0.71299   2
  -5  10   8 99.1708 7.45057  -2
  -6  10   7 99.1708 7.45057   1
  -6  10   7 87.1063 5.21744   1
  -5  10   7 0.20394 1.23363   2
  -5  10   7 11.0923 1.60249   1
  -4  10   8 10.1742 1.53690  -2
  -5  10   7 10.1742 1.53690   1
  -4  10   7 514.656 12.1870   1
  -4  10   7 27.1203 1.30352   2
  -3  10   7 2.91168 1.21746   2
  -3  10   7 108.060 4.47788   1
  -2  10   7 114.817 7.53127  -2
  -3  10   7 114.817 7.53127   1
  -1  10   7 250.819 7.91277  -2
  -2  10   7 250.819 7.91277   1
  -2  10   7 14.1599 1.14403   2
   0  10   7 374.247 7.75673  -2
  -1  10   7 374.247 7.75673   1
   0  10   7 1.78225 0.37145   1
   1  10   7 34.2399 1.34521   2
   1  10   7 566.139 10.1355   1
   2  10   7 8.01176 0.56665   2
   2  10   7 145.487 2.97553   1
   3  10   7 2.75661 0.51774   2
   3  10   7 54.5114 2.18931   1
   4  10   6 57.1201 2.73201  -2
   3  10   7 57.1201 2.73201   1
   4  10   7 1.34932 0.51387   2
   4  10   7 7.39377 0.78680   1
   5  10   7 0.31048 0.58323   2
   5  10   7 3.15661 0.76933   1
   6  10   7 18.7350 1.30814   1
   6  10   7 0.85006 0.88421   2
   7  10   7 298.457 7.49464   1
   7  10   7 18.6657 1.46465   2
   8  10   7 24.2915 1.89130   1
   8  10   7 0.67272 1.48012   2
   9  10   7 3.52841 1.70748   1
   9  10   7 -1.4195 1.72241   2
  10  10   7 8.44734 2.44631   2
  10  10   7 158.056 6.15370   1
  11  10   7 5.61257 2.62512   2
  11  10   7 55.9798 6.46464   1
 -13  11   7 14.1251 2.95759   2
 -13  11   7 225.201 7.30604   1
 -12  11   7 1.88804 2.17680   2
 -12  11   7 67.7754 4.86653   1
 -11  11   9 74.6117 10.0996  -2
 -12  11   7 74.6117 10.0996   1
 -11  11   7 17.1279 2.63475   1
 -11  11   7 1.74196 1.83844   2
 -10  11   9 20.0680 7.46779  -2
 -11  11   7 20.0680 7.46779   1
  -9  11   9 24.7991 4.65074  -2
 -10  11   7 24.7991 4.65074   1
 -10  11   7 3.25984 1.26659   2
 -10  11   7 23.6474 2.04860   1
  -9  11   7 123.475 3.80005   1
  -9  11   7 6.88704 1.20906   2
  -8  11   7 7.90871 1.34106   2
  -8  11   7 146.127 4.03408   1
  -6  11   8 8.10239 2.80906  -2
  -7  11   7 8.10239 2.80906   1
  -7  11   7 -0.3798 1.04536   2
  -5  11   8 11.9249 5.33268  -2
  -6  11   7 11.9249 5.33268   1
  -6  11   7 0.36043 1.06925   2
  -6  11   7 16.3653 2.48055   1
  -5  11   7 2.15977 1.13572   2
  -4  11   8 49.7822 6.21919  -2
  -5  11   7 49.7822 6.21919   1
  -5  11   7 49.1002 1.95670   1
  -4  11   7 0.66861 0.55660   1
  -4  11   7 -0.0632 0.52157   2
  -3  11   7 62.2001 2.79532   1
  -2  11   7 72.9364 5.16364  -2
  -3  11   7 72.9364 5.16364   1
  -3  11   7 3.41810 0.61536   2
  -1  11   7 10.1337 1.28818  -2
  -2  11   7 10.1337 1.28818   1
  -2  11   7 0.80071 0.60496   2
   0  11   7 84.9901 2.44568  -2
  -1  11   7 84.9901 2.44568   1
   0  11   7 315.237 5.39984   1
   1  11   7 531.952 9.58491   1
   1  11   7 24.7682 1.12453   2
   2  11   7 -0.3026 0.48187   2
   2  11   7 3.04324 0.54919   1
   3  11   7 2.89943 0.53740   2
   4  11   6 88.0047 3.58251  -2
   3  11   7 88.0047 3.58251   1
   3  11   7 51.5636 3.11274   1
   4  11   7 8.86140 0.74554   2
   4  11   7 177.813 3.99022   1
   5  11   7 636.867 12.5839   1
   5  11   7 29.9470 1.39650   2
   6  11   7 54.7373 2.42938   1
   6  11   7 2.80684 0.93679   2
   7  11   7 12.3360 1.31841   2
   7  11   7 253.081 6.58830   1
   8  11   7 1.78821 1.68729   2
   8  11   7 45.5686 3.87116   1
   9  11   7 1.09442 1.85829   2
   9  11   7 1.78005 2.07735   1
  10  11   7 0.66104 2.19081   2
  10  11   7 51.5290 4.34463   1
 -12  12   7 -0.1141 2.34048   2
 -11  12   9 39.9273 10.4808  -2
 -12  12   7 39.9273 10.4808   1
 -12  12   7 14.0261 3.10787   1
 -11  12   7 1.27467 2.03562   2
 -11  12   7 11.3164 2.64378   1
 -10  12   9 11.8291 4.15542  -2
 -11  12   7 11.8291 4.15542   1
 -10  12   7 2.85269 1.41594   2
 -10  12   7 27.4126 2.21158   1
  -9  12   7 43.0326 2.51620   1
  -9  12   7 2.36003 1.17362   2
  -8  12   7 1.60459 1.27914   2
  -8  12   7 7.72632 1.41595   1
  -7  12   7 9.29604 1.60021   2
  -6  12   8 260.586 7.52957  -2
  -7  12   7 260.586 7.52957   1
  -6  12   7 116.529 4.60486   1
  -6  12   7 8.40970 1.42382   2
  -5  12   8 121.813 8.61994  -2
  -6  12   7 121.813 8.61994   1
  -4  12   8 132.202 9.22990  -2
  -5  12   7 132.202 9.22990   1
  -5  12   7 118.558 3.86835   1
  -5  12   7 6.81790 1.30370   2
  -4  12   7 32.1918 1.52598   2
  -4  12   7 655.025 19.9918   1
  -3  12   7 2.70547 0.65578   2
  -3  12   7 61.8441 2.76261   1
  -2  12   7 65.8587 5.11202  -2
  -3  12   7 65.8587 5.11202   1
  -2  12   7 0.43161 0.92723   2
  -1  12   7 23.6097 1.95233  -2
  -2  12   7 23.6097 1.95233   1
   0  12   7 436.634 9.07718  -2
  -1  12   7 436.634 9.07718   1
   0  12   7 7.94072 0.65740   1
   1  12   7 23.4635 1.09148   1
   1  12   7 1.48050 0.61977   2
   2  12   7 131.267 3.19909   1
   2  12   7 6.08708 0.66561   2
   3  12   7 1.85037 0.65979   2
   4  12   6 75.6610 3.07707  -2
   3  12   7 75.6610 3.07707   1
   3  12   7 64.0071 2.75444   1
   4  12   7 120.373 3.01365   1
   4  12   7 5.44106 0.82203   2
   5  12   7 5.51341 0.99042   1
   5  12   7 -0.6326 0.84480   2
   6  12   7 7.93200 1.17787   2
   6  12   7 182.775 5.04166   1
   7  12   7 94.8174 3.48945   1
   7  12   7 4.93386 1.47539   2
   8  12   7 0.32994 1.75262   1
   8  12   7 0.21938 1.62972   2
   9  12   7 3.47578 1.93611   2
   9  12   7 46.2917 3.88179   1
  10  12   7 19.1073 2.96663   1
  10  12   7 -1.9921 2.32967   2
 -11  13   9 7.59206 11.1259  -2
 -12  13   7 7.59206 11.1259   1
 -12  13   7 6.96878 3.10831   1
 -12  13   7 0.89932 2.53150   2
 -11  13   7 2.54789 2.51913   1
 -11  13   7 -0.5965 2.16167   2
 -10  13   9 1.30299 4.37068  -2
 -11  13   7 1.30299 4.37068   1
 -10  13   7 193.500 6.00969   1
 -10  13   7 14.0331 2.15477   2
  -9  13   9 220.314 10.5283  -2
 -10  13   7 220.314 10.5283   1
  -9  13   7 5.45273 1.38522   2
  -9  13   7 58.9960 3.09698   1
  -8  13   7 143.844 4.17001   1
  -8  13   7 8.22423 1.53340   2
  -7  13   7 2.48944 1.25794   2
  -6  13   8 30.8284 4.38930  -2
  -7  13   7 30.8284 4.38930   1
  -7  13   7 36.4104 4.21364   1
  -6  13   7 4.03530 1.42293   2
  -5  13   8 56.8859 7.12593  -2
  -6  13   7 56.8859 7.12593   1
  -6  13   7 56.9828 3.26452   1
  -5  13   7 369.800 8.78446   1
  -5  13   7 16.1514 2.07493   2
  -4  13   8 377.325 18.6981  -2
  -5  13   7 377.325 18.6981   1
  -4  13   7 1.19337 0.61917   2
  -4  13   7 27.1970 1.70468   1
  -2  13   7 144.160 7.77468  -2
  -3  13   7 144.160 7.77468   1
  -3  13   7 145.233 4.98310   1
  -3  13   7 8.16918 0.96682   2
  -2  13   7 1.62499 1.07866   2
  -1  13   7 64.2888 2.74001  -2
  -2  13   7 64.2888 2.74001   1
   0  13   7 76.5675 2.47069  -2
  -1  13   7 76.5675 2.47069   1
   0  13   7 272.587 4.80953   1
   1  13   7 15.7484 0.97256   1
   1  13   7 0.66165 0.69758   2
   2  13   7 327.496 6.21077   1
   2  13   7 15.2942 1.00792   2
   4  13   6 9.96024 2.02723  -2
   3  13   7 9.96024 2.02723   1
   3  13   7 8.95971 1.66332   1
   3  13   7 -0.0830 0.71829   2
   4  13   7 2.98050 0.83220   2
   4  13   7 48.6963 1.90866   1
   5  13   7 2.82301 0.97458   1
   5  13   7 -0.7053 0.94089   2
   6  13   7 4.17519 1.14849   2
   6  13   7 86.2859 3.25556   1
   7  13   7 14.9473 1.77732   1
   7  13   7 1.62908 1.59820   2
   8  13   7 3.20093 1.79552   2
   8  13   7 15.8777 2.37094   1
   9  13   7 0.74092 2.14219   2
   9  13   7 17.2186 2.71165   1
  10  13   7 168.702 6.82793   1
  10  13   7 7.46416 2.65926   2
 -12  14   7 1.15177 3.14237   1
 -12  14   7 3.05129 2.63205   2
 -11  14   9 9.23590 11.6251  -2
 -12  14   7 9.23590 11.6251   1
 -11  14   7 0.43672 2.35370   2
 -11  14   7 41.2047 3.75880   1
 -10  14   9 43.6309 5.19864  -2
 -11  14   7 43.6309 5.19864   1
 -10  14   7 2.21382 1.69163   2
 -10  14   7 24.2979 2.04248   1
  -9  14   9 22.0251 5.24099  -2
 -10  14   7 22.0251 5.24099   1
  -9  14   7 17.1251 2.10539   2
  -9  14   7 263.202 7.23631   1
  -8  14   7 73.2274 3.16026   1
  -8  14   7 4.32411 1.57520   2
  -6  14   8 11.1989 4.49331  -2
  -7  14   7 11.1989 4.49331   1
  -7  14   7 -0.2976 1.31629   2
  -7  14   7 -0.2817 2.43614   1
  -5  14   8 65.3442 8.15283  -2
  -6  14   7 65.3442 8.15283   1
  -6  14   7 3.91766 1.50378   2
  -6  14   7 63.5515 3.53105   1
  -5  14   7 1.35678 1.28759   2
  -5  14   7 26.6854 2.35398   1
  -4  14   8 33.3302 7.55680  -2
  -5  14   7 33.3302 7.55680   1
  -4  14   7 238.358 5.38233   1
  -4  14   7 13.9393 1.25373   2
  -3  14   7 192.657 6.34235   1
  -3  14   7 10.4786 1.05724   2
  -2  14   7 190.103 6.74749  -2
  -3  14   7 190.103 6.74749   1
  -2  14   7 -0.9403 1.09774   2
  -1  14   7 10.4521 2.11732  -2
  -2  14   7 10.4521 2.11732   1
   0  14   7 8.86349 1.78255  -2
  -1  14   7 8.86349 1.78255   1
   0  14   7 104.246 2.52742   1
   1  14   7 27.7017 1.50160   2
   1  14   7 498.716 9.13427   1
   2  14   7 0.41826 0.71927   2
   2  14   7 5.06842 0.82564   1
   4  14   6 112.259 3.57078  -2
   3  14   7 112.259 3.57078   1
   3  14   7 3.21129 0.83292   2
   3  14   7 95.1085 5.04049   1
   4  14   7 0.75086 0.88208   1
   4  14   7 -0.6169 0.90047   2
   5  14   7 90.9334 3.33755   1
   5  14   7 6.52611 1.19435   2
   6  14   7 26.6562 2.62516   1
   6  14   7 0.88422 2.67371   2
   7  14   7 3.84788 1.67340   2
   7  14   7 60.2132 3.63704   1
   8  14   7 -2.6631 1.84756   2
   8  14   7 -0.8864 2.07646   1
   9  14   7 5.11004 2.38324   2
   9  14   7 110.222 5.65482   1
 -10  15   9 10.0587 5.26925  -2
 -11  15   7 10.0587 5.26925   1
 -11  15   7 3.98850 2.95349   1
 -11  15   7 1.07028 2.61643   2
 -10  15   7 1.08103 1.74831   2
 -10  15   7 11.1668 1.96652   1
  -9  15   9 31.4623 5.76102  -2
 -10  15   7 31.4623 5.76102   1
  -9  15   7 10.2194 2.07416   1
  -9  15   7 0.20861 1.52658   2
  -8  15   7 131.690 6.26753   1
  -8  15   7 6.21137 3.03205   2
  -6  15   8 9.04108 5.00085  -2
  -7  15   7 9.04108 5.00085   1
  -7  15   7 0.54654 1.50475   2
  -7  15   7 4.73034 2.92186   1
  -6  15   7 127.321 5.14183   1
  -6  15   7 7.27623 1.68757   2
  -5  15   8 140.397 10.5961  -2
  -6  15   7 140.397 10.5961   1
  -5  15   7 296.730 9.39018   1
  -4  15   8 288.683 16.1556  -2
  -5  15   7 288.683 16.1556   1
  -5  15   7 12.1556 2.52088   2
  -4  15   7 0.67277 0.99741   1
  -4  15   7 3.59761 1.45422   2
  -3  15   7 9.91863 1.15128   2
  -2  15   7 169.015 9.22378  -2
  -3  15   7 169.015 9.22378   1
  -3  15   7 149.731 4.30285   1
  -2  15   7 9.15122 1.28613   2
  -1  15   7 127.983 3.60015  -2
  -2  15   7 127.983 3.60015   1
   0  15   7 27.3224 2.23728  -2
  -1  15   7 27.3224 2.23728   1
   0  15   7 368.214 7.71205   1
   1  15   7 8.36693 1.19599   2
   1  15   7 125.550 2.93817   1
   2  15   7 1.22719 0.91942   2
   2  15   7 14.8900 1.11152   1
   4  15   6 26.5862 2.25848  -2
   3  15   7 26.5862 2.25848   1
   3  15   7 0.83923 0.87200   2
   4  15   7 105.458 3.26381   1
   5  15   6 103.240 6.17179  -2
   4  15   7 103.240 6.17179   1
   4  15   7 5.24532 1.17286   2
   5  15   7 215.253 5.67248   1
   5  15   7 10.8705 1.59000   2
   6  15   7 1.03017 1.64299   2
   6  15   7 23.8440 2.44726   1
   7  15   7 1.93061 1.82992   2
   7  15   7 51.0853 3.63694   1
   8  15   7 139.410 5.89686   1
   8  15   7 7.75213 2.17412   2
   9  15   7 -1.0034 2.45773   2
   9  15   7 2.28357 2.81393   1
 -10  16   7 71.2028 3.41575   1
 -10  16   7 5.35748 1.91258   2
  -9  16   9 74.1350 6.67288  -2
 -10  16   7 74.1350 6.67288   1
  -9  16   7 28.3880 2.63996   1
  -9  16   7 2.61693 1.70129   2
  -8  16   7 11.8367 2.15848   1
  -8  16   7 -1.4499 1.82222   2
  -7  16   7 3.58004 1.87438   2
  -7  16   7 54.1332 5.77983   1
  -6  16   7 2.83808 1.97069   1
  -6  16   7 0.50760 1.87665   2
  -5  16   8 3.75750 8.63604  -2
  -6  16   7 3.75750 8.63604   1
  -5  16   7 8.80905 1.91653   1
  -4  16   8 -2.0544 9.22610  -2
  -5  16   7 -2.0544 9.22610   1
  -5  16   7 2.48730 1.69750   2
  -4  16   7 5.58244 1.61966   2
  -4  16   7 109.741 3.22459   1
  -3  16   7 7.81387 1.18185   1
  -3  16   7 0.53820 1.08343   2
  -1  16   7 11.0568 2.09189  -2
  -2  16   7 11.0568 2.09189   1
  -2  16   7 1.23156 1.03450   2
   0  16   7 81.2962 3.29693  -2
  -1  16   7 81.2962 3.29693   1
  -1  16   7 69.8338 5.15333   1
   0  16   7 7.69002 2.31711   2
   0  16   7 143.431 4.23166   1
   1  16   7 5.67201 1.18269   2
   1  16   7 67.9011 2.15101   1
   2  16   7 219.094 4.56576   1
   2  16   7 10.3131 1.20232   2
   3  16   7 2.47564 1.04040   2
   4  16   6 39.1629 2.62801  -2
   3  16   7 39.1629 2.62801   1
   4  16   7 4.29076 1.36946   2
   4  16   7 94.0241 3.28318   1
   5  16   7 2.32477 1.47187   2
   5  16   7 26.1365 2.31757   1
   6  16   7 20.6281 2.26915   2
   6  16   7 408.438 10.4778   1
   7  16   7 3.05250 2.06704   2
   7  16   7 32.9011 2.91618   1
   8  16   7 -1.0938 2.30596   2
   8  16   7 4.75598 2.68092   1
 -10  17   7 72.9525 3.62324   1
 -10  17   7 5.63514 2.06260   2
  -9  17   9 72.3771 7.17529  -2
 -10  17   7 72.3771 7.17529   1
  -9  17   7 3.98235 1.87587   2
  -9  17   7 23.4631 2.75136   1
  -8  17   7 8.88822 1.79009   2
  -8  17   7 127.111 4.96894   1
  -6  17   8 10.3892 5.24631  -2
  -7  17   7 10.3892 5.24631   1
  -7  17   7 0.21818 1.87058   2
  -7  17   7 8.28902 3.50485   1
  -6  17   7 1.43303 2.09747   2
  -6  17   7 1.56804 2.07136   1
  -5  17   7 204.215 6.25611   1
  -5  17   7 14.5478 2.23509   2
  -4  17   7 23.9333 2.21004   1
  -4  17   7 2.16660 1.68214   2
  -3  17   7 9.61905 2.33775   2
  -3  17   7 237.989 6.55320   1
  -1  17   7 2.10602 2.13808  -2
  -2  17   7 2.10602 2.13808   1
  -2  17   7 -0.3232 1.31479   2
   0  17   7 19.2310 2.57393  -2
  -1  17   7 19.2310 2.57393   1
   0  17   7 290.971 7.45440   1
   1  17   7 5.91284 1.28592   2
   1  17   7 42.2555 2.37426   1
   2  17   7 0.49523 1.22710   2
   2  17   7 13.0668 1.27271   1
   3  17   7 0.82664 1.55809   2
   4  17   6 9.01687 3.55271  -2
   3  17   7 9.01687 3.55271   1
   5  17   6 44.2840 9.62525  -2
   4  17   7 44.2840 9.62525   1
   4  17   7 1.53120 1.48751   2
   4  17   7 51.8024 3.07931   1
   5  17   7 1.21238 1.74374   2
   5  17   7 3.61491 1.80968   1
   6  17   7 148.676 5.25299   1
   6  17   7 7.28787 2.11845   2
   7  17   7 1.43104 2.29877   2
   7  17   7 2.91842 2.32122   1
  -9  18   7 154.670 4.27537   1
  -9  18   7 7.56997 2.16036   2
  -8  18   7 5.08393 1.90355   2
  -8  18   7 59.4370 4.08755   1
  -6  18   8 16.7363 5.68932  -2
  -7  18   7 16.7363 5.68932   1
  -7  18   7 2.81097 2.15735   2
  -7  18   7 19.4472 4.11689   1
  -6  18   7 19.2434 3.85266   1
  -6  18   7 0.25504 2.21980   2
  -5  18   7 1.34923 2.83696   2
  -5  18   7 29.0611 4.17181   1
  -4  18   7 5.75967 2.98790   2
  -4  18   7 21.3795 3.18728   1
  -3  18   7 2.50298 2.57070   2
  -3  18   7 97.6091 4.02941   1
  -1  18   7 0.62504 4.12451  -2
  -2  18   7 0.62504 4.12451   1
  -2  18   7 1.97911 1.89323   2
   0  18   7 6.04927 3.95074  -2
  -1  18   7 6.04927 3.95074   1
   0  18   7 0.69457 1.29651   1
   1  18   7 231.725 8.16285   1
   1  18   7 14.5330 1.84688   2
   2  18   7 3.66710 2.18824   2
   2  18   7 36.9314 2.32185   1
   3  18   7 8.47584 1.71239   2
   4  18   6 164.794 7.47823  -2
   3  18   7 164.794 7.47823   1
   5  18   6 -2.8096 10.3184  -2
   4  18   7 -2.8096 10.3184   1
   4  18   7 2.64407 2.08583   1
   4  18   7 0.16258 1.69967   2
   5  18   7 6.37810 2.39129   2
   5  18   7 94.1113 4.40969   1
   6  18   7 -0.6870 2.20853   2
   6  18   7 19.0845 2.58184   1
   7  18   7 2.11882 2.52193   1
   7  18   7 1.14691 2.54080   2
  -8  19   7 7.36546 2.72999   2
  -8  19   7 74.3715 5.92683   1
  -7  19   7 -0.8018 1.95649   2
  -6  19   8 32.9001 6.56567  -2
  -7  19   7 32.9001 6.56567   1
  -5  19   8 84.5377 9.69077  -2
  -6  19   7 84.5377 9.69077   1
  -6  19   7 3.58617 3.49291   2
  -5  19   7 15.5124 3.65392   2
  -5  19   7 351.280 16.5430   1
  -4  19   7 -1.1678 2.89839   1
  -4  19   7 1.70945 2.97615   2
  -3  19   7 250.358 7.01854   1
  -2  19   7 260.207 13.8064  -2
  -3  19   7 260.207 13.8064   1
  -3  19   7 12.7253 3.40177   2
  -2  19   7 7.62263 2.54400   2
  -1  19   7 75.8885 5.95801  -2
  -2  19   7 75.8885 5.95801   1
   0  19   7 84.6012 6.22727  -2
  -1  19   7 84.6012 6.22727   1
   0  19   7 84.7572 3.52958   1
   1  19   7 -1.5202 1.48905   2
   1  19   7 7.69029 1.66604   1
   2  19   7 27.8035 2.18866   1
   2  19   7 -2.4951 1.57175   2
   4  19   6 -3.1209 5.03529  -2
   3  19   7 -3.1209 5.03529   1
   3  19   7 0.71841 1.71449   2
   5  19   6 10.2188 12.0238  -2
   4  19   7 10.2188 12.0238   1
   4  19   7 -0.3660 2.25617   2
   4  19   7 7.60286 2.78519   1
   5  19   7 41.0765 4.23689   1
   5  19   7 3.13284 2.47942   2
   6  19   7 0.22906 2.85935   2
   6  19   7 2.51269 2.92312   1
  -6  20   8 28.4570 10.2797  -2
  -7  20   7 28.4570 10.2797   1
  -7  20   7 3.21061 2.65707   2
  -5  20   8 10.0938 3.24730  -2
  -6  20   7 10.0938 3.24730   1
  -6  20   7 -0.4574 3.85496   2
  -4  20   8 51.6474 6.23476  -2
  -5  20   7 51.6474 6.23476   1
  -5  20   7 30.2479 4.77222   1
  -5  20   7 4.89346 3.77335   2
  -4  20   7 20.0243 2.48517   1
  -4  20   7 0.53431 3.39944   2
  -3  20   7 81.1948 5.43300   1
  -3  20   7 0.89000 3.51791   2
  -2  20   7 0.63510 2.13841   2
  -1  20   7 5.87506 4.82312  -2
  -2  20   7 5.87506 4.82312   1
   0  20   7 14.7349 3.56529  -2
  -1  20   7 14.7349 3.56529   1
   0  20   7 101.955 4.04106   1
   1  20   7 22.1226 2.12169   1
   1  20   7 4.08243 1.79173   2
   2  20   7 11.7066 2.01103   2
   2  20   7 140.989 4.90134   1
   3  20   7 1.14729 1.85748   2
   3  20   7 10.6146 2.92886   1
   4  20   6 22.0006 13.6820  -2
   3  20   7 22.0006 13.6820   1
   4  20   7 6.86077 2.75395   2
   4  20   7 67.4083 5.94043   1
   5  20   6 69.7207 14.8222  -2
   4  20   7 69.7207 14.8222   1
   5  20   7 5.87971 2.77608   2
   5  20   7 9.03979 2.86946   1
  -6  21   7 1.36555 4.54591   1
  -6  21   7 0.06084 4.18924   2
  -5  21   7 23.4719 4.96680   1
  -5  21   7 2.67116 4.29777   2
  -4  21   8 15.5442 6.33929  -2
  -5  21   7 15.5442 6.33929   1
  -4  21   7 11.5112 2.43594   1
  -4  21   7 6.04963 4.06763   2
  -3  21   7 -0.0835 2.14119   2
  -3  21   7 40.2024 4.94623   1
  -1  21   7 10.6960 5.99864  -2
  -2  21   7 10.6960 5.99864   1
  -2  21   7 2.14820 2.71170   2
   0  21   7 85.4615 5.41271  -2
  -1  21   7 85.4615 5.41271   1
   0  21   7 155.666 5.79404   1
   1  21   7 0.22295 1.89526   1
   1  21   7 -0.0671 2.14299   2
   2  21   7 1.34191 2.63437   1
   2  21   7 3.61188 2.01760   2
   4  21   6 14.7170 14.7976  -2
   3  21   7 14.7170 14.7976   1
   3  21   7 -1.8685 2.67056   2
   3  21   7 3.05092 3.16907   1
  -3  22   7 1.99495 2.42773   2
  -3  22   7 16.8836 3.51819   1
  -2  22   7 3.08253 3.10231   2
  -1  22   7 70.5781 7.75376  -2
  -2  22   7 70.5781 7.75376   1
   0  22   7 7.45454 6.83556  -2
  -1  22   7 7.45454 6.83556   1
   0  22   7 1.40976 2.36839   1
   1  22   7 107.987 5.29843   1
   1  22   7 7.62230 2.30444   2
 -14   0   8 127.993 5.20499   1
 -14   0   8 7.13793 2.34102   2
 -13   0   8 0.38370 1.90067   1
 -13   0   8 -0.6059 1.74508   2
 -12   0   8 -1.6741 1.51092   2
 -11   0  10 -2.2010 3.07204  -2
 -12   0   8 -2.2010 3.07204   1
 -11   0   8 -0.8593 1.21717   2
 -10   0  10 5.05855 4.04540  -2
 -11   0   8 5.05855 4.04540   1
 -10   0   8 33.6028 1.98861   2
 -10   0   8 623.871 15.0318   1
  -9   0   8 0.06532 1.02607   1
  -9   0   8 0.48266 0.92717   2
  -8   0   8 -0.9635 0.35435   2
  -8   0   8 4.13543 0.54009   1
  -7   0   8 0.86990 0.40094   2
  -6   0   9 0.56713 0.83588  -2
  -7   0   8 0.56713 0.83588   1
  -5   0   9 189.945 6.09710  -2
  -6   0   8 189.945 6.09710   1
  -5   0   8 0.52563 0.27765   1
  -4   0   8 841.316 16.5385   1
  -4   0   8 46.4525 1.42931   2
  -3   0   8 0.04304 0.23223   2
  -2   0   8 88.5089 2.31894   2
  -1   0   8 1577.92 35.2894  -2
  -2   0   8 1577.92 35.2894   1
  -1   0   8 0.14714 0.24751   1
   0   0   8 0.30275 0.24345   2
   0   0   8 2.84321 0.36297   1
   1   0   8 0.20167 0.22026   2
   1   0   8 1.82050 0.34664   1
   2   0   8 68.7765 1.44026   1
   2   0   8 5.36652 0.56118   2
   3   0   8 0.35437 0.45620   1
   3   0   8 0.84546 0.39166   2
   4   0   8 748.473 11.9102   1
   4   0   8 39.9139 1.46883   2
   5   0   8 0.27782 0.45483   1
   5   0   8 -0.4274 0.57299   2
   6   0   8 862.649 14.8016   1
   6   0   8 45.4214 1.58590   2
   7   0   8 1.28004 0.64729   1
   7   0   8 -0.4526 0.68395   2
   8   0   8 -0.3238 0.81210   2
   8   0   8 19.8369 1.22556   1
   9   0   8 -0.8149 1.16489   1
   9   0   8 0.32222 0.98096   2
  10   0   8 7.67610 1.78374   2
  10   0   8 100.465 4.69164   1
  11   0   8 0.20031 2.88855   1
  11   0   8 -2.5775 1.92147   2
  12   0   8 2.07539 4.47109   2
  12   0   8 108.938 11.4944   1
 -14   1   8 4.24079 1.69153   1
 -14   1   8 4.65788 1.62602   2
 -13   1   8 4.70582 1.49719   2
 -13   1   8 95.8154 2.97663   1
 -12   1   8 1.92224 1.11677   2
 -11   1  10 15.8546 2.37473  -2
 -12   1   8 15.8546 2.37473   1
 -11   1   8 0.68642 0.85946   2
 -10   1  10 7.88612 1.92743  -2
 -11   1   8 7.88612 1.92743   1
 -10   1   8 322.000 5.91073   1
 -10   1   8 18.8033 1.06090   2
  -9   1   8 4.41704 0.71450   2
  -9   1   8 66.3831 1.61172   1
  -8   1   8 38.0878 1.15393   2
  -8   1   8 706.457 11.1645   1
  -7   1   9 764.806 34.3393  -2
  -8   1   8 764.806 34.3393   1
  -6   1   9 126.929 2.50135  -2
  -7   1   8 126.929 2.50135   1
  -7   1   8 6.03901 0.46022   2
  -5   1   9 122.169 2.35706  -2
  -6   1   8 122.169 2.35706   1
  -5   1   8 616.425 11.0717   1
  -5   1   8 46.2008 2.50096   2
  -4   1   8 633.893 9.57929   1
  -4   1   8 32.8023 0.79391   2
  -3   1   8 335.310 4.49466   1
  -3   1   8 17.1405 0.51376   2
  -2   1   8 1.12530 0.15166   2
  -1   1   8 33.5522 0.82157  -2
  -2   1   8 33.5522 0.82157   1
   0   1   8 309.031 11.7410  -2
  -1   1   8 309.031 11.7410   1
  -1   1   8 292.973 5.37157   1
   0   1   8 133.061 2.33998   1
   0   1   8 8.95095 0.55336   2
   1   1   8 61.9688 1.14689   1
   1   1   8 3.01003 0.26618   2
   2   1   8 11.7878 0.35261   1
   2   1   8 0.54732 0.19745   2
   3   1   8 2.39827 0.32546   2
   3   1   8 56.3602 0.95307   1
   4   1   8 1.70044 0.24992   2
   4   1   8 41.1013 0.78061   1
   5   1   8 5.53321 0.41642   2
   5   1   8 113.630 1.62621   1
   6   1   8 13.0981 0.65055   2
   6   1   8 255.081 3.36477   1
   7   1   8 241.002 3.25938   1
   7   1   8 12.0763 0.67568   2
   8   1   8 97.5964 1.72612   1
   8   1   8 3.82938 0.63959   2
   9   1   8 18.4976 1.06346   1
   9   1   8 0.76142 0.71877   2
  10   1   8 11.9290 1.57654   2
  10   1   8 256.179 6.22150   1
  11   1   8 3.95468 1.69434   2
  11   1   8 17.8930 2.33905   1
  12   1   8 9.09648 2.89003   2
  12   1   8 179.444 6.90400   1
 -14   2   8 11.9976 1.97824   1
 -14   2   8 0.47935 1.76888   2
 -13   2   8 173.706 3.79636   1
 -13   2   8 10.6778 1.49574   2
 -11   2  10 9.38263 2.33479  -2
 -12   2   8 9.38263 2.33479   1
 -12   2   8 1.28764 1.11064   2
 -10   2  10 9.74180 1.97001  -2
 -11   2   8 9.74180 1.97001   1
 -11   2   8 0.71210 0.89894   2
 -10   2   8 20.2394 1.25629   1
 -10   2   8 0.88178 0.76208   2
  -9   2   8 2.94852 0.70838   2
  -9   2   8 50.4815 1.40098   1
  -8   2   8 1.33230 0.41813   2
  -8   2   8 17.8461 0.65349   1
  -7   2   8 2.70320 0.29846   2
  -6   2   9 55.9675 1.49948  -2
  -7   2   8 55.9675 1.49948   1
  -5   2   9 242.738 4.23873  -2
  -6   2   8 242.738 4.23873   1
  -5   2   8 104.491 1.90339   1
  -4   2   8 2.40274 0.20813   1
  -4   2   8 0.73232 0.17772   2
  -3   2   8 10.0553 0.35949   2
  -3   2   8 199.058 2.92833   1
  -1   2   8 183.613 3.49288  -2
  -2   2   8 183.613 3.49288   1
  -2   2   8 9.14188 0.33104   2
  -2   2   8 191.797 7.95659   1
  -1   2   8 170.866 3.23173   1
   0   2   8 176.843 7.19200  -2
  -1   2   8 176.843 7.19200   1
   0   2   8 2.19434 0.32045   2
   0   2   8 43.8445 0.87204   1
   1   2   8 151.246 3.07159   2
   1   2   8 2616.39 38.1345   1
   2   2   8 31.5993 0.69069   1
   2   2   8 1.77493 0.24108   2
   3   2   8 352.659 4.72640   1
   3   2   8 17.7489 0.69363   2
   4   2   8 20.4660 0.61188   1
   4   2   8 0.87689 0.28111   2
   5   2   8 18.0549 0.67714   2
   5   2   8 350.620 4.46500   1
   6   2   8 0.42076 0.47961   2
   6   2   8 8.08569 0.49750   1
   7   2   8 0.85038 0.49113   2
   7   2   8 20.8893 0.82182   1
   8   2   8 54.1214 1.30848   1
   8   2   8 2.51497 0.62478   2
   9   2   8 2.09392 0.74222   2
   9   2   8 32.8017 1.46464   1
  10   2   8 39.1273 2.10057   1
  10   2   8 1.05800 1.35756   2
  11   2   8 -0.2892 1.80283   2
  11   2   8 48.0384 3.56052   1
  12   2   8 7.03229 3.19400   1
  12   2   8 0.35639 4.53010   2
 -14   3   8 55.5164 2.94612   1
 -14   3   8 2.74467 1.83048   2
 -13   3   8 108.302 3.05279   1
 -13   3   8 6.17961 1.55149   2
 -12   3   8 2.83957 1.28493   2
 -11   3  10 26.2602 2.83504  -2
 -12   3   8 26.2602 2.83504   1
 -11   3   8 3.40451 0.96873   2
 -10   3  10 40.7793 2.21038  -2
 -11   3   8 40.7793 2.21038   1
 -10   3   8 31.2787 1.56501   1
 -10   3   8 2.11970 0.83085   2
  -9   3   8 14.6178 1.03600   1
  -9   3   8 0.70456 0.39721   2
  -8   3   8 6.26540 0.80983   2
  -8   3   8 137.416 2.80864   1
  -7   3   9 162.861 7.72100  -2
  -8   3   8 162.861 7.72100   1
  -7   3   8 2.20495 0.46068   2
  -6   3   9 75.1370 1.66112  -2
  -7   3   8 75.1370 1.66112   1
  -5   3   9 24.8324 0.84522  -2
  -6   3   8 24.8324 0.84522   1
  -5   3   8 747.570 10.4353   1
  -4   3   8 6.97984 0.33395   2
  -4   3   8 129.556 2.14537   1
  -2   3   8 209.731 8.38697  -2
  -3   3   8 209.731 8.38697   1
  -3   3   8 9.71678 0.37488   2
  -3   3   8 201.797 3.47655   1
  -2   3   8 46.8713 1.58937   1
  -1   3   8 97.3029 2.28823  -2
  -2   3   8 97.3029 2.28823   1
  -2   3   8 1.97296 0.25437   2
  -1   3   8 928.754 20.9182   1
  -1   3   8 39.2505 1.93960   2
   0   3   8 967.846 27.5503  -2
  -1   3   8 967.846 27.5503   1
   0   3   8 178.718 2.83045   1
   0   3   8 13.0356 0.99117   2
   1   3   8 65.5762 1.20556   1
   1   3   8 2.95401 0.25379   2
   2   3   8 383.576 9.36368   1
   2   3   8 14.6107 1.10848   2
   3   3   8 26.7287 0.89488   2
   3   3   8 498.382 6.87770   1
   4   3   8 0.31236 0.35245   2
   4   3   8 8.26880 0.42021   1
   5   3   8 24.6350 0.72229   1
   5   3   8 1.13070 0.40359   2
   6   3   8 2.04006 0.40173   1
   6   3   8 0.00311 0.42023   2
   7   3   8 13.3227 0.74137   2
   7   3   8 251.592 3.55722   1
   8   3   8 -0.3867 0.60729   2
   8   3   8 5.83683 0.70758   1
   9   3   8 21.0870 1.23844   1
   9   3   8 1.40741 0.74551   2
  10   3   8 4.69253 1.59914   2
  10   3   8 109.260 3.20941   1
  11   3   8 0.17637 2.04682   2
  11   3   8 22.0410 2.96619   1
  12   3   8 57.1040 4.28420   1
  12   3   8 5.14776 4.55751   2
 -14   4   8 6.49004 1.91107   2
 -14   4   8 79.6526 4.09447   1
 -13   4   8 36.0810 2.04499   1
 -13   4   8 2.26696 1.51918   2
 -11   4  10 7.39525 3.07913  -2
 -12   4   8 7.39525 3.07913   1
 -12   4   8 -1.1008 1.65463   2
 -11   4   8 4.59869 1.00275   2
 -10   4  10 70.5430 2.56116  -2
 -11   4   8 70.5430 2.56116   1
 -10   4   8 465.860 7.44974   1
 -10   4   8 30.0562 1.35720   2
  -9   4   8 9.92190 0.73796   2
  -9   4   8 147.357 2.81619   1
  -8   4   8 0.41682 0.44149   2
  -8   4   8 18.0367 0.89663   1
  -7   4   8 6.20739 0.66992   2
  -6   4   9 116.493 2.92434  -2
  -7   4   8 116.493 2.92434   1
  -5   4   9 7.43999 0.75567  -2
  -6   4   8 7.43999 0.75567   1
  -5   4   8 5.59023 0.31568   1
  -5   4   8 -0.3750 0.67425   2
  -4   4   8 29.3829 0.68514   2
  -4   4   8 515.138 9.35436   1
  -3   4   8 644.493 11.6186   1
  -3   4   8 35.7650 0.87120   2
  -2   4   8 639.403 24.5630  -2
  -3   4   8 639.403 24.5630   1
  -1   4   8 209.193 3.98622  -2
  -2   4   8 209.193 3.98622   1
  -2   4   8 171.300 6.96716   1
  -2   4   8 10.6391 0.55161   2
   0   4   8 265.331 10.5532  -2
  -1   4   8 265.331 10.5532   1
  -1   4   8 261.570 5.46765   1
  -1   4   8 15.8976 1.08091   2
   0   4   8 121.246 2.00586   1
   0   4   8 7.46533 0.50858   2
   1   4   8 211.130 3.31368   1
   1   4   8 10.7855 0.40631   2
   2   4   8 1.78835 0.35150   2
   2   4   8 44.3190 0.93301   1
   3   4   8 12.6863 0.57467   1
   3   4   8 0.35555 0.32714   2
   4   4   8 10.7785 0.59928   2
   4   4   8 232.707 3.05746   1
   5   4   8 154.490 2.18552   1
   5   4   8 7.51525 0.53255   2
   6   4   8 30.9913 1.05987   2
   6   4   8 576.562 7.47460   1
   7   4   8 14.0618 0.70841   1
   7   4   8 0.95605 0.56494   2
   8   4   8 0.24081 0.66261   2
   8   4   8 0.92403 0.87341   1
   9   4   8 22.2647 1.39736   1
   9   4   8 4.02142 1.08359   2
  10   4   8 29.7181 2.17246   1
  10   4   8 0.95617 1.64756   2
  11   4   8 30.8544 3.18731   1
  11   4   8 0.60683 2.02378   2
 -14   5   8 7.35565 2.08640   1
 -14   5   8 3.40139 2.25302   2
 -13   5   8 1.47215 1.53664   2
 -13   5   8 34.7714 2.06393   1
 -12   5   8 7.66169 1.45954   2
 -11   5  10 104.990 6.08888  -2
 -12   5   8 104.990 6.08888   1
 -10   5  10 31.5668 2.25815  -2
 -11   5   8 31.5668 2.25815   1
 -11   5   8 1.66043 0.98280   2
 -10   5   8 4.05591 0.99635   2
 -10   5   8 59.8296 1.66082   1
  -9   5   8 124.481 2.72218   1
  -9   5   8 7.63014 0.77825   2
  -8   5   8 44.8265 1.50212   2
  -8   5   8 750.243 12.3173   1
  -7   5   8 1.19747 0.86752   2
  -6   5   9 32.8780 1.08980  -2
  -7   5   8 32.8780 1.08980   1
  -5   5   9 67.9590 1.56130  -2
  -6   5   8 67.9590 1.56130   1
  -5   5   8 6.54705 0.93728   2
  -5   5   8 114.470 2.11889   1
  -4   5   8 35.7768 0.79548   2
  -4   5   8 616.283 9.19480   1
  -3   5   8 33.8178 0.75581   2
  -2   5   8 599.722 23.0758  -2
  -3   5   8 599.722 23.0758   1
  -3   5   8 598.118 12.0956   1
  -1   5   8 8.43982 0.57342  -2
  -2   5   8 8.43982 0.57342   1
  -2   5   8 0.34065 0.25305   2
  -2   5   8 0.31681 0.35300   1
  -1   5   8 166.128 3.60943   1
  -1   5   8 10.2726 0.91620   2
   0   5   8 166.736 6.86870  -2
  -1   5   8 166.736 6.86870   1
   0   5   8 0.39876 0.24178   2
   0   5   8 2.75759 0.24057   1
   1   5   8 1.77264 0.28342   2
   1   5   8 22.0961 1.07931   1
   2   5   8 1.76423 0.35912   1
   2   5   8 -0.0193 0.33454   2
   3   5   8 302.623 4.38087   1
   3   5   8 15.1460 0.64757   2
   4   5   8 120.732 1.92095   1
   4   5   8 5.96431 0.48494   2
   5   5   8 369.423 4.90822   1
   5   5   8 18.0412 0.85562   2
   6   5   8 4.19073 0.58147   2
   6   5   8 98.3336 1.81358   1
   7   5   8 5.32140 0.75082   2
   7   5   8 83.8985 1.89339   1
   8   5   8 129.406 2.88281   1
   8   5   8 7.26599 0.88529   2
   9   5   8 4.97355 1.58588   1
   9   5   8 -1.4142 1.56752   2
  10   5   8 8.36101 1.86722   2
  10   5   8 224.681 5.05936   1
  11   5   8 5.97047 2.76971   1
  11   5   8 -2.0911 2.17593   2
 -14   6   8 1.40215 2.07352   2
 -14   6   8 15.9824 2.51440   1
 -13   6   8 3.72847 1.65881   2
 -13   6   8 41.2520 2.20160   1
 -11   6  10 45.0467 4.07432  -2
 -12   6   8 45.0467 4.07432   1
 -12   6   8 1.83784 1.40583   2
 -10   6  10 26.8203 2.45278  -2
 -11   6   8 26.8203 2.45278   1
 -11   6   8 0.36756 1.21957   2
 -10   6   8 181.986 4.13869   1
 -10   6   8 12.4879 1.17341   2
  -9   6  10 176.877 7.90776  -2
 -10   6   8 176.877 7.90776   1
  -9   6   8 283.293 5.16377   1
  -9   6   8 18.2624 1.00893   2
  -8   6   8 10.4662 0.81418   2
  -8   6   8 169.104 3.54411   1
  -6   6   9 113.913 2.68739  -2
  -7   6   8 113.913 2.68739   1
  -7   6   8 4.68462 0.63434   2
  -5   6   9 962.437 15.3365  -2
  -6   6   8 962.437 15.3365   1
  -5   6   8 154.197 2.56108   1
  -5   6   8 10.6023 0.73529   2
  -4   6   8 1.76508 0.26162   1
  -4   6   8 0.17702 0.22538   2
  -3   6   8 0.04773 0.19517   2
  -3   6   8 3.05127 0.40750   1
  -2   6   8 4.93297 0.96247  -2
  -3   6   8 4.93297 0.96247   1
  -2   6   8 2.88255 0.27991   2
  -1   6   8 54.5468 1.61083  -2
  -2   6   8 54.5468 1.61083   1
  -1   6   8 85.2083 1.94902   1
   0   6   8 0.29387 0.21052   2
   0   6   8 0.56246 0.37548   1
   1   6   8 931.619 16.5035   1
   1   6   8 50.4624 1.58736   2
   2   6   8 1.74530 0.38800   2
   2   6   8 40.9304 0.93398   1
   3   6   8 84.0507 1.57672   1
   3   6   8 4.10927 0.46675   2
   4   6   8 1.64641 0.50584   2
   4   6   8 23.0215 0.84043   1
   5   6   8 27.1371 0.94437   1
   5   6   8 1.52777 0.52532   2
   6   6   8 19.8002 1.04245   1
   6   6   8 0.39202 0.60475   2
   7   6   8 17.3522 1.02487   1
   7   6   8 0.12370 0.68810   2
   8   6   8 17.2735 1.16330   2
   8   6   8 317.332 6.15673   1
   9   6   8 54.3792 2.64491   1
   9   6   8 1.98261 2.14263   2
  10   6   8 8.91590 1.99528   2
  10   6   8 187.384 4.59447   1
  11   6   8 162.535 6.30570   1
  11   6   8 5.36132 2.39704   2
 -14   7   8 14.0942 2.37518   2
 -14   7   8 198.283 5.93647   1
 -13   7   8 129.232 4.21108   1
 -13   7   8 9.98697 1.84912   2
 -11   7  10 199.617 6.03416  -2
 -12   7   8 199.617 6.03416   1
 -12   7   8 11.4323 1.69594   2
 -10   7  10 -0.4957 2.63424  -2
 -11   7   8 -0.4957 2.63424   1
 -11   7   8 -0.9293 1.25721   2
 -10   7   8 17.5821 1.09166   1
 -10   7   8 1.32283 0.89160   2
  -9   7   8 2.89200 0.74683   2
  -9   7   8 41.2237 1.73256   1
  -8   7   8 9.96856 1.12722   1
  -8   7   8 0.46478 0.69239   2
  -6   7   9 20.5964 1.33801  -2
  -7   7   8 20.5964 1.33801   1
  -7   7   8 3.00853 0.74360   2
  -5   7   9 17.8631 0.84703  -2
  -6   7   8 17.8631 0.84703   1
  -5   7   8 130.845 2.31956   1
  -5   7   8 9.33803 0.64605   2
  -4   7   8 53.0604 1.05087   1
  -4   7   8 3.91970 0.30450   2
  -3   7   8 11.0182 0.43367   2
  -3   7   8 210.898 4.08930   1
  -2   7   8 213.980 8.61456  -2
  -3   7   8 213.980 8.61456   1
  -2   7   8 2.49378 0.34926   2
  -1   7   8 60.0578 1.68109  -2
  -2   7   8 60.0578 1.68109   1
  -2   7   8 33.3151 2.10216   1
  -1   7   8 27.0754 1.87251   2
  -1   7   8 448.287 12.9308   1
   0   7   8 499.525 14.4820  -2
  -1   7   8 499.525 14.4820   1
   0   7   8 792.501 14.0905   1
   0   7   8 46.8994 2.27295   2
   1   7   8 1.71082 0.39771   2
   1   7   8 28.4070 0.76964   1
   2   7   8 720.205 11.5982   1
   2   7   8 40.1802 1.11931   2
   3   7   8 389.921 6.48284   1
   3   7   8 19.6588 0.95294   2
   4   7   8 0.57498 0.50738   2
   4   7   8 17.6321 0.78793   1
   5   7   8 23.6208 1.03216   1
   5   7   8 1.00293 0.55868   2
   6   7   8 98.0303 2.20230   1
   6   7   8 4.94484 0.73509   2
   7   7   8 85.0155 2.15543   1
   7   7   8 5.03820 0.80587   2
   8   7   8 3.29945 1.15875   2
   8   7   8 91.9470 3.05633   1
   9   7   8 0.90659 1.57177   2
   9   7   8 8.81471 2.04993   1
  10   7   8 -1.5306 1.83871   2
  10   7   8 2.36956 1.92035   1
  11   7   8 21.6910 3.82268   1
  11   7   8 4.46631 2.51407   2
 -13   8   8 9.36904 2.04985   1
 -13   8   8 0.56972 1.79762   2
 -12   8   8 6.32431 1.79820   2
 -11   8  10 85.0110 3.97738  -2
 -12   8   8 85.0110 3.97738   1
 -10   8  10 214.418 9.17785  -2
 -11   8   8 214.418 9.17785   1
 -11   8   8 7.92591 2.31191   2
 -10   8   8 7.82713 1.03843   1
 -10   8   8 0.59175 0.93120   2
  -9   8   8 3.00680 1.06218   2
  -9   8   8 39.6446 1.61071   1
  -8   8   8 6.38307 0.87304   2
  -8   8   8 89.0856 3.06961   1
  -7   8   9 102.200 4.93852  -2
  -8   8   8 102.200 4.93852   1
  -7   8   8 3.56674 0.80408   2
  -6   8   9 49.8453 1.73844  -2
  -7   8   8 49.8453 1.73844   1
  -5   8   9 133.118 4.03344  -2
  -6   8   8 133.118 4.03344   1
  -5   8   8 4.46458 0.43734   1
  -5   8   8 -0.1649 0.70885   2
  -4   8   8 27.9656 0.74628   2
  -4   8   8 472.030 7.85808   1
  -3   8   8 43.0074 1.08457   2
  -3   8   8 726.913 14.4743   1
  -2   8   8 727.353 20.8997  -2
  -3   8   8 727.353 20.8997   1
  -1   8   8 18.6558 1.00904  -2
  -2   8   8 18.6558 1.00904   1
  -2   8   8 1.27208 0.34297   2
  -2   8   8 5.03102 0.87578   1
  -1   8   8 300.896 7.66885   1
   0   8   8 314.563 8.93344  -2
  -1   8   8 314.563 8.93344   1
  -1   8   8 15.6269 1.32623   2
   0   8   8 8.25990 0.91075   2
   0   8   8 144.592 2.63667   1
   1   8   8 25.8990 0.90183   2
   1   8   8 430.200 7.06924   1
   2   8   8 3.40608 0.62072   1
   2   8   8 0.76087 0.46480   2
   3   8   7 9.61969 2.16533  -2
   2   8   8 9.61969 2.16533   1
   3   8   8 0.79062 0.49380   2
   3   8   8 9.96556 0.61621   1
   4   8   8 1.06423 0.45854   1
   4   8   8 -0.2809 0.52278   2
   5   8   8 17.3874 1.01601   2
   5   8   8 354.043 6.36662   1
   6   8   8 13.1376 0.98663   2
   6   8   8 242.252 4.67688   1
   7   8   8 1.53702 1.04701   1
   7   8   8 -1.8527 0.87817   2
   8   8   8 2.90387 1.15836   2
   8   8   8 58.4469 2.62390   1
   9   8   8 2.77300 1.67961   2
   9   8   8 57.6447 3.22238   1
  10   8   8 14.1838 2.27128   1
  10   8   8 -1.9831 1.99611   2
  11   8   8 1.46713 2.55062   2
  11   8   8 31.3058 5.70218   1
 -13   9   8 8.60091 2.14808   1
 -13   9   8 2.21790 2.11913   2
 -11   9  10 58.9296 3.92311  -2
 -12   9   8 58.9296 3.92311   1
 -12   9   8 3.23402 2.05128   2
 -10   9  10 75.7374 5.46462  -2
 -11   9   8 75.7374 5.46462   1
 -11   9   8 3.97351 1.50562   2
 -10   9   8 0.17511 0.98293   2
 -10   9   8 -0.7372 1.07611   1
  -9   9  10 5.07172 9.78022  -2
 -10   9   8 5.07172 9.78022   1
  -9   9   8 1.57348 1.10122   2
  -9   9   8 46.5834 1.95272   1
  -8   9   8 8.80701 1.12387   2
  -8   9   8 134.056 4.96752   1
  -7   9   9 139.957 8.13442  -2
  -8   9   8 139.957 8.13442   1
  -6   9   9 7.81468 1.75571  -2
  -7   9   8 7.81468 1.75571   1
  -7   9   8 -0.0489 0.71820   2
  -5   9   9 58.1113 2.58074  -2
  -6   9   8 58.1113 2.58074   1
  -5   9   8 2.60698 0.51682   1
  -5   9   8 -0.2848 1.54461   2
  -4   9   8 26.1235 0.87255   1
  -4   9   8 1.84126 0.54983   2
  -3   9   8 264.989 5.61831   1
  -3   9   8 13.0960 0.80513   2
  -2   9   8 15.1456 0.80761   2
  -1   9   8 341.463 14.5215  -2
  -2   9   8 341.463 14.5215   1
  -2   9   8 288.067 8.90723   1
   0   9   8 713.408 27.5836  -2
  -1   9   8 713.408 27.5836   1
  -1   9   8 699.225 16.0251   1
  -1   9   8 42.0393 2.20117   2
   0   9   8 77.3721 1.80081   1
   0   9   8 5.05704 0.92985   2
   1   9   8 -0.0468 0.46635   2
   1   9   8 1.34633 0.42123   1
   2   9   8 4.77375 0.59224   2
   2   9   8 94.1192 2.12471   1
   3   9   8 42.4016 1.44556   2
   3   9   8 729.431 11.8171   1
   4   9   8 179.666 3.93737   1
   4   9   8 9.36821 0.78552   2
   5   9   8 20.9000 1.35373   2
   5   9   8 445.425 8.98299   1
   6   9   8 -0.1103 0.86481   2
   6   9   8 4.44399 0.92634   1
   7   9   8 29.8489 2.38235   1
   7   9   8 2.55280 1.00877   2
   8   9   8 91.3751 4.35329   1
   8   9   8 4.40572 3.75637   2
   9   9   8 1.26599 1.70586   2
   9   9   8 5.88431 2.02416   1
  10   9   8 1.52680 2.17802   2
  10   9   8 47.6618 3.46095   1
  11   9   8 0.61221 3.25636   2
 -13  10   8 -0.1070 2.20964   2
 -13  10   8 1.88996 2.29349   1
 -11  10  10 6.20379 4.25739  -2
 -12  10   8 6.20379 4.25739   1
 -12  10   8 2.07595 2.13859   2
 -11  10   8 2.73853 1.69732   2
 -10  10  10 20.8352 4.05886  -2
 -11  10   8 20.8352 4.05886   1
 -10  10   8 2.88864 1.57597   2
 -10  10   8 50.2957 2.37993   1
  -9  10  10 41.6759 11.3330  -2
 -10  10   8 41.6759 11.3330   1
  -9  10   8 245.598 5.18228   1
  -9  10   8 15.6730 1.71931   2
  -8  10   8 7.78399 1.38774   2
  -8  10   8 138.562 4.28889   1
  -7  10   9 147.310 8.62710  -2
  -8  10   8 147.310 8.62710   1
  -6  10   9 98.3379 3.52938  -2
  -7  10   8 98.3379 3.52938   1
  -7  10   8 6.04156 1.20352   2
  -5  10   9 962.493 22.8705  -2
  -6  10   8 962.493 22.8705   1
  -5  10   8 14.1205 2.25266   2
  -5  10   8 217.046 4.75909   1
  -4  10   8 3.13362 1.26996   2
  -4  10   8 8.10885 0.67547   1
  -3  10   8 219.106 5.77426   1
  -3  10   8 11.3941 0.80388   2
  -2  10   8 1.58985 0.47751   2
  -1  10   8 10.7443 2.34772  -2
  -2  10   8 10.7443 2.34772   1
  -2  10   8 8.29168 1.17354   1
  -1  10   8 0.52238 0.81998   2
  -1  10   8 10.4506 0.90911   1
   0  10   8 0.23614 0.64289   2
   0  10   8 7.53376 0.63572   1
   1  10   8 2.39481 0.45543   1
   1  10   8 -0.5474 0.48394   2
   2  10   8 4.04053 0.60619   2
   2  10   8 75.3701 1.86101   1
   3  10   8 3.87659 0.60037   1
   3  10   8 0.32762 0.53835   2
   4  10   8 2.55428 0.74653   2
   4  10   8 48.8133 1.63468   1
   5  10   8 1.40693 0.80588   2
   5  10   8 48.9603 1.83842   1
   6  10   8 2.32411 0.96296   2
   6  10   8 51.8236 2.23290   1
   7  10   8 7.08028 1.19557   2
   7  10   8 111.515 4.43424   1
   8  10   8 243.732 7.88414   1
   8  10   8 9.69206 1.78978   2
   9  10   8 4.18619 1.84770   2
   9  10   8 43.9289 3.72712   1
  10  10   8 8.67770 2.40834   2
  10  10   8 105.507 5.35674   1
 -13  11   8 15.2831 2.46893   1
 -13  11   8 0.07035 2.67989   2
 -12  11   8 20.5094 2.70372   2
 -11  11  10 304.204 9.16400  -2
 -12  11   8 304.204 9.16400   1
 -11  11   8 4.25835 1.98379   2
 -10  11  10 37.0622 3.18790  -2
 -11  11   8 37.0622 3.18790   1
 -10  11   8 11.4051 2.14813   1
 -10  11   8 2.01538 1.66323   2
  -9  11  10 30.3573 12.0771  -2
 -10  11   8 30.3573 12.0771   1
  -9  11   8 34.7045 1.85321   1
  -9  11   8 3.31782 1.38603   2
  -7  11   9 48.6059 4.16908  -2
  -8  11   8 48.6059 4.16908   1
  -8  11   8 2.56462 1.27023   2
  -8  11   8 44.5810 2.75495   1
  -6  11   9 333.451 8.75806  -2
  -7  11   8 333.451 8.75806   1
  -7  11   8 14.4160 1.75630   2
  -5  11   9 56.6266 2.83925  -2
  -6  11   8 56.6266 2.83925   1
  -5  11   8 48.4179 1.62321   1
  -5  11   8 2.22663 1.74669   2
  -4  11   8 2.12247 0.63378   2
  -4  11   8 36.9089 1.89535   1
  -3  11   8 102.733 2.64553   1
  -3  11   8 4.50982 0.74250   2
  -2  11   8 242.387 6.04315   1
  -2  11   8 13.2368 1.01475   2
  -1  11   8 244.565 11.1507  -2
  -2  11   8 244.565 11.1507   1
  -1  11   8 2.27479 0.68574   2
  -1  11   8 23.5696 1.37182   1
   0  11   8 20.3180 2.82911  -2
  -1  11   8 20.3180 2.82911   1
   0  11   8 254.200 5.44858   1
   0  11   8 13.5536 1.20475   2
   1  11   8 0.06369 0.64388   2
   1  11   8 2.30992 0.55771   1
   2  11   8 291.438 5.54347   1
   2  11   8 14.9985 1.05057   2
   3  11   8 87.3914 2.14278   1
   3  11   8 4.02866 0.80785   2
   4  11   8 138.818 3.10377   1
   4  11   8 6.00721 0.94089   2
   5  11   8 3.45703 0.93385   2
   5  11   8 62.7012 2.15434   1
   6  11   8 7.03295 1.16460   2
   6  11   8 134.321 4.88217   1
   7  11   8 3.74241 1.85642   2
   7  11   8 -0.6632 2.09005   1
   8  11   8 199.641 6.90517   1
   8  11   8 11.0102 1.84728   2
   9  11   8 7.48743 2.11567   2
   9  11   8 166.692 6.42525   1
  10  11   8 5.21054 2.92863   1
  10  11   8 0.83483 2.52840   2
 -12  12   8 6.34372 2.63157   2
 -11  12  10 100.984 6.24925  -2
 -12  12   8 100.984 6.24925   1
 -11  12   8 13.7035 2.34162   2
 -10  12  10 224.616 6.08686  -2
 -11  12   8 224.616 6.08686   1
 -10  12   8 49.0279 3.39792   1
 -10  12   8 1.44441 1.53444   2
  -9  12   8 -1.4284 1.43079   2
  -9  12   8 0.57719 1.10503   1
  -8  12   8 3.10403 1.33939   2
  -8  12   8 33.1973 2.63532   1
  -7  12   9 33.5175 3.99221  -2
  -8  12   8 33.5175 3.99221   1
  -6  12   9 11.6431 2.09491  -2
  -7  12   8 11.6431 2.09491   1
  -7  12   8 -0.4637 1.15068   2
  -5  12   9 431.212 10.9771  -2
  -6  12   8 431.212 10.9771   1
  -5  12   8 178.731 5.08017   1
  -5  12   8 12.2304 1.65659   2
  -4  12   8 8.48754 1.03440   2
  -4  12   8 155.312 3.70994   1
  -2  12   8 178.791 9.01697  -2
  -3  12   8 178.791 9.01697   1
  -3  12   8 9.10013 1.08303   2
  -3  12   8 174.630 4.61177   1
  -1  12   8 72.6027 5.04156  -2
  -2  12   8 72.6027 5.04156   1
  -2  12   8 59.6190 2.18164   1
  -2  12   8 3.51574 0.80565   2
  -1  12   8 25.7555 1.51688   2
  -1  12   8 521.306 12.2500   1
   0  12   8 10.0513 1.06833   2
   0  12   8 159.813 3.74042   1
   1  12   8 2.70172 0.60171   1
   1  12   8 -0.4663 0.68155   2
   2  12   8 1.04941 0.74716   2
   2  12   8 14.3406 0.90226   1
   3  12   8 7.77709 0.96183   2
   3  12   8 178.360 3.74593   1
   4  12   8 13.8130 1.03015   1
   4  12   8 2.64775 0.91368   2
   5  12   8 106.725 3.33132   1
   5  12   8 4.37945 1.03247   2
   6  12   8 0.79992 1.14895   2
   6  12   8 6.83430 1.63469   1
   7  12   8 8.91783 1.67109   2
   7  12   8 141.485 5.34684   1
   8  12   8 5.60573 1.86049   2
   8  12   8 82.9860 4.46278   1
   9  12   8 46.1308 3.91458   1
   9  12   8 1.11545 2.10939   2
 -11  13  10 19.6736 5.90744  -2
 -12  13   8 19.6736 5.90744   1
 -12  13   8 1.11472 2.65744   2
 -10  13  10 4.75706 3.60417  -2
 -11  13   8 4.75706 3.60417   1
 -11  13   8 0.28736 2.24883   2
 -10  13   8 96.1787 4.01293   1
 -10  13   8 5.02616 1.66208   2
  -9  13  10 89.7816 6.23576  -2
 -10  13   8 89.7816 6.23576   1
  -9  13   8 14.2424 2.08860   1
  -9  13   8 0.40541 1.72383   2
  -8  13   8 -0.7110 1.37795   2
  -8  13   8 0.70933 1.33932   1
  -7  13   9 3.20750 3.98493  -2
  -8  13   8 3.20750 3.98493   1
  -7  13   8 12.0140 1.58640   2
  -6  13   9 197.763 6.28105  -2
  -7  13   8 197.763 6.28105   1
  -5  13   9 4.83104 2.13659  -2
  -6  13   8 4.83104 2.13659   1
  -6  13   8 3.97325 2.33760   2
  -5  13   8 0.81415 1.51118   2
  -5  13   8 10.1012 0.99698   1
  -4  13   8 54.1358 1.92777   1
  -4  13   8 4.68835 1.52498   2
  -3  13   8 6.77689 0.97807   1
  -3  13   8 -0.4264 0.91006   2
  -2  13   8 18.9322 4.24164  -2
  -3  13   8 18.9322 4.24164   1
  -2  13   8 18.3311 1.42469   2
  -1  13   8 350.862 15.5535  -2
  -2  13   8 350.862 15.5535   1
  -2  13   8 320.808 7.88094   1
  -1  13   8 424.166 10.1663   1
  -1  13   8 23.0628 1.54722   2
   0  13   8 3.16762 0.94540   2
   0  13   8 23.9841 1.42177   1
   1  13   8 10.1558 0.89710   1
   1  13   8 1.54086 0.89185   2
   2  13   8 10.1871 1.03724   2
   2  13   8 175.684 3.72551   1
   3  13   8 21.6405 1.40665   2
   3  13   8 439.359 8.20104   1
   4  13   8 2.81480 1.03263   2
   4  13   8 78.8456 2.56877   1
   5  13   8 3.39183 1.10840   2
   5  13   8 78.2181 2.68549   1
   6  13   8 4.79354 1.33918   2
   6  13   8 101.048 6.55040   1
   7  13   8 -0.8148 1.65335   2
   7  13   8 15.2225 2.23104   1
   8  13   8 8.48064 2.36513   1
   8  13   8 1.48932 1.94108   2
   9  13   8 5.51841 2.49800   2
   9  13   8 81.0831 5.14612   1
 -11  14   8 0.13929 2.46540   2
 -10  14  10 9.75406 3.79622  -2
 -11  14   8 9.75406 3.79622   1
 -10  14   8 3.81344 2.17610   1
 -10  14   8 3.50173 1.71575   2
  -9  14  10 6.72958 4.83591  -2
 -10  14   8 6.72958 4.83591   1
  -9  14   8 6.50571 1.62885   2
  -9  14   8 96.9657 3.32315   1
  -8  14   8 76.4733 9.12842   1
  -8  14   8 8.03634 2.71382   2
  -7  14   8 2.23434 1.47841   2
  -6  14   9 62.6057 3.86861  -2
  -7  14   8 62.6057 3.86861   1
  -6  14   8 10.8789 2.86316   2
  -5  14   9 156.266 4.50974  -2
  -6  14   8 156.266 4.50974   1
  -5  14   8 -0.2641 1.55190   2
  -5  14   8 2.67740 1.03864   1
  -4  14   8 6.64263 0.90574   1
  -4  14   8 -0.0619 1.49640   2
  -3  14   8 164.197 4.51429   1
  -3  14   8 10.7914 1.28780   2
  -2  14   8 173.337 9.15416  -2
  -3  14   8 173.337 9.15416   1
  -2  14   8 151.140 4.28000   1
  -2  14   8 9.23698 1.11317   2
  -1  14   8 169.374 8.76337  -2
  -2  14   8 169.374 8.76337   1
  -1  14   8 35.2353 1.91310   1
  -1  14   8 3.54504 0.92185   2
   0  14   8 257.757 5.66320   1
   0  14   8 13.5454 1.29258   2
   1  14   8 43.8257 1.68280   1
   1  14   8 3.47822 1.05538   2
   2  14   8 375.513 7.12395   1
   2  14   8 20.8047 1.37446   2
   3  14   8 7.34086 1.10940   1
   3  14   8 1.17894 0.91320   2
   4  14   8 12.0587 1.30049   2
   4  14   8 234.389 5.43932   1
   5  14   8 2.25874 1.48750   2
   5  14   8 60.7261 5.30120   1
   6  14   8 2.60732 1.60004   1
   6  14   8 0.31537 1.33333   2
   7  14   8 25.4570 2.61189   1
   7  14   8 -0.7590 1.86823   2
   8  14   8 51.8384 4.40038   1
   8  14   8 1.71850 2.17432   2
   9  14   8 2.31078 2.52673   2
   9  14   8 10.1638 2.82334   1
 -11  15   8 5.40571 2.74907   2
 -10  15  10 60.0570 4.43375  -2
 -11  15   8 60.0570 4.43375   1
 -10  15   8 7.37890 1.90814   2
 -10  15   8 69.0262 3.40920   1
  -9  15  10 72.4035 6.51763  -2
 -10  15   8 72.4035 6.51763   1
  -9  15   8 11.8157 1.61895   1
  -9  15   8 -0.0273 1.59936   2
  -7  15   9 18.5000 7.51489  -2
  -8  15   8 18.5000 7.51489   1
  -8  15   8 1.76396 1.82832   2
  -8  15   8 17.0167 2.00018   1
  -7  15   8 21.1702 2.39311   2
  -6  15   9 290.198 10.6902  -2
  -7  15   8 290.198 10.6902   1
  -6  15   8 2.52520 2.84617   2
  -5  15   9 49.5240 3.01993  -2
  -6  15   8 49.5240 3.01993   1
  -5  15   8 15.8961 2.09217   2
  -5  15   8 215.487 5.26012   1
  -4  15   8 7.25998 0.99843   1
  -4  15   8 3.46967 1.71671   2
  -2  15   8 50.9891 4.04807  -2
  -3  15   8 50.9891 4.04807   1
  -3  15   8 27.3334 1.88221   1
  -3  15   8 2.30441 1.06406   2
  -2  15   8 19.2637 1.54738   2
  -2  15   8 295.087 7.45207   1
  -1  15   8 303.038 13.9615  -2
  -2  15   8 303.038 13.9615   1
  -1  15   8 4.32000 1.09586   2
  -1  15   8 41.8628 2.17332   1
   0  15   8 3.74394 1.11542   2
   0  15   8 48.3118 2.27173   1
   1  15   8 -0.3898 1.03791   2
   1  15   8 2.93355 0.96803   1
   2  15   8 2.71251 1.01908   1
   2  15   8 0.73833 0.95659   2
   3  15   8 1.11038 1.10615   1
   3  15   8 0.56544 1.03269   2
   4  15   8 197.757 5.24850   1
   4  15   8 9.67145 1.45362   2
   5  15   8 -2.2007 1.79875   2
   5  15   8 12.5054 1.89888   1
   6  15   8 0.93685 1.74358   2
   6  15   8 1.69864 1.76790   1
   7  15   8 48.9953 3.36043   1
   7  15   8 6.30338 2.10373   2
   8  15   8 136.414 5.54429   1
   8  15   8 3.83989 2.47590   2
 -10  16   8 2.04975 2.58746   2
 -10  16   8 82.0847 3.82759   1
  -9  16  10 85.9800 7.36919  -2
 -10  16   8 85.9800 7.36919   1
  -9  16   8 1.87709 1.78443   2
  -9  16   8 38.0470 2.45401   1
  -7  16   9 22.5469 5.72696  -2
  -8  16   8 22.5469 5.72696   1
  -8  16   8 0.48911 2.00158   2
  -8  16   8 19.4502 2.43319   1
  -7  16   8 1.67067 1.87090   2
  -6  16   9 3.70168 3.48435  -2
  -7  16   8 3.70168 3.48435   1
  -6  16   8 9.19709 3.28446   2
  -5  16   9 51.7202 6.12224  -2
  -6  16   8 51.7202 6.12224   1
  -5  16   8 153.895 4.22228   1
  -5  16   8 11.5736 2.14996   2
  -4  16   8 2.36409 0.97871   1
  -4  16   8 -0.0758 1.67472   2
  -3  16   8 31.7708 2.09928   1
  -3  16   8 1.52654 1.18619   2
  -2  16   8 35.0922 5.52635  -2
  -3  16   8 35.0922 5.52635   1
  -2  16   8 9.90400 1.37349   1
  -2  16   8 1.27569 1.10421   2
  -1  16   8 264.282 6.88000   1
  -1  16   8 14.8685 1.53618   2
   0  16   8 15.7760 1.52725   1
   0  16   8 1.28285 1.21609   2
   1  16   8 3.55923 1.21556   2
   1  16   8 64.8658 2.42849   1
   2  16   8 25.1291 1.58577   1
   2  16   8 1.43771 1.19442   2
   3  16   8 165.157 5.88462   1
   3  16   8 10.5592 1.54977   2
   4  16   8 2.84103 1.46206   2
   4  16   8 15.4390 1.91952   1
   5  16   8 11.1922 1.90851   1
   5  16   8 0.31599 1.48759   2
   6  16   8 -0.4484 1.99258   2
   6  16   8 5.31869 2.10951   1
   7  16   8 274.461 8.01921   1
   7  16   8 12.9242 2.53776   2
  -9  17   8 -0.6496 1.99040   2
  -9  17   8 13.2648 2.02838   1
  -8  17   8 4.70841 2.28001   2
  -8  17   8 68.5288 4.25080   1
  -7  17   9 84.9553 7.05358  -2
  -8  17   8 84.9553 7.05358   1
  -7  17   8 21.6579 2.39910   2
  -6  17   9 352.236 9.30194  -2
  -7  17   8 352.236 9.30194   1
  -5  17   9 1.26819 3.53604  -2
  -6  17   8 1.26819 3.53604   1
  -6  17   8 8.07402 4.49228   2
  -5  17   8 7.22943 2.27289   2
  -5  17   8 125.180 3.98178   1
  -4  17   8 150.426 5.06962   1
  -4  17   8 9.71747 1.95691   2
  -2  17   8 54.2628 6.55723  -2
  -3  17   8 54.2628 6.55723   1
  -3  17   8 2.12807 1.61137   2
  -3  17   8 43.0220 2.59559   1
  -2  17   8 11.9304 1.53119   2
  -2  17   8 181.650 5.23536   1
  -1  17   8 4.11016 1.37304   2
  -1  17   8 31.0079 2.27847   1
   0  17   8 -1.2610 1.30877   2
   0  17   8 2.87128 1.34972   1
   1  17   8 0.35145 1.31028   2
   1  17   8 -0.8916 1.27348   1
   2  17   8 20.8688 1.73308   1
   2  17   8 6.14912 2.77463   2
   3  17   8 4.95773 1.59085   2
   3  17   8 115.932 4.53338   1
   4  17   8 0.42104 1.42362   2
   4  17   8 23.9876 2.28501   1
   5  17   8 3.11132 2.02398   1
   5  17   8 0.72147 1.87956   2
   6  17   8 58.0605 3.87565   1
   6  17   8 2.14087 2.24255   2
   7  17   8 4.04209 2.54974   1
   7  17   8 -1.2036 2.52316   2
  -9  18   8 5.70845 3.18764   2
  -9  18   8 -0.0740 3.15941   1
  -8  18   8 0.91099 1.98415   2
  -7  18   9 13.4669 9.78054  -2
  -8  18   8 13.4669 9.78054   1
  -8  18   8 7.50505 2.47299   1
  -7  18   8 1.10062 2.29822   2
  -6  18   9 12.7186 3.82353  -2
  -7  18   8 12.7186 3.82353   1
  -6  18   8 2.60432 3.82036   2
  -5  18   9 36.7506 4.51717  -2
  -6  18   8 36.7506 4.51717   1
  -5  18   8 41.0489 2.83332   1
  -5  18   8 5.24900 3.20187   2
  -4  18   8 2.53577 1.73733   1
  -4  18   8 1.31131 2.92958   2
  -3  18   8 56.2440 3.02273   1
  -3  18   8 2.68414 1.64853   2
  -2  18   8 224.018 6.33578   1
  -2  18   8 17.2612 1.80487   2
  -1  18   8 3.06352 2.07320   1
  -1  18   8 -0.7522 2.01776   2
   0  18   8 190.694 5.62337   1
   0  18   8 16.0435 2.74051   2
   1  18   8 4.45715 1.59792   2
   1  18   8 77.9034 3.40682   1
   2  18   8 147.061 4.76685   1
   2  18   8 7.23052 1.71029   2
   3  18   8 5.38255 1.73231   1
   3  18   8 1.88895 1.61288   2
   4  18   8 395.316 10.2613   1
   4  18   8 18.2187 2.14817   2
   5  18   8 29.1783 2.70355   1
   5  18   8 4.01376 2.51725   2
   6  18   8 12.1501 2.77855   1
   6  18   8 0.70903 2.90549   2
  -8  19   8 -3.0185 3.92599   2
  -7  19   8 -1.4226 3.04620   2
  -6  19   9 65.8651 4.96759  -2
  -7  19   8 65.8651 4.96759   1
  -5  19   9 59.3064 5.21295  -2
  -6  19   8 59.3064 5.21295   1
  -5  19   8 90.4864 4.63136   1
  -4  19   8 15.0144 2.24489   1
  -4  19   8 0.65595 3.38102   2
  -3  19   8 3.33565 1.82184   2
  -3  19   8 33.9743 3.59906   1
  -2  19   8 21.3774 2.69005   2
  -2  19   8 319.221 8.36496   1
  -1  19   8 11.3070 1.79449   1
  -1  19   8 1.36724 1.57105   2
   0  19   8 0.37262 1.59155   2
   0  19   8 8.50866 1.80570   1
   1  19   8 0.58746 1.72202   2
   1  19   8 11.9707 1.84368   1
   2  19   8 51.1013 3.17352   1
   2  19   8 1.73928 1.77024   2
   3  19   8 1.66000 1.78583   2
   3  19   8 0.22614 2.39262   1
   4  19   8 177.243 7.48064   1
   4  19   8 7.25046 2.58598   2
   5  19   8 3.60545 3.00144   1
   5  19   8 -2.9941 2.84507   2
  -5  20   9 -2.2082 4.68420  -2
  -6  20   8 -2.2082 4.68420   1
  -5  20   8 43.8801 3.67930   1
  -4  20   8 39.4803 3.10428   1
  -4  20   8 5.18979 3.69891   2
  -3  20   8 2.24425 2.59142   1
  -3  20   8 -0.5009 2.01486   2
  -2  20   8 20.8700 2.34504   1
  -2  20   8 4.18954 2.55095   2
  -1  20   8 128.561 4.67501   1
  -1  20   8 9.23025 2.06726   2
   0  20   8 122.023 4.59560   1
   0  20   8 10.4148 2.03398   2
   1  20   8 103.747 4.27925   1
   1  20   8 4.53729 2.04823   2
   2  20   8 42.9924 3.03407   1
   2  20   8 1.15644 1.93936   2
   3  20   8 8.61640 2.15685   2
   3  20   8 119.603 6.25440   1
   4  20   8 7.54381 3.17481   2
   4  20   8 33.8137 4.24384   1
  -5  21   8 1.30164 4.17404   2
  -5  21   8 62.6224 8.28941   1
  -4  21   8 14.3544 2.88901   1
  -4  21   8 -6.3460 4.20582   2
  -3  21   8 1.94904 2.44915   2
  -3  21   8 41.2963 5.40339   1
  -2  21   8 1.46842 2.93064   2
  -2  21   8 13.0801 3.27602   1
  -1  21   8 -0.1108 2.25002   1
  -1  21   8 -2.3413 2.76283   2
   0  21   8 6.99003 2.38902   2
   0  21   8 92.0086 4.33708   1
   1  21   8 0.04120 2.12823   1
   1  21   8 -0.1084 2.27554   2
   2  21   8 3.81604 2.04475   2
   2  21   8 55.5695 4.49962   1
 -14   0   9 -1.5091 2.44461   1
 -14   0   9 1.24630 2.43506   2
 -13   0   9 0.43556 1.96633   2
 -13   0   9 16.3438 2.83830   1
 -12   0  11 16.8354 8.52072  -2
 -13   0   9 16.8354 8.52072   1
 -12   0   9 -0.5250 2.44872   2
 -11   0  11 6.28557 5.89272  -2
 -12   0   9 6.28557 5.89272   1
 -11   0   9 0.54742 1.70704   2
 -10   0  11 28.5330 3.43951  -2
 -11   0   9 28.5330 3.43951   1
 -10   0   9 2.63193 1.43357   2
 -10   0   9 1.65953 1.36724   1
  -9   0   9 0.27769 1.15813   1
  -9   0   9 1.65315 1.12459   2
  -8   0   9 -0.1047 0.97911   2
  -8   0   9 -0.1708 0.50791   1
  -7   0   9 130.225 4.84925   1
  -7   0   9 7.25893 0.71289   2
  -6   0  10 136.709 4.23787  -2
  -7   0   9 136.709 4.23787   1
  -5   0  10 -2.7565 1.66141  -2
  -6   0   9 -2.7565 1.66141   1
  -6   0   9 1.04669 2.00226   1
  -5   0   9 390.277 9.39720   1
  -4   0   9 0.60359 0.24601   1
  -4   0   9 -0.5246 0.34798   2
  -3   0   9 399.565 9.25453   1
  -3   0   9 20.8189 0.82087   2
  -2   0   9 0.20138 0.22947   1
  -2   0   9 0.31593 0.24267   2
  -1   0   9 126.807 5.14585   2
  -1   0   9 2269.40 50.5755   1
   0   0   9 0.67353 0.24769   2
   0   0   9 0.56022 0.39856   1
   1   0   9 65.5508 1.94855   1
   1   0   9 3.29716 0.54361   2
   2   0   9 0.16802 0.41352   1
   2   0   9 0.18561 0.44347   2
   3   0   9 455.009 9.11759   1
   3   0   9 21.4868 1.13695   2
   4   0   9 -0.5229 0.52224   2
   4   0   9 0.79834 0.40313   1
   5   0   9 6.27189 0.56314   1
   5   0   9 -0.5704 0.60378   2
   6   0   9 0.55917 0.53672   1
   6   0   9 0.17039 0.70545   2
   7   0   9 165.559 3.56763   1
   7   0   9 8.07045 0.98278   2
   8   0   9 0.97411 0.95108   2
   8   0   9 1.00383 0.98174   1
   9   0   9 1.25036 1.41097   2
   9   0   9 25.8893 2.28573   1
  10   0   9 -1.2731 1.53876   2
  10   0   9 -1.7005 2.67797   1
  11   0   9 27.8505 3.96702   1
  11   0   9 1.55333 2.23561   2
 -14   1   9 3.58303 1.84106   1
 -14   1   9 -1.1043 1.81878   2
 -12   1  11 6.11248 4.80427  -2
 -13   1   9 6.11248 4.80427   1
 -13   1   9 8.03878 1.97111   1
 -13   1   9 1.34130 1.43444   2
 -11   1  11 141.184 5.37469  -2
 -12   1   9 141.184 5.37469   1
 -12   1   9 7.81231 2.15722   2
 -10   1  11 8.21512 2.14199  -2
 -11   1   9 8.21512 2.14199   1
 -11   1   9 1.24533 1.20631   2
 -10   1   9 232.956 4.60232   1
 -10   1   9 14.7176 1.31494   2
  -9   1   9 0.17485 0.80388   2
  -9   1   9 14.8478 0.82697   1
  -8   1   9 2.44644 0.47594   2
  -8   1   9 42.5447 1.09059   1
  -6   1  10 734.390 11.9297  -2
  -7   1   9 734.390 11.9297   1
  -7   1   9 43.9256 1.07095   2
  -7   1   9 725.762 32.4639   1
  -5   1  10 191.262 4.57827  -2
  -6   1   9 191.262 4.57827   1
  -6   1   9 172.511 4.95332   1
  -5   1   9 164.233 2.99185   1
  -4   1   9 10.4656 0.40388   1
  -4   1   9 1.08391 0.37669   2
  -3   1   9 34.3504 0.74567   2
  -3   1   9 650.562 10.4673   1
  -2   1   9 16.3758 0.52355   2
  -2   1   9 309.010 5.12106   1
  -1   1   9 65.5935 1.30846   1
  -1   1   9 3.92478 0.27056   2
   0   1   9 4.33651 0.32055   2
   0   1   9 84.1150 2.46256   1
   1   1   9 309.387 4.77045   1
   1   1   9 12.1372 0.75471   2
   2   1   9 5.74457 0.39962   1
   2   1   9 0.49322 0.31680   2
   3   1   9 6.22713 0.47529   2
   3   1   9 136.825 2.14296   1
   4   1   9 5.84180 0.53064   2
   4   1   9 138.132 1.83797   1
   5   1   9 171.338 2.23090   1
   5   1   9 8.01868 0.58611   2
   6   1   9 13.3172 0.61366   1
   6   1   9 0.84859 0.49862   2
   7   1   9 1.04904 0.59128   2
   7   1   9 32.7955 1.05384   1
   8   1   9 19.2168 1.05016   2
   8   1   9 362.705 5.07145   1
   9   1   9 1.20081 0.99242   2
   9   1   9 21.3379 1.58190   1
  10   1   9 109.516 4.09657   1
  10   1   9 6.34898 1.29642   2
  11   1   9 1.55499 2.09917   2
  11   1   9 31.2506 3.44510   1
 -14   2   9 8.34348 2.04951   1
 -14   2   9 1.63463 1.92407   2
 -13   2   9 24.6594 2.03185   1
 -12   2  11 22.5058 6.23966  -2
 -13   2   9 22.5058 6.23966   1
 -13   2   9 0.40653 1.43790   2
 -12   2   9 25.6454 2.81184   2
 -11   2  11 397.573 10.5452  -2
 -12   2   9 397.573 10.5452   1
 -10   2  11 73.6994 2.85713  -2
 -11   2   9 73.6994 2.85713   1
 -11   2   9 4.83802 1.15749   2
 -10   2   9 1.65181 1.04491   2
 -10   2   9 3.87480 1.00639   1
  -9   2   9 -0.4453 0.78433   2
  -9   2   9 6.61299 0.78522   1
  -8   2   9 0.85381 0.45489   2
  -8   2   9 22.2881 0.83375   1
  -6   2  10 1.14988 0.87199  -2
  -7   2   9 1.14988 0.87199   1
  -7   2   9 -0.2838 0.29299   2
  -7   2   9 2.04195 2.14457   1
  -6   2   9 517.706 16.6559   1
  -5   2  10 563.624 11.0536  -2
  -6   2   9 563.624 11.0536   1
  -5   2   9 322.825 5.05609   1
  -4   2   9 19.8868 0.64459   2
  -4   2   9 364.789 5.64455   1
  -3   2   9 0.36647 0.18010   2
  -3   2   9 9.09311 0.40111   1
  -2   2   9 -0.2178 0.20960   2
  -2   2   9 0.29260 0.17954   1
  -1   2   9 78.0305 1.52077   1
  -1   2   9 4.05975 0.29337   2
   0   2   9 1.36130 0.26986   2
   0   2   9 35.1074 1.76285   1
   1   2   9 2.61951 0.33739   1
   1   2   9 -0.0010 0.28843   2
   2   2   9 961.991 15.1061   1
   2   2   9 48.9612 1.30319   2
   3   2   9 101.583 1.74402   1
   3   2   9 4.80972 0.44402   2
   4   2   9 948.869 11.6809   1
   4   2   9 51.2716 1.36003   2
   5   2   9 7.35609 0.48112   1
   5   2   9 0.46806 0.47262   2
   6   2   9 2.16819 0.54292   2
   6   2   9 45.9368 1.17456   1
   7   2   9 -0.1989 0.55514   2
   7   2   9 0.37239 0.55384   1
   8   2   9 2.35457 0.74398   2
   8   2   9 37.4283 1.37427   1
   9   2   9 1.03752 1.01821   2
   9   2   9 23.4795 1.49197   1
  10   2   9 131.934 4.46755   1
  10   2   9 6.56467 1.44401   2
  11   2   9 33.2906 3.56654   1
  11   2   9 0.83329 2.46195   2
 -14   3   9 3.45993 1.98272   2
 -14   3   9 51.8490 2.86788   1
 -12   3  11 -2.2454 6.16181  -2
 -13   3   9 -2.2454 6.16181   1
 -13   3   9 3.13386 1.74574   1
 -13   3   9 -3.6925 1.56767   2
 -12   3   9 10.2588 1.56748   2
 -11   3  11 212.981 7.26204  -2
 -12   3   9 212.981 7.26204   1
 -11   3   9 6.64757 1.25298   2
 -10   3  11 114.286 3.35427  -2
 -11   3   9 114.286 3.35427   1
 -10   3   9 559.658 9.66666   1
 -10   3   9 34.0760 1.76625   2
  -9   3   9 3.47515 0.91792   2
  -9   3   9 71.6565 1.81941   1
  -8   3   9 165.666 2.74911   1
  -8   3   9 8.81596 0.68981   2
  -6   3  10 363.906 8.95960  -2
  -7   3   9 363.906 8.95960   1
  -7   3   9 351.949 10.7379   1
  -7   3   9 20.6476 0.92163   2
  -5   3  10 546.556 9.76315  -2
  -6   3   9 546.556 9.76315   1
  -6   3   9 507.241 15.4266   1
  -5   3   9 213.845 3.77056   1
  -4   3   9 0.88018 0.23276   1
  -4   3   9 0.44950 0.26348   2
  -3   3   9 37.5098 1.01468   1
  -3   3   9 1.45349 0.24357   2
  -2   3   9 100.035 2.39711   1
  -2   3   9 5.03860 0.34388   2
  -1   3   9 1.13892 0.23708   2
  -1   3   9 19.6804 0.77431   1
   0   3   9 14.8785 0.68693   1
   0   3   9 0.43282 0.32636   2
   1   3   9 2.43767 0.40413   2
   1   3   9 61.1529 1.31168   1
   2   3   9 135.331 2.31416   1
   2   3   9 7.38579 0.53910   2
   3   3   9 18.0579 0.73868   2
   3   3   9 372.979 5.74301   1
   4   3   9 460.172 6.14369   1
   4   3   9 21.2330 0.89650   2
   5   3   9 4.19624 0.51351   2
   5   3   9 91.9030 1.55709   1
   6   3   9 183.090 2.61356   1
   6   3   9 8.67876 0.71742   2
   7   3   9 2.86038 0.61109   1
   7   3   9 -0.5256 0.61696   2
   8   3   9 22.0757 1.45524   2
   8   3   9 544.016 8.14271   1
   9   3   9 2.13462 1.22204   2
   9   3   9 42.9537 2.32375   1
  10   3   9 130.559 4.30383   1
  10   3   9 10.0247 2.02372   2
  11   3   9 -0.4663 2.53384   2
  11   3   9 3.89555 3.10163   1
 -14   4   9 14.8839 2.27124   1
 -14   4   9 1.98623 2.03841   2
 -13   4   9 18.2358 2.08683   1
 -12   4  11 28.0550 8.49371  -2
 -13   4   9 28.0550 8.49371   1
 -13   4   9 3.00595 1.68970   2
 -12   4   9 6.43402 1.52364   2
 -11   4  11 75.4282 5.01303  -2
 -12   4   9 75.4282 5.01303   1
 -11   4   9 9.53893 1.31351   2
 -10   4  11 158.057 3.69546  -2
 -11   4   9 158.057 3.69546   1
 -10   4   9 88.2050 2.16624   1
 -10   4   9 8.60317 1.25750   2
  -9   4   9 1.70029 0.70795   1
  -9   4   9 -0.6439 0.62856   2
  -8   4   9 324.889 5.29749   1
  -8   4   9 18.5530 0.94849   2
  -7   4   9 2.48147 0.83438   2
  -6   4  10 45.4878 2.21526  -2
  -7   4   9 45.4878 2.21526   1
  -7   4   9 41.5042 1.62406   1
  -6   4   9 1.10603 0.54793   1
  -5   4  10 4.69570 1.29134  -2
  -6   4   9 4.69570 1.29134   1
  -5   4   9 38.6436 0.82753   1
  -4   4   9 75.8263 1.39954   1
  -4   4   9 4.19165 0.34539   2
  -3   4   9 195.455 3.42804   1
  -3   4   9 10.6421 0.45371   2
  -2   4   9 15.4790 0.53973   1
  -2   4   9 0.55190 0.27794   2
  -1   4   9 95.7229 1.92798   2
  -1   4   9 1765.12 35.0373   1
   0   4   9 0.57880 0.37993   2
   0   4   9 6.94104 0.43886   1
   1   4   9 90.3749 1.66426   1
   1   4   9 4.27505 0.42450   2
   2   4   9 6.43846 0.47728   2
   2   4   9 136.435 2.33820   1
   3   4   9 3.10868 0.42524   2
   3   4   9 69.2393 1.42660   1
   4   4   9 18.2852 0.76932   1
   4   4   9 0.87324 0.41957   2
   5   4   9 14.2449 0.71213   1
   5   4   9 0.75010 0.46599   2
   6   4   9 19.9133 1.01133   2
   6   4   9 406.432 5.74491   1
   7   4   9 5.13291 0.75095   2
   7   4   9 115.070 2.15548   1
   8   4   9 7.40095 1.03331   2
   8   4   9 126.578 2.96390   1
   9   4   9 85.0173 3.85237   1
   9   4   9 4.02682 1.66973   2
  10   4   9 2.41262 1.95917   2
  10   4   9 79.5902 3.55464   1
  11   4   9 5.41715 3.20543   1
  11   4   9 1.14053 2.63558   2
 -14   5   9 2.67922 2.14982   2
 -14   5   9 44.6094 3.04965   1
 -13   5   9 -2.0260 1.63468   2
 -13   5   9 4.46876 1.94781   1
 -12   5  11 1.35643 8.40549  -2
 -13   5   9 1.35643 8.40549   1
 -11   5  11 27.8321 4.28064  -2
 -12   5   9 27.8321 4.28064   1
 -12   5   9 -0.2530 1.37098   2
 -10   5  11 26.7613 2.49264  -2
 -11   5   9 26.7613 2.49264   1
 -11   5   9 1.88582 1.56572   2
 -10   5   9 -1.8189 1.22847   2
 -10   5   9 0.52687 0.83230   1
  -9   5   9 3.70477 0.76917   1
  -9   5   9 0.51930 0.68897   2
  -8   5   9 8.56265 0.80084   1
  -8   5   9 0.58632 0.68721   2
  -7   5   9 32.6248 1.36305   2
  -7   5   9 492.899 11.9163   1
  -6   5  10 502.208 10.2077  -2
  -7   5   9 502.208 10.2077   1
  -5   5  10 23.1330 1.19760  -2
  -6   5   9 23.1330 1.19760   1
  -6   5   9 18.6519 1.01092   1
  -5   5   9 61.7135 1.23770   1
  -4   5   9 2.48810 0.32635   2
  -4   5   9 42.0169 0.83823   1
  -3   5   9 1127.43 18.2339   1
  -3   5   9 63.1390 1.24900   2
  -2   5   9 31.8100 0.96815   2
  -2   5   9 548.596 9.98078   1
  -1   5   9 5.78262 0.58164   1
  -1   5   9 0.84115 0.24958   2
   0   5   9 26.0922 1.09265   2
   0   5   9 538.137 8.82001   1
   1   5   9 31.6923 1.05410   2
   1   5   9 630.786 10.2839   1
   2   5   9 2.47440 0.45883   2
   2   5   9 47.2397 1.20028   1
   3   5   9 4.59986 0.50902   2
   3   5   9 97.7781 1.82978   1
   4   5   9 1.96403 0.48354   2
   4   5   9 34.0235 1.04772   1
   5   5   9 7.97279 0.74251   2
   5   5   9 152.205 3.10774   1
   6   5   9 6.68852 0.80080   2
   6   5   9 118.023 2.46807   1
   7   5   9 -0.2256 0.87297   1
   7   5   9 0.08486 0.73718   2
   8   5   9 46.3672 2.10216   1
   8   5   9 3.04583 0.98359   2
   9   5   9 144.438 4.74629   1
   9   5   9 7.71367 4.81177   2
  10   5   9 24.2759 2.18505   1
  10   5   9 0.34183 1.99818   2
  11   5   9 19.7321 4.10875   1
  11   5   9 -3.5346 2.41219   2
 -14   6   9 -1.8463 2.20830   2
 -14   6   9 2.29096 2.21419   1
 -13   6   9 5.23243 1.84576   2
 -13   6   9 73.1127 3.89429   1
 -12   6  11 84.6800 9.70548  -2
 -13   6   9 84.6800 9.70548   1
 -11   6  11 57.2201 3.77206  -2
 -12   6   9 57.2201 3.77206   1
 -12   6   9 3.97938 1.45345   2
 -10   6  11 46.6110 3.87671  -2
 -11   6   9 46.6110 3.87671   1
 -11   6   9 4.41427 1.71292   2
 -10   6   9 1.00822 1.55447   2
 -10   6   9 2.47341 0.89902   1
  -9   6   9 8.83170 0.84950   2
  -9   6   9 115.567 2.46724   1
  -8   6   9 1.84955 0.73348   2
  -8   6   9 29.6315 1.46486   1
  -7   6   9 2.31042 0.75226   2
  -7   6   9 39.6133 2.20647   1
  -6   6  10 43.5825 2.27312  -2
  -7   6   9 43.5825 2.27312   1
  -5   6  10 510.495 11.7625  -2
  -6   6   9 510.495 11.7625   1
  -6   6   9 479.759 11.1504   1
  -5   6   9 738.299 11.0147   1
  -4   6   9 13.3008 0.53231   1
  -4   6   9 0.62789 0.30824   2
  -3   6   9 10.3052 0.47955   2
  -3   6   9 194.979 3.11487   1
  -2   6   9 42.5713 1.06999   1
  -2   6   9 2.15491 0.27032   2
  -1   6   9 563.748 10.1615   1
  -1   6   9 29.2420 1.10461   2
   0   6   9 7.92868 0.53933   1
   0   6   9 0.49091 0.40919   2
   1   6   9 0.26127 0.42170   2
   1   6   9 1.28764 0.41127   1
   2   6   9 157.502 2.89607   1
   2   6   9 8.28303 0.59713   2
   3   6   9 142.169 2.95780   1
   3   6   9 7.03210 0.53761   2
   4   6   9 412.716 6.79754   1
   4   6   9 20.2289 1.03376   2
   5   6   9 24.3094 1.16902   1
   5   6   9 1.31610 0.60764   2
   6   6   9 0.79561 0.72160   1
   6   6   9 0.57806 0.66567   2
   7   6   9 0.10482 0.78864   2
   7   6   9 13.7743 1.16668   1
   8   6   9 -1.3172 0.99379   2
   8   6   9 3.40615 1.56951   1
   9   6   9 44.8967 2.67512   1
   9   6   9 -0.0820 2.90693   2
  10   6   9 18.7649 2.38461   1
  10   6   9 0.44181 2.06646   2
  11   6   9 138.114 10.1542   1
  11   6   9 4.95312 2.37249   2
 -13   7   9 6.13370 1.97006   2
 -13   7   9 51.6234 3.32314   1
 -12   7  11 63.2502 9.85239  -2
 -13   7   9 63.2502 9.85239   1
 -12   7   9 4.45064 1.51991   2
 -11   7  11 30.1843 3.29103  -2
 -12   7   9 30.1843 3.29103   1
 -11   7   9 2.99557 1.95292   2
 -10   7  11 38.8379 7.11071  -2
 -11   7   9 38.8379 7.11071   1
 -10   7   9 235.621 4.21031   1
 -10   7   9 14.2083 2.22484   2
  -9   7   9 1.02466 0.78678   2
  -9   7   9 22.9590 1.28500   1
  -8   7   9 3.73990 0.85429   2
  -8   7   9 71.0600 2.28641   1
  -7   7   9 9.61000 1.34891   1
  -6   7  10 14.5335 1.77541  -2
  -7   7   9 14.5335 1.77541   1
  -7   7   9 0.89035 0.82920   2
  -6   7   9 35.1161 1.38953   1
  -5   7  10 61.0453 2.45679  -2
  -6   7   9 61.0453 2.45679   1
  -5   7   9 145.389 2.47058   1
  -4   7   9 34.8496 0.96072   1
  -4   7   9 1.90761 0.31360   2
  -3   7   9 27.5174 0.73025   2
  -3   7   9 503.364 8.37815   1
  -2   7   9 6.61385 0.46235   2
  -2   7   9 109.106 2.13640   1
  -1   7   9 18.8499 0.84780   1
  -1   7   9 0.52377 0.39870   2
   0   7   9 1.70083 0.41660   1
   0   7   9 -0.2099 0.38955   2
   1   7   9 645.359 11.4102   1
   1   7   9 35.7560 1.20808   2
   2   7   9 11.8220 0.69966   2
   2   7   9 262.219 4.95855   1
   3   7   9 13.1794 0.83950   2
   3   7   9 289.662 5.45694   1
   4   7   9 155.270 3.24257   1
   4   7   9 7.71499 0.73608   2
   5   7   9 1.29107 0.61795   2
   5   7   9 22.4792 1.14823   1
   6   7   9 3.50097 0.78217   2
   6   7   9 66.5228 2.22260   1
   7   7   9 -1.0358 0.83291   2
   7   7   9 4.84333 1.17971   1
   8   7   9 186.751 6.73493   1
   8   7   9 10.1106 1.56363   2
   9   7   9 11.8688 2.23860   1
  10   7   9 15.8129 2.75739   1
  10   7   9 -0.7042 2.19073   2
 -13   8   9 13.8837 2.52790   1
 -13   8   9 1.43960 2.15182   2
 -12   8  11 16.9773 9.15566  -2
 -13   8   9 16.9773 9.15566   1
 -11   8  11 81.6311 3.99812  -2
 -12   8   9 81.6311 3.99812   1
 -12   8   9 4.18073 1.73629   2
 -10   8  11 189.125 6.35129  -2
 -11   8   9 189.125 6.35129   1
 -11   8   9 12.2771 2.04297   2
 -10   8   9 137.269 3.48676   1
 -10   8   9 9.95013 2.19995   2
  -9   8   9 31.8803 1.95336   1
  -9   8   9 2.55550 0.89469   2
  -8   8   9 586.981 12.6410   1
  -8   8   9 38.1134 1.53709   2
  -7   8   9 8.86265 1.11031   2
  -7   8   9 161.400 5.67162   1
  -6   8  10 170.833 8.80087  -2
  -7   8   9 170.833 8.80087   1
  -6   8   9 3.06804 0.53059   1
  -5   8  10 10.5389 4.03855  -2
  -6   8   9 10.5389 4.03855   1
  -5   8   9 22.8650 0.85619   1
  -4   8   9 -0.1417 0.35389   2
  -4   8   9 5.97246 0.52898   1
  -3   8   9 102.581 2.30786   1
  -3   8   9 6.17445 0.50415   2
  -2   8   9 0.33377 0.34690   2
  -2   8   9 3.78401 0.45494   1
  -1   8   9 89.1114 1.83104   1
  -1   8   9 4.45198 0.46702   2
   0   8   9 5.28513 0.47756   2
   0   8   9 95.1856 2.14226   1
   1   8   9 2.81961 0.51501   1
   1   8   9 1.27110 0.43812   2
   2   8   9 0.17258 0.49112   2
   2   8   9 2.08707 0.54470   1
   3   8   9 10.1915 0.74330   1
   3   8   9 0.88130 0.54996   2
   4   8   9 0.28653 0.59793   2
   4   8   9 16.8182 0.99207   1
   5   8   9 152.241 4.07770   1
   5   8   9 8.04792 0.85011   2
   6   8   9 589.477 13.3784   1
   6   8   9 31.1606 1.48206   2
   7   8   9 100.864 4.15422   1
   7   8   9 5.11499 1.15459   2
   8   8   9 5.29919 1.35758   2
   8   8   9 102.939 4.56127   1
   9   8   9 192.925 6.89343   1
  10   8   9 5.80385 2.32911   2
  10   8   9 93.0692 5.20850   1
 -13   9   9 1.87772 2.31091   2
 -13   9   9 27.2168 3.63135   1
 -12   9  11 23.5929 9.92926  -2
 -13   9   9 23.5929 9.92926   1
 -11   9  11 20.2804 3.61204  -2
 -12   9   9 20.2804 3.61204   1
 -12   9   9 2.22661 1.76739   2
 -10   9  11 4.46698 3.67250  -2
 -11   9   9 4.46698 3.67250   1
 -11   9   9 0.85373 2.18269   2
 -10   9   9 52.9980 2.35485   1
 -10   9   9 2.92236 2.02057   2
  -9   9   9 104.370 2.90796   1
  -9   9   9 5.71140 1.10147   2
  -8   9   9 2.11601 0.91212   2
  -8   9   9 34.4995 2.13267   1
  -7   9   9 2.21359 1.12056   2
  -6   9  10 20.0888 4.37938  -2
  -7   9   9 20.0888 4.37938   1
  -7   9   9 19.1453 1.89408   1
  -6   9   9 18.6229 1.81894   1
  -5   9  10 36.6131 4.72807  -2
  -6   9   9 36.6131 4.72807   1
  -5   9   9 57.2480 1.65874   1
  -4   9   9 5.53528 0.59705   2
  -4   9   9 111.432 2.56689   1
  -3   9   9 6.34760 0.61455   2
  -3   9   9 109.982 2.20712   1
  -2   9   9 21.3999 1.03716   2
  -2   9   9 396.420 6.69677   1
  -1   9   9 11.6429 0.64456   1
  -1   9   9 0.35619 0.40640   2
   0   9   9 25.1120 0.99607   2
   0   9   9 461.380 8.31326   1
   1   9   9 92.2758 2.14584   1
   1   9   9 4.90713 0.69012   2
   2   9   9 181.734 3.65463   1
   2   9   9 9.74598 0.74987   2
   3   9   9 2.63464 0.63549   2
   3   9   9 56.5593 1.65056   1
   4   9   9 13.8852 0.97077   2
   4   9   9 260.733 5.73697   1
   5   9   9 0.35425 0.67297   2
   5   9   9 1.37418 0.87710   1
   6   9   9 9.61468 1.14404   2
   6   9   9 202.551 5.25897   1
   7   9   9 2.93026 1.27035   2
   7   9   9 38.1802 3.07114   1
   8   9   9 0.99336 1.63111   2
   8   9   9 5.65543 1.92696   1
   9   9   9 24.2364 2.69627   1
  10   9   9 1.17082 2.42716   2
  10   9   9 0.67580 2.85054   1
 -13  10   9 97.1419 6.39570   1
 -12  10  11 135.554 12.3645  -2
 -13  10   9 135.554 12.3645   1
 -13  10   9 6.47156 2.43905   2
 -11  10  11 -1.7841 3.96292  -2
 -12  10   9 -1.7841 3.96292   1
 -12  10   9 -0.4540 2.32491   2
 -10  10  11 3.88523 3.90066  -2
 -11  10   9 3.88523 3.90066   1
 -11  10   9 2.98736 2.27864   2
 -10  10   9 34.7657 1.97964   1
 -10  10   9 4.76592 3.10970   2
  -9  10   9 4.11437 1.15963   2
  -9  10   9 54.2974 2.23796   1
  -8  10   9 22.9331 1.48253   2
  -8  10   9 353.710 9.17978   1
  -7  10   9 2.59649 1.10403   2
  -7  10   9 18.1708 2.01924   1
  -6  10  10 22.3764 4.63029  -2
  -7  10   9 22.3764 4.63029   1
  -6  10   9 185.054 6.43175   1
  -5  10  10 191.904 9.79487  -2
  -6  10   9 191.904 9.79487   1
  -5  10   9 593.200 12.0356   1
  -4  10   9 28.6891 1.18921   1
  -4  10   9 2.11588 0.55848   2
  -3  10   9 9.93058 0.83290   2
  -3  10   9 194.540 3.85398   1
  -2  10   9 143.944 3.44894   1
  -2  10   9 7.99292 0.70851   2
  -1  10   9 3.02639 0.71568   2
  -1  10   9 73.0928 1.84764   1
   0  10   9 22.0587 1.06940   1
   0  10   9 0.83039 0.54352   2
   1  10   9 8.67679 0.81531   2
   1  10   9 179.781 3.63408   1
   2  10   9 0.02031 0.57556   2
   2  10   9 0.30782 0.54771   1
   3  10   9 120.085 3.09947   1
   3  10   9 6.69649 0.78785   2
   4  10   9 4.00226 0.76778   2
   4  10   9 74.8843 2.37642   1
   5  10   9 117.346 3.22524   1
   5  10   9 6.29232 1.04356   2
   6  10   9 134.994 3.93497   1
   6  10   9 6.95062 1.19916   2
   7  10   9 0.15121 1.25008   2
   7  10   9 10.7956 1.87825   1
   8  10   9 2.97377 1.76618   2
   8  10   9 36.3039 2.92619   1
   9  10   9 9.80121 2.62857   1
  10  10   9 2.24096 2.46231   2
  10  10   9 1.74386 2.62068   1
 -11  11  11 4.32293 4.51780  -2
 -12  11   9 4.32293 4.51780   1
 -12  11   9 2.26161 2.48751   2
 -10  11  11 63.4691 4.75708  -2
 -11  11   9 63.4691 4.75708   1
 -11  11   9 4.60026 2.55930   2
 -10  11   9 3.16450 1.79475   1
 -10  11   9 -2.4071 2.11201   2
  -9  11   9 46.3304 2.20567   1
  -9  11   9 1.69568 1.49825   2
  -8  11   9 38.0023 2.35707   1
  -8  11   9 2.23806 1.05896   2
  -7  11  10 31.2531 5.71520  -2
  -8  11   9 31.2531 5.71520   1
  -7  11   9 -0.4408 1.23205   2
  -7  11   9 6.09426 3.51734   1
  -6  11  10 0.44850 4.44840  -2
  -7  11   9 0.44850 4.44840   1
  -5  11  10 36.8067 5.22968  -2
  -6  11   9 36.8067 5.22968   1
  -6  11   9 35.2202 2.49443   1
  -5  11   9 74.7592 2.29126   1
  -4  11   9 7.01468 0.72859   2
  -4  11   9 138.331 3.39727   1
  -3  11   9 30.1395 1.49082   2
  -3  11   9 622.889 12.6511   1
  -2  11   9 4.91378 0.82034   2
  -2  11   9 98.8029 2.66488   1
  -1  11   9 -0.1456 0.64598   2
  -1  11   9 0.99418 0.69937   1
   0  11   9 1.62349 0.73050   2
   0  11   9 40.0591 1.60657   1
   1  11   9 33.4293 1.43641   2
   1  11   9 621.075 12.4738   1
   2  11   9 5.84847 0.88095   2
   2  11   9 111.285 2.92176   1
   3  11   9 12.6909 1.07588   2
   3  11   9 260.098 5.73986   1
   4  11   9 1.27140 0.87837   2
   4  11   9 12.0834 1.14835   1
   5  11   9 0.84393 0.96542   2
   5  11   9 39.0198 2.00556   1
   6  11   9 0.06158 1.20867   2
   6  11   9 11.9044 1.76237   1
   7  11   9 0.30268 1.33091   2
   7  11   9 11.2949 2.00971   1
   8  11   9 -1.0421 2.13749   1
   8  11   9 1.39531 1.86565   2
   9  11   9 16.2307 2.98394   1
 -12  12   9 6.89352 2.73840   2
 -11  12  11 14.9896 4.99104  -2
 -12  12   9 14.9896 4.99104   1
 -11  12   9 13.8430 2.91380   2
 -10  12  11 155.972 6.12445  -2
 -11  12   9 155.972 6.12445   1
 -10  12   9 135.018 3.81105   1
 -10  12   9 10.8323 2.55731   2
  -9  12   9 3.47097 1.90165   2
  -9  12   9 43.5360 2.28609   1
  -7  12  10 173.835 9.83737  -2
  -8  12   9 173.835 9.83737   1
  -8  12   9 138.909 4.59922   1
  -8  12   9 10.9169 1.26367   2
  -7  12   9 3.20441 2.27807   2
  -6  12  10 32.5613 5.28321  -2
  -7  12   9 32.5613 5.28321   1
  -7  12   9 37.2180 2.69705   1
  -5  12  10 7.51914 4.99630  -2
  -6  12   9 7.51914 4.99630   1
  -6  12   9 6.24424 1.36982   1
  -5  12   9 198.440 4.58814   1
  -4  12   9 95.5068 2.68804   1
  -4  12   9 3.83499 1.04181   2
  -3  12   9 0.62392 0.73648   2
  -3  12   9 9.78168 0.98597   1
  -2  12   9 1.69233 0.77234   2
  -2  12   9 42.7694 1.74220   1
  -1  12   9 1.41465 0.81365   2
  -1  12   9 36.8948 1.66116   1
   0  12   9 371.063 7.75726   1
   0  12   9 19.6225 1.52850   2
   1  12   9 0.38268 0.76531   1
   1  12   9 -0.2688 0.86354   2
   2  12   9 2.00943 0.82126   2
   2  12   9 33.3676 1.66268   1
   3  12   9 6.02901 0.99537   2
   3  12   9 140.880 3.57978   1
   4  12   9 10.0434 1.15258   1
   4  12   9 2.38396 0.95132   2
   5  12   9 44.9490 2.20456   1
   5  12   9 1.45295 1.10756   2
   6  12   9 196.550 5.85951   1
   6  12   9 7.31362 1.36631   2
   7  12   9 21.4306 2.25058   1
   7  12   9 1.88276 1.71942   2
   8  12   9 41.5289 2.98557   1
   8  12   9 -1.0421 2.04370   2
   9  12   9 161.160 6.09937   1
 -10  13  11 3.01323 5.15918  -2
 -11  13   9 3.01323 5.15918   1
 -11  13   9 -0.0667 2.80036   2
 -10  13   9 15.9438 1.76244   1
 -10  13   9 -0.9482 2.37591   2
  -9  13   9 258.686 5.69372   1
  -9  13   9 14.7954 2.04499   2
  -7  13  10 92.0229 8.24423  -2
  -8  13   9 92.0229 8.24423   1
  -8  13   9 5.49981 1.94007   2
  -8  13   9 85.9630 4.38154   1
  -7  13   9 53.8051 3.40006   1
  -7  13   9 2.99498 2.41216   2
  -6  13  10 72.3772 4.49205  -2
  -7  13   9 72.3772 4.49205   1
  -6  13   9 7.03094 1.60013   1
  -5  13  10 13.4100 5.50364  -2
  -6  13   9 13.4100 5.50364   1
  -5  13   9 34.3348 2.15847   1
  -4  13   9 193.510 4.55200   1
  -4  13   9 6.77394 1.86939   2
  -3  13   9 27.1938 1.59548   1
  -3  13   9 1.57315 0.83544   2
  -2  13   9 5.47436 0.95015   2
  -2  13   9 92.5101 2.68813   1
  -1  13   9 1.99145 0.87245   2
  -1  13   9 51.2115 2.23683   1
   0  13   9 7.57271 1.04751   2
   0  13   9 179.808 4.93394   1
   1  13   9 -0.2457 0.94396   2
   1  13   9 3.52856 0.92016   1
   2  13   9 144.974 3.68697   1
   2  13   9 7.58119 1.05954   2
   3  13   9 116.154 3.25641   1
   3  13   9 4.50899 1.02438   2
   4  13   9 108.481 3.19056   1
   4  13   9 5.64949 1.12434   2
   5  13   9 47.4409 2.64757   1
   5  13   9 1.90239 1.28098   2
   6  13   9 8.13264 1.69891   2
   6  13   9 195.070 5.93547   1
   7  13   9 7.52720 2.00655   2
   7  13   9 219.234 6.61754   1
   8  13   9 7.49937 2.39761   1
   8  13   9 0.93352 2.22217   2
 -10  14  11 23.3553 5.66461  -2
 -11  14   9 23.3553 5.66461   1
 -11  14   9 4.84045 3.14414   2
 -10  14   9 3.80449 2.77086   2
 -10  14   9 47.4171 2.75562   1
  -9  14   9 -3.8263 1.87007   2
  -9  14   9 9.54902 1.52166   1
  -8  14   9 5.61449 1.79782   2
  -8  14   9 113.863 6.12749   1
  -7  14   9 50.5591 3.60445   1
  -7  14   9 1.21276 2.72346   2
  -6  14  10 62.7796 4.64834  -2
  -7  14   9 62.7796 4.64834   1
  -5  14  10 20.7019 4.44907  -2
  -6  14   9 20.7019 4.44907   1
  -6  14   9 24.0851 2.25971   1
  -5  14   9 123.132 3.56698   1
  -4  14   9 55.8937 2.18958   1
  -4  14   9 2.70724 1.08927   2
  -3  14   9 8.32304 1.05886   2
  -3  14   9 171.398 4.21431   1
  -2  14   9 39.5425 2.12732   1
  -2  14   9 3.28272 0.95698   2
  -1  14   9 18.7703 1.48991   1
  -1  14   9 0.26116 1.00224   2
   0  14   9 0.37193 1.05407   2
   0  14   9 4.97398 1.12467   1
   1  14   9 240.039 5.44870   1
   1  14   9 11.0271 1.35634   2
   2  14   9 4.73332 1.18645   2
   2  14   9 106.384 3.09861   1
   3  14   9 0.28146 1.03293   2
   3  14   9 6.21082 1.23353   1
   4  14   9 0.96834 1.68781   2
   4  14   9 6.91874 1.63828   1
   5  14   9 9.54147 1.79105   2
   5  14   9 183.329 5.62536   1
   6  14   9 86.0125 3.98155   1
   6  14   9 4.98261 1.80941   2
   7  14   9 1.40669 2.07321   2
   7  14   9 10.2928 2.27388   1
   8  14   9 71.2900 4.66201   1
   8  14   9 3.69961 2.80521   2
 -10  15   9 57.3559 3.01359   1
 -10  15   9 1.85259 2.83317   2
  -9  15   9 11.5251 1.92493   2
  -9  15   9 190.004 5.07503   1
  -7  15  10 -1.4725 5.24840  -2
  -8  15   9 -1.4725 5.24840   1
  -8  15   9 -1.3063 1.96154   2
  -8  15   9 0.12641 1.65855   1
  -7  15   9 -2.6605 2.90981   2
  -7  15   9 13.9108 2.23218   1
  -5  15  10 174.065 7.38929  -2
  -6  15   9 174.065 7.38929   1
  -6  15   9 180.434 11.7983   1
  -5  15   9 5.45487 1.33570   1
  -4  15   9 185.042 4.07866   1
  -4  15   9 11.5661 1.38357   2
  -3  15   9 148.433 3.87489   1
  -2  15   9 148.708 9.29619  -2
  -3  15   9 148.708 9.29619   1
  -3  15   9 9.64161 1.08757   2
  -2  15   9 0.88342 1.00897   2
  -2  15   9 6.10902 1.24834   1
  -1  15   9 13.9452 1.47405   1
  -1  15   9 0.62938 1.13445   2
   0  15   9 1.01378 1.14124   2
   0  15   9 28.0255 1.99534   1
   1  15   9 7.33594 1.33592   2
   1  15   9 179.985 4.42297   1
   2  15   9 2.37772 1.25074   2
   2  15   9 60.6822 2.47864   1
   3  15   9 -0.9141 1.55958   1
   3  15   9 1.39124 1.73080   2
   4  15   9 33.2052 2.22533   1
   4  15   9 2.53917 1.71020   2
   5  15   9 3.34169 1.52347   2
   5  15   9 64.5979 3.53960   1
   6  15   9 2.86175 1.98253   1
   6  15   9 -1.6925 1.94670   2
   7  15   9 122.437 5.11349   1
   7  15   9 8.68858 2.40161   2
 -10  16   9 58.2035 3.14444   1
 -10  16   9 9.12904 2.04918   2
  -9  16   9 33.0985 2.48982   1
  -9  16   9 2.00956 1.92335   2
  -8  16   9 3.91132 1.55133   2
  -7  16  10 34.0972 6.12614  -2
  -8  16   9 34.0972 6.12614   1
  -8  16   9 26.9277 2.66711   1
  -6  16  10 -2.5086 4.39266  -2
  -7  16   9 -2.5086 4.39266   1
  -7  16   9 5.04985 2.09424   1
  -7  16   9 2.51726 1.73069   2
  -5  16  10 18.4300 7.41279  -2
  -6  16   9 18.4300 7.41279   1
  -6  16   9 2.02554 1.99215   1
  -5  16   9 84.2654 3.23894   1
  -4  16   9 331.739 8.92980   1
  -4  16   9 12.5769 2.55798   2
  -3  16   9 -0.3108 1.19894   2
  -3  16   9 7.13539 1.25507   1
  -2  16   9 8.39384 1.28328   2
  -2  16   9 156.213 4.67803   1
  -1  16   9 37.5836 2.36967   1
  -1  16   9 2.35110 1.31154   2
   0  16   9 13.9946 1.68529   2
   0  16   9 271.153 7.11113   1
   1  16   9 -0.0068 1.28298   2
   1  16   9 0.43807 1.22573   1
   2  16   9 343.679 7.57689   1
   2  16   9 12.9241 2.77355   2
   3  16   9 0.69658 1.50677   2
   3  16   9 29.8745 2.47616   1
   4  16   9 1.08485 1.47610   2
   4  16   9 21.7148 2.26317   1
   5  16   9 -0.6145 1.64677   2
   5  16   9 0.65534 1.94499   1
   6  16   9 50.5271 3.67979   1
   6  16   9 0.55982 2.16872   2
   7  16   9 -1.1891 2.44944   2
   7  16   9 0.95473 2.49183   1
  -9  17   9 89.0774 3.92821   1
  -9  17   9 4.38409 2.15072   2
  -7  17  10 24.0874 6.59090  -2
  -8  17   9 24.0874 6.59090   1
  -8  17   9 3.60247 1.74311   2
  -8  17   9 32.1486 3.38527   1
  -7  17   9 135.162 7.27407   1
  -6  17  10 132.991 6.73956  -2
  -7  17   9 132.991 6.73956   1
  -7  17   9 9.93388 2.20509   2
  -6  17   9 57.1345 3.98872   1
  -5  17  10 61.6589 8.91000  -2
  -6  17   9 61.6589 8.91000   1
  -5  17   9 1.03314 1.64363   1
  -4  17   9 226.502 7.21486   1
  -4  17   9 14.1828 1.93297   2
  -3  17   9 26.1501 2.14375   1
  -3  17   9 -0.3445 1.87799   2
  -2  17   9 9.39061 1.63940   1
  -2  17   9 -0.4971 1.24699   2
  -1  17   9 23.3229 2.18704   1
  -1  17   9 1.37723 1.45913   2
   0  17   9 -0.9056 1.48945   2
   0  17   9 3.36812 1.48284   1
   1  17   9 0.63260 1.44207   2
   1  17   9 4.02946 1.54857   1
   2  17   9 8.27811 1.72315   2
   2  17   9 193.060 5.70450   1
   3  17   9 1.32906 1.54428   1
   3  17   9 1.87389 1.66929   2
   4  17   9 -1.7633 1.77471   2
   4  17   9 -0.7556 1.95676   1
   5  17   9 54.7901 3.74598   1
   5  17   9 0.78351 2.21151   2
   6  17   9 41.2155 3.65787   1
   6  17   9 0.88451 2.46449   2
  -8  18   9 1.01767 1.91197   2
  -8  18   9 1.78774 2.43188   1
  -7  18  10 3.39649 10.2878  -2
  -8  18   9 3.39649 10.2878   1
  -6  18  10 85.5620 9.11352  -2
  -7  18   9 85.5620 9.11352   1
  -7  18   9 3.12505 2.27284   2
  -7  18   9 77.3384 5.68272   1
  -6  18   9 13.4196 3.02550   1
  -5  18  10 12.9509 8.82222  -2
  -6  18   9 12.9509 8.82222   1
  -5  18   9 11.2016 1.99475   1
  -4  18   9 23.3691 2.23792   1
  -4  18   9 0.19419 1.75055   2
  -3  18   9 100.946 4.25110   1
  -3  18   9 11.6091 1.93995   2
  -2  18   9 29.7932 2.32543   1
  -2  18   9 3.83359 2.11161   2
  -1  18   9 5.06321 1.70089   2
  -1  18   9 105.453 3.97938   1
   0  18   9 40.1162 2.75203   1
   0  18   9 2.31525 1.62024   2
   1  18   9 13.6234 1.93097   2
   1  18   9 223.467 6.38124   1
   2  18   9 -0.9088 1.63285   2
   2  18   9 -0.3744 1.70436   1
   3  18   9 0.49725 2.35639   1
   3  18   9 -3.3185 1.77480   2
   4  18   9 0.66218 1.89162   2
   4  18   9 16.4920 2.98037   1
   5  18   9 10.2122 3.15286   2
   5  18   9 237.107 7.45874   1
  -7  19   9 29.3900 3.08287   1
  -7  19   9 2.93370 2.47884   2
  -6  19   9 43.9148 4.88447   1
  -5  19  10 44.8639 10.7189  -2
  -6  19   9 44.8639 10.7189   1
  -5  19   9 4.93084 2.23468   1
  -4  19   9 4.81406 2.08314   2
  -4  19   9 66.7470 3.85384   1
  -3  19   9 11.3218 2.54869   1
  -3  19   9 -0.2080 2.06060   2
  -2  19   9 30.1575 2.40374   1
  -2  19   9 7.11856 2.34112   2
  -1  19   9 0.24157 1.73813   2
  -1  19   9 15.5648 1.97522   1
   0  19   9 0.36428 1.76713   2
   0  19   9 -0.1409 1.79561   1
   1  19   9 -0.3478 1.80111   2
   1  19   9 7.54445 1.94814   1
   2  19   9 0.75357 1.91646   2
   2  19   9 5.19498 1.98533   1
   3  19   9 22.1039 3.29380   1
   3  19   9 -1.4159 2.04493   2
   4  19   9 21.2913 3.32333   1
   4  19   9 2.96837 2.82171   2
  -5  20   9 2.56444 2.43121   1
  -4  20   9 4.29728 2.46553   2
  -4  20   9 107.681 5.50000   1
  -3  20   9 2.95935 2.28268   2
  -3  20   9 0.40235 2.81148   1
  -2  20   9 5.03595 2.82682   2
  -2  20   9 71.5391 5.10275   1
  -1  20   9 25.6477 2.47444   1
  -1  20   9 3.01583 2.67424   2
   0  20   9 6.44398 2.17776   2
   0  20   9 125.734 4.79073   1
   1  20   9 0.38404 2.18336   2
   1  20   9 17.6871 2.35739   1
   2  20   9 6.99091 2.29839   2
   2  20   9 126.967 6.45949   1
  -3  21   9 4.78649 4.03945   2
  -2  21   9 5.67076 3.06242   2
  -2  21   9 41.5072 5.45402   1
  -1  21   9 4.90368 2.36919   1
  -1  21   9 -1.4683 3.12952   2
 -14   0  10 138.699 7.16739   1
 -14   0  10 9.85300 2.77142   2
 -13   0  10 1.20015 2.11864   1
 -13   0  10 1.79619 2.16696   2
 -12   0  10 0.91771 1.81075   2
 -12   0  10 26.0323 3.07040   1
 -11   0  12 25.7679 7.08435  -2
 -12   0  10 25.7679 7.08435   1
 -10   0  12 -9.0514 6.17846  -2
 -11   0  10 -9.0514 6.17846   1
 -11   0  10 1.48945 2.23532   1
 -10   0  10 3.38778 1.53249   1
  -9   0  10 -0.3369 1.25060   2
  -9   0  10 0.48308 1.26116   1
  -8   0  10 22.2252 1.77598   2
  -8   0  10 386.673 8.10867   1
  -7   0  10 -0.0424 0.61861   1
  -7   0  10 1.07989 0.56237   2
  -6   0  10 5.03306 1.42543   2
  -6   0  10 72.4823 2.30470   1
  -5   0  10 1.45595 0.52697   1
  -5   0  10 0.71957 2.15074   2
  -4   0  10 11.1634 0.74042   2
  -4   0  10 194.223 4.84103   1
  -3   0  10 -0.4796 0.41324   2
  -3   0  10 0.31463 0.69623   1
  -2   0  10 0.64918 0.54311   1
  -2   0  10 -0.1516 0.40497   2
  -1   0  10 0.37547 0.47464   1
  -1   0  10 0.00037 0.63362   2
   0   0  10 99.9366 3.18540   2
   0   0  10 1777.86 39.7917   1
   1   0  10 0.34569 0.52438   1
   1   0  10 0.43327 0.58188   2
   2   0  10 44.1928 1.73143   2
   2   0  10 924.692 24.6828   1
   3   0  10 0.17063 0.56409   1
   3   0  10 0.58375 0.62651   2
   4   0  10 5.89773 0.86984   2
   4   0  10 125.950 3.05007   1
   5   0  10 -0.7114 0.69183   1
   5   0  10 0.58678 0.75875   2
   6   0  10 4.92161 0.87704   1
   6   0  10 -0.2783 0.81489   2
   7   0  10 -0.0549 0.89553   1
   7   0  10 -0.0768 0.90375   2
   8   0  10 31.4801 1.92269   1
   9   0  10 -1.2218 1.80293   1
  10   0  10 27.5058 3.74185   1
  10   0  10 1.56196 3.00384   2
 -14   1  10 11.3914 2.17490   2
 -14   1  10 188.024 5.23869   1
 -13   1  10 0.80562 1.55744   2
 -13   1  10 11.4740 1.65217   1
 -11   1  12 193.476 8.07035  -2
 -12   1  10 193.476 8.07035   1
 -12   1  10 205.571 5.21169   1
 -12   1  10 12.9002 1.48944   2
 -11   1  10 47.9867 3.37412   1
 -10   1  12 54.0831 4.06711  -2
 -11   1  10 54.0831 4.06711   1
 -10   1  10 59.6531 2.20706   1
  -9   1  10 431.499 6.91669   1
  -9   1  10 25.6974 1.40590   2
  -8   1  10 283.167 4.71433   1
  -8   1  10 17.1023 0.82230   2
  -7   1  10 1.92906 0.37597   2
  -7   1  10 24.4739 0.99908   1
  -6   1  10 58.3608 1.42979   1
  -6   1  10 5.43053 1.78548   2
  -5   1  10 194.501 3.91789   1
  -5   1  10 9.28611 1.09177   2
  -4   1  10 7.40571 0.49137   2
  -4   1  10 162.771 3.28076   1
  -3   1  10 4.05039 0.54355   1
  -3   1  10 -0.0744 0.22845   2
  -2   1  10 53.0901 1.24963   1
  -2   1  10 2.54741 0.36756   2
  -1   1  10 13.2846 0.71012   1
  -1   1  10 0.56078 0.45222   2
   0   1  10 1.13773 0.37929   2
   0   1  10 19.9805 0.81268   1
   1   1  10 219.950 3.83849   1
   1   1  10 11.4564 0.67595   2
   2   1  10 501.867 7.61214   1
   2   1  10 24.9542 0.97961   2
   3   1  10 3.32440 0.51973   2
   3   1  10 73.5574 1.52026   1
   4   1  10 1.33319 0.50094   2
   4   1  10 20.1743 0.85019   1
   5   1  10 59.8857 1.33246   1
   5   1  10 3.03390 0.56797   2
   6   1  10 36.1916 1.38513   2
   6   1  10 638.311 8.03464   1
   7   1  10 57.8715 1.45743   1
   7   1  10 3.25381 0.73995   2
   8   1  10 125.528 2.37991   1
   9   1  10 42.6533 1.90776   1
  10   1  10 0.82610 2.25787   1
  10   1  10 0.31604 1.48642   2
 -14   2  10 2.04084 2.08620   2
 -14   2  10 4.41134 2.43691   1
 -13   2  10 2.59029 1.60286   2
 -13   2  10 35.7745 1.97633   1
 -12   2  10 1.58298 1.36798   2
 -12   2  10 27.6708 2.20835   1
 -11   2  12 22.8959 7.25001  -2
 -12   2  10 22.8959 7.25001   1
 -10   2  12 64.7951 4.36349  -2
 -11   2  10 64.7951 4.36349   1
 -11   2  10 65.0289 4.61646   1
 -10   2  10 30.9038 1.59162   1
  -9   2  10 2.88315 0.76021   1
  -9   2  10 -1.2701 0.86420   2
  -8   2  10 1.02188 0.46956   1
  -8   2  10 0.46511 0.51682   2
  -7   2  10 11.8145 0.69274   2
  -7   2  10 219.123 3.68080   1
  -6   2  10 0.89093 0.46369   1
  -6   2  10 0.49632 2.22823   2
  -5   2  10 466.488 8.63167   1
  -5   2  10 26.7168 2.60531   2
  -4   2  10 4.31178 0.40421   2
  -4   2  10 81.5329 1.68527   1
  -3   2  10 86.9636 1.97822   2
  -3   2  10 1537.61 29.7560   1
  -2   2  10 -0.0774 0.35810   1
  -2   2  10 0.65407 0.37200   2
  -1   2  10 12.8700 0.64603   1
  -1   2  10 1.09590 0.41479   2
   0   2  10 3.22190 0.42774   2
   0   2  10 59.3508 1.35034   1
   1   2  10 55.3306 1.30635   1
   1   2  10 2.96006 0.44668   2
   2   2  10 0.92030 0.41389   2
   2   2  10 7.04855 0.51291   1
   3   2  10 0.96388 0.46685   2
   3   2  10 22.0027 0.84141   1
   4   2  10 86.3285 1.74199   1
   4   2  10 4.56697 0.55201   2
   5   2  10 294.490 4.16836   1
   5   2  10 13.5621 0.80188   2
   6   2  10 0.62380 0.59076   2
   6   2  10 6.94528 0.64812   1
   7   2  10 5.60382 0.73686   1
   7   2  10 0.33903 0.69607   2
   8   2  10 1.90242 0.86466   1
   8   2  10 1.96107 1.83180   2
   9   2  10 29.8429 1.79826   1
  10   2  10 14.0957 3.04302   1
  10   2  10 -0.5126 2.24355   2
 -14   3  10 51.3174 3.13841   1
 -14   3  10 5.25101 2.37092   2
 -13   3  10 0.36711 1.91514   1
 -13   3  10 0.41735 1.72663   2
 -12   3  10 0.59535 1.40557   2
 -12   3  10 23.7962 2.80911   1
 -11   3  12 26.6866 7.31932  -2
 -12   3  10 26.6866 7.31932   1
 -11   3  10 23.6610 2.29882   1
 -10   3  12 24.0867 4.86076  -2
 -11   3  10 24.0867 4.86076   1
 -10   3  10 7.04978 1.20674   1
  -9   3  10 576.831 9.02494   1
  -9   3  10 29.5385 1.56551   2
  -8   3  10 0.59216 0.64247   2
  -8   3  10 0.48228 0.43933   1
  -7   3  10 3.56184 0.45459   1
  -7   3  10 0.99177 0.59543   2
  -6   3  10 41.2318 1.15626   1
  -6   3  10 2.60548 0.91355   2
  -5   3  10 579.454 10.6183   1
  -5   3  10 29.7984 1.73558   2
  -4   3  10 24.3383 0.65298   2
  -4   3  10 458.468 7.65389   1
  -3   3  10 6.90003 0.64142   1
  -3   3  10 0.30038 0.27881   2
  -2   3  10 125.377 2.62371   1
  -2   3  10 6.27713 0.46852   2
  -1   3  10 11.4377 0.76326   2
  -1   3  10 228.114 3.94480   1
   0   3  10 0.34217 0.36617   2
   0   3  10 7.14169 0.50732   1
   1   3  10 4.80898 0.48654   2
   1   3  10 107.637 1.95663   1
   2   3  10 -0.4286 0.39895   2
   2   3  10 5.31291 0.52879   1
   3   3  10 2.81783 0.47832   2
   3   3  10 56.3215 1.29568   1
   4   3  10 25.1497 0.94595   1
   4   3  10 1.38329 0.51025   2
   5   3  10 70.4711 1.54208   1
   5   3  10 3.62244 0.62170   2
   6   3  10 168.927 2.83489   1
   6   3  10 9.39943 0.80557   2
   7   3  10 101.329 2.00403   1
   7   3  10 6.45372 0.81718   2
   8   3  10 32.7703 1.89312   1
   9   3  10 92.5540 3.05569   1
  10   3  10 26.7001 3.36665   1
  10   3  10 3.21025 2.36809   2
 -14   4  10 6.27056 2.20459   2
 -14   4  10 106.834 4.80712   1
 -13   4  10 1.49224 1.83765   2
 -13   4  10 26.3120 2.35186   1
 -12   4  10 -1.2508 1.42266   2
 -12   4  10 2.87578 2.08534   1
 -11   4  12 19.9824 5.20793  -2
 -12   4  10 19.9824 5.20793   1
 -11   4  10 75.4802 3.99432   1
 -10   4  12 81.5652 5.81664  -2
 -11   4  10 81.5652 5.81664   1
 -10   4  10 20.7343 1.27256   1
  -9   4  10 4.26226 0.78071   2
  -9   4  10 45.3679 1.60304   1
  -8   4  10 16.5418 0.98759   2
  -8   4  10 292.483 5.30439   1
  -7   4  10 400.227 6.81370   1
  -7   4  10 24.5278 1.06951   2
  -6   4  10 2.05798 0.64785   2
  -6   4  10 43.0405 1.07456   1
  -5   4  10 1.20986 0.37300   1
  -5   4  10 0.52682 0.52728   2
  -4   4  10 0.37074 0.25387   2
  -4   4  10 1.26375 0.36800   1
  -3   4  10 7.92310 0.48832   2
  -3   4  10 157.951 3.22094   1
  -2   4  10 15.0952 0.80373   1
  -2   4  10 0.91593 0.31903   2
  -1   4  10 32.5219 1.07693   1
  -1   4  10 1.47814 0.45541   2
   0   4  10 41.3629 1.24639   2
   0   4  10 839.827 13.4995   1
   1   4  10 62.0879 1.33720   1
   1   4  10 3.33893 0.51814   2
   2   4  10 402.433 6.19763   1
   2   4  10 21.8389 0.87665   2
   3   4  10 1.05598 0.40937   2
   3   4  10 13.3547 0.67655   1
   4   4  10 3.74797 0.52057   2
   4   4  10 74.3792 1.73090   1
   5   4  10 0.20132 0.55049   2
   5   4  10 2.11711 0.60631   1
   6   4  10 0.34296 0.60876   2
   6   4  10 0.36701 0.65200   1
   7   4  10 6.75227 0.97759   2
   7   4  10 136.413 2.97480   1
   8   4  10 119.627 4.90093   1
   9   4  10 112.591 4.04120   1
  10   4  10 3.78315 2.36392   2
  10   4  10 52.6330 4.28839   1
 -13   5  10 60.6901 3.49138   1
 -13   5  10 6.48129 1.92711   2
 -12   5  10 9.54906 1.61263   2
 -11   5  12 134.375 7.04072  -2
 -12   5  10 134.375 7.04072   1
 -12   5  10 141.776 5.67137   1
 -11   5  10 11.5043 2.87641   1
 -10   5  12 17.2667 5.20081  -2
 -11   5  10 17.2667 5.20081   1
 -10   5  10 78.4156 2.18840   1
  -9   5  10 55.0588 1.74618   1
  -9   5  10 3.33091 0.80739   2
  -8   5  10 8.37560 0.87019   1
  -8   5  10 0.06438 0.68110   2
  -7   5  10 115.400 2.38943   1
  -7   5  10 6.15826 0.72619   2
  -6   5  10 2.53033 0.43095   1
  -6   5  10 1.06663 0.67485   2
  -5   5  10 2.47920 0.60473   2
  -5   5  10 48.0901 1.10682   1
  -4   5  10 8.15595 0.43034   2
  -4   5  10 142.914 2.43681   1
  -3   5  10 6.10204 0.50230   1
  -3   5  10 0.10032 0.38918   2
  -2   5  10 2.48001 0.39514   2
  -2   5  10 66.6578 1.64372   1
  -1   5  10 11.6179 0.63675   2
  -1   5  10 236.443 4.54688   1
   0   5  10 77.1030 1.83870   1
   0   5  10 3.61038 0.53904   2
   1   5  10 22.4625 0.98350   2
   1   5  10 452.931 7.54940   1
   2   5  10 411.591 6.91451   1
   2   5  10 18.7711 0.95045   2
   3   5  10 58.9154 1.62862   1
   3   5  10 3.10920 0.54805   2
   4   5  10 29.0443 1.23300   1
   4   5  10 0.65971 0.57212   2
   5   5  10 0.64221 0.64313   1
   5   5  10 0.26357 0.64122   2
   6   5  10 345.137 5.97446   1
   6   5  10 18.8312 1.17556   2
   7   5  10 0.90285 0.95475   2
   7   5  10 10.6872 1.23898   1
   8   5  10 24.5447 2.12960   1
   9   5  10 3.98896 1.88642   1
  10   5  10 0.17889 2.38483   2
  10   5  10 3.86513 2.26134   1
 -13   6  10 6.54301 2.00695   2
 -13   6  10 98.4358 4.56614   1
 -12   6  10 150.871 7.40876   1
 -12   6  10 10.1545 1.69590   2
 -11   6  12 146.651 7.45405  -2
 -12   6  10 146.651 7.45405   1
 -11   6  10 -0.2558 1.99932   1
 -10   6  12 0.96478 6.72377  -2
 -11   6  10 0.96478 6.72377   1
 -10   6  10 232.715 4.33591   1
  -9   6  10 67.9220 1.92670   1
  -9   6  10 3.31947 1.05944   2
  -8   6  10 11.4722 0.96869   1
  -8   6  10 1.04433 0.76309   2
  -7   6  10 3.25086 0.44816   1
  -7   6  10 0.72777 0.76071   2
  -6   6  10 4.71775 0.53639   1
  -6   6  10 1.29486 0.94958   2
  -5   6  10 152.579 2.58598   1
  -5   6  10 9.09000 0.80375   2
  -4   6  10 75.9439 1.63298   1
  -4   6  10 5.14673 0.40174   2
  -3   6  10 394.918 6.06359   1
  -3   6  10 20.1210 0.76196   2
  -2   6  10 87.2763 2.01057   1
  -2   6  10 4.61037 0.42601   2
  -1   6  10 -0.2692 0.37034   2
  -1   6  10 2.75736 0.49498   1
   0   6  10 9.55068 0.69892   2
   0   6  10 197.194 3.88714   1
   1   6  10 9.71557 0.64723   1
   1   6  10 0.99775 0.50102   2
   2   6  10 0.31966 0.50240   2
   2   6  10 4.77384 0.59936   1
   3   6  10 52.8895 1.56101   1
   3   6  10 2.93457 0.62031   2
   4   6  10 39.2103 1.43617   2
   4   6  10 731.789 13.0079   1
   5   6  10 249.342 4.90806   1
   5   6  10 12.1869 0.95148   2
   6   6  10 65.5893 1.92804   1
   6   6  10 3.10843 0.82404   2
   7   6  10 8.40821 1.08203   2
   7   6  10 183.452 4.16655   1
   8   6  10 164.942 5.30735   1
   9   6  10 5.21403 2.04448   1
  10   6  10 45.2290 3.23154   1
  10   6  10 1.45626 2.41006   2
 -13   7  10 6.36225 2.51548   1
 -13   7  10 -0.8373 2.16259   2
 -12   7  10 -1.2062 1.71363   2
 -12   7  10 0.76126 3.29223   1
 -11   7  12 1.35820 5.55616  -2
 -12   7  10 1.35820 5.55616   1
 -11   7  10 1.36019 2.73049   1
 -10   7  12 5.51840 6.75155  -2
 -11   7  10 5.51840 6.75155   1
 -10   7  10 19.1420 1.46693   1
  -9   7  10 12.0440 1.08868   2
  -9   7  10 207.075 4.21203   1
  -8   7  10 0.53287 0.86651   2
  -8   7  10 1.09950 0.90144   1
  -7   7  10 6.08246 0.98215   1
  -7   7  10 0.23346 0.79545   2
  -6   7  10 36.6204 1.20235   1
  -6   7  10 1.47858 1.04913   2
  -5   7  10 457.060 7.70669   1
  -5   7  10 35.9530 1.54303   2
  -4   7  10 31.3383 0.97698   2
  -4   7  10 571.771 9.50913   1
  -3   7  10 3.28113 0.45680   2
  -3   7  10 58.1352 1.39909   1
  -2   7  10 667.191 10.9890   1
  -2   7  10 35.6462 1.21413   2
  -1   7  10 6.61598 0.52277   2
  -1   7  10 136.643 2.86815   1
   0   7  10 1.15025 0.51651   2
   0   7  10 23.9221 0.99152   1
   1   7  10 79.3494 2.06928   1
   1   7  10 4.76943 0.59204   2
   2   7  10 224.059 4.37325   1
   2   7  10 12.0478 0.90825   2
   3   7  10 6.04547 0.69324   1
   3   7  10 0.22923 0.56107   2
   4   7  10 10.3663 0.90283   2
   4   7  10 194.880 3.97441   1
   5   7  10 0.77929 0.71471   1
   5   7  10 1.27785 0.69542   2
   6   7  10 24.6350 1.67590   1
   6   7  10 1.20396 0.83343   2
   7   7  10 126.881 4.92152   1
   7   7  10 4.02207 1.63756   2
   8   7  10 2.18338 1.70119   1
   9   7  10 28.7214 2.62294   1
  10   7  10 2.73088 2.47134   2
  10   7  10 20.6955 2.78543   1
 -13   8  10 1.23788 2.39896   2
 -13   8  10 25.8054 2.95527   1
 -12   8  10 0.53621 1.89000   2
 -11   8  12 47.2342 6.15105  -2
 -12   8  10 47.2342 6.15105   1
 -12   8  10 17.8897 3.71211   1
 -10   8  12 88.1811 6.35020  -2
 -11   8  10 88.1811 6.35020   1
 -11   8  10 91.3353 5.88546   1
 -10   8  10 149.315 4.88243   1
  -9   8  10 4.42868 1.05459   2
  -9   8  10 29.7331 1.88457   1
  -8   8  10 288.320 6.79684   1
  -8   8  10 19.5312 1.42838   2
  -7   8  10 693.667 14.7499   1
  -7   8  10 38.2049 2.10959   2
  -6   8  10 29.6943 1.33850   1
  -6   8  10 2.24656 1.02701   2
  -5   8  10 0.24208 0.94573   2
  -5   8  10 12.4432 0.90802   1
  -4   8  10 60.1424 1.52275   1
  -4   8  10 2.70515 0.54536   2
  -3   8  10 10.3873 0.69419   2
  -3   8  10 194.675 3.54177   1
  -2   8  10 0.10115 0.45470   2
  -2   8  10 9.77827 0.61101   1
  -1   8  10 56.7098 1.53049   1
  -1   8  10 2.59268 0.48220   2
   0   8  10 1.78117 0.54272   2
   0   8  10 31.4475 1.31587   1
   1   8  10 3.67682 0.68484   2
   1   8  10 65.3113 1.75570   1
   2   8  10 243.683 4.74289   1
   2   8  10 13.1571 1.01084   2
   3   8  10 0.79591 0.59091   2
   3   8  10 0.36268 0.62043   1
   4   8  10 48.1011 1.63578   1
   4   8  10 3.46415 0.74462   2
   5   8  10 13.8868 1.03701   1
   5   8  10 0.03645 0.73472   2
   6   8  10 2.23149 0.90025   2
   6   8  10 37.1259 2.02022   1
   7   8  10 3.97573 1.32353   2
   7   8  10 105.991 4.01274   1
   8   8  10 4.48783 1.86166   1
   9   8  10 254.712 7.54257   1
 -13   9  10 66.2384 4.70579   1
 -13   9  10 5.60959 2.28617   2
 -12   9  10 3.67098 1.97151   2
 -11   9  12 49.9054 6.29982  -2
 -12   9  10 49.9054 6.29982   1
 -12   9  10 43.1250 4.78315   1
 -11   9  10 0.50667 3.03797   1
 -10   9  12 -3.0362 5.48985  -2
 -11   9  10 -3.0362 5.48985   1
 -10   9  10 59.6179 2.63370   1
  -9   9  10 0.71054 1.10624   2
  -9   9  10 2.82736 1.23727   1
  -8   9  10 0.04581 0.93947   2
  -8   9  10 3.23278 1.21892   1
  -7   9  10 8.29947 1.27294   2
  -7   9  10 133.834 4.19079   1
  -6   9  10 31.6629 1.41692   1
  -6   9  10 1.20192 1.20734   2
  -5   9  10 562.465 9.42595   1
  -5   9  10 31.9801 2.23684   2
  -4   9  10 5.95788 0.61351   2
  -4   9  10 105.506 2.26116   1
  -3   9  10 0.03805 0.55178   2
  -3   9  10 11.6111 0.78310   1
  -2   9  10 1.13387 0.48494   1
  -2   9  10 -0.0312 0.53244   2
  -1   9  10 27.6316 1.14026   2
  -1   9  10 496.710 10.0469   1
   0   9  10 11.0084 0.85019   2
   0   9  10 210.489 4.63521   1
   1   9  10 20.2971 1.19439   2
   1   9  10 398.850 7.34876   1
   2   9  10 126.692 2.81852   1
   2   9  10 6.41021 0.80093   2
   3   9  10 2.81128 0.69410   2
   3   9  10 33.6868 1.40458   1
   4   9  10 10.7020 0.92474   1
   4   9  10 1.31886 0.71559   2
   5   9  10 0.43712 0.72374   2
   5   9  10 3.51278 1.06525   1
   6   9  10 5.09940 1.27189   2
   6   9  10 91.7465 3.05104   1
   7   9  10 17.9524 2.00701   1
   7   9  10 0.79904 1.57969   2
   8   9  10 16.7143 2.24332   1
   9   9  10 19.6791 2.68732   1
 -12  10  10 10.3544 2.27363   2
 -11  10  12 156.228 8.44303  -2
 -12  10  10 156.228 8.44303   1
 -12  10  10 147.708 8.18892   1
 -11  10  10 32.4267 4.20316   1
 -10  10  12 36.7886 6.23572  -2
 -11  10  10 36.7886 6.23572   1
 -10  10  10 134.646 4.58763   1
  -9  10  10 70.8758 2.79501   1
  -9  10  10 5.73172 1.45703   2
  -8  10  10 0.20859 1.28412   1
  -8  10  10 -0.3335 1.00068   2
  -7  10  10 5.85622 1.28926   2
  -7  10  10 103.265 3.63048   1
  -6  10  10 89.2675 3.22140   1
  -6  10  10 4.64447 1.36571   2
  -5  10  10 16.7074 1.30029   1
  -5  10  10 1.33707 1.03547   2
  -4  10  10 1.29454 0.62020   2
  -4  10  10 19.3595 1.11868   1
  -3  10  10 3.05297 0.65502   1
  -3  10  10 0.57638 0.62992   2
  -2  10  10 231.076 4.53884   1
  -2  10  10 13.8105 1.00078   2
  -1  10  10 -0.0317 0.62397   2
  -1  10  10 11.4750 0.89318   1
   0  10  10 0.00703 0.65426   2
   0  10  10 9.11182 0.83669   1
   1  10  10 2.22970 0.72061   2
   1  10  10 57.3983 1.70209   1
   2  10  10 -0.2677 0.69870   2
   2  10  10 2.10994 0.65432   1
   3  10  10 5.33404 0.79194   2
   3  10  10 105.129 2.91485   1
   4  10  10 468.016 9.74984   1
   4  10  10 26.8317 1.40589   2
   5  10  10 0.48647 1.02967   2
   5  10  10 35.8271 1.96889   1
   6  10  10 0.76579 1.20138   2
   6  10  10 22.7226 2.05730   1
   7  10  10 224.415 6.61157   1
   7  10  10 13.0522 1.61338   2
   8  10  10 59.6471 3.82133   1
   9  10  10 22.4428 2.95946   1
 -12  11  10 2.41186 2.37006   2
 -11  11  12 23.6685 6.84937  -2
 -12  11  10 23.6685 6.84937   1
 -12  11  10 37.4680 5.03627   1
 -11  11  10 148.203 7.70794   1
 -10  11  12 163.455 8.36372  -2
 -11  11  10 163.455 8.36372   1
 -10  11  10 39.7493 2.20759   1
  -9  11  10 1.79305 1.43560   1
  -9  11  10 -0.1457 2.02120   2
  -8  11  10 3.95024 1.38687   1
  -8  11  10 1.15723 1.09998   2
  -7  11  10 0.84222 1.14988   2
  -7  11  10 21.3981 1.86242   1
  -6  11  10 56.8457 2.63279   1
  -6  11  10 4.37929 1.36272   2
  -5  11  10 0.98053 1.09852   2
  -5  11  10 1.94684 0.87398   1
  -4  11  10 194.580 4.52871   1
  -4  11  10 12.7317 1.22625   2
  -3  11  10 3.86348 0.86146   2
  -3  11  10 84.9832 2.48907   1
  -2  11  10 405.097 7.54417   1
  -2  11  10 16.8722 1.56651   2
  -1  11  10 -0.4476 0.65265   2
  -1  11  10 1.34386 0.70456   1
   0  11  10 8.50129 0.88702   2
   0  11  10 161.607 3.81772   1
   1  11  10 155.293 3.79495   1
   1  11  10 7.35160 0.88089   2
   2  11  10 16.3773 1.15090   2
   2  11  10 326.456 7.02169   1
   3  11  10 3.23443 0.99718   2
   3  11  10 63.2519 2.25108   1
   4  11  10 148.432 3.86517   1
   4  11  10 7.48287 1.08589   2
   5  11  10 7.58859 1.44708   2
   5  11  10 177.574 5.68946   1
   6  11  10 1.34429 1.55557   2
   6  11  10 8.28035 1.75926   1
   7  11  10 54.6243 3.37998   1
   7  11  10 4.10801 1.86315   2
   8  11  10 2.23918 2.27724   1
 -11  12  10 36.1574 3.48123   1
 -10  12  12 38.8210 6.73158  -2
 -11  12  10 38.8210 6.73158   1
 -10  12  10 91.0531 3.31193   1
  -9  12  10 2.58978 1.88388   2
  -9  12  10 8.07496 1.44632   1
  -8  12  10 45.7290 2.60463   1
  -8  12  10 2.60086 1.44698   2
  -7  12  10 270.743 7.42930   1
  -7  12  10 15.7412 1.73900   2
  -6  12  10 13.4672 1.52353   1
  -6  12  10 -0.4015 1.23116   2
  -5  12  10 5.02698 1.41409   2
  -5  12  10 77.5373 3.07806   1
  -4  12  10 4.98225 1.25677   2
  -4  12  10 108.048 3.01302   1
  -3  12  10 3.43255 0.91042   1
  -3  12  10 0.16572 0.80482   2
  -2  12  10 14.7806 1.18812   1
  -2  12  10 0.50547 0.83437   2
  -1  12  10 328.124 8.15314   1
  -1  12  10 16.2984 1.36666   2
   0  12  10 2.81538 1.02513   2
   0  12  10 56.1447 2.34852   1
   1  12  10 1.77203 0.96445   2
   1  12  10 15.1975 1.17234   1
   2  12  10 1.55241 0.98902   2
   2  12  10 20.5361 1.37315   1
   3  12  10 8.57904 1.13211   2
   3  12  10 153.813 3.94433   1
   4  12  10 8.29777 1.19411   2
   4  12  10 147.601 3.93086   1
   5  12  10 3.89601 1.31788   1
   5  12  10 2.29313 1.36932   2
   6  12  10 63.5901 3.49020   1
   6  12  10 3.18313 1.44881   2
   7  12  10 -1.1643 1.92323   2
   7  12  10 23.3364 2.53379   1
   8  12  10 6.22802 2.54544   1
 -11  13  10 102.643 5.62969   1
 -10  13  12 109.832 7.94144  -2
 -11  13  10 109.832 7.94144   1
 -10  13  10 24.7169 2.04047   1
  -9  13  10 -0.4823 1.88110   2
  -9  13  10 -0.4149 1.38919   1
  -8  13  10 11.5191 1.47686   2
  -8  13  10 173.267 5.51834   1
  -7  13  10 44.9983 2.86540   1
  -7  13  10 1.62576 1.47868   2
  -6  13  10 180.781 5.46092   1
  -6  13  10 11.0488 1.78100   2
  -5  13  10 195.684 5.71074   1
  -5  13  10 13.5519 1.95607   2
  -4  13  10 2.34045 1.27095   2
  -4  13  10 59.1975 2.29042   1
  -3  13  10 51.5023 2.18017   1
  -3  13  10 0.99344 0.93234   2
  -2  13  10 0.59145 0.92088   2
  -2  13  10 13.7343 1.23584   1
  -1  13  10 14.0586 1.42967   2
  -1  13  10 250.335 6.54662   1
   0  13  10 64.3020 2.61175   1
   0  13  10 3.02208 1.10859   2
   1  13  10 29.6255 1.72059   1
   1  13  10 0.80477 1.07178   2
   2  13  10 -0.2229 1.06981   2
   2  13  10 3.07794 1.01865   1
   3  13  10 4.81035 1.29066   2
   3  13  10 117.210 3.39780   1
   4  13  10 0.81012 1.21835   2
   4  13  10 2.20066 1.58469   1
   5  13  10 55.5763 3.25798   1
   5  13  10 2.85154 1.43533   2
   6  13  10 10.8412 2.03349   1
   6  13  10 0.91341 1.52851   2
   7  13  10 1.09523 2.10946   2
   7  13  10 50.9615 3.44888   1
   8  13  10 104.015 5.06169   1
 -10  14  10 39.0188 2.50086   1
  -9  14  10 11.3555 1.65300   1
  -9  14  10 0.89951 2.11517   2
  -8  14  10 0.92035 1.33595   2
  -8  14  10 1.12216 1.50937   1
  -7  14  10 7.05043 1.70927   2
  -7  14  10 133.460 5.18819   1
  -6  14  10 207.997 5.59007   1
  -6  14  10 14.6721 2.80042   2
  -5  14  10 10.1227 1.60550   1
  -5  14  10 0.97882 1.54571   2
  -4  14  10 74.3762 2.61543   1
  -4  14  10 3.40675 1.32366   2
  -3  14  10 0.44353 1.01531   2
  -3  14  10 29.2457 1.80400   1
  -2  14  10 20.9317 1.53496   2
  -2  14  10 463.603 9.81593   1
  -1  14  10 -0.1417 1.00685   2
  -1  14  10 4.35087 1.19127   1
   0  14  10 7.22024 1.38260   2
   0  14  10 144.334 4.35041   1
   1  14  10 0.73234 1.19347   2
   1  14  10 38.4181 1.99181   1
   2  14  10 -0.2188 1.22407   2
   2  14  10 6.45677 1.23429   1
   3  14  10 12.1209 1.45221   1
   3  14  10 1.21730 1.71592   2
   4  14  10 113.126 4.26470   1
   4  14  10 4.99983 1.41817   2
   5  14  10 2.03836 1.51680   2
   5  14  10 16.4111 2.17288   1
   6  14  10 -1.7687 1.93077   2
   6  14  10 1.60706 2.10638   1
   7  14  10 95.3286 4.76988   1
   7  14  10 0.33428 2.37759   2
 -10  15  10 41.8375 2.81427   1
  -9  15  10 38.1879 2.34899   1
  -9  15  10 1.16521 2.28342   2
  -8  15  10 39.4477 2.49298   1
  -8  15  10 5.46163 1.52413   2
  -7  15  10 17.3085 2.22598   1
  -6  15  11 16.2683 5.71287  -2
  -7  15  10 16.2683 5.71287   1
  -7  15  10 2.06710 1.66235   2
  -6  15  10 159.285 6.49604   1
  -6  15  10 12.2796 2.31446   2
  -5  15  10 20.4303 1.71618   1
  -5  15  10 3.76906 1.84287   2
  -4  15  10 3.98344 2.38221   1
  -4  15  10 -0.0013 1.86895   2
  -3  15  10 35.1870 2.05900   1
  -3  15  10 2.46714 1.27651   2
  -2  15  10 105.833 3.69935   1
  -2  15  10 3.54123 1.21502   2
  -1  15  10 3.87987 1.23324   2
  -1  15  10 27.1030 2.19886   1
   0  15  10 6.22295 1.41700   2
   0  15  10 144.064 4.45632   1
   1  15  10 61.2212 3.46897   1
   1  15  10 5.07916 1.62817   2
   2  15  10 1.03275 1.40956   2
   2  15  10 49.9225 2.72148   1
   3  15  10 88.3749 3.20033   1
   3  15  10 4.19886 1.57230   2
   4  15  10 3.54140 1.74051   2
   4  15  10 70.7648 3.22389   1
   5  15  10 9.61244 1.78919   2
   5  15  10 229.414 6.88106   1
   6  15  10 2.28482 2.30419   1
   6  15  10 -1.7157 2.18636   2
  -9  16  10 5.38511 2.11808   2
  -9  16  10 67.7834 3.43089   1
  -8  16  10 3.70792 1.79837   1
  -8  16  10 -0.6285 1.62251   2
  -7  16  11 -0.5074 9.81661  -2
  -8  16  10 -0.5074 9.81661   1
  -7  16  10 32.5783 3.59191   1
  -6  16  11 27.1551 6.27624  -2
  -7  16  10 27.1551 6.27624   1
  -7  16  10 0.38137 1.93020   2
  -6  16  10 2.16852 1.97790   2
  -6  16  10 5.16874 1.59432   1
  -5  16  10 60.6016 3.18359   1
  -5  16  10 2.62588 1.98008   2
  -4  16  10 4.79177 1.85413   1
  -4  16  10 2.23406 1.74487   2
  -3  16  10 91.0737 3.33965   1
  -3  16  10 5.03719 1.52343   2
  -2  16  10 0.87113 1.33227   2
  -2  16  10 15.4990 1.89225   1
  -1  16  10 17.6787 1.97075   2
  -1  16  10 274.227 7.52360   1
   0  16  10 64.0466 3.04834   1
   0  16  10 3.41859 1.60122   2
   1  16  10 -0.0580 1.41926   2
   1  16  10 4.11846 1.52434   1
   2  16  10 21.5364 1.80393   1
   2  16  10 1.77719 1.56146   2
   3  16  10 303.953 7.02582   1
   3  16  10 15.3409 1.93385   2
   4  16  10 82.4754 4.14884   1
   4  16  10 4.24275 1.87542   2
   5  16  10 2.81778 2.14296   1
   5  16  10 0.04639 2.59836   2
   6  16  10 2.71252 2.50512   2
   6  16  10 24.3309 2.90795   1
  -8  17  10 9.75992 2.04631   2
  -7  17  11 146.746 13.1738  -2
  -8  17  10 146.746 13.1738   1
  -8  17  10 126.111 4.97810   1
  -7  17  10 0.37451 2.14009   2
  -6  17  11 8.09303 9.63272  -2
  -7  17  10 8.09303 9.63272   1
  -7  17  10 13.3649 8.33836   1
  -6  17  10 113.876 4.79544   1
  -6  17  10 8.11945 2.57429   2
  -5  17  10 70.1491 3.80120   1
  -5  17  10 5.78736 2.17754   2
  -4  17  10 4.34476 1.81117   1
  -4  17  10 -1.3584 1.62286   2
  -3  17  10 34.1691 2.20217   1
  -3  17  10 4.05889 1.74782   2
  -2  17  10 25.1597 2.08182   1
  -2  17  10 0.21747 1.64440   2
  -1  17  10 3.18516 1.63500   2
  -1  17  10 39.7279 2.72441   1
   0  17  10 24.3803 2.04304   1
   0  17  10 1.06576 1.57418   2
   1  17  10 25.4347 2.17556   1
   1  17  10 1.36086 1.66291   2
   2  17  10 15.2332 2.01728   1
   2  17  10 1.71196 1.74128   2
   3  17  10 4.94680 1.95129   2
   3  17  10 140.952 4.34573   1
   4  17  10 4.65303 2.29345   1
   4  17  10 -0.3967 1.95729   2
   5  17  10 5.22029 2.98161   2
   5  17  10 137.284 5.57805   1
  -7  18  10 15.1615 3.20743   1
  -7  18  10 -1.6830 2.41254   2
  -6  18  11 33.1897 10.1295  -2
  -7  18  10 33.1897 10.1295   1
  -6  18  10 15.4071 2.77675   2
  -6  18  10 235.297 8.37626   1
  -5  18  10 1.07463 2.37734   2
  -5  18  10 1.55045 2.02069   1
  -4  18  10 75.8307 4.13341   1
  -4  18  10 5.49692 2.06910   2
  -3  18  10 1.40294 1.86825   2
  -3  18  10 17.0061 2.72634   1
  -2  18  10 8.30504 2.05969   2
  -2  18  10 196.188 5.90815   1
  -1  18  10 11.6138 1.97284   1
  -1  18  10 2.53692 1.74138   2
   0  18  10 202.809 6.11740   1
   0  18  10 11.7467 2.01218   2
   1  18  10 -0.9441 1.79100   1
   1  18  10 -0.8853 1.81144   2
   2  18  10 48.7779 3.37327   1
   2  18  10 4.48146 2.01303   2
   3  18  10 4.87583 2.10834   2
   3  18  10 31.5829 3.43848   1
   4  18  10 30.4608 3.69313   1
   4  18  10 5.87706 3.31653   2
  -6  19  10 4.51982 2.56280   2
  -6  19  10 136.456 5.98860   1
  -5  19  10 19.5908 2.87758   1
  -5  19  10 0.19391 2.67497   2
  -4  19  10 59.6587 3.91480   1
  -4  19  10 1.23373 2.26632   2
  -3  19  10 0.04217 2.23777   2
  -3  19  10 28.3914 3.23963   1
  -2  19  10 1.48605 2.03512   1
  -2  19  10 -2.1158 2.53598   2
  -1  19  10 -2.1533 2.02022   1
  -1  19  10 1.78842 2.48963   2
   0  19  10 8.99741 2.19291   2
   0  19  10 132.922 5.00650   1
   1  19  10 16.6174 2.38168   1
   1  19  10 2.07254 2.15808   2
   2  19  10 0.36959 2.22219   2
   2  19  10 -1.6795 2.01512   1
  -4  20  10 1.75100 3.78437   2
  -3  20  10 110.471 7.13754   1
  -3  20  10 9.94279 2.61815   2
  -2  20  10 51.1260 4.61818   1
  -2  20  10 3.84347 3.32578   2
  -1  20  10 162.667 5.71363   1
  -1  20  10 15.6215 3.09096   2
   0  20  10 -2.0189 3.21175   2
   0  20  10 1.02990 2.10181   1
 -13   0  11 4.66120 2.48814   2
 -13   0  11 47.6001 3.66249   1
 -12   0  11 1.45265 2.41456   2
 -12   0  11 -1.8387 2.35128   1
 -11   0  11 5.09551 2.55075   1
 -10   0  11 5.07827 2.30431   1
  -9   0  11 9.56195 1.60846   2
  -9   0  11 164.774 6.40597   1
  -8   0  11 -0.1236 1.24640   2
  -8   0  11 0.51813 0.97166   1
  -7   0  11 339.457 10.5151   1
  -7   0  11 19.7550 1.59108   2
  -6   0  11 -0.5406 0.60681   2
  -6   0  11 -0.7043 0.90806   1
  -5   0  11 1252.28 35.8667   1
  -5   0  11 68.1848 2.26297   2
  -4   0  11 0.10773 0.80824   2
  -4   0  11 -0.5664 0.76764   1
  -3   0  11 0.48064 0.79144   2
  -3   0  11 9.69342 0.87198   1
  -2   0  11 0.63407 0.58599   2
  -2   0  11 0.58881 0.60980   1
  -1   0  11 1.27678 0.64179   2
  -1   0  11 27.2777 1.39191   1
   0   0  11 -0.6917 0.59885   2
   0   0  11 2.27267 0.70051   1
   1   0  11 37.0387 1.60707   1
   1   0  11 1.95260 0.64184   2
   2   0  11 -0.0920 0.65688   2
   2   0  11 1.13473 0.67336   1
   3   0  11 16.2598 1.29359   2
   3   0  11 354.008 8.52103   1
   4   0  11 -0.3044 2.34849   2
   4   0  11 1.09090 0.72196   1
   5   0  11 -0.2497 0.86634   2
   5   0  11 0.65411 0.85264   1
   6   0  11 0.77273 0.90517   1
   6   0  11 0.52354 0.98896   2
   7   0  11 2.71487 1.65678   2
   7   0  11 65.7380 2.67741   1
   8   0  11 -0.9554 1.48418   1
   9   0  11 331.574 10.1655   1
  10   0  11 -2.8335 4.21830   1
  10   0  11 1.26676 3.03825   2
 -13   1  11 1.08558 1.73092   2
 -13   1  11 38.3167 2.52737   1
 -12   1  11 19.3103 1.97789   1
 -12   1  11 0.82615 1.83000   2
 -11   1  11 373.635 8.72912   1
 -10   1  11 47.1676 2.50729   1
  -9   1  11 0.29909 1.00068   2
  -9   1  11 8.24264 1.01421   1
  -8   1  11 3.56951 0.76470   2
  -8   1  11 71.2417 1.90672   1
  -7   1  11 9.68231 0.64855   2
  -7   1  11 187.033 3.92159   1
  -6   1  11 11.4237 0.71291   2
  -6   1  11 205.727 4.77944   1
  -5   1  11 36.0798 1.53206   1
  -5   1  11 2.03709 0.47566   2
  -4   1  11 0.63174 0.48258   2
  -4   1  11 5.92763 0.65772   1
  -3   1  11 3.70783 0.60456   2
  -3   1  11 72.9767 1.63196   1
  -2   1  11 1.01596 0.43874   1
  -2   1  11 -0.1131 0.47509   2
  -1   1  11 211.684 3.75380   1
  -1   1  11 10.5780 0.68305   2
   0   1  11 168.157 3.08939   1
   0   1  11 7.64418 0.60838   2
   1   1  11 1.44741 0.48985   2
   1   1  11 25.8069 0.98418   1
   2   1  11 0.37762 0.48392   2
   2   1  11 9.83091 0.64967   1
   3   1  11 219.959 3.66250   1
   3   1  11 11.1861 0.75645   2
   4   1  11 17.6953 1.58988   2
   4   1  11 398.320 6.23978   1
   5   1  11 95.1887 1.90299   1
   5   1  11 4.54645 0.72338   2
   6   1  11 43.3077 1.37226   1
   6   1  11 2.35531 0.75375   2
   7   1  11 144.626 2.82449   1
   7   1  11 7.97518 1.19769   2
   8   1  11 15.8207 1.28233   1
   9   1  11 214.068 5.18495   1
  10   1  11 6.18389 3.43742   2
 -13   2  11 -0.3312 1.71904   2
 -13   2  11 9.76403 2.25172   1
 -12   2  11 0.70366 1.61332   2
 -12   2  11 9.89926 1.79163   1
 -11   2  11 -0.0665 2.07638   1
 -10   2  11 208.222 4.86638   1
  -9   2  11 5.81654 1.11641   2
  -9   2  11 90.3881 2.41200   1
  -8   2  11 1.29112 0.70698   2
  -8   2  11 10.3529 0.81284   1
  -7   2  11 0.29160 0.42809   2
  -7   2  11 4.55817 0.74715   1
  -6   2  11 65.0797 2.07470   1
  -6   2  11 3.45680 0.48334   2
  -5   2  11 2.10170 0.44913   2
  -5   2  11 33.1036 1.45485   1
  -4   2  11 0.66072 0.49446   2
  -4   2  11 1.21063 0.52615   1
  -3   2  11 -0.1394 0.55398   2
  -3   2  11 0.78368 0.50140   1
  -2   2  11 1316.63 20.9827   1
  -2   2  11 74.5060 1.99067   2
  -1   2  11 40.1325 1.17367   1
  -1   2  11 1.61456 0.53115   2
   0   2  11 25.3177 0.97794   2
   0   2  11 480.318 8.54749   1
   1   2  11 0.15245 0.46429   2
   1   2  11 0.95178 0.44242   1
   2   2  11 217.631 3.89221   1
   2   2  11 10.9625 0.73851   2
   3   2  11 0.82596 0.52085   2
   3   2  11 6.27980 0.61249   1
   4   2  11 10.6574 0.74426   1
   4   2  11 0.32118 2.47096   2
   5   2  11 75.0881 1.77253   1
   5   2  11 3.73717 0.71059   2
   6   2  11 74.0510 1.81153   1
   6   2  11 4.04925 0.81014   2
   7   2  11 70.9723 1.95207   1
   7   2  11 2.72344 1.33600   2
   8   2  11 51.7962 2.19891   1
   9   2  11 32.3874 3.28829   1
  10   2  11 22.2244 4.91987   1
  10   2  11 -2.3292 3.04572   2
 -13   3  11 -1.6654 1.90092   2
 -13   3  11 17.9863 2.49661   1
 -12   3  11 2.48615 1.68417   2
 -12   3  11 37.9880 2.25193   1
 -11   3  11 112.773 3.69552   1
 -10   3  11 77.6154 2.88866   1
  -9   3  11 69.9889 2.16133   1
  -9   3  11 3.45201 1.10276   2
  -8   3  11 66.9279 1.83860   1
  -8   3  11 3.37894 0.78418   2
  -7   3  11 2.52073 0.57996   1
  -7   3  11 0.06489 0.66219   2
  -6   3  11 100.494 2.41920   1
  -6   3  11 6.06269 0.53610   2
  -5   3  11 -0.3084 0.44746   2
  -5   3  11 5.50446 0.65175   1
  -4   3  11 9.73477 0.61377   2
  -4   3  11 189.619 3.82607   1
  -3   3  11 8.66459 0.77892   2
  -3   3  11 139.255 2.94930   1
  -2   3  11 0.74199 0.53245   2
  -2   3  11 18.6750 0.98197   1
  -1   3  11 327.922 5.98606   1
  -1   3  11 16.3231 0.93773   2
   0   3  11 596.155 9.73972   1
   0   3  11 30.3649 1.20826   2
   1   3  11 90.3919 1.90118   1
   1   3  11 5.00850 0.57380   2
   2   3  11 5.94406 0.55115   1
   2   3  11 0.04925 0.45701   2
   3   3  11 9.57468 0.71460   1
   3   3  11 1.17252 0.53262   2
   4   3  11 594.182 9.05475   1
   4   3  11 28.3541 2.07317   2
   5   3  11 19.8640 1.06561   1
   5   3  11 0.98990 0.66882   2
   6   3  11 2.42865 0.75897   2
   6   3  11 49.1662 1.65014   1
   7   3  11 55.3192 2.09134   1
   7   3  11 3.11056 1.30632   2
   8   3  11 2.95776 1.77770   1
   9   3  11 86.1288 4.63921   1
  10   3  11 -4.9244 4.28782   1
  10   3  11 3.42255 3.04287   2
 -13   4  11 0.43297 2.00460   2
 -13   4  11 56.2767 4.19889   1
 -12   4  11 6.86229 1.83868   2
 -12   4  11 122.321 4.50970   1
 -11   4  11 5.48591 1.68030   1
 -10   4  11 2.32038 1.40779   1
  -9   4  11 3.75786 1.10786   2
  -9   4  11 64.4693 2.09464   1
  -8   4  11 19.2644 1.31417   1
  -8   4  11 0.84487 0.75129   2
  -7   4  11 21.9653 1.06304   2
  -7   4  11 362.547 6.88575   1
  -6   4  11 6.42825 0.55490   2
  -6   4  11 123.603 2.85113   1
  -5   4  11 760.791 12.2767   1
  -5   4  11 39.3498 1.36831   2
  -4   4  11 1.16155 0.38985   2
  -4   4  11 30.3428 1.19100   1
  -3   4  11 0.75553 0.52803   1
  -3   4  11 0.20530 0.46472   2
  -2   4  11 262.678 5.53818   1
  -2   4  11 13.4476 0.90388   2
  -1   4  11 13.5777 0.84163   1
  -1   4  11 0.96533 0.54741   2
   0   4  11 17.9279 0.94659   1
   0   4  11 1.17753 0.55815   2
   1   4  11 1.31753 0.58643   2
   1   4  11 17.5171 0.83934   1
   2   4  11 426.076 6.59033   1
   2   4  11 20.4723 1.16525   2
   3   4  11 520.716 7.99545   1
   3   4  11 27.1230 1.16576   2
   4   4  11 58.1609 1.58167   1
   4   4  11 3.67879 0.96561   2
   5   4  11 3.66569 0.70090   2
   5   4  11 49.6135 1.55073   1
   6   4  11 2.98041 0.83544   2
   6   4  11 41.5494 1.74625   1
   7   4  11 7.72966 1.61667   1
   7   4  11 1.44030 1.19114   2
   9   4   9 1.01748 5.51310  -2
   7   4  11 1.01748 5.51310   1
   8   4  11 11.1875 1.99121   1
   9   4  11 98.1201 4.57500   1
 -13   5  11 0.82221 2.25026   2
 -13   5  11 27.6119 3.43800   1
 -12   5  11 2.49740 2.46684   1
 -12   5  11 -0.0146 1.82064   2
 -11   5  11 284.359 7.31573   1
 -10   5  11 2.63109 1.20592   1
  -9   5  11 1.38209 0.95394   1
  -9   5  11 1.23429 0.84578   2
  -8   5  11 1.59582 0.80001   2
  -8   5  11 40.3423 1.83845   1
  -7   5  11 26.1482 1.25856   2
  -7   5  11 464.612 7.90606   1
  -6   5  11 19.3974 0.82373   2
  -6   5  11 328.647 5.20250   1
  -5   5  11 8.40262 0.61575   1
  -5   5  11 -0.0745 0.55348   2
  -4   5  11 11.5764 0.61419   2
  -4   5  11 204.476 3.63396   1
  -3   5  11 3.69320 0.47076   2
  -3   5  11 64.5264 1.73305   1
  -2   5  11 0.47817 0.53237   2
  -2   5  11 10.2552 0.73013   1
  -1   5  11 1.29470 0.53501   2
  -1   5  11 14.1208 0.84288   1
   0   5  11 1.76873 0.57876   2
   0   5  11 37.1607 1.25186   1
   1   5  11 0.83635 0.54495   2
   1   5  11 2.98065 0.56583   1
   2   5  11 104.589 2.41570   1
   2   5  11 4.88718 0.67069   2
   3   5  11 56.2144 1.68845   1
   3   5  11 2.81238 0.68574   2
   4   5  11 33.2005 1.40504   1
   4   5  11 2.76140 1.27560   2
   5   5  11 12.2509 0.96378   2
   5   5  11 240.409 4.82657   1
   6   5  11 5.59961 1.00031   1
   6   5  11 0.49819 0.84473   2
   9   5   9 202.575 7.36000  -2
   7   5  11 202.575 7.36000   1
   7   5  11 11.0649 1.91130   2
   7   5  11 184.228 8.67524   1
   8   5  11 55.6949 3.33712   1
   9   5  11 195.851 6.42185   1
 -13   6  11 8.94553 2.41921   2
 -13   6  11 104.213 5.72032   1
 -12   6  11 91.1086 4.96324   1
 -12   6  11 3.15247 2.11650   2
 -11   6  11 52.2334 3.69290   1
 -10   6  11 133.364 4.27150   1
  -9   6  11 441.137 8.67129   1
  -9   6  11 26.9505 1.42423   2
  -8   6  11 -0.4459 0.80922   2
  -8   6  11 8.03482 1.23715   1
  -7   6  11 2.68425 0.78608   1
  -7   6  11 -0.0876 0.77112   2
  -6   6  11 2.04515 0.80118   1
  -6   6  11 0.67057 0.68837   2
  -5   6  11 148.843 2.89454   1
  -5   6  11 7.78944 0.76259   2
  -4   6  11 3.98746 0.64522   1
  -4   6  11 -0.3292 0.42773   2
  -3   6  11 97.5080 2.30409   1
  -3   6  11 4.73318 0.59008   2
  -2   6  11 359.914 6.75792   1
  -2   6  11 18.1468 1.01958   2
  -1   6  11 54.2827 1.52403   1
  -1   6  11 3.05870 0.61702   2
   0   6  11 9.54271 0.74700   2
   0   6  11 170.407 3.49066   1
   1   6  11 1.68935 0.58697   1
   1   6  11 0.31744 0.53007   2
   2   6  11 2.15070 0.60930   1
   2   6  11 -0.0332 0.60007   2
   3   6  11 1.33864 0.68907   2
   3   6  11 8.01005 0.78525   1
   4   6  11 2.63083 1.38617   2
   4   6  11 42.9464 1.59898   1
   5   6  11 11.2923 1.03264   2
   5   6  11 219.675 4.49249   1
   6   6  11 -0.0952 0.88449   2
   6   6  11 8.17304 1.06304   1
   7   6  11 8.83259 1.48656   2
   7   6  11 242.238 11.7852   1
   9   6   9 232.928 8.82220  -2
   7   6  11 232.928 8.82220   1
   8   6  11 84.5138 4.01917   1
   9   6  11 47.7813 3.58354   1
 -13   7  11 -1.1305 2.23566   2
 -13   7  11 -1.5852 3.14709   1
 -12   7  11 38.7171 3.45418   1
 -12   7  11 -0.2307 2.24195   2
 -11   7  11 12.6185 2.16975   1
 -10   7  11 7.93270 1.56274   1
  -9   7  11 56.9600 2.41228   1
  -9   7  11 4.53765 1.06238   2
  -8   7  11 1.71298 1.12929   1
  -8   7  11 0.25389 0.91805   2
  -7   7  11 244.363 5.88186   1
  -7   7  11 14.8366 1.18290   2
  -6   7  11 67.0545 1.99800   1
  -6   7  11 3.31454 0.99262   2
  -5   7  11 1.28067 0.56438   1
  -5   7  11 0.98340 0.67046   2
  -4   7  11 3.04080 0.61442   2
  -4   7  11 62.3055 1.58627   1
  -3   7  11 15.4903 0.94917   2
  -3   7  11 354.281 6.69651   1
  -2   7  11 1.89059 0.53416   2
  -2   7  11 38.6669 1.32379   1
  -1   7  11 546.110 9.98223   1
  -1   7  11 29.2933 1.31842   2
   0   7  11 21.2421 1.08705   2
   0   7  11 426.498 8.73437   1
   1   7  11 0.17398 0.64294   2
   1   7  11 28.3614 1.24012   1
   2   7  11 -0.4227 0.67079   2
   2   7  11 0.40520 0.61910   1
   3   7  11 0.50163 0.64969   1
   3   7  11 0.00119 0.69303   2
   4   7  11 180.315 3.81955   1
   4   7  11 10.7081 1.78857   2
   5   7  11 7.92485 0.96615   1
   5   7  11 1.68367 0.81434   2
   6   7  11 1.45072 1.42557   2
   6   7  11 1.95488 1.69935   1
   7   7  11 1.16247 1.33339   2
   9   7   9 22.7520 3.91184  -2
   7   7  11 22.7520 3.91184   1
   8   7  11 -1.7461 1.96977   1
   9   7  11 3.07484 2.55831   1
 -12   8  11 1.42051 2.36691   2
 -12   8  11 77.5178 4.89876   1
 -11   8  11 33.8602 2.57497   1
 -10   8  11 5.51866 1.54081   1
  -9   8  11 1.83697 1.08577   2
  -9   8  11 24.2284 1.90363   1
  -8   8  11 1.82814 1.11873   2
  -8   8  11 14.6136 1.45120   1
  -7   8  11 5.84116 1.18045   2
  -7   8  11 82.6216 2.88603   1
  -6   8  11 81.0704 2.28028   1
  -6   8  11 4.77836 1.05091   2
  -5   8  11 0.71862 0.72030   2
  -5   8  11 20.4878 0.99013   1
  -4   8  11 9.25381 0.87994   2
  -4   8  11 161.837 3.12370   1
  -3   8  11 1.33428 0.53547   1
  -3   8  11 0.24325 0.60916   2
  -2   8  11 7.00654 0.64028   2
  -2   8  11 132.074 2.86686   1
  -1   8  11 78.6688 2.19599   1
  -1   8  11 4.32392 0.67117   2
   0   8  11 17.4079 1.16044   1
   0   8  11 0.57096 0.63062   2
   1   8  11 37.9911 1.42996   1
   1   8  11 2.10214 0.70946   2
   2   8  11 34.8929 1.56834   2
   2   8  11 661.634 11.8667   1
   3   8  11 7.27710 0.94754   2
   3   8  11 160.974 3.46440   1
   4   8  11 18.9652 1.18705   1
   4   8  11 1.29106 1.46383   2
   5   8  11 131.936 3.17332   1
   5   8  11 11.4175 1.07394   2
   6   8  11 162.554 4.28220   1
   6   8  11 7.88940 1.19229   2
   7   8  11 0.60491 1.36422   2
   9   8   9 32.6150 4.12712  -2
   7   8  11 32.6150 4.12712   1
   8   8  11 22.1670 2.53271   1
   9   8  11 13.3378 2.69275   1
 -12   9  11 4.33451 2.48340   2
 -12   9  11 12.5139 3.16715   1
 -11   9  11 59.1329 3.59165   1
 -10   9  11 -0.5718 1.51482   1
  -9   9  11 0.44145 1.21925   2
  -9   9  11 6.50531 1.58357   1
  -8   9  11 3.70309 1.24900   2
  -8   9  11 37.9457 2.47178   1
  -7   9  11 42.1573 2.21332   1
  -7   9  11 3.94154 1.28532   2
  -6   9  11 350.945 6.92720   1
  -6   9  11 21.7350 1.78688   2
  -5   9  11 170.505 3.33753   1
  -5   9  11 9.13680 1.15936   2
  -4   9  11 21.5445 1.10474   2
  -4   9  11 417.851 7.18521   1
  -3   9  11 -0.2739 0.61954   2
  -3   9  11 1.19238 0.66828   1
  -2   9  11 1.12149 0.64518   2
  -2   9  11 34.6317 1.49197   1
  -1   9  11 8.73556 0.89842   2
  -1   9  11 129.440 3.17518   1
   0   9  11 23.1168 1.30752   2
   0   9  11 417.035 8.62238   1
   1   9  11 3.93436 0.80758   2
   1   9  11 79.6806 2.09810   1
   2   9  11 8.56516 0.96400   2
   2   9  11 142.120 3.16102   1
   3   9  11 -0.2783 0.89583   2
   3   9  11 8.85423 0.91260   1
   4   9  11 1.44840 1.48498   2
   4   9  11 0.79253 0.81014   1
   5   9  11 4.78394 1.58696   2
   5   9  11 100.963 4.15934   1
   6   9  11 -0.2754 1.25426   2
   6   9  11 3.42922 1.46022   1
   9   9   9 18.6963 4.21079  -2
   7   9  11 18.6963 4.21079   1
   7   9  11 1.12576 1.47549   2
   8   9  11 68.9375 4.19728   1
 -12  10  11 117.284 5.95031   1
 -12  10  11 8.74512 3.56945   2
 -11  10  11 4.80294 2.31284   1
 -10  10  11 66.3292 2.89741   1
  -9  10  11 22.2880 1.91773   2
  -9  10  11 342.684 9.43716   1
  -8  10  11 24.5939 1.91135   1
  -8  10  11 1.53109 1.18980   2
  -7  10  11 6.35952 1.35894   1
  -7  10  11 0.82747 1.17642   2
  -6  10  11 0.68329 1.21454   2
  -6  10  11 34.1647 2.21950   1
  -5  10  11 3.45430 0.77414   1
  -5  10  11 1.68922 1.09475   2
  -4  10  11 2.74223 0.76250   1
  -4  10  11 0.06950 1.02554   2
  -3  10  11 124.725 2.83170   1
  -3  10  11 6.62313 0.82630   2
  -2  10  11 -0.0988 0.65887   2
  -2  10  11 0.77243 0.72149   1
  -1  10  11 1.45028 0.73559   2
  -1  10  11 10.6681 0.94436   1
   0  10  11 2.22232 0.78380   2
   0  10  11 50.2894 1.80767   1
   1  10  11 45.1740 1.62563   1
   1  10  11 1.66049 0.80395   2
   2  10  11 177.609 3.77178   1
   2  10  11 9.87773 0.99883   2
   3  10  11 -0.8628 0.98855   2
   3  10  11 6.21029 1.09436   1
   4  10  11 112.679 3.26774   1
   4  10  11 9.08078 1.86423   2
   5  10  11 9.71893 1.74078   2
   5  10  11 181.096 4.61975   1
   6  10  11 2.58193 1.43113   2
   6  10  11 61.3182 3.43795   1
   7  10  11 13.4747 1.79004   2
   9  10   9 272.591 8.45740  -2
   7  10  11 272.591 8.45740   1
   8  10  11 187.435 6.42800   1
 -11  11  11 6.73075 2.79870   1
 -10  11  11 131.553 3.90598   1
  -9  11  11 115.373 3.58005   1
  -9  11  11 6.97211 1.51816   2
  -8  11  11 1.39903 1.23146   2
  -8  11  11 37.7828 4.38880   1
  -7  11  11 222.999 6.43238   1
  -7  11  11 16.0977 1.51675   2
  -6  11  11 142.613 4.56601   1
  -6  11  11 6.49797 1.43806   2
  -5  11  11 66.0956 2.36592   1
  -5  11  11 2.80769 1.20661   2
  -4  11  11 0.20282 1.13166   2
  -4  11  11 4.59897 0.94455   1
  -3  11  11 284.845 5.56610   1
  -3  11  11 14.2649 1.21630   2
  -2  11  11 55.1892 1.97700   1
  -2  11  11 2.03413 0.91513   2
  -1  11  11 135.781 3.40579   1
  -1  11  11 7.23563 0.96327   2
   0  11  11 14.0560 1.02088   1
   0  11  11 -0.3424 0.78617   2
   1  11  11 117.543 3.68970   1
   1  11  11 7.29603 0.97086   2
   2  11  11 14.9484 1.24418   1
   2  11  11 1.11540 0.80029   2
   3  11  11 3.35279 1.06699   1
   3  11  11 -0.1047 1.40032   2
   4  11  11 4.74284 1.43697   1
   5  11  11 46.2142 2.57465   1
   5  11  11 4.60871 1.69728   2
   6  11  11 6.97584 1.61910   2
   6  11  11 127.145 4.74985   1
   9  11   9 7.80298 6.61699  -2
   7  11  11 7.80298 6.61699   1
   7  11  11 1.15536 2.05029   2
   8  11  11 4.50612 2.56058   1
   8  11  11 0.64564 4.37213   2
 -11  12  11 22.7831 3.39675   1
 -10  12  11 7.39847 1.73462   1
  -9  12  11 155.055 4.18029   1
  -9  12  11 7.90771 1.60467   2
  -8  12  11 104.656 3.69309   1
  -8  12  11 8.13214 1.44252   2
  -7  12  11 23.2066 3.28683   1
  -7  12  11 1.61988 1.41224   2
  -6  12  11 1.40574 1.26145   2
  -6  12  11 13.3935 2.66761   1
  -5  12  11 45.3316 2.60098   1
  -5  12  11 4.57623 1.21228   2
  -4  12  11 232.944 5.41172   1
  -4  12  11 11.7858 1.50730   2
  -3  12  11 30.6693 1.76776   1
  -3  12  11 1.26241 0.99181   2
  -2  12  11 -0.3335 0.96222   2
  -2  12  11 0.23132 1.05584   1
  -1  12  11 101.819 3.41359   1
  -1  12  11 5.20428 1.18299   2
   0  12  11 3.90576 1.13959   2
   0  12  11 35.8812 2.10880   1
   1  12  11 56.5288 2.55454   1
   1  12  11 3.18554 1.17586   2
   2  12  11 11.4543 1.36469   2
   2  12  11 208.462 4.98661   1
   3  12  11 9.23500 1.84453   1
   3  12  11 1.37230 2.10985   2
   4  12  11 10.9369 1.53018   1
   5  12  11 144.978 4.40638   1
   5  12  11 7.72188 1.80704   2
   6  12  11 11.3454 2.18797   1
   6  12  11 -0.3498 1.65598   2
   9  12   9 79.9326 5.91527  -2
   7  12  11 79.9326 5.91527   1
   7  12  11 4.37045 2.33202   2
 -10  13  11 4.46535 2.06541   1
  -9  13  11 3.57718 1.54003   1
  -9  13  11 0.08145 1.57509   2
  -8  13  11 18.3037 1.84631   1
  -8  13  11 2.33982 1.35983   2
  -7  13  11 6.31992 1.69675   1
  -7  13  11 -1.2313 1.47574   2
  -6  13  11 15.4322 2.19682   1
  -6  13  11 0.74122 2.44596   2
  -5  13  11 2.65614 1.42655   2
  -5  13  11 62.4663 3.21616   1
  -4  13  11 419.843 9.00665   1
  -4  13  11 19.0814 1.94180   2
  -3  13  11 1.81480 1.09971   2
  -3  13  11 32.8545 1.90243   1
  -2  13  11 5.89222 1.17047   2
  -2  13  11 130.479 4.10379   1
  -1  13  11 4.85433 1.28338   2
  -1  13  11 57.7278 2.67313   1
   0  13  11 185.211 5.25042   1
   0  13  11 10.7193 1.42162   2
   1  13  11 138.995 4.32167   1
   1  13  11 7.58399 1.42275   2
   2  13  11 6.28104 1.76762   2
   2  13  11 86.1730 3.76781   1
   3  13  11 11.0410 2.40658   2
   3  13  11 200.337 5.90348   1
   4  13  11 1.26456 1.45530   1
   5  13  11 21.0607 2.36892   1
   5  13  11 4.24104 2.23728   2
   6  13  11 3.91551 1.79974   2
   6  13  11 65.1079 4.00837   1
   7  13  11 7.49041 2.57130   2
   7  13  11 18.3640 2.83703   1
 -10  14  11 8.71677 2.22171   1
  -9  14  11 6.67250 1.84561   2
  -9  14  11 60.9015 3.00688   1
  -8  14  11 6.98142 1.73189   1
  -8  14  11 1.48561 1.46118   2
  -7  14  11 -0.1324 1.39208   2
  -7  14  11 8.98968 1.64954   1
  -6  14  11 1.33207 1.70974   2
  -6  14  11 30.0692 2.29822   1
  -5  14  11 6.00839 1.46783   2
  -5  14  11 107.089 4.29346   1
  -4  14  11 2.36012 1.40590   1
  -4  14  11 -0.9173 2.38073   2
  -3  14  11 13.5283 1.92553   2
  -3  14  11 342.025 7.68324   1
  -2  14  11 2.80462 1.27738   2
  -2  14  11 76.6348 3.17996   1
  -1  14  11 51.4305 2.67932   1
  -1  14  11 1.93785 1.33435   2
   0  14  11 -0.0020 1.32190   1
   0  14  11 -1.3507 1.63556   2
   1  14  11 7.86334 1.63465   2
   1  14  11 136.421 5.90149   1
   2  14  11 149.609 4.20436   1
   2  14  11 5.25608 1.55746   2
   3  14  11 4.57143 1.49834   1
   4  14  11 53.0167 2.68046   1
   5  14  11 3.38652 2.39927   2
   5  14  11 34.8555 2.78921   1
   6  14  11 15.1625 2.88620   1
   8  14   9 16.9497 12.6469  -2
   6  14  11 16.9497 12.6469   1
   6  14  11 -0.7622 2.86387   2
  -9  15  11 4.39193 2.00043   2
  -9  15  11 36.3379 2.59827   1
  -8  15  11 116.373 4.17289   1
  -8  15  11 9.41493 1.83047   2
  -7  15  11 4.02171 1.52353   2
  -7  15  11 64.1727 3.29202   1
  -6  15  11 7.96800 1.72680   1
  -6  15  11 2.04093 1.94496   2
  -5  15  11 58.5567 3.47784   1
  -5  15  11 2.94356 1.53027   2
  -4  15  11 1.07573 1.54121   2
  -4  15  11 28.6374 2.45971   1
  -3  15  11 2.87650 1.59532   2
  -3  15  11 48.8993 2.79488   1
  -2  15  11 10.9273 1.73951   1
  -2  15  11 0.38203 1.27570   2
  -1  15  11 1.55518 1.43652   2
  -1  15  11 4.83256 1.95063   1
   0  15  11 -0.1392 1.42192   1
   0  15  11 -1.3221 1.81474   2
   1  15  11 9.12573 1.72619   2
   1  15  11 197.858 5.78980   1
   2  15  11 7.59902 1.75997   1
   2  15  11 1.73662 1.56008   2
   3  15  11 49.1437 2.75311   1
   4  15  11 54.2817 3.54222   1
   5  15  11 0.83760 2.84756   2
   5  15  11 76.4171 4.29381   1
  -8  16  11 13.2332 2.10670   2
  -8  16  11 233.477 6.27060   1
  -7  16  11 2.50516 1.80476   1
  -7  16  11 -2.2000 1.85198   2
  -6  16  11 3.97444 1.83095   1
  -6  16  11 4.34488 2.12407   2
  -5  16  11 0.24848 1.62551   2
  -5  16  11 12.3748 2.07849   1
  -4  16  11 11.5516 1.90580   2
  -4  16  11 241.593 7.17051   1
  -3  16  11 23.7583 2.20232   1
  -3  16  11 1.06809 1.76533   2
  -2  16  11 2.23025 1.74660   2
  -2  16  11 102.274 3.96575   1
  -1  16  11 0.38778 1.55355   2
  -1  16  11 1.18649 1.54922   1
   0  16  11 4.93126 1.68858   2
   0  16  11 64.9202 3.24566   1
   1  16  11 1.59427 1.66692   2
   1  16  11 2.14272 1.64275   1
   2  16  11 5.00916 1.81855   2
   2  16  11 43.4504 3.10490   1
   3  16  11 0.02161 1.74702   1
   4  16  11 37.6070 2.97279   1
   5  16  11 21.0053 4.23840   1
  -7  17  11 13.2364 2.90105   1
  -7  17  11 1.19953 2.06636   2
  -6  17  11 1.92263 2.58747   2
  -6  17  11 20.2025 3.00935   1
  -5  17  11 3.08295 2.05014   2
  -5  17  11 32.9344 3.08694   1
  -4  17  11 26.3104 2.58787   1
  -4  17  11 2.73462 1.92214   2
  -3  17  11 7.38271 2.50522   1
  -3  17  11 -3.3880 1.81413   2
  -2  17  11 5.72206 2.26786   2
  -2  17  11 68.7459 3.53639   1
  -1  17  11 2.17654 1.72705   1
  -1  17  11 1.51888 2.25292   2
   0  17  11 22.7239 2.21402   1
   0  17  11 1.89922 1.85626   2
   1  17  11 86.4339 3.97852   1
   1  17  11 3.56654 1.96603   2
   2  17  11 0.63984 1.95759   2
   2  17  11 1.78555 1.97749   1
   3  17  11 119.549 6.17866   1
   4  17  11 2.28692 3.48215   1
  -6  18  11 7.10782 2.88014   1
  -6  18  11 1.71580 2.54696   2
  -5  18  11 8.51242 2.55160   2
  -5  18  11 156.945 7.28042   1
  -4  18  11 -2.3051 2.08651   2
  -4  18  11 4.88853 2.60559   1
  -3  18  11 12.3770 2.36911   2
  -3  18  11 158.620 7.17084   1
  -2  18  11 26.4510 2.44801   1
  -2  18  11 3.95270 2.60802   2
  -1  18  11 32.9977 2.90801   1
  -1  18  11 2.02953 2.58569   2
   0  18  11 0.02320 2.02222   1
   0  18  11 3.54480 2.11782   2
   1  18  11 11.9519 2.41171   2
   1  18  11 200.981 6.30814   1
   4  18  10 16.1483 14.2207  -2
   2  18  11 16.1483 14.2207   1
   2  18  11 37.6918 3.04616   1
   2  18  11 1.55078 2.29945   2
  -4  19  11 -0.5165 2.69996   1
  -4  19  11 -1.1062 2.24224   2
  -3  19  11 -0.1656 2.94268   2
  -3  19  11 7.46748 3.02033   1
  -2  19  11 -2.7170 2.65970   2
  -2  19  11 5.84423 3.02096   1
  -1  19  11 -0.2481 2.89835   2
  -1  19  11 51.9399 3.85611   1
   0  19  11 1.47011 3.02193   2
   0  19  11 13.6422 2.34509   1
 -13   0  12 2.05617 2.69767   2
 -13   0  12 2.81728 3.19319   1
 -12   0  12 3.35988 2.19027   2
 -12   0  12 65.8632 5.25274   1
 -11   0  12 -0.3205 2.85759   1
 -11   0  12 -1.0468 3.60850   2
 -10   0  12 3.84218 3.31763   1
 -10   0  12 2.65130 2.75675   2
  -9   0  12 -0.1635 1.63902   2
  -9   0  12 -1.4582 2.13845   1
  -8   0  12 19.6342 1.92344   2
  -8   0  12 277.301 7.15977   1
  -7   0  12 0.73891 1.18236   1
  -7   0  12 -0.2349 0.88229   2
  -6   0  12 3.08142 0.98616   2
  -6   0  12 46.8086 2.59325   1
  -5   0  12 0.85136 0.97924   1
  -5   0  12 0.26477 1.00003   2
  -4   0  12 1482.86 42.3641   1
  -4   0  12 76.6047 3.33319   2
  -3   0  12 0.86564 0.72835   1
  -3   0  12 -0.4911 0.84716   2
  -2   0  12 244.705 6.10880   1
  -2   0  12 13.1472 1.09228   2
  -1   0  12 0.43822 0.68600   2
  -1   0  12 -0.4231 0.67198   1
   0   0  12 273.663 6.76488   1
   0   0  12 15.4000 1.28715   2
   1   0  12 -0.4393 0.68620   1
   1   0  12 1.20769 0.76326   2
   2   0  12 53.4907 4.94864   1
   4   0  11 55.2944 2.81117  -2
   2   0  12 55.2944 2.81117   1
   2   0  12 2.61784 0.79672   2
   3   0  12 0.54652 0.87673   1
   4   0  12 3.85276 0.98604   1
   5   0  12 2.28291 1.09517   1
   5   0  12 0.52529 1.37454   2
   6   0  12 2.56587 1.75319   2
   8   0  10 28.7905 3.44002  -2
   6   0  12 28.7905 3.44002   1
   7   0  12 1.77241 1.44643   2
   9   0  10 -3.6935 3.51978  -2
   7   0  12 -3.6935 3.51978   1
   8   0  12 2.94518 1.66531   1
   8   0  12 0.15491 1.74709   2
   9   0  12 -2.8905 2.15278   2
   9   0  12 -0.7290 2.61985   1
 -13   1  12 8.24889 1.96779   2
 -13   1  12 176.773 4.96610   1
 -12   1  12 25.2313 2.71534   1
 -12   1  12 3.24392 1.54971   2
 -11   1  12 4.47929 2.13440   2
 -11   1  12 0.18959 1.99719   1
 -10   1  12 190.077 6.82320   1
 -10   1  12 9.99743 3.40279   2
  -9   1  12 37.2127 1.88753   1
  -9   1  12 1.69163 1.17058   2
  -8   1  12 3.70423 1.08337   2
  -8   1  12 48.3879 1.71640   1
  -7   1  12 0.06402 0.63441   2
  -7   1  12 3.47792 0.83280   1
  -6   1  12 9.92408 0.83799   2
  -6   1  12 145.123 3.68083   1
  -5   1  12 41.7428 1.70954   1
  -5   1  12 2.11286 0.77051   2
  -4   1  12 0.54921 0.68294   2
  -4   1  12 1.23169 0.59326   1
  -3   1  12 128.996 2.84617   1
  -3   1  12 6.77171 0.85729   2
  -2   1  12 15.5875 1.00473   2
  -2   1  12 297.106 5.13299   1
  -1   1  12 1.47055 0.51148   2
  -1   1  12 16.7440 0.88141   1
   0   1  12 3.28003 0.58300   2
   0   1  12 56.2330 1.48220   1
   1   1  12 170.014 3.20392   1
   1   1  12 9.63676 0.71991   2
   2   1  12 234.855 6.36983   1
   2   1  12 11.4173 0.78930   2
   4   1  11 255.692 6.18826  -2
   2   1  12 255.692 6.18826   1
   3   1  12 53.2785 1.55244   1
   4   1  12 50.7934 1.59922   1
   5   1  12 212.698 3.76702   1
   5   1  12 9.37600 1.25646   2
   6   1  12 0.43956 1.36160   2
   8   1  10 27.9363 2.24535  -2
   6   1  12 27.9363 2.24535   1
   7   1  12 6.53475 1.17238   2
   9   1  10 123.667 4.33335  -2
   7   1  12 123.667 4.33335   1
   8   1  12 1.78818 1.43162   1
   8   1  12 -0.4354 1.22351   2
   9   1  12 3.53485 2.60384   1
   9   1  12 0.08189 1.57391   2
 -13   2  12 0.10158 2.12248   2
 -13   2  12 35.4985 2.90766   1
 -12   2  12 1.40786 1.55647   2
 -12   2  12 3.09368 2.10129   1
 -11   2  12 46.6428 3.30630   1
 -11   2  12 2.47260 1.81243   2
 -10   2  12 2.69385 2.23310   1
 -10   2  12 -2.9043 2.74233   2
  -9   2  12 19.2453 1.45883   2
  -9   2  12 354.919 7.04313   1
  -8   2  12 4.05864 0.87210   2
  -8   2  12 66.5853 1.94722   1
  -7   2  12 577.936 10.6540   1
  -7   2  12 32.4048 1.52529   2
  -6   2  12 -0.0020 0.68370   2
  -6   2  12 3.10829 0.81754   1
  -5   2  12 -0.4690 0.66028   2
  -5   2  12 4.91725 0.81408   1
  -4   2  12 4.71616 0.82139   2
  -4   2  12 107.248 2.50680   1
  -3   2  12 -0.3037 0.55871   2
  -3   2  12 16.8022 0.98012   1
  -2   2  12 1.43014 0.58884   1
  -2   2  12 -0.1547 0.57553   2
  -1   2  12 193.709 3.54182   1
  -1   2  12 9.01094 0.75369   2
   0   2  12 198.006 3.62481   1
   0   2  12 10.7940 0.73250   2
   1   2  12 481.940 8.03444   1
   1   2  12 23.9035 1.04965   2
   2   2  12 -0.2571 0.54727   2
   4   2  11 4.84201 1.34368  -2
   2   2  12 4.84201 1.34368   1
   2   2  12 4.89652 2.58408   1
   3   2  12 7.70144 0.71527   1
   4   2  12 2.33484 0.64499   1
   5   2  12 13.4604 0.94502   1
   5   2  12 0.40733 0.86469   2
   6   2  12 1.85328 1.41047   2
   8   2  10 8.53853 2.96692  -2
   6   2  12 8.53853 2.96692   1
   6   2  12 4.95329 1.98405   1
   7   2  12 15.4381 1.31167   2
   9   2  10 317.885 9.76729  -2
   7   2  12 317.885 9.76729   1
   8   2  12 -1.2267 1.78679   2
   8   2  12 9.39235 1.87301   1
   9   2  12 -0.7016 1.68931   2
   9   2  12 15.1517 2.94762   1
 -13   3  12 17.0278 2.27490   2
 -13   3  12 231.682 7.94698   1
 -12   3  12 3.23579 2.40711   1
 -12   3  12 -1.2744 1.55663   2
 -11   3  12 53.9545 3.93952   1
 -11   3  12 2.45382 1.87654   2
 -10   3  12 39.4335 2.69427   1
 -10   3  12 3.35024 2.70931   2
  -9   3  12 145.364 3.64279   1
  -9   3  12 8.59022 1.31766   2
  -8   3  12 10.4872 0.99443   2
  -8   3  12 164.629 3.72226   1
  -7   3  12 58.9360 1.90028   1
  -7   3  12 3.43448 0.89221   2
  -6   3  12 -0.6654 0.64598   2
  -6   3  12 4.76045 0.79452   1
  -5   3  12 2.93949 0.65188   1
  -5   3  12 -0.0278 0.65650   2
  -4   3  12 30.8724 1.29093   1
  -4   3  12 1.65962 0.65572   2
  -3   3  12 18.6002 1.00670   1
  -3   3  12 1.22249 0.60518   2
  -2   3  12 2.42769 0.62479   2
  -2   3  12 56.3883 1.65532   1
  -1   3  12 0.38438 0.57413   2
  -1   3  12 1.67214 0.58837   1
   0   3  12 37.2811 1.21835   1
   0   3  12 1.83669 0.63210   2
   1   3  12 391.319 6.62923   1
   1   3  12 19.0761 1.10974   2
   2   3  12 10.9903 0.80618   2
   4   3  11 266.309 5.88251  -2
   2   3  12 266.309 5.88251   1
   2   3  12 224.607 7.12941   1
   3   3  12 161.949 2.94080   1
   4   3  12 22.7699 1.18804   1
   5   3  12 448.352 7.53706   1
   5   3  12 23.7826 1.59459   2
   6   3  12 6.13334 1.12661   2
   8   3  10 68.0454 4.77720  -2
   6   3  12 68.0454 4.77720   1
   7   3  12 6.88207 1.33337   2
   9   3  10 155.520 5.53692  -2
   7   3  12 155.520 5.53692   1
   8   3  12 21.0130 2.66509   1
   8   3  12 1.61928 1.89441   2
   9   3  12 57.0373 4.24023   1
   9   3  12 1.56980 2.22391   2
 -13   4  12 38.3524 3.81156   1
 -13   4  12 -0.0171 2.75250   2
 -12   4  12 3.15110 1.74666   2
 -12   4  12 58.6224 3.26937   1
 -11   4  12 149.036 6.00413   1
 -11   4  12 13.2661 2.14900   2
 -10   4  12 4.23282 2.87985   1
 -10   4  12 0.67858 1.88765   2
  -9   4  12 1.79079 1.11184   1
  -9   4  12 0.11736 1.18904   2
  -8   4  12 1.62443 0.94017   2
  -8   4  12 38.8906 2.02496   1
  -7   4  12 1.19084 0.86731   2
  -7   4  12 24.5837 1.36497   1
  -6   4  12 -0.4423 0.67171   2
  -6   4  12 4.23364 0.79232   1
  -5   4  12 22.9629 1.08575   1
  -5   4  12 1.38049 0.71130   2
  -4   4  12 649.347 11.8233   1
  -4   4  12 37.2312 1.30022   2
  -3   4  12 1.06877 0.61214   2
  -3   4  12 6.48222 0.74016   1
  -2   4  12 120.015 2.71100   1
  -2   4  12 6.54963 0.72187   2
  -1   4  12 0.20631 0.58784   2
  -1   4  12 14.1738 0.89076   1
   0   4  12 7.37937 0.76182   1
   0   4  12 0.38726 0.59143   2
   1   4  12 -0.2732 0.58044   2
   1   4  12 3.72525 0.68450   1
   2   4  12 3.22703 0.73999   2
   2   4  12 61.8877 3.69820   1
   4   4  11 67.2674 2.89156  -2
   2   4  12 67.2674 2.89156   1
   3   4  12 290.922 5.08014   1
   4   4  12 8.67302 0.90187   1
   5   4  12 81.5291 2.35822   1
   5   4  12 4.27212 1.18832   2
   8   4  10 56.0395 5.67435  -2
   6   4  12 56.0395 5.67435   1
   6   4  12 2.54590 1.25879   2
   9   4  10 110.392 6.00258  -2
   7   4  12 110.392 6.00258   1
   7   4  12 6.10144 1.35424   2
   8   4  12 -4.7925 2.30594   2
   8   4  12 3.89148 2.25958   1
   9   4  12 50.8938 3.55826   1
   9   4  12 1.94122 2.18302   2
 -13   5  12 3.37760 2.65085   2
 -13   5  12 20.2868 3.39720   1
 -12   5  12 3.09068 2.73933   1
 -12   5  12 1.65849 2.27117   2
 -11   5  12 7.34519 2.33712   2
 -11   5  12 71.4168 4.53964   1
 -10   5  12 50.9217 3.75371   1
 -10   5  12 4.58762 1.80457   2
  -9   5  12 1.74886 1.29294   2
  -9   5  12 32.5884 2.09552   1
  -8   5  12 2.68532 0.97879   2
  -8   5  12 47.0451 2.71527   1
  -7   5  12 16.5775 1.23465   1
  -7   5  12 1.14515 0.85613   2
  -6   5  12 279.495 6.32991   1
  -6   5  12 15.7552 1.03920   2
  -5   5  12 18.2785 1.19757   2
  -5   5  12 259.320 5.12400   1
  -4   5  12 2.43743 0.53464   2
  -4   5  12 31.6476 1.33246   1
  -3   5  12 23.3733 1.17966   2
  -3   5  12 440.323 8.21372   1
  -2   5  12 693.551 12.5823   1
  -2   5  12 35.6304 1.39471   2
  -1   5  12 1.54351 0.63751   2
  -1   5  12 30.8610 1.32673   1
   0   5  12 35.4939 1.47619   1
   0   5  12 3.22092 0.66752   2
   1   5  12 0.47021 0.64707   2
   1   5  12 9.36662 0.83250   1
   2   5  12 440.944 17.7236   1
   2   5  12 21.9504 1.22979   2
   4   5  11 422.597 10.2714  -2
   2   5  12 422.597 10.2714   1
   3   5  12 5.82696 0.79620   1
   4   5  12 -0.3292 0.75518   1
   5   5  12 0.32796 0.88638   1
   5   5  12 -0.3521 1.03529   2
   6   5  12 1.67651 1.13878   2
   8   5  10 28.3862 3.97446  -2
   6   5  12 28.3862 3.97446   1
   9   5  10 27.2219 4.01343  -2
   7   5  12 27.2219 4.01343   1
   7   5  12 0.67903 1.26517   2
   8   5  12 6.22987 2.21291   1
   8   5  12 1.39250 1.86107   2
 -12   6  12 -2.6287 2.29103   2
 -12   6  12 13.6815 2.93972   1
 -11   6  12 -1.2681 3.12081   2
 -11   6  12 3.51979 3.11323   1
 -10   6  12 2.71567 2.74138   2
 -10   6  12 12.6371 1.75563   1
  -9   6  12 14.2154 1.50155   2
  -9   6  12 203.986 5.38502   1
  -8   6  12 5.52007 1.19241   2
  -8   6  12 112.303 4.11970   1
  -7   6  12 98.5250 2.91430   1
  -7   6  12 4.67688 1.18742   2
  -6   6  12 21.1122 1.20813   1
  -6   6  12 0.17814 1.02738   2
  -5   6  12 0.59106 0.66197   1
  -5   6  12 0.06386 0.73240   2
  -4   6  12 14.1336 1.03236   2
  -4   6  12 239.104 4.78294   1
  -3   6  12 2.26418 0.66117   2
  -3   6  12 30.3492 1.31491   1
  -2   6  12 1.79518 0.64539   2
  -2   6  12 31.2822 1.33382   1
  -1   6  12 0.42675 0.61045   2
  -1   6  12 2.97918 0.68838   1
   0   6  12 22.5176 1.26161   2
   0   6  12 365.463 7.62644   1
   1   6  12 16.0219 1.07601   2
   1   6  12 325.164 6.88459   1
   4   6  11 42.8895 2.57413  -2
   2   6  12 42.8895 2.57413   1
   2   6  12 2.41597 0.78124   2
   2   6  12 42.5204 3.04056   1
   3   6  12 31.8633 1.45460   1
   4   6  12 44.2201 1.76897   1
   5   6  12 2.66678 3.45474   2
   5   6  12 6.60771 1.24769   1
   6   6  12 2.91763 1.16259   2
   8   6  10 71.6291 4.29166  -2
   6   6  12 71.6291 4.29166   1
   7   6  12 3.38896 1.33370   2
   9   6  10 74.2914 4.68234  -2
   7   6  12 74.2914 4.68234   1
   8   6  12 6.88132 2.81796   2
   8   6  12 101.571 4.77994   1
 -12   7  12 -1.0077 2.46545   2
 -12   7  12 1.70462 2.89581   1
 -11   7  12 1.44434 3.35001   2
 -11   7  12 26.0906 2.89530   1
 -10   7  12 5.61141 2.46258   1
 -10   7  12 1.35854 2.76167   2
  -9   7  12 77.1635 3.42766   1
  -9   7  12 6.54972 1.54147   2
  -8   7  12 10.8980 1.31835   2
  -8   7  12 191.994 5.94282   1
  -7   7  12 1.78308 1.20911   2
  -7   7  12 46.4850 2.70243   1
  -6   7  12 27.6940 1.74516   2
  -6   7  12 485.018 10.4046   1
  -5   7  12 0.27210 0.77826   2
  -5   7  12 3.19867 0.75984   1
  -4   7  12 1.28691 0.68604   1
  -4   7  12 -0.1801 0.67787   2
  -3   7  12 26.5304 1.29798   1
  -3   7  12 1.11618 0.71600   2
  -2   7  12 13.6607 0.95272   2
  -2   7  12 268.248 5.28858   1
  -1   7  12 5.56943 0.75465   2
  -1   7  12 97.9346 2.61031   1
   0   7  12 5.65607 0.78292   2
   0   7  12 106.413 2.79033   1
   1   7  12 3.73825 0.78455   2
   1   7  12 45.0877 1.73181   1
   2   7  12 3.92656 1.30745   1
   4   7  11 17.3381 2.25788  -2
   2   7  12 17.3381 2.25788   1
   2   7  12 0.23389 0.74713   2
   3   7  12 130.525 3.02962   1
   4   7  12 21.6614 1.34443   1
   5   7  12 121.940 3.29375   1
   5   7  12 7.38789 1.51790   2
   6   7  12 1.53782 1.21242   2
   8   7  10 33.0063 3.76810  -2
   6   7  12 33.0063 3.76810   1
   7   7  12 3.09013 1.41356   2
   9   7  10 61.6084 4.64765  -2
   7   7  12 61.6084 4.64765   1
   8   7  12 69.5233 4.14482   1
   8   7  12 -1.7817 2.63521   2
 -12   8  12 2.91291 2.63934   2
 -12   8  12 54.8848 4.17395   1
 -11   8  12 23.4841 4.01611   2
 -11   8  12 354.341 10.0275   1
 -10   8  12 31.9289 2.75363   1
 -10   8  12 3.56328 3.06274   2
  -9   8  12 -0.5969 1.25739   2
  -9   8  12 1.77763 1.59493   1
  -8   8  12 0.71026 1.42480   1
  -8   8  12 -0.5627 1.26496   2
  -7   8  12 0.50931 1.17209   2
  -7   8  12 3.78118 1.37013   1
  -6   8  12 -0.4314 1.10281   2
  -6   8  12 1.84708 0.93911   1
  -5   8  12 26.1740 1.40328   1
  -5   8  12 1.69346 0.81856   2
  -4   8  12 5.05392 0.83329   2
  -4   8  12 85.4233 2.28990   1
  -3   8  12 5.64618 0.81490   1
  -3   8  12 -0.2381 0.70754   2
  -2   8  12 2.50615 0.74889   2
  -2   8  12 65.3649 2.05364   1
  -1   8  12 3.15260 0.75236   1
  -1   8  12 0.83277 0.67831   2
   0   8  12 0.50330 0.73864   2
   0   8  12 27.5018 1.42988   1
   1   8  12 3.43859 0.79721   2
   1   8  12 23.2064 1.39976   1
   2   8  12 155.360 7.22454   1
   2   8  12 7.00604 0.95583   2
   4   8  11 151.958 4.71965  -2
   2   8  12 151.958 4.71965   1
   3   8  12 435.267 8.13815   1
   4   8  12 16.8954 1.29417   1
   5   8  12 187.574 4.81832   1
   5   8  12 8.72186 1.52679   2
   6   8  12 11.1172 1.44278   2
   8   8  10 230.836 7.27794  -2
   6   8  12 230.836 7.27794   1
   7   8  12 0.21040 1.81745   2
   9   8  10 76.4402 5.01847  -2
   7   8  12 76.4402 5.01847   1
   8   8  12 11.0925 2.69812   1
   8   8  12 4.95532 3.33717   2
 -12   9  12 28.5209 3.54784   1
 -12   9  12 3.59147 2.99356   2
 -11   9  12 126.510 5.75213   1
 -11   9  12 12.6341 3.97042   2
 -10   9  12 5.26470 2.04238   1
 -10   9  12 2.40369 3.15267   2
  -9   9  12 145.272 4.95075   1
  -9   9  12 8.81826 2.15838   2
  -8   9  12 2.93105 1.41699   2
  -8   9  12 49.3448 3.66294   1
  -7   9  12 2.91672 1.41231   2
  -7   9  12 15.2762 1.73750   1
  -6   9  12 23.2861 1.64701   1
  -6   9  12 -1.0369 1.20687   2
  -5   9  12 185.807 3.98798   1
  -5   9  12 9.05246 1.30404   2
  -4   9  12 0.30291 0.87321   2
  -4   9  12 28.1084 1.46317   1
  -3   9  12 18.5329 1.20419   2
  -3   9  12 309.907 6.63937   1
  -2   9  12 4.26022 0.81312   2
  -2   9  12 75.9004 2.31464   1
  -1   9  12 174.875 4.12499   1
  -1   9  12 9.60555 0.99825   2
   0   9  12 0.63298 0.79573   2
   0   9  12 21.7623 1.34492   1
   1   9  12 20.9691 1.56884   1
   1   9  12 0.73233 0.81169   2
   3   9  11 22.8503 3.92377  -2
   1   9  12 22.8503 3.92377   1
   2   9  12 7.89375 1.81163   1
   2   9  12 0.21814 0.80962   2
   4   9  11 11.2595 2.37541  -2
   2   9  12 11.2595 2.37541   1
   3   9  12 23.5034 1.37964   1
   4   9  12 47.5711 2.04869   1
   5   9  12 44.9260 2.39422   1
   5   9  12 5.77863 1.85646   2
   6   9  12 2.50043 1.67674   2
   8   9  10 14.0670 4.09475  -2
   6   9  12 14.0670 4.09475   1
   7   9  12 0.90193 1.91233   2
   9   9  10 4.26719 4.54869  -2
   7   9  12 4.26719 4.54869   1
 -11  10  12 86.0745 5.26190   1
 -11  10  12 3.19776 3.90849   2
 -10  10  12 37.0766 2.66097   1
 -10  10  12 3.34287 3.44779   2
  -9  10  12 1.98227 1.47183   2
  -9  10  12 30.8602 2.69657   1
  -8  10  12 5.98105 1.50281   2
  -8  10  12 90.0797 4.55835   1
  -7  10  12 -1.4066 1.38808   2
  -7  10  12 6.49856 1.58593   1
  -6  10  12 102.215 4.56580   1
  -6  10  12 5.52582 1.43195   2
  -5  10  12 1.36873 1.12766   2
  -5  10  12 15.7333 1.21212   1
  -4  10  12 95.2791 2.72356   1
  -4  10  12 6.89483 1.27801   2
  -3  10  12 7.02053 0.99808   2
  -3  10  12 145.027 3.59575   1
  -2  10  12 79.7748 2.44409   1
  -2  10  12 6.03321 0.96790   2
  -1  10  12 73.6789 2.31716   1
  -1  10  12 3.72933 0.90354   2
   0  10  12 22.7118 1.46261   2
   0  10  12 393.539 8.27798   1
   3  10  11 74.0015 5.28526  -2
   1  10  12 74.0015 5.28526   1
   1  10  12 68.3612 2.69043   1
   1  10  12 4.47695 0.93626   2
   2  10  12 1.04357 0.86240   2
   4  10  11 9.68972 2.54549  -2
   2  10  12 9.68972 2.54549   1
   2  10  12 1.51342 1.65459   1
   3  10  12 205.275 10.7601   1
   4  10  12 29.7312 2.48136   1
   5  10  12 43.5271 2.46454   1
   5  10  12 0.78327 4.09321   2
   6  10  12 -1.6857 1.78996   2
   8  10  10 14.2345 5.21412  -2
   6  10  12 14.2345 5.21412   1
   7  10  12 1.75090 2.74471   2
   9  10  10 2.13384 4.97148  -2
   7  10  12 2.13384 4.97148   1
 -11  11  12 -1.4029 5.08762   2
 -11  11  12 2.96076 3.03195   1
 -10  11  12 4.81410 1.96926   1
 -10  11  12 4.42794 3.90315   2
  -9  11  12 -1.0381 1.48686   2
  -9  11  12 0.19091 1.61490   1
  -8  11  12 7.03645 1.46822   2
  -8  11  12 123.730 5.49707   1
  -7  11  12 3.64335 2.87385   2
  -7  11  12 102.992 4.79888   1
  -6  11  12 21.3484 2.09505   2
  -6  11  12 402.758 12.8450   1
  -5  11  12 1.43220 1.51646   1
  -5  11  12 1.75492 1.27151   2
  -4  11  12 34.0331 2.13385   1
  -4  11  12 2.37655 1.26089   2
  -3  11  12 4.04480 1.15077   2
  -3  11  12 40.4441 1.90305   1
  -2  11  12 283.066 6.23150   1
  -2  11  12 16.4268 1.23845   2
  -1  11  12 4.22561 1.00427   2
  -1  11  12 77.0366 2.47095   1
   0  11  12 67.9595 2.31949   1
   0  11  12 5.03400 0.98542   2
   1  11  12 1.07905 0.92240   2
   3  11  11 32.4041 4.62376  -2
   1  11  12 32.4041 4.62376   1
   1  11  12 33.8102 2.70488   1
   2  11  12 -0.7239 1.01144   2
   4  11  11 8.14988 4.57130  -2
   2  11  12 8.14988 4.57130   1
   3  11  12 88.4488 3.64305   1
   4  11  12 28.6817 1.93201   1
   5  11  12 2.93295 1.50482   1
   5  11  12 -1.4349 4.40345   2
   8  11  10 17.1337 4.81038  -2
   6  11  12 17.1337 4.81038   1
   6  11  12 3.12066 1.96901   2
   7  11  12 5.20487 2.49814   1
   7  11  12 6.40890 3.13029   2
 -10  12  12 8.02360 2.18815   1
 -10  12  12 3.41957 3.93078   2
  -9  12  12 -1.6220 1.65010   2
  -9  12  12 -0.0180 1.74086   1
  -8  12  12 37.3769 3.42922   1
  -8  12  12 2.21958 1.48181   2
  -7  12  12 45.3382 3.47661   1
  -7  12  12 3.69230 1.66904   2
  -6  12  12 -0.8285 1.46205   2
  -6  12  12 7.04860 1.90274   1
  -5  12  12 174.725 13.4288   1
  -5  12  12 8.54467 1.77824   2
  -4  12  12 1.87854 1.43995   2
  -4  12  12 29.2757 2.21904   1
  -3  12  12 6.77844 1.67577   2
  -3  12  12 63.9880 2.88236   1
  -2  12  12 0.80982 1.24371   2
  -2  12  12 28.0838 2.13139   1
  -1  12  12 74.0029 2.99817   1
  -1  12  12 2.12050 1.28062   2
   0  12  12 10.7625 1.52910   2
   0  12  12 197.123 5.56435   1
   1  12  12 -1.2216 1.91422   2
   1  12  12 10.9805 2.56647   1
   2  12  12 2.60952 1.43694   2
   4  12  11 54.0645 4.48507  -2
   2  12  12 54.0645 4.48507   1
   3  12  12 136.612 4.71775   1
   5  12  11 143.899 8.61453  -2
   3  12  12 143.899 8.61453   1
   4  12  12 43.2153 2.61384   1
   5  12  12 172.062 5.78633   1
   5  12  12 6.58156 5.04944   2
   8  12  10 125.143 7.84182  -2
   6  12  12 125.143 7.84182   1
   6  12  12 6.35438 2.18028   2
 -10  13  12 41.2806 3.06770   1
 -10  13  12 6.53753 5.23090   2
  -9  13  12 52.2919 3.05811   1
  -9  13  12 3.89622 1.81464   2
  -8  13  12 60.1719 3.51837   1
  -8  13  12 5.34935 1.62330   2
  -7  13  12 93.6940 4.89109   1
  -7  13  12 7.39763 1.60165   2
  -6  13  12 0.24454 1.51291   2
  -6  13  12 4.00002 1.93072   1
  -5  13  12 82.1238 4.43881   1
  -5  13  12 4.08406 1.60376   2
  -4  13  12 25.3438 2.06019   1
  -4  13  12 0.33190 1.64155   2
  -3  13  12 55.7978 3.09049   1
  -3  13  12 3.75763 2.53288   2
   0  13  12 -3.8475 5.14843  -2
  -2  13  12 -3.8475 5.14843   1
  -2  13  12 0.43346 3.64241   1
  -2  13  12 -1.0350 1.72663   2
  -1  13  12 4.75384 1.69927   2
  -1  13  12 101.240 4.08770   1
   0  13  12 17.5999 2.06448   1
   0  13  12 1.67599 1.75581   2
   1  13  12 -0.0506 1.38417   2
   1  13  12 2.86512 2.02466   1
   3  13  11 8.70581 4.59082  -2
   1  13  12 8.70581 4.59082   1
   4  13  11 22.9550 3.40310  -2
   2  13  12 22.9550 3.40310   1
   2  13  12 -0.2309 1.45610   2
   3  13  12 59.6290 3.38563   1
   5  13  11 57.3777 7.18799  -2
   3  13  12 57.3777 7.18799   1
   4  13  12 235.817 5.89761   1
   5  13  12 37.8116 2.95101   1
   6  13  12 5.15201 2.98794   2
  -9  14  12 2.74429 2.00633   2
  -9  14  12 3.71757 2.06171   1
  -8  14  12 0.75884 2.02996   1
  -8  14  12 1.96816 1.60535   2
  -7  14  12 26.5985 2.81209   1
  -7  14  12 2.31828 1.53011   2
  -6  14  12 9.15685 1.72321   2
  -6  14  12 127.612 5.97821   1
  -5  14  12 3.90462 1.97954   1
  -5  14  12 0.96378 1.52826   2
  -4  14  12 23.5192 2.51848   1
  -4  14  12 5.98159 1.92534   2
  -3  14  12 14.9630 2.55137   1
  -1  14  12 14.0187 5.16520  -2
  -3  14  12 14.0187 5.16520   1
  -3  14  12 1.12206 1.84684   2
  -2  14  12 105.215 5.15499   1
  -2  14  12 6.41794 1.64624   2
  -1  14  12 -0.4280 2.26794   2
  -1  14  12 45.1808 2.78988   1
   0  14  12 4.07008 2.03050   2
   0  14  12 93.2327 3.69613   1
   1  14  12 -0.5075 1.48447   2
   3  14  11 15.7880 4.52856  -2
   1  14  12 15.7880 4.52856   1
   2  14  12 -0.1211 1.59898   2
   4  14  11 36.0555 3.87129  -2
   2  14  12 36.0555 3.87129   1
   5  14  11 114.915 8.73768  -2
   3  14  12 114.915 8.73768   1
   3  14  12 121.323 5.86527   1
   4  14  12 2.44192 2.08947   1
   5  14  12 69.4644 4.15955   1
  -8  15  12 -2.7843 1.82972   2
  -8  15  12 3.91389 2.25386   1
  -7  15  12 2.95229 1.68715   2
  -7  15  12 46.5901 3.39898   1
  -6  15  12 162.699 5.79257   1
  -6  15  12 11.1081 1.88678   2
  -5  15  12 20.6835 2.81658   1
  -5  15  12 0.87083 1.73162   2
  -4  15  12 40.6111 3.61167   1
  -4  15  12 4.94419 1.96580   2
  -3  15  12 26.8056 2.99050   1
  -3  15  12 2.87450 1.96887   2
  -1  15  12 40.9653 5.78389  -2
  -3  15  12 40.9653 5.78389   1
  -2  15  12 2.78589 2.08590   2
  -2  15  12 75.8836 4.64261   1
   0  15  12 76.4644 7.20442  -2
  -2  15  12 76.4644 7.20442   1
  -1  15  12 133.884 4.57883   1
  -1  15  12 6.32661 2.53648   2
   0  15  12 4.33062 1.68505   1
   0  15  12 3.09478 2.33648   2
   1  15  12 10.6610 1.91447   2
   3  15  11 155.074 5.89521  -2
   1  15  12 155.074 5.89521   1
   2  15  12 1.36289 1.77485   2
   4  15  11 3.84709 3.82981  -2
   2  15  12 3.84709 3.82981   1
   3  15  12 5.51889 3.03019   1
   5  15  11 3.31484 6.45281  -2
   3  15  12 3.31484 6.45281   1
   4  15  12 193.032 6.46475   1
  -7  16  12 19.0950 2.27958   2
  -7  16  12 177.872 6.32783   1
  -6  16  12 -1.2870 2.05157   2
  -6  16  12 2.91856 2.44397   1
  -5  16  12 15.6047 2.33079   2
  -5  16  12 185.143 7.69388   1
  -4  16  12 33.8988 3.71795   1
  -4  16  12 1.66634 2.39397   2
  -1  16  12 69.4123 6.19236  -2
  -3  16  12 69.4123 6.19236   1
  -3  16  12 4.35597 2.23136   2
  -2  16  12 0.95181 2.21266   2
  -2  16  12 1.43546 2.47787   1
   0  16  12 9.29053 5.91792  -2
  -2  16  12 9.29053 5.91792   1
  -1  16  12 173.675 5.54073   1
   0  16  12 7.64457 2.64597   2
   0  16  12 61.9197 3.44166   1
   3  16  11 2.12802 4.34885  -2
   1  16  12 2.12802 4.34885   1
   1  16  12 1.52746 1.99474   2
   2  16  12 -0.2341 2.03678   2
   4  16  11 9.93071 4.27814  -2
   2  16  12 9.93071 4.27814   1
   3  16  12 10.1057 6.23467   1
  -6  17  12 15.4027 2.93031   1
  -6  17  12 0.25250 2.85440   2
  -5  17  12 5.27900 2.59910   1
  -5  17  12 -2.8671 2.52989   2
  -4  17  12 1.25934 2.53307   1
  -4  17  12 -2.2811 2.48274   2
  -3  17  12 -2.2273 2.39912   2
  -1  17  12 30.0773 6.14166  -2
  -3  17  12 30.0773 6.14166   1
   0  17  12 17.2546 7.06258  -2
  -2  17  12 17.2546 7.06258   1
  -2  17  12 2.17364 2.44514   2
  -2  17  12 17.6772 3.13004   1
  -1  17  12 281.916 7.89955   1
   0  17  12 2.49717 2.08910   1
   0  17  12 1.38251 2.91889   2
   1  17  12 2.08557 2.27794   2
   3  17  11 88.0121 5.63564  -2
   1  17  12 88.0121 5.63564   1
   2  17  12 74.5043 5.39773   1
   2  17  12 3.41651 2.31263   2
  -4  18  12 -1.8189 2.48344   2
  -4  18  12 68.0102 4.90407   1
  -1  18  12 29.8476 6.68466  -2
  -3  18  12 29.8476 6.68466   1
  -3  18  12 3.83600 2.84235   2
  -2  18  12 3.95029 2.99211   2
  -2  18  12 97.7149 11.8902   1
  -1  18  12 1.75632 2.31776   1
   0  18  12 17.6259 2.56418   1
   0  18  12 -8.9771 5.94147   2
 -12   0  13 -6.2420 2.83442   2
 -12   0  13 8.08576 3.90920   1
 -11   0  13 307.916 11.0411   1
 -11   0  13 19.9545 2.85455   2
 -10   0  13 0.81208 4.27540   1
 -10   0  13 1.42131 2.72378   2
  -9   0  13 19.4224 3.27951   2
  -9   0  13 357.373 11.9297   1
  -8   0  13 0.60662 2.19235   2
  -8   0  13 2.21439 1.31467   1
  -7   0  13 0.95146 1.24495   2
  -7   0  13 28.5198 2.44262   1
  -6   0  13 1.53954 1.09001   2
  -6   0  13 0.41010 1.34247   1
  -5   0  13 -1.0459 1.13924   2
  -5   0  13 2.32882 1.20418   1
  -2   0  13 -0.7072 2.36465  -2
  -4   0  13 -0.7072 2.36465   1
  -4   0  13 0.43530 1.08201   2
  -4   0  13 -1.1964 2.47796   1
  -3   0  13 17.4123 1.84217   2
  -1   0  13 393.982 12.2689  -2
  -3   0  13 393.982 12.2689   1
  -2   0  13 -0.2485 2.79321   2
  -2   0  13 0.66994 1.05456   1
  -1   0  13 262.209 6.59657   1
   0   0  13 1.75066 0.81817   1
   0   0  13 -0.5746 1.02495   2
   1   0  13 0.96232 0.85660   2
   3   0  12 36.6544 2.22435  -2
   1   0  13 36.6544 2.22435   1
   2   0  13 -0.2589 0.84874   2
   4   0  12 1.19976 1.81916  -2
   2   0  13 1.19976 1.81916   1
   5   0  12 6.86904 3.24914  -2
   3   0  13 6.86904 3.24914   1
   3   0  13 2.72490 1.45416   1
   4   0  13 -1.2385 1.07398   1
   5   0  13 19.9682 1.87867   2
   5   0  13 453.659 18.4365   1
   6   0  13 1.24143 1.42978   2
   8   0  11 1.11886 3.12103  -2
   6   0  13 1.11886 3.12103   1
   7   0  13 -0.0909 1.67426   2
   9   0  11 21.1419 6.26534  -2
   7   0  13 21.1419 6.26534   1
   8   0  13 -0.8931 2.05448   2
   8   0  13 -2.3224 3.02834   1
 -12   1  13 5.42423 2.22143   2
 -12   1  13 82.0738 4.71206   1
 -11   1  13 46.1419 3.01628   1
 -11   1  13 3.04561 1.75351   2
 -10   1  13 43.3586 2.93345   1
 -10   1  13 4.18476 2.16510   2
  -9   1  13 17.2155 2.21766   1
  -9   1  13 1.03219 1.97455   2
  -8   1  13 2.74717 1.53081   2
  -8   1  13 16.8482 1.17014   1
  -7   1  13 1.52224 0.90239   1
  -7   1  13 0.98588 0.85004   2
  -6   1  13 0.24657 0.77397   2
  -6   1  13 21.9131 1.50607   1
  -5   1  13 36.0250 1.72678   1
  -5   1  13 1.98484 0.84147   2
  -4   1  13 6.76717 0.93736   2
  -2   1  13 128.858 4.44770  -2
  -4   1  13 128.858 4.44770   1
  -4   1  13 118.566 5.51411   1
  -3   1  13 0.05262 0.73290   2
  -1   1  13 33.3908 1.95803  -2
  -3   1  13 33.3908 1.95803   1
  -2   1  13 5.01163 1.20005   2
  -2   1  13 90.4892 2.28416   1
   0   1  13 100.288 5.29428  -2
  -2   1  13 100.288 5.29428   1
  -1   1  13 442.114 7.45711   1
   0   1  13 216.508 3.97798   1
   0   1  13 11.2466 0.90657   2
   1   1  13 6.30844 0.71769   2
   3   1  12 128.267 2.81103  -2
   1   1  13 128.267 2.81103   1
   4   1  12 49.9102 2.03254  -2
   2   1  13 49.9102 2.03254   1
   2   1  13 3.13975 0.66906   2
   3   1  13 494.215 9.20168   1
   5   1  12 501.415 20.2116  -2
   3   1  13 501.415 20.2116   1
   4   1  13 63.3011 1.99941   1
   5   1  13 11.1047 1.11766   2
   5   1  13 228.880 6.23930   1
   6   1  13 0.22067 1.01107   2
   8   1  11 0.57027 3.41711  -2
   6   1  13 0.57027 3.41711   1
   9   1  11 36.5540 3.71227  -2
   7   1  13 36.5540 3.71227   1
   7   1  13 1.53327 1.20246   2
   8   1  13 3.82404 1.55134   2
   8   1  13 75.1381 6.30410   1
 -12   2  13 16.3669 3.45139   1
 -12   2  13 4.13346 2.22091   2
 -11   2  13 -1.1224 1.73126   2
 -11   2  13 6.76365 2.81733   1
 -10   2  13 126.393 4.52800   1
 -10   2  13 10.2827 2.55468   2
  -9   2  13 17.6704 1.64689   1
  -9   2  13 3.00854 2.08681   2
  -8   2  13 70.5852 2.13540   1
  -8   2  13 4.93018 1.62010   2
  -7   2  13 0.49508 1.03927   2
  -7   2  13 4.32030 0.94813   1
  -6   2  13 42.0539 1.71821   2
  -6   2  13 815.155 16.9223   1
  -5   2  13 0.43159 0.75481   2
  -5   2  13 4.85456 0.91910   1
  -4   2  13 3.91655 0.89625   2
  -2   2  13 88.1302 4.92889  -2
  -4   2  13 88.1302 4.92889   1
  -4   2  13 83.8103 2.57787   1
  -3   2  13 1.19166 0.79647   2
  -1   2  13 23.9441 1.59649  -2
  -3   2  13 23.9441 1.59649   1
  -2   2  13 3.94329 0.83417   2
  -2   2  13 52.1003 1.97142   1
   0   2  13 53.3458 3.98394  -2
  -2   2  13 53.3458 3.98394   1
  -1   2  13 3.21946 0.60801   1
   0   2  13 41.7461 1.39304   1
   0   2  13 1.34704 0.79994   2
   1   2  13 2.38618 0.64774   2
   3   2  12 51.5548 1.98765  -2
   1   2  13 51.5548 1.98765   1
   4   2  12 5.42426 1.50972  -2
   2   2  13 5.42426 1.50972   1
   2   2  13 0.20641 0.71847   2
   3   2  13 8.25770 1.04368   1
   5   2  12 10.2471 3.32053  -2
   3   2  13 10.2471 3.32053   1
   4   2  13 18.0859 1.13070   1
   5   2  13 2.74841 0.93666   2
   5   2  13 16.4727 1.57189   1
   6   2  13 -0.2194 0.96834   2
   8   2  11 11.3379 2.73689  -2
   6   2  13 11.3379 2.73689   1
   9   2  11 9.18044 4.36625  -2
   7   2  13 9.18044 4.36625   1
   7   2  13 -0.4293 1.44416   2
   8   2  13 143.890 8.13181   1
   8   2  13 8.41823 1.91094   2
 -12   3  13 6.94375 2.93746   2
 -12   3  13 131.016 5.40654   1
 -11   3  13 1.72201 1.76975   2
 -11   3  13 0.38323 2.69447   1
 -10   3  13 1.51997 2.41615   2
 -10   3  13 12.8265 2.60260   1
  -9   3  13 0.24007 2.05075   2
  -9   3  13 3.49087 1.58509   1
  -8   3  13 198.424 5.02972   1
  -8   3  13 12.2110 1.32639   2
  -7   3  13 144.359 3.38704   1
  -7   3  13 9.00314 1.19024   2
  -6   3  13 -0.4191 0.83732   2
  -6   3  13 8.84642 0.99314   1
  -5   3  13 91.5324 2.75699   1
  -5   3  13 4.00377 0.85599   2
  -2   3  13 379.469 15.4557  -2
  -4   3  13 379.469 15.4557   1
  -4   3  13 21.6244 1.28306   2
  -4   3  13 379.409 8.19717   1
  -1   3  13 22.5725 1.63201  -2
  -3   3  13 22.5725 1.63201   1
  -3   3  13 1.25317 0.69316   2
  -2   3  13 44.4626 1.81698   1
  -2   3  13 2.84028 0.87153   2
   0   3  13 60.4187 4.24597  -2
  -2   3  13 60.4187 4.24597   1
  -1   3  13 17.2277 1.07771   1
   0   3  13 236.293 4.77037   1
   0   3  13 13.1272 1.16883   2
   3   3  12 10.0969 1.50038  -2
   1   3  13 10.0969 1.50038   1
   1   3  13 0.78462 0.68086   2
   2   3  13 0.40201 0.90890   2
   4   3  12 21.5010 1.76881  -2
   2   3  13 21.5010 1.76881   1
   3   3  13 62.1539 2.17129   1
   5   3  12 86.1196 5.29509  -2
   3   3  13 86.1196 5.29509   1
   4   3  13 45.2355 1.73949   1
   5   3  13 1.25995 0.99614   2
   5   3  13 7.71205 1.50651   1
   6   3  13 0.45676 1.15017   2
   8   3  11 9.39375 2.77542  -2
   6   3  13 9.39375 2.77542   1
   9   3  11 6.09213 6.19983  -2
   7   3  13 6.09213 6.19983   1
   7   3  13 4.58963 1.49272   2
   8   3  13 4.17191 1.81636   2
   8   3  13 137.713 6.02252   1
 -12   4  13 2.88160 2.97093   2
 -12   4  13 6.03008 2.74277   1
 -11   4  13 12.1698 2.28898   2
 -11   4  13 123.447 5.78612   1
 -10   4  13 7.44039 2.61926   2
 -10   4  13 73.2317 4.42655   1
  -9   4  13 4.02901 2.27426   2
  -9   4  13 106.884 4.81768   1
  -8   4  13 0.39857 1.15129   2
  -8   4  13 3.88046 2.62044   1
  -6   4  14 1.26252 4.29026  -2
  -8   4  13 1.26252 4.29026   1
  -7   4  13 0.04258 1.02957   2
  -7   4  13 3.78927 1.04097   1
  -6   4  13 82.9114 2.69029   1
  -6   4  13 5.11462 0.92870   2
  -5   4  13 35.8963 1.54949   1
  -5   4  13 3.72948 0.84875   2
  -4   4  13 17.0131 1.59864   1
  -2   4  13 28.2671 2.37482  -2
  -4   4  13 28.2671 2.37482   1
  -4   4  13 0.94425 0.76742   2
  -1   4  13 134.420 3.31665  -2
  -3   4  13 134.420 3.31665   1
  -3   4  13 5.30773 0.81626   2
  -2   4  13 10.2105 1.37227   2
   0   4  13 221.179 5.97720  -2
  -2   4  13 221.179 5.97720   1
  -2   4  13 215.093 7.12069   1
  -1   4  13 358.960 6.86443   1
   0   4  13 3.10825 1.16338   2
   0   4  13 25.2881 1.27592   1
   1   4  13 1.52228 0.74028   2
   3   4  12 28.2667 1.80134  -2
   1   4  13 28.2667 1.80134   1
   2   4  13 1.26532 0.75837   2
   4   4  12 12.8315 1.66586  -2
   2   4  13 12.8315 1.66586   1
   3   4  13 2.50926 1.05060   1
   5   4  12 5.77288 3.53916  -2
   3   4  13 5.77288 3.53916   1
   4   4  13 60.4799 2.33135   1
   5   4  13 11.7099 1.35894   2
   5   4  13 232.240 6.20391   1
   8   4  11 67.2390 4.08670  -2
   6   4  13 67.2390 4.08670   1
   6   4  13 1.84743 1.22012   2
   7   4  13 -1.7344 1.46519   2
   9   4  11 19.0720 5.75173  -2
   7   4  13 19.0720 5.75173   1
   8   4  13 5.55253 2.80664   1
   8   4  13 1.44624 1.76829   2
 -12   5  13 23.9471 3.42903   1
 -12   5  13 0.87913 3.04878   2
 -11   5  13 75.5646 4.97375   1
 -11   5  13 3.53802 2.67531   2
 -10   5  13 7.46074 2.41787   2
 -10   5  13 144.120 5.83499   1
  -9   5  13 17.7169 1.78960   1
  -9   5  13 2.73363 2.19417   2
  -8   5  13 142.425 7.09009   1
  -6   5  14 142.340 7.46399  -2
  -8   5  13 142.340 7.46399   1
  -8   5  13 10.5871 1.49964   2
  -7   5  13 6.77255 1.14488   1
  -7   5  13 0.46670 1.14936   2
  -6   5  13 29.2160 1.73712   1
  -6   5  13 -0.3288 1.23347   2
  -5   5  13 0.84083 0.87923   2
  -5   5  13 3.06622 0.80531   1
  -2   5  13 36.1389 3.50436  -2
  -4   5  13 36.1389 3.50436   1
  -4   5  13 2.69456 0.78763   2
  -4   5  13 34.9473 1.78342   1
  -3   5  13 1.97817 0.75174   2
  -1   5  13 33.2399 1.91055  -2
  -3   5  13 33.2399 1.91055   1
  -3   5  13 21.6210 3.84180   1
  -2   5  13 7.50282 1.05130   2
  -2   5  13 143.803 4.06892   1
   0   5  13 140.768 5.60011  -2
  -2   5  13 140.768 5.60011   1
  -1   5  13 183.975 3.89794   1
  -1   5  13 8.25932 3.24709   2
   0   5  13 50.0935 1.82753   1
   0   5  13 4.02344 1.00424   2
   1   5  13 4.99682 0.82174   2
   3   5  12 85.6366 2.66803  -2
   1   5  13 85.6366 2.66803   1
   2   5  13 1.14201 1.00720   2
   4   5  12 37.8358 2.06426  -2
   2   5  13 37.8358 2.06426   1
   3   5  13 279.753 7.21732   1
   5   5  12 292.992 12.6506  -2
   3   5  13 292.992 12.6506   1
   4   5  13 99.6388 3.99282   1
   5   5  13 2.68842 1.12807   2
   5   5  13 31.6293 2.10873   1
   7   5  11 46.3852 5.17757  -2
   5   5  13 46.3852 5.17757   1
   6   5  13 -0.6238 1.24291   2
   8   5  11 22.2834 3.73253  -2
   6   5  13 22.2834 3.73253   1
   7   5  13 0.74732 1.50036   2
   9   5  11 56.9439 6.38226  -2
   7   5  13 56.9439 6.38226   1
   8   5  13 2.19217 1.74951   2
   8   5  13 10.4817 2.81521   1
 -12   6  13 -0.8151 3.10455   2
 -12   6  13 3.45767 3.15471   1
 -11   6  13 -0.6015 2.53554   2
 -11   6  13 -1.1009 3.40018   1
 -10   6  13 40.1667 3.35701   1
 -10   6  13 -2.0180 2.18287   2
  -9   6  13 6.60528 1.76390   1
  -9   6  13 0.38306 2.24268   2
  -8   6  13 1.01269 1.46521   2
  -6   6  14 15.0299 4.56430  -2
  -8   6  13 15.0299 4.56430   1
  -8   6  13 8.95513 4.32500   1
  -7   6  13 1.20738 1.17848   1
  -7   6  13 1.97984 1.32495   2
  -6   6  13 15.5364 1.67839   2
  -6   6  13 298.299 6.84058   1
  -5   6  13 -0.2240 0.89896   2
  -5   6  13 3.89358 0.86431   1
  -4   6  13 3.00236 0.81908   2
  -4   6  13 54.5288 2.17928   1
  -2   6  13 58.2655 4.22544  -2
  -4   6  13 58.2655 4.22544   1
  -3   6  13 2.97268 0.80131   2
  -1   6  13 45.2250 2.13935  -2
  -3   6  13 45.2250 2.13935   1
  -3   6  13 35.1420 5.24824   1
   0   6  13 36.0880 2.46331  -2
  -2   6  13 36.0880 2.46331   1
  -2   6  13 0.68141 0.92281   2
  -2   6  13 31.5962 2.26875   1
  -1   6  13 -1.3070 3.05522   2
  -1   6  13 3.37505 0.78243   1
   0   6  13 119.841 3.10253   1
   0   6  13 6.60133 1.43013   2
   3   6  12 528.867 10.8913  -2
   1   6  13 528.867 10.8913   1
   1   6  13 29.7228 1.65444   2
   2   6  13 1.17274 1.01374   2
   4   6  12 41.5497 2.10380  -2
   2   6  13 41.5497 2.10380   1
   5   6  12 147.755 7.71930  -2
   3   6  13 147.755 7.71930   1
   3   6  13 143.972 5.66514   1
   4   6  13 167.999 3.95095   1
   5   6  13 111.810 3.53682   1
   5   6  13 8.28219 1.29482   2
   6   6  13 -0.1033 1.29370   2
   8   6  11 2.19486 3.72987  -2
   6   6  13 2.19486 3.72987   1
   9   6  11 44.5475 6.41931  -2
   7   6  13 44.5475 6.41931   1
   7   6  13 1.43168 1.53875   2
 -12   7  13 27.5214 4.85912   1
 -12   7  13 -1.5534 3.93212   2
 -11   7  13 2.40139 2.79779   2
 -11   7  13 73.4450 6.44487   1
 -10   7  13 22.3387 2.38759   1
 -10   7  13 2.16481 2.42221   2
  -9   7  13 2.29367 2.73936   2
  -9   7  13 18.3668 1.87758   1
  -8   7  13 107.565 6.66962   1
  -8   7  13 3.96916 1.62349   2
  -6   7  14 115.637 6.71797  -2
  -8   7  13 115.637 6.71797   1
  -7   7  13 229.452 6.82114   1
  -7   7  13 13.7218 1.81908   2
  -6   7  13 24.2024 1.73425   1
  -6   7  13 2.59560 1.38453   2
  -5   7  13 14.6061 1.37884   2
  -5   7  13 278.201 5.57914   1
  -4   7  13 236.792 5.54217   1
  -4   7  13 13.5212 1.08952   2
  -2   7  13 239.676 10.4445  -2
  -4   7  13 239.676 10.4445   1
  -3   7  13 0.50857 0.77108   2
  -1   7  13 22.1708 1.95888  -2
  -3   7  13 22.1708 1.95888   1
  -3   7  13 29.1613 4.18201   1
   0   7  13 45.7402 2.89208  -2
  -2   7  13 45.7402 2.89208   1
  -2   7  13 3.96005 1.02746   2
  -2   7  13 43.0324 2.71183   1
  -1   7  13 6.19840 0.87497   1
  -1   7  13 2.18556 3.23944   2
   0   7  13 4.43619 1.32715   2
   0   7  13 78.8081 2.36403   1
   1   7  13 0.86853 0.80482   2
   3   7  12 12.9428 1.80722  -2
   1   7  13 12.9428 1.80722   1
   4   7  12 1.46291 1.82088  -2
   2   7  13 1.46291 1.82088   1
   2   7  13 -2.0827 0.98553   2
   3   7  13 18.7361 2.07640   1
   4   7  13 59.3022 2.31419   1
   5   7  13 2.11674 1.20065   2
   5   7  13 7.25291 1.48621   1
   6   7  13 0.88685 1.37546   2
   8   7  11 -1.1932 4.79905  -2
   6   7  13 -1.1932 4.79905   1
   9   7  11 132.101 8.25402  -2
   7   7  13 132.101 8.25402   1
   7   7  13 5.15978 1.68668   2
 -11   8  13 4.65149 3.01987   2
 -11   8  13 127.148 5.94977   1
 -10   8  13 104.937 4.52679   1
 -10   8  13 5.56136 2.65959   2
  -9   8  13 3.17390 1.75972   2
  -9   8  13 0.85788 1.60385   1
  -8   8  13 1.48909 1.60920   2
  -8   8  13 5.00081 3.85185   1
  -7   8  13 2.18919 1.57826   2
  -7   8  13 1.54693 1.53898   1
  -6   8  13 5.64113 1.60697   2
  -6   8  13 137.673 3.84823   1
  -5   8  13 6.21685 1.45067   2
  -5   8  13 98.1172 2.67271   1
  -4   8  13 6.15147 1.10439   2
  -4   8  13 116.335 3.35413   1
  -2   8  13 132.798 6.79873  -2
  -4   8  13 132.798 6.79873   1
  -3   8  13 1.50191 0.80087   2
  -1   8  13 3.41777 1.84086  -2
  -3   8  13 3.41777 1.84086   1
  -2   8  13 293.935 12.2648   1
  -2   8  13 17.4323 1.40131   2
   0   8  13 311.878 8.09020  -2
  -2   8  13 311.878 8.09020   1
  -1   8  13 138.859 3.50069   1
   0   8  13 1.87041 0.81645   1
   0   8  13 -1.0331 1.34916   2
   1   8  13 3.79924 0.94918   2
   3   8  12 106.251 3.18912  -2
   1   8  13 106.251 3.18912   1
   2   8  13 1.10019 1.14836   2
   4   8  12 28.0359 3.38434  -2
   2   8  13 28.0359 3.38434   1
   3   8  13 60.5824 3.22555   1
   5   8  12 61.4140 5.41190  -2
   3   8  13 61.4140 5.41190   1
   4   8  13 38.4821 1.99697   1
   5   8  13 0.95684 1.23958   2
   5   8  13 21.8374 1.86569   1
   8   8  11 182.141 8.13568  -2
   6   8  13 182.141 8.13568   1
   6   8  13 9.93029 1.59019   2
   7   8  13 0.72976 2.02921   2
   9   8  11 31.8289 6.90116  -2
   7   8  13 31.8289 6.90116   1
 -11   9  13 1.57933 2.88568   1
 -11   9  13 -0.1999 3.00416   2
 -10   9  13 8.93968 2.79380   2
 -10   9  13 126.655 5.11476   1
  -9   9  13 1.44671 1.67182   2
  -9   9  13 48.6259 3.10572   1
  -8   9  13 19.3569 2.16190   2
  -6   9  14 325.173 14.0369  -2
  -8   9  13 325.173 14.0369   1
  -8   9  13 324.601 18.0905   1
  -7   9  13 0.45195 1.69842   2
  -7   9  13 19.0352 2.32673   1
  -6   9  13 0.05563 1.51478   2
  -6   9  13 -0.1606 1.08646   1
  -5   9  13 15.6909 1.21418   1
  -5   9  13 0.25718 1.39858   2
  -4   9  13 16.6321 1.43135   2
  -4   9  13 282.607 7.26238   1
  -2   9  13 298.055 12.8192  -2
  -4   9  13 298.055 12.8192   1
  -3   9  13 5.38155 0.99447   2
  -1   9  13 120.421 3.51954  -2
  -3   9  13 120.421 3.51954   1
   0   9  13 119.438 4.27071  -2
  -2   9  13 119.438 4.27071   1
  -2   9  13 6.65313 1.67274   2
  -2   9  13 122.086 6.06215   1
  -1   9  13 55.8549 2.09323   1
   0   9  13 -0.4429 0.82811   1
   0   9  13 -1.4397 1.56088   2
   1   9  13 3.34702 0.98247   2
   3   9  12 61.7032 3.16943  -2
   1   9  13 61.7032 3.16943   1
   2   9  13 -0.2251 2.15315   2
   5   9  12 66.8086 4.06956  -2
   3   9  13 66.8086 4.06956   1
   3   9  13 64.6896 3.85497   1
   4   9  13 22.4912 1.78589   1
   5   9  13 1.93481 1.58703   1
   5   9  13 0.02824 1.33254   2
   8   9  11 71.6808 6.25471  -2
   6   9  13 71.6808 6.25471   1
   6   9  13 2.18394 2.01213   2
 -10  10  13 6.22385 2.14975   1
 -10  10  13 1.20477 2.77138   2
  -9  10  13 26.2815 2.80427   1
  -9  10  13 4.18813 1.89319   2
  -6  10  14 23.1276 5.01742  -2
  -8  10  13 23.1276 5.01742   1
  -8  10  13 6.32695 5.40715   1
  -8  10  13 -1.1627 1.74931   2
  -7  10  13 4.42674 1.85658   2
  -7  10  13 30.9371 2.96843   1
  -6  10  13 1.93320 1.59504   1
  -6  10  13 0.06070 2.29604   2
  -5  10  13 17.1991 1.78431   1
  -5  10  13 0.94289 1.51019   2
  -4  10  13 10.9958 1.49427   1
  -4  10  13 -0.1675 1.44163   2
  -2  10  13 19.1177 3.86216  -2
  -4  10  13 19.1177 3.86216   1
  -3  10  13 -0.1219 1.79815   1
  -1  10  13 -2.9751 2.38972  -2
  -3  10  13 -2.9751 2.38972   1
  -3  10  13 2.56206 0.99497   2
   0  10  13 119.116 4.37942  -2
  -2  10  13 119.116 4.37942   1
  -2  10  13 7.08222 1.38280   2
  -2  10  13 113.921 5.85097   1
  -1  10  13 2.82745 1.00078   1
  -1  10  13 0.44025 1.67524   2
   0  10  13 8.56776 1.98692   2
   0  10  13 119.409 3.28351   1
   1  10  13 18.2711 1.80530   2
   2  10  13 0.80929 1.38761   2
   4  10  12 57.8781 3.33229  -2
   2  10  13 57.8781 3.33229   1
   3  10  13 89.6678 8.53540   1
   5  10  12 90.2778 4.77720  -2
   3  10  13 90.2778 4.77720   1
   4  10  13 168.098 4.62378   1
   5  10  13 42.0168 2.46184   1
   5  10  13 2.34432 1.85171   2
   6  10  13 -0.4848 2.14380   2
   8  10  11 14.7868 6.17369  -2
   6  10  13 14.7868 6.17369   1
 -10  11  13 18.7939 2.42485   1
 -10  11  13 5.14524 3.09089   2
  -9  11  13 -0.4030 1.95977   2
  -9  11  13 16.5233 2.39004   1
  -8  11  13 -0.2632 1.62076   2
  -8  11  13 23.9911 6.65984   1
  -6  11  14 33.2873 5.22998  -2
  -8  11  13 33.2873 5.22998   1
  -7  11  13 7.92940 2.02822   2
  -7  11  13 125.454 5.63902   1
  -6  11  13 -0.5673 1.63593   2
  -6  11  13 -0.6070 1.71284   1
  -5  11  13 10.6892 1.93970   2
  -5  11  13 145.851 6.01628   1
  -2  11  13 5.25826 4.70038  -2
  -4  11  13 5.25826 4.70038   1
  -3  11  13 158.768 7.53922   1
  -1  11  13 176.765 8.73586  -2
  -3  11  13 176.765 8.73586   1
  -2  11  13 55.1532 4.01815   1
  -2  11  13 4.39705 2.09343   2
   0  11  13 53.5602 5.60008  -2
  -2  11  13 53.5602 5.60008   1
  -1  11  13 51.1322 2.78286   1
  -1  11  13 4.96617 2.03319   2
   0  11  13 45.8891 2.97517   1
   0  11  13 0.14304 1.84136   2
   1  11  13 2.06335 1.18013   2
   3  11  12 46.3467 3.36361  -2
   1  11  13 46.3467 3.36361   1
   4  11  12 223.800 6.64262  -2
   2  11  13 223.800 6.64262   1
   2  11  13 8.97183 1.60802   2
   5  11  12 54.8955 4.53198  -2
   3  11  13 54.8955 4.53198   1
   3  11  13 50.8228 6.64751   1
   4  11  13 16.8780 1.89919   1
   5  11  13 -1.4875 2.12597   1
   5  11  13 1.03363 2.03990   2
   6  11  13 -3.2317 2.84587   2
  -9  12  13 8.76490 2.10032   1
  -9  12  13 -2.7973 2.04251   2
  -8  12  13 5.90178 1.81252   2
  -6  12  14 67.9629 5.90315  -2
  -8  12  13 67.9629 5.90315   1
  -7  12  13 -0.1905 1.71662   2
  -7  12  13 5.79522 2.17531   1
  -6  12  13 -1.0803 1.97986   2
  -6  12  13 -0.0283 1.91179   1
  -5  12  13 2.59970 1.72649   2
  -5  12  13 74.6157 4.36717   1
  -4  12  13 7.29561 1.99558   2
  -2  12  13 199.016 8.08293  -2
  -4  12  13 199.016 8.08293   1
  -1  12  13 57.2226 3.51510  -2
  -3  12  13 57.2226 3.51510   1
  -3  12  13 1.79844 1.82573   2
   0  12  13 127.069 6.36403  -2
  -2  12  13 127.069 6.36403   1
  -1  12  13 38.4233 2.54018   1
   0  12  13 34.0459 2.51026   1
   1  12  13 7.70089 1.67314   2
   3  12  12 166.728 5.57536  -2
   1  12  13 166.728 5.57536   1
   4  12  12 5.66993 3.21655  -2
   2  12  13 5.66993 3.21655   1
   2  12  13 2.34612 1.54371   2
   3  12  13 54.8153 8.23230   1
   5  12  12 55.9004 4.88778  -2
   3  12  13 55.9004 4.88778   1
   4  12  13 0.42231 1.94552   1
   5  12  13 2.90896 2.49645   1
   5  12  13 1.74086 2.22795   2
  -9  13  13 3.36056 2.24859   2
  -9  13  13 72.2539 3.81877   1
  -8  13  13 17.3599 2.17955   2
  -6  13  14 280.680 11.0952  -2
  -8  13  13 280.680 11.0952   1
  -8  13  13 276.697 13.6286   1
  -7  13  13 7.09152 1.98645   2
  -7  13  13 50.3589 7.79945   1
  -5  13  14 73.8347 6.70128  -2
  -7  13  13 73.8347 6.70128   1
  -6  13  13 10.2417 2.41676   1
  -6  13  13 4.54807 1.98334   2
  -5  13  13 1.79137 1.99129   2
  -5  13  13 16.7603 2.47043   1
  -4  13  13 4.16128 2.05675   2
  -2  13  13 86.6316 5.63164  -2
  -4  13  13 86.6316 5.63164   1
  -3  13  13 5.51358 1.90934   2
  -1  13  13 79.7843 5.06379  -2
  -3  13  13 79.7843 5.06379   1
   0  13  13 14.9116 3.42608  -2
  -2  13  13 14.9116 3.42608   1
  -1  13  13 40.5943 2.72003   1
   0  13  13 43.3639 2.82056   1
   1  13  13 2.04844 1.59549   2
   3  13  12 6.54978 3.48301  -2
   1  13  13 6.54978 3.48301   1
   4  13  12 170.907 5.91390  -2
   2  13  13 170.907 5.91390   1
   2  13  13 5.58773 1.83249   2
   5  13  12 2.66559 4.50118  -2
   3  13  13 2.66559 4.50118   1
   4  13  13 2.38957 2.87546   1
  -8  14  13 -0.6196 4.81565   1
  -8  14  13 0.29645 2.07637   2
  -6  14  14 19.2961 6.01868  -2
  -8  14  13 19.2961 6.01868   1
  -7  14  13 9.00067 1.98033   2
  -7  14  13 88.9819 6.75645   1
  -5  14  14 114.676 8.15616  -2
  -7  14  13 114.676 8.15616   1
  -6  14  13 4.52921 2.07144   2
  -6  14  13 30.5326 3.16486   1
  -5  14  13 9.64499 2.40267   2
  -5  14  13 152.525 6.80008   1
  -2  14  13 4.05320 4.70698  -2
  -4  14  13 4.05320 4.70698   1
  -4  14  13 3.35239 2.00002   2
  -1  14  13 52.0262 3.81579  -2
  -3  14  13 52.0262 3.81579   1
  -3  14  13 3.64924 2.21445   2
   0  14  13 88.3652 4.70773  -2
  -2  14  13 88.3652 4.70773   1
  -1  14  13 23.5825 2.18329   1
   0  14  13 32.8300 2.35482   1
   3  14  12 102.307 4.93553  -2
   1  14  13 102.307 4.93553   1
   1  14  13 4.87259 1.84883   2
   4  14  12 -1.3921 3.90376  -2
   2  14  13 -1.3921 3.90376   1
   2  14  13 1.59927 1.91045   2
   5  14  12 52.9850 5.36571  -2
   3  14  13 52.9850 5.36571   1
   4  14  13 54.8739 6.34337   1
  -5  15  14 7.23833 6.79322  -2
  -7  15  13 7.23833 6.79322   1
  -7  15  13 2.00601 2.08360   2
  -7  15  13 -0.2132 4.37037   1
  -6  15  13 5.53329 2.39413   1
  -6  15  13 -1.3388 2.08540   2
  -5  15  13 4.44906 2.19011   2
  -5  15  13 43.7775 4.17973   1
  -4  15  13 2.46768 2.00790   2
  -2  15  13 23.8694 5.51700  -2
  -4  15  13 23.8694 5.51700   1
  -1  15  13 176.299 7.90087  -2
  -3  15  13 176.299 7.90087   1
  -3  15  13 6.06084 2.50062   2
   0  15  13 10.4971 4.27885  -2
  -2  15  13 10.4971 4.27885   1
  -1  15  13 1.55623 1.94015   1
   0  15  13 127.245 4.81951   1
   1  15  13 1.02825 2.04068   2
   3  15  12 20.7621 4.35628  -2
   1  15  13 20.7621 4.35628   1
   2  15  13 14.4513 2.37563   2
   4  15  12 149.371 6.13660  -2
   2  15  13 149.371 6.13660   1
   3  15  13 12.5961 2.37133   1
   3  15  13 3.18653 2.21490   2
  -6  16  13 5.76236 2.28103   2
  -6  16  13 39.8055 4.27991   1
  -5  16  13 3.02264 2.89566   1
  -5  16  13 -1.1697 2.63792   2
  -2  16  13 181.910 9.08405  -2
  -4  16  13 181.910 9.08405   1
  -4  16  13 6.22313 2.77875   2
  -1  16  13 28.0774 5.27296  -2
  -3  16  13 28.0774 5.27296   1
  -3  16  13 0.86585 2.55099   2
   0  16  13 7.50412 6.07641  -2
  -2  16  13 7.50412 6.07641   1
  -1  16  13 5.58674 2.20561   1
   0  16  13 101.694 4.63316   1
   3  16  12 75.2763 5.36819  -2
   1  16  13 75.2763 5.36819   1
   1  16  13 3.17926 2.43412   2
  -3  17  13 2.34812 2.88938   2
  -1  17  13 80.2585 7.26343  -2
  -3  17  13 80.2585 7.26343   1
  -2  17  13 15.3417 3.30804   1
  -2  17  13 3.93669 3.04509   2
  -1  17  13 68.2322 4.29043   1
 -12   0  14 6.37615 3.46126   2
 -12   0  14 119.411 12.8072   1
 -11   0  14 -0.1518 3.64769   1
 -11   0  14 -0.5901 2.92262   2
 -10   0  14 8.06137 3.26462   2
 -10   0  14 80.1564 6.05327   1
  -9   0  14 -1.7343 3.09083   2
  -7   0  15 25.4640 9.48242  -2
  -9   0  14 25.4640 9.48242   1
  -8   0  14 25.8734 3.92053   2
  -6   0  15 551.218 15.5800  -2
  -8   0  14 551.218 15.5800   1
  -7   0  14 1.49342 1.35341   2
  -5   0  15 18.6995 4.32562  -2
  -7   0  14 18.6995 4.32562   1
  -7   0  14 1.40120 2.21116   1
  -6   0  14 1.07399 1.29399   2
  -6   0  14 10.1365 1.66604   1
  -5   0  14 0.00260 1.31478   2
  -5   0  14 6.84176 3.51284   1
  -2   0  14 7.78349 2.46016  -2
  -4   0  14 7.78349 2.46016   1
  -4   0  14 -0.5477 1.31622   2
  -3   0  14 -0.8119 1.20049   2
  -1   0  14 0.25898 2.17867  -2
  -3   0  14 0.25898 2.17867   1
   0   0  14 49.7069 3.49159  -2
  -2   0  14 49.7069 3.49159   1
  -1   0  14 -0.4642 0.86600   1
   0   0  14 38.9302 2.05306   1
   3   0  13 0.44274 1.96500  -2
   1   0  14 0.44274 1.96500   1
   1   0  14 0.21262 0.93914   2
   2   0  14 0.72699 0.99708   2
   4   0  13 7.94981 2.40356  -2
   2   0  14 7.94981 2.40356   1
   3   0  14 0.26430 1.60675   1
   3   0  14 2.04507 2.26242   2
   4   0  14 19.0627 1.85598   1
   4   0  14 0.52989 1.21874   2
   5   0  14 -0.9759 1.48066   1
   5   0  14 -0.2164 2.05362   2
   6   0  14 15.8232 2.04030   2
   6   0  14 318.032 9.62073   1
   7   0  14 -1.4699 1.97967   2
   7   0  14 0.95204 2.18465   1
 -12   1  14 3.62805 3.66968   1
 -12   1  14 3.10199 2.52383   2
 -11   1  14 2.05357 3.18762   1
 -11   1  14 -3.0566 2.01012   2
 -10   1  14 97.1765 4.60506   1
 -10   1  14 7.25520 2.32504   2
  -7   1  15 53.0669 5.32617  -2
  -9   1  14 53.0669 5.32617   1
  -9   1  14 3.37424 2.42786   2
  -8   1  14 1.17127 1.99696   2
  -6   1  15 23.5165 2.60706  -2
  -8   1  14 23.5165 2.60706   1
  -7   1  14 0.79280 1.20167   2
  -7   1  14 12.1410 2.11999   1
  -5   1  15 27.7602 3.25150  -2
  -7   1  14 27.7602 3.25150   1
  -6   1  14 13.8955 1.11298   2
  -6   1  14 202.996 5.01621   1
  -5   1  14 -0.4464 0.90531   2
  -5   1  14 20.1849 1.44665   1
  -4   1  14 5.42958 1.03023   2
  -2   1  14 115.467 3.38925  -2
  -4   1  14 115.467 3.38925   1
  -3   1  14 10.3608 1.12841   2
  -1   1  14 218.457 5.32915  -2
  -3   1  14 218.457 5.32915   1
   0   1  14 54.6273 2.56548  -2
  -2   1  14 54.6273 2.56548   1
  -1   1  14 15.9018 0.91156   1
   0   1  14 82.5208 2.06093   1
   1   1  14 13.4793 0.97658   2
   3   1  13 286.826 5.89690  -2
   1   1  14 286.826 5.89690   1
   2   1  14 3.84105 0.78559   2
   4   1  13 60.0730 2.50484  -2
   2   1  14 60.0730 2.50484   1
   3   1  14 50.7211 2.56875   1
   3   1  14 5.10977 2.47789   2
   4   1  14 40.9422 1.84987   1
   4   1  14 3.13793 0.92408   2
   5   1  14 8.34499 1.22823   1
   5   1  14 -0.6100 0.98964   2
   6   1  14 4.67666 1.30264   2
   6   1  14 103.303 3.18245   1
   7   1  14 23.6402 2.15868   1
   7   1  14 1.35118 1.67371   2
 -12   2  14 18.4925 3.95605   1
 -12   2  14 2.01612 2.57756   2
 -11   2  14 4.60231 2.04140   2
 -11   2  14 81.5811 5.61398   1
 -10   2  14 2.10340 2.61210   1
 -10   2  14 0.90249 2.20543   2
  -7   2  15 52.3573 7.04591  -2
  -9   2  14 52.3573 7.04591   1
  -9   2  14 1.48876 2.06585   2
  -8   2  14 0.19305 1.88586   2
  -6   2  15 -2.8014 2.61056  -2
  -8   2  14 -2.8014 2.61056   1
  -7   2  14 1.31372 1.22492   2
  -7   2  14 27.9918 1.92870   1
  -5   2  15 25.2902 4.02288  -2
  -7   2  14 25.2902 4.02288   1
  -6   2  14 -0.2508 0.94937   2
  -6   2  14 22.6944 1.40892   1
  -5   2  14 373.124 8.28697   1
  -5   2  14 19.1452 1.42387   2
  -4   2  14 2.33987 0.93600   2
  -2   2  14 30.3694 2.06534  -2
  -4   2  14 30.3694 2.06534   1
  -3   2  14 16.6823 1.21514   2
  -1   2  14 243.418 5.76022  -2
  -3   2  14 243.418 5.76022   1
  -2   2  14 -1.7599 3.07143   1
   0   2  14 2.71048 1.65894  -2
  -2   2  14 2.71048 1.65894   1
  -1   2  14 79.8135 2.23901   1
   0   2  14 6.45307 0.90361   1
   2   2  13 9.68573 2.88480  -2
   0   2  14 9.68573 2.88480   1
   0   2  14 -0.9293 3.30237   2
   1   2  14 2.46727 0.80109   2
   3   2  13 47.7580 2.11996  -2
   1   2  14 47.7580 2.11996   1
   2   2  14 1.35760 0.86227   2
   4   2  13 21.2214 2.49057  -2
   2   2  14 21.2214 2.49057   1
   3   2  14 13.9063 4.36426   2
   3   2  14 334.277 9.06457   1
   4   2  14 1.84092 1.12752   2
   4   2  14 39.2029 1.81817   1
   5   2  14 -0.9732 1.16021   2
   5   2  14 6.81331 1.20717   1
   6   2  14 17.4848 2.25900   1
   8   2  12 22.0487 5.56180  -2
   6   2  14 22.0487 5.56180   1
   6   2  14 1.85441 1.43447   2
   7   2  14 41.4938 2.93228   1
   7   2  14 -0.0898 1.71951   2
 -12   3  14 7.57748 3.19889   2
 -12   3  14 82.4536 6.21005   1
 -11   3  14 8.66638 3.11655   1
 -11   3  14 1.34246 2.20517   2
 -10   3  14 0.29043 2.65893   2
 -10   3  14 21.1004 3.03564   1
  -9   3  14 3.29360 2.34808   2
  -7   3  15 12.0478 5.04654  -2
  -9   3  14 12.0478 5.04654   1
  -8   3  14 0.90055 1.93727   2
  -6   3  15 14.5570 3.12621  -2
  -8   3  14 14.5570 3.12621   1
  -7   3  14 7.07746 1.75591   1
  -7   3  14 0.91139 1.21049   2
  -5   3  15 4.34015 4.27070  -2
  -7   3  14 4.34015 4.27070   1
  -6   3  14 11.3452 1.26848   1
  -6   3  14 1.60804 0.97118   2
  -5   3  14 1.18947 0.91205   2
  -5   3  14 5.31100 1.05369   1
  -4   3  14 7.56706 0.99716   2
  -2   3  14 105.394 3.36578  -2
  -4   3  14 105.394 3.36578   1
  -1   3  14 474.197 8.99057  -2
  -3   3  14 474.197 8.99057   1
  -3   3  14 21.3155 1.56635   2
   0   3  14 103.064 3.04606  -2
  -2   3  14 103.064 3.04606   1
  -2   3  14 97.6491 7.59341   1
  -1   3  14 34.1457 1.51545   1
   0   3  14 23.5843 1.61331   1
   2   3  13 24.9263 3.31501  -2
   0   3  14 24.9263 3.31501   1
   0   3  14 -0.3419 3.49148   2
   1   3  14 29.1633 1.50880   2
   3   3  13 552.081 11.3656  -2
   1   3  14 552.081 11.3656   1
   4   3  13 119.523 3.55856  -2
   2   3  14 119.523 3.55856   1
   2   3  14 7.05963 0.99512   2
   3   3  14 51.1583 2.69713   1
   3   3  14 1.04995 1.16437   2
   4   3  14 2.16310 1.20555   1
   4   3  14 1.40256 1.09017   2
   5   3  14 0.75160 1.20842   2
   5   3  14 12.1190 1.51947   1
   8   3  12 36.8684 5.54850  -2
   6   3  14 36.8684 5.54850   1
   6   3  14 3.61771 1.45505   2
   6   3  14 39.2699 3.10253   1
   7   3  14 2.77593 2.24530   1
   7   3  14 2.07770 1.76227   2
 -11   4  14 10.4997 3.08925   1
 -11   4  14 1.54943 3.73764   2
 -10   4  14 115.649 5.65018   1
 -10   4  14 8.33342 2.89323   2
  -9   4  14 3.50007 2.44995   2
  -7   4  15 12.7170 4.93415  -2
  -9   4  14 12.7170 4.93415   1
  -6   4  15 532.675 16.5137  -2
  -8   4  14 532.675 16.5137   1
  -8   4  14 28.1720 2.94127   2
  -7   4  14 5.16522 1.84700   1
  -7   4  14 0.41833 1.35434   2
  -5   4  15 9.92972 4.17019  -2
  -7   4  14 9.92972 4.17019   1
  -6   4  14 0.77615 2.49535   2
  -6   4  14 14.2737 1.30687   1
  -5   4  14 8.54600 1.19708   2
  -5   4  14 145.333 3.91893   1
  -4   4  14 -0.6272 0.91645   2
  -2   4  14 4.73186 1.80743  -2
  -4   4  14 4.73186 1.80743   1
  -1   4  14 25.7295 1.69745  -2
  -3   4  14 25.7295 1.69745   1
  -3   4  14 0.20847 0.78080   2
  -2   4  14 39.9966 5.85475   1
   0   4  14 47.4746 2.25620  -2
  -2   4  14 47.4746 2.25620   1
  -1   4  14 452.918 8.57096   1
   0   4  14 83.4007 2.51912   1
   0   4  14 2.56809 3.56412   2
   3   4  13 40.6963 2.17923  -2
   1   4  14 40.6963 2.17923   1
   1   4  14 1.92801 0.84637   2
   2   4  14 0.31132 0.93583   2
   4   4  13 16.7528 8.08756  -2
   2   4  14 16.7528 8.08756   1
   3   4  14 79.1478 2.74225   1
   3   4  14 4.73934 1.11925   2
   4   4  14 0.17955 1.03482   2
   4   4  14 0.19154 1.10771   1
   5   4  14 1.98824 1.22915   2
   5   4  14 13.1113 1.59083   1
   6   4  14 9.96701 1.58772   2
   8   4  12 178.438 10.1799  -2
   6   4  14 178.438 10.1799   1
   6   4  14 180.703 7.30431   1
   7   4  14 0.45399 1.74055   2
   7   4  14 -4.7342 3.11187   1
 -11   5  14 0.97034 3.13069   1
 -11   5  14 2.03059 2.88351   2
 -10   5  14 9.70812 2.44278   2
 -10   5  14 121.607 5.73623   1
  -7   5  15 99.0610 4.53243  -2
  -9   5  14 99.0610 4.53243   1
  -9   5  14 3.43179 2.40201   2
  -8   5  14 4.50718 1.53957   2
  -6   5  15 86.5603 10.4632  -2
  -8   5  14 86.5603 10.4632   1
  -7   5  14 5.43401 1.57106   2
  -7   5  14 129.126 9.86493   1
  -6   5  14 8.62979 2.77867   2
  -6   5  14 164.983 4.39202   1
  -5   5  14 18.9264 1.24271   1
  -5   5  14 2.04013 1.04707   2
  -2   5  14 42.5412 2.12755  -2
  -4   5  14 42.5412 2.12755   1
  -4   5  14 2.28948 1.00974   2
  -1   5  14 3.06199 1.49662  -2
  -3   5  14 3.06199 1.49662   1
  -3   5  14 1.27046 0.82243   2
   0   5  14 118.564 4.11321  -2
  -2   5  14 118.564 4.11321   1
  -2   5  14 109.590 4.54844   1
  -1   5  14 2.10166 0.82297   1
   0   5  14 1.45888 1.23286   2
   0   5  14 24.3979 1.80693   1
   2   5  13 24.8139 3.54624  -2
   0   5  14 24.8139 3.54624   1
   1   5  14 -0.7804 0.81710   2
   3   5  13 20.3869 1.98664  -2
   1   5  14 20.3869 1.98664   1
   2   5  14 10.1187 1.56852   2
   4   5  13 152.583 11.4958  -2
   2   5  14 152.583 11.4958   1
   3   5  14 17.3765 1.48892   1
   3   5  14 0.49368 1.36887   2
   4   5  14 63.0869 2.56916   1
   4   5  14 4.73307 1.21369   2
   5   5  14 3.80803 1.30017   2
   5   5  14 78.7494 2.99780   1
   6   5  14 174.133 5.74538   1
   6   5  14 10.8071 1.64584   2
 -11   6  14 9.72155 4.04306   1
 -11   6  14 -0.4454 3.00198   2
 -10   6  14 1.19360 2.62559   2
 -10   6  14 6.10727 2.95072   1
  -9   6  14 4.60137 2.61374   2
  -7   6  15 7.01933 3.59850  -2
  -9   6  14 7.01933 3.59850   1
  -6   6  15 143.205 5.50510  -2
  -8   6  14 143.205 5.50510   1
  -8   6  14 6.28037 1.85364   2
  -7   6  14 4.18614 1.56068   2
  -5   6  15 43.1149 9.63870  -2
  -7   6  14 43.1149 9.63870   1
  -7   6  14 53.5591 7.96864   1
  -6   6  14 99.3799 3.18029   1
  -6   6  14 2.41316 2.98923   2
  -5   6  14 2.39296 1.16442   2
  -5   6  14 26.8931 1.68295   1
  -3   6  14 28.4349 4.51238  -2
  -5   6  14 28.4349 4.51238   1
  -4   6  14 7.57621 1.18534   2
  -2   6  14 153.692 3.76215  -2
  -4   6  14 153.692 3.76215   1
  -3   6  14 4.46390 1.13055   2
  -1   6  14 127.877 3.28304  -2
  -3   6  14 127.877 3.28304   1
   0   6  14 3.31706 1.86194  -2
  -2   6  14 3.31706 1.86194   1
  -1   6  14 6.14282 0.93922   1
   2   6  13 -2.1874 3.09577  -2
   0   6  14 -2.1874 3.09577   1
   0   6  14 -0.9217 1.04002   1
   1   6  14 3.80056 0.97736   2
   3   6  13 57.7279 2.47517  -2
   1   6  14 57.7279 2.47517   1
   2   6  14 5.88545 1.38213   2
   3   6  14 3.78269 1.37875   2
   3   6  14 95.3175 3.02259   1
   4   6  14 130.923 3.72627   1
   4   6  14 6.10769 1.30301   2
   5   6  14 1.11477 1.32382   2
   5   6  14 19.0224 1.74285   1
   6   6  14 6.36330 1.64829   2
   6   6  14 62.2463 4.83520   1
 -11   7  14 9.08336 4.11802   1
 -11   7  14 -0.7174 3.39456   2
 -10   7  14 14.1715 3.02410   2
 -10   7  14 187.052 8.59679   1
  -7   7  15 1.76683 3.90850  -2
  -9   7  14 1.76683 3.90850   1
  -9   7  14 1.28071 3.09014   2
  -6   7  15 2.60903 2.86645  -2
  -8   7  14 2.60903 2.86645   1
  -8   7  14 0.33024 1.58505   2
  -7   7  14 1.44276 2.17445   2
  -5   7  15 22.1783 9.88981  -2
  -7   7  14 22.1783 9.88981   1
  -7   7  14 7.62559 4.81778   1
  -6   7  14 1.64774 3.08566   2
  -6   7  14 93.0739 3.41101   1
  -5   7  14 58.3880 2.52672   1
  -5   7  14 3.97790 1.48919   2
  -3   7  14 69.1356 5.45613  -2
  -5   7  14 69.1356 5.45613   1
  -2   7  14 156.385 4.11649  -2
  -4   7  14 156.385 4.11649   1
  -4   7  14 8.68555 1.23759   2
  -1   7  14 212.421 5.04669  -2
  -3   7  14 212.421 5.04669   1
  -3   7  14 11.6749 1.31848   2
   0   7  14 8.19356 2.61945  -2
  -2   7  14 8.19356 2.61945   1
  -2   7  14 6.16846 1.76028   1
  -1   7  14 13.5667 1.15398   1
   0   7  14 12.4061 1.38173   1
   2   7  13 9.70278 3.51429  -2
   0   7  14 9.70278 3.51429   1
   0   7  14 0.88854 1.55116   2
   1   7  14 9.87136 1.66247   2
   2   7  14 0.47975 1.01388   2
   4   7  13 15.4162 2.42189  -2
   2   7  14 15.4162 2.42189   1
   3   7  14 2.41392 1.16806   1
   3   7  14 0.62115 1.35774   2
   4   7  14 2.42239 1.26811   2
   4   7  14 64.0747 2.69666   1
   5   7  14 2.36424 1.47111   2
   5   7  14 45.2273 2.63719   1
   6   7  14 -0.1590 1.66804   2
   6   7  14 -0.5758 2.78260   1
 -10   8  14 -2.8202 2.76563   2
 -10   8  14 3.95284 3.57478   1
  -7   8  15 -2.1685 4.22510  -2
  -9   8  14 -2.1685 4.22510   1
  -9   8  14 -2.1687 3.48603   2
  -8   8  14 0.17545 1.81834   2
  -6   8  15 16.8739 3.42833  -2
  -8   8  14 16.8739 3.42833   1
  -7   8  14 1.84541 1.76287   2
  -5   8  15 25.7689 4.19110  -2
  -7   8  14 25.7689 4.19110   1
  -6   8  14 0.62507 3.20700   2
  -6   8  14 26.8342 1.84597   1
  -3   8  14 43.6568 5.34006  -2
  -5   8  14 43.6568 5.34006   1
  -5   8  14 2.10941 1.51971   2
  -5   8  14 44.1845 3.54579   1
  -2   8  14 94.7307 4.32733  -2
  -4   8  14 94.7307 4.32733   1
  -4   8  14 4.09270 1.19485   2
  -1   8  14 36.4385 3.08640  -2
  -3   8  14 36.4385 3.08640   1
  -3   8  14 -0.0419 1.06805   2
   0   8  14 95.4989 6.32468  -2
  -2   8  14 95.4989 6.32468   1
  -2   8  14 78.9563 4.64706   1
  -1   8  14 545.802 11.2782   1
   0   8  14 3.05506 1.66079   2
   0   8  14 34.5928 3.81515   1
   1   8  14 3.44739 1.26190   2
   3   8  13 66.3162 4.88263  -2
   1   8  14 66.3162 4.88263   1
   2   8  14 11.4808 1.31922   2
   4   8  13 173.733 4.70483  -2
   2   8  14 173.733 4.70483   1
   3   8  14 81.7151 2.90602   1
   3   8  14 4.24119 1.60783   2
   4   8  14 7.29616 1.45121   1
   4   8  14 -0.3661 1.29500   2
   5   8  14 -0.7186 1.50168   2
   5   8  14 3.12772 1.88455   1
   6   8  14 -0.3518 1.60057   2
   6   8  14 4.94341 3.39012   1
   8   8  12 10.3341 15.2384  -2
   6   8  14 10.3341 15.2384   1
 -10   9  14 4.39359 2.98330   2
 -10   9  14 35.4600 4.82085   1
  -9   9  14 7.97479 2.78723   2
  -7   9  15 150.256 6.31589  -2
  -9   9  14 150.256 6.31589   1
  -6   9  15 18.2323 3.93864  -2
  -8   9  14 18.2323 3.93864   1
  -8   9  14 2.37307 1.91821   2
  -7   9  14 10.4551 2.15878   2
  -5   9  15 228.110 8.92753  -2
  -7   9  14 228.110 8.92753   1
  -6   9  14 30.1528 3.01632   1
  -6   9  14 6.47449 4.90029   2
  -5   9  14 94.3706 3.52548   1
  -5   9  14 7.80460 1.79414   2
  -4   9  14 2.08945 1.43761   2
  -2   9  14 60.0107 3.86885  -2
  -4   9  14 60.0107 3.86885   1
  -3   9  14 5.02991 1.89995   2
  -1   9  14 70.6496 5.66616  -2
  -3   9  14 70.6496 5.66616   1
  -2   9  14 18.2539 2.48910   1
  -1   9  14 2.31923 1.38577   1
   0   9  14 38.5972 2.42205   1
   0   9  14 3.20299 2.42024   2
   3   9  13 30.1815 3.21086  -2
   1   9  14 30.1815 3.21086   1
   1   9  14 2.00870 1.08754   2
   2   9  14 1.92239 1.19793   2
   4   9  13 59.4265 3.83253  -2
   2   9  14 59.4265 3.83253   1
   3   9  14 2.91706 1.59068   2
   3   9  14 10.6640 1.45880   1
   4   9  14 -0.1675 1.86933   1
   4   9  14 -1.1499 1.43521   2
   5   9  14 9.33769 1.76141   2
   5   9  14 220.866 6.60670   1
 -10  10  14 1.02666 3.00129   2
 -10  10  14 10.1132 3.17014   1
  -9  10  14 -1.4128 2.76051   2
  -7  10  15 -1.7020 4.56844  -2
  -9  10  14 -1.7020 4.56844   1
  -8  10  14 -0.9723 2.01393   2
  -6  10  15 22.1328 3.98596  -2
  -8  10  14 22.1328 3.98596   1
  -7  10  14 1.00367 2.10544   2
  -5  10  15 43.8207 4.61729  -2
  -7  10  14 43.8207 4.61729   1
  -6  10  14 128.669 5.73355   1
  -6  10  14 12.6314 5.37415   2
  -5  10  14 8.45791 1.98166   1
  -5  10  14 0.33017 1.80155   2
  -2  10  14 81.6461 3.92265  -2
  -4  10  14 81.6461 3.92265   1
  -4  10  14 1.52948 1.77148   2
  -3  10  14 6.10164 1.82115   2
  -1  10  14 90.0218 4.90116  -2
  -3  10  14 90.0218 4.90116   1
   0  10  14 16.9813 4.07187  -2
  -2  10  14 16.9813 4.07187   1
  -1  10  14 156.026 4.06213   1
   0  10  14 -1.0977 1.37747   1
   1  10  14 4.77567 1.25039   2
   3  10  13 69.2052 3.93015  -2
   1  10  14 69.2052 3.93015   1
   2  10  14 2.52678 1.26076   2
   4  10  13 38.6807 3.77085  -2
   2  10  14 38.6807 3.77085   1
   3  10  14 -0.1810 1.72869   2
   3  10  14 3.75311 1.84569   1
   4  10  14 247.688 7.13073   1
   4  10  14 11.5623 2.20765   2
   5  10  14 37.9844 3.83526   1
   5  10  14 0.90809 2.14790   2
  -7  11  15 70.4931 5.54604  -2
  -9  11  14 70.4931 5.54604   1
  -9  11  14 4.34821 3.05377   2
  -8  11  14 2.04225 1.94364   2
  -6  11  15 16.5983 11.8730  -2
  -8  11  14 16.5983 11.8730   1
  -5  11  15 7.27492 4.63538  -2
  -7  11  14 7.27492 4.63538   1
  -7  11  14 1.55212 2.22268   2
  -6  11  14 137.891 6.10298   1
  -6  11  14 8.73757 5.68011   2
  -5  11  14 5.50697 2.00358   2
  -5  11  14 64.2176 4.24339   1
  -2  11  14 30.8296 3.99003  -2
  -4  11  14 30.8296 3.99003   1
  -4  11  14 0.92014 1.89574   2
  -1  11  14 3.52201 3.38002  -2
  -3  11  14 3.52201 3.38002   1
  -3  11  14 6.02301 1.90118   2
   0  11  14 32.4915 3.57540  -2
  -2  11  14 32.4915 3.57540   1
  -2  11  14 30.9761 3.66035   1
  -1  11  14 8.21194 1.31317   1
   0  11  14 30.7538 2.21732   1
   0  11  14 2.76954 2.13106   2
   3  11  13 18.4649 3.64587  -2
   1  11  14 18.4649 3.64587   1
   1  11  14 -0.3472 1.24313   2
   4  11  13 4.41779 4.02659  -2
   2  11  14 4.41779 4.02659   1
   2  11  14 -1.0150 1.69354   2
   3  11  14 39.2701 2.92621   1
   3  11  14 4.72227 1.93544   2
   4  11  14 1.87148 2.21272   2
   4  11  14 73.8272 4.07031   1
  -8  12  14 3.41094 2.08994   2
  -6  12  15 15.3407 4.56592  -2
  -8  12  14 15.3407 4.56592   1
  -7  12  14 4.65656 2.10567   2
  -5  12  15 37.7456 5.42956  -2
  -7  12  14 37.7456 5.42956   1
  -6  12  14 7.43395 2.40873   1
  -5  12  14 0.93544 2.00991   1
  -5  12  14 -0.7935 2.00999   2
  -4  12  14 5.18174 2.16404   2
  -2  12  14 144.961 6.87211  -2
  -4  12  14 144.961 6.87211   1
  -1  12  14 9.40956 3.20486  -2
  -3  12  14 9.40956 3.20486   1
  -3  12  14 4.18405 2.04897   2
   0  12  14 78.9730 4.45725  -2
  -2  12  14 78.9730 4.45725   1
  -1  12  14 229.362 6.54488   1
   0  12  14 16.7601 2.00968   1
   1  12  14 1.52640 1.75712   2
   3  12  13 40.3544 4.10613  -2
   1  12  14 40.3544 4.10613   1
   4  12  13 122.485 5.75778  -2
   2  12  14 122.485 5.75778   1
   2  12  14 3.85183 1.93142   2
   3  12  14 3.97135 2.06009   2
   3  12  14 1.92050 2.18345   1
   4  12  14 42.4776 4.07890   1
   4  12  14 3.00618 3.03474   2
  -7  13  14 7.26384 2.10829   2
  -5  13  15 123.440 7.22909  -2
  -7  13  14 123.440 7.22909   1
  -6  13  14 14.1890 2.66307   1
  -5  13  14 -1.4541 6.14783   2
  -5  13  14 80.4498 5.16107   1
  -4  13  14 3.34771 2.24830   2
  -2  13  14 14.6882 4.67616  -2
  -4  13  14 14.6882 4.67616   1
  -1  13  14 28.5379 4.53140  -2
  -3  13  14 28.5379 4.53140   1
  -3  13  14 0.67048 2.22294   2
   0  13  14 107.347 5.31108  -2
  -2  13  14 107.347 5.31108   1
  -1  13  14 26.8381 2.29749   1
   0  13  14 176.795 5.64627   1
   3  13  13 49.2996 4.54067  -2
   1  13  14 49.2996 4.54067   1
   1  13  14 1.44048 1.95314   2
   4  13  13 23.4214 5.13630  -2
   2  13  14 23.4214 5.13630   1
   2  13  14 1.71069 2.06848   2
   3  13  14 18.4038 2.44113   1
   3  13  14 1.88473 2.32995   2
  -6  14  14 15.8515 5.14686   2
  -6  14  14 172.339 7.56103   1
  -5  14  14 -0.2611 6.69256   2
  -5  14  14 60.4266 4.66561   1
  -2  14  14 29.5577 12.2399  -2
  -4  14  14 29.5577 12.2399   1
  -4  14  14 0.54281 2.41113   2
  -1  14  14 7.44226 4.66351  -2
  -3  14  14 7.44226 4.66351   1
  -3  14  14 2.97068 2.39095   2
   0  14  14 53.4804 4.99231  -2
  -2  14  14 53.4804 4.99231   1
  -1  14  14 144.822 5.20665   1
   0  14  14 7.98212 2.11861   1
   1  14  14 3.31847 2.21189   2
   3  14  13 36.2318 4.88663  -2
   1  14  14 36.2318 4.88663   1
   2  14  14 -2.1434 2.95463   1
   2  14  14 -2.3858 2.21030   2
  -5  15  14 91.8173 5.94560   1
  -5  15  14 10.6932 4.42292   2
  -2  15  14 6.95162 5.79847  -2
  -4  15  14 6.95162 5.79847   1
  -4  15  14 -1.4319 2.64543   2
  -3  15  14 4.69170 2.66799   2
  -1  15  14 36.1586 5.64218  -2
  -3  15  14 36.1586 5.64218   1
   0  15  14 79.1666 7.40457  -2
  -2  15  14 79.1666 7.40457   1
  -1  15  14 6.10767 2.37868   1
   0  15  14 112.048 4.90982   1
 -11   0  15 4.49016 3.47098   2
 -11   0  15 80.8007 11.8315   1
 -10   0  15 -2.7131 3.73864   2
 -10   0  15 -3.8471 5.21201   1
  -7   0  16 -6.2128 9.27498  -2
  -9   0  15 -6.2128 9.27498   1
  -9   0  15 3.23620 3.18720   2
  -8   0  15 5.28593 2.87365   2
  -6   0  16 11.6302 7.78616  -2
  -8   0  15 11.6302 7.78616   1
  -5   0  16 508.082 16.2046  -2
  -7   0  15 508.082 16.2046   1
  -6   0  15 1.94133 1.59328   1
  -5   0  15 10.6280 2.59376   2
  -5   0  15 193.594 6.94686   1
  -4   0  15 -0.2699 1.50376   2
  -2   0  15 3.54523 2.96655  -2
  -4   0  15 3.54523 2.96655   1
  -1   0  15 116.197 5.35343  -2
  -3   0  15 116.197 5.35343   1
  -3   0  15 5.15451 1.55952   2
  -2   0  15 -0.7132 1.25506   1
  -1   0  15 40.1230 2.17241   1
   0   0  15 0.75728 1.34037   2
   0   0  15 -1.0201 0.99332   1
   1   0  15 246.898 6.75463   1
   1   0  15 14.1553 2.20649   2
   2   0  15 1.48801 1.28158   1
   2   0  15 -2.4923 1.19191   2
   3   0  15 -0.6766 1.26505   2
   3   0  15 4.17838 1.51780   1
   4   0  15 0.85285 1.57882   1
   4   0  15 0.01547 1.42535   2
   5   0  15 3.73755 1.75818   2
   5   0  15 22.6241 2.37837   1
   6   0  15 3.69804 2.19939   1
   6   0  15 0.59297 2.12137   2
 -11   1  15 0.27474 2.67901   2
 -11   1  15 -0.0955 4.62388   1
 -10   1  15 3.42086 2.72324   2
 -10   1  15 21.8698 3.49770   1
  -9   1  15 3.18538 2.35550   2
  -7   1  16 14.7908 5.23240  -2
  -9   1  15 14.7908 5.23240   1
  -8   1  15 2.22154 2.17911   2
  -6   1  16 19.8015 4.54969  -2
  -8   1  15 19.8015 4.54969   1
  -5   1  16 71.5049 7.29467  -2
  -7   1  15 71.5049 7.29467   1
  -6   1  15 53.8708 2.49520   1
  -5   1  15 283.021 6.61946   1
  -5   1  15 17.8617 2.39454   2
  -2   1  15 50.6354 2.69952  -2
  -4   1  15 50.6354 2.69952   1
  -4   1  15 1.84252 1.12106   2
  -1   1  15 14.5807 2.24393  -2
  -3   1  15 14.5807 2.24393   1
  -3   1  15 0.00423 0.99062   2
  -2   1  15 106.881 2.76978   1
  -1   1  15 278.472 5.67310   1
   0   1  15 74.9143 2.09720   1
   0   1  15 4.26708 0.94333   2
   1   1  15 3.14559 1.33185   2
   1   1  15 60.1665 2.15939   1
   3   1  14 67.7373 10.7991  -2
   1   1  15 67.7373 10.7991   1
   2   1  15 30.2344 1.60662   1
   2   1  15 1.94777 1.02953   2
   3   1  15 0.13649 1.07583   2
   3   1  15 7.63291 1.11146   1
   4   1  15 64.0074 2.48551   1
   4   1  15 3.85270 1.30262   2
   5   1  15 1.02003 1.43121   2
   5   1  15 6.89207 1.45162   1
   6   1  15 10.4172 1.87536   1
   6   1  15 -0.7093 1.66619   2
 -11   2  15 1.50891 3.62816   1
 -11   2  15 -1.5671 2.57386   2
 -10   2  15 19.9110 3.51781   2
 -10   2  15 322.249 9.94112   1
  -7   2  16 12.2777 5.29733  -2
  -9   2  15 12.2777 5.29733   1
  -9   2  15 1.60744 2.67757   2
  -6   2  16 5.51610 3.02493  -2
  -8   2  15 5.51610 3.02493   1
  -8   2  15 0.20125 2.38305   2
  -5   2  16 59.3266 7.19734  -2
  -7   2  15 59.3266 7.19734   1
  -6   2  15 -0.6263 1.24898   1
  -5   2  15 -0.9792 1.46130   2
  -5   2  15 0.65852 1.06129   1
  -4   2  15 0.67441 1.08041   2
  -2   2  15 9.42288 2.10860  -2
  -4   2  15 9.42288 2.10860   1
  -3   2  15 6.86265 1.16780   2
  -1   2  15 115.916 3.84129  -2
  -3   2  15 115.916 3.84129   1
  -2   2  15 41.9623 1.77203   1
  -1   2  15 20.5026 1.30767   1
   0   2  15 2.50611 0.95857   1
   0   2  15 0.39682 0.88845   2
   1   2  15 1.00624 1.11046   2
   1   2  15 19.9111 1.45512   1
   2   2  15 0.78898 1.07153   2
   2   2  15 2.06757 1.09227   1
   3   2  15 2.50358 1.17499   1
   3   2  15 1.58792 1.13204   2
   4   2  15 361.216 8.74608   1
   4   2  15 17.0618 1.54027   2
   5   2  15 1.54286 1.46244   2
   5   2  15 0.17060 1.57293   1
   6   2  15 142.109 4.52597   1
   6   2  15 9.63733 1.89499   2
 -11   3  15 5.18962 2.50468   2
 -11   3  15 84.7393 5.86097   1
 -10   3  15 50.9763 4.12937   1
 -10   3  15 1.68606 3.06512   2
  -9   3  15 0.09207 2.69645   2
  -7   3  16 39.6698 5.62138  -2
  -9   3  15 39.6698 5.62138   1
  -8   3  15 2.66981 2.45694   2
  -6   3  16 64.3211 3.54768  -2
  -8   3  15 64.3211 3.54768   1
  -5   3  16 26.9641 7.04878  -2
  -7   3  15 26.9641 7.04878   1
  -6   3  15 23.0447 1.72111   1
  -5   3  15 82.3829 3.08335   1
  -3   3  15 71.7641 10.1830  -2
  -5   3  15 71.7641 10.1830   1
  -5   3  15 2.78818 1.75287   2
  -4   3  15 2.06869 1.12526   2
  -2   3  15 41.5365 2.47177  -2
  -4   3  15 41.5365 2.47177   1
  -3   3  15 -0.3928 1.07773   2
  -1   3  15 9.60270 2.13928  -2
  -3   3  15 9.60270 2.13928   1
  -2   3  15 129.563 3.21097   1
  -1   3  15 116.046 3.00489   1
   0   3  15 6.89976 1.17493   2
   0   3  15 80.1724 4.47975   1
   1   3  15 1.54809 1.08574   2
   1   3  15 20.6559 1.51584   1
   2   3  15 6.58786 1.17366   2
   2   3  15 126.245 3.61978   1
   3   3  15 50.0346 2.32419   1
   3   3  15 3.42277 1.20002   2
   4   3  15 100.146 3.33081   1
   4   3  15 5.53997 1.36993   2
   5   3  15 0.49690 1.40195   2
   5   3  15 37.9636 2.84395   1
   6   3  15 71.3327 3.34093   1
   6   3  15 4.26165 1.72928   2
 -11   4  15 33.3222 4.20375   1
 -11   4  15 4.28427 3.17939   2
 -10   4  15 1.57354 3.05651   2
 -10   4  15 25.8249 3.58197   1
  -7   4  16 15.8806 5.36325  -2
  -9   4  15 15.8806 5.36325   1
  -9   4  15 5.80041 2.65545   2
  -6   4  16 25.0737 3.70831  -2
  -8   4  15 25.0737 3.70831   1
  -8   4  15 0.57723 2.49000   2
  -5   4  16 128.085 5.69873  -2
  -7   4  15 128.085 5.69873   1
  -6   4  15 40.9154 2.87091   1
  -5   4  15 65.5397 2.96406   1
  -5   4  15 3.54902 1.88982   2
  -4   4  15 0.98313 1.14442   2
  -2   4  15 1.48981 2.28976  -2
  -4   4  15 1.48981 2.28976   1
  -3   4  15 -0.6850 1.07483   2
  -1   4  15 3.60314 3.03810  -2
  -3   4  15 3.60314 3.03810   1
  -2   4  15 6.34939 1.02612   1
  -1   4  15 112.059 3.24574   1
   0   4  15 71.9611 3.25533   1
   0   4  15 3.46555 1.19718   2
   1   4  15 118.511 3.57976   1
   1   4  15 6.36663 1.13027   2
   2   4  15 2.30659 1.15296   2
   2   4  15 40.9257 2.08406   1
   3   4  15 16.9366 1.52320   1
   3   4  15 0.04287 1.13261   2
   4   4  15 37.6046 2.38246   1
   4   4  15 2.38406 1.30391   2
   5   4  15 2.25991 1.47759   2
   5   4  15 25.3072 2.13117   1
 -10   5  15 -1.6431 2.91610   2
 -10   5  15 3.39576 3.17552   1
  -9   5  15 6.15075 2.88003   2
  -7   5  16 56.2875 5.87136  -2
  -9   5  15 56.2875 5.87136   1
  -8   5  15 1.48363 2.56241   2
  -6   5  16 41.0471 4.03580  -2
  -8   5  15 41.0471 4.03580   1
  -5   5  16 10.2720 4.30327  -2
  -7   5  15 10.2720 4.30327   1
  -6   5  15 123.661 3.83708   1
  -3   5  15 308.959 10.7280  -2
  -5   5  15 308.959 10.7280   1
  -5   5  15 287.661 10.1993   1
  -5   5  15 21.1134 5.29087   2
  -4   5  15 1.12234 1.20730   2
  -2   5  15 18.6371 3.67199  -2
  -4   5  15 18.6371 3.67199   1
  -3   5  15 3.57944 1.28363   2
  -1   5  15 16.9912 4.79266  -2
  -3   5  15 16.9912 4.79266   1
  -2   5  15 5.44769 1.30297   1
  -1   5  15 257.353 7.17823   1
   0   5  15 3.06921 1.14059   2
   0   5  15 64.3516 2.52308   1
   1   5  15 0.91262 1.01467   2
   1   5  15 1.99763 1.39787   1
   3   5  14 -4.1201 3.80138  -2
   1   5  15 -4.1201 3.80138   1
   2   5  15 40.4909 2.15148   1
   2   5  15 3.50248 1.11517   2
   3   5  15 1.11999 1.21572   2
   3   5  15 9.05233 1.41409   1
   4   5  15 -0.3575 1.34056   2
   4   5  15 6.42964 1.49724   1
   5   5  15 0.98530 1.70115   1
   5   5  15 -0.4243 1.53964   2
 -10   6  15 83.6557 5.91954   1
 -10   6  15 6.66807 3.05052   2
  -7   6  16 17.4113 4.64469  -2
  -9   6  15 17.4113 4.64469   1
  -9   6  15 2.45902 2.85375   2
  -6   6  16 8.39132 3.75005  -2
  -8   6  15 8.39132 3.75005   1
  -8   6  15 0.41076 2.60041   2
  -5   6  16 52.6818 4.46051  -2
  -7   6  15 52.6818 4.46051   1
  -6   6  15 49.5529 2.98174   1
  -5   6  15 39.2189 2.48976   1
  -3   6  15 67.7883 11.4173  -2
  -5   6  15 67.7883 11.4173   1
  -5   6  15 2.16410 4.83292   2
  -4   6  15 1.53300 1.68576   2
  -3   6  15 21.7963 2.53781   2
  -1   6  15 421.251 17.0237  -2
  -3   6  15 421.251 17.0237   1
  -2   6  15 101.513 3.97627   1
  -1   6  15 29.4904 1.85202   1
   0   6  15 2.44765 1.10614   2
   0   6  15 36.8694 1.97309   1
   1   6  15 6.38722 1.16289   2
   3   6  14 72.0743 5.60639  -2
   1   6  15 72.0743 5.60639   1
   1   6  15 76.7439 3.24188   1
   2   6  15 1.06714 1.15873   2
   2   6  15 1.35805 1.18322   1
   3   6  15 30.7689 1.84527   1
   3   6  15 4.26918 1.28879   2
   4   6  15 96.4481 3.42657   1
   4   6  15 4.53435 1.48823   2
   5   6  15 2.02140 1.62709   2
   5   6  15 2.17978 1.75975   1
 -10   7  15 43.4595 5.01871   1
 -10   7  15 9.18840 3.15410   2
  -7   7  16 225.512 7.78816  -2
  -9   7  15 225.512 7.78816   1
  -9   7  15 15.1130 3.89924   2
  -8   7  15 1.26915 1.90654   2
  -6   7  16 28.0449 4.52479  -2
  -8   7  15 28.0449 4.52479   1
  -5   7  16 19.6944 4.33640  -2
  -7   7  15 19.6944 4.33640   1
  -6   7  15 34.4151 2.40692   1
  -5   7  15 22.2267 2.07065   1
  -4   7  15 2.16246 1.28233   2
  -2   7  15 6.64798 3.13518  -2
  -4   7  15 6.64798 3.13518   1
  -3   7  15 2.48216 1.37355   2
  -1   7  15 9.20729 4.17533  -2
  -3   7  15 9.20729 4.17533   1
  -2   7  15 8.95886 1.30944   1
  -1   7  15 6.43784 1.16365   1
   0   7  15 109.845 3.28760   1
   0   7  15 4.43441 1.42161   2
   1   7  15 2.57452 1.14657   2
   1   7  15 14.5434 1.74029   1
   3   7  14 11.0160 4.47268  -2
   1   7  15 11.0160 4.47268   1
   2   7  15 2.72710 1.24729   2
   2   7  15 56.5713 2.55295   1
   3   7  15 139.010 4.01546   1
   3   7  15 7.81787 1.44803   2
   4   7  15 72.8125 3.13666   1
   4   7  15 5.14815 1.50204   2
   5   7  15 138.668 5.03148   1
   5   7  15 6.73462 1.72573   2
  -9   8  15 1.91757 4.00933   2
  -7   8  16 60.4025 5.48405  -2
  -9   8  15 60.4025 5.48405   1
  -6   8  16 58.0352 5.05814  -2
  -8   8  15 58.0352 5.05814   1
  -8   8  15 2.05091 2.31270   2
  -5   8  16 27.4674 4.79374  -2
  -7   8  15 27.4674 4.79374   1
  -6   8  15 85.6452 4.58946   1
  -5   8  15 5.68332 5.20075   2
  -5   8  15 94.0672 4.74896   1
  -2   8  15 16.5708 4.03602  -2
  -4   8  15 16.5708 4.03602   1
  -4   8  15 -0.2640 1.31765   2
  -1   8  15 50.9445 3.44514  -2
  -3   8  15 50.9445 3.44514   1
  -3   8  15 2.23214 1.69174   2
  -3   8  15 41.9349 4.88097   1
  -2   8  15 7.67868 1.25712   1
  -1   8  15 4.04579 2.52155   2
  -1   8  15 84.5334 2.85220   1
   0   8  15 162.560 4.25059   1
   0   8  15 9.34204 1.34383   2
   1   8  15 5.92972 1.62664   1
   1   8  15 0.19425 1.17001   2
   3   8  14 14.0992 4.68403  -2
   1   8  15 14.0992 4.68403   1
   2   8  15 11.7622 1.50054   2
   2   8  15 183.917 4.75759   1
   3   8  15 5.01252 1.48019   2
   3   8  15 89.0378 3.33178   1
   4   8  15 30.5956 2.16321   1
   4   8  15 0.43978 1.57933   2
  -9   9  15 1.20705 3.03104   2
  -7   9  16 7.30820 8.05238  -2
  -9   9  15 7.30820 8.05238   1
  -6   9  16 81.6213 5.70962  -2
  -8   9  15 81.6213 5.70962   1
  -8   9  15 4.18676 2.37001   2
  -5   9  16 32.1301 4.94578  -2
  -7   9  15 32.1301 4.94578   1
  -6   9  15 66.7278 4.29890   1
  -5   9  15 71.1664 4.43087   1
  -2   9  15 5.95037 3.03782  -2
  -4   9  15 5.95037 3.03782   1
  -4   9  15 3.55913 1.83908   2
  -3   9  15 1.08291 1.87789   2
  -1   9  15 11.7357 3.06107  -2
  -3   9  15 11.7357 3.06107   1
  -3   9  15 0.03537 2.55700   1
  -2   9  15 1.94594 1.21289   1
  -1   9  15 24.1433 1.62768   1
  -1   9  15 -2.0348 2.59849   2
   0   9  15 16.9970 1.53494   1
   0   9  15 1.63603 1.22885   2
   1   9  15 0.47211 1.30312   2
   1   9  15 25.0185 2.16962   1
   2   9  15 120.132 3.71864   1
   2   9  15 5.32388 1.48996   2
   3   9  15 2.84171 1.57436   1
   3   9  15 -0.3380 1.48264   2
   4   9  15 2.53526 2.01964   2
   4   9  15 4.81969 2.14711   1
  -6  10  16 3.62866 4.93365  -2
  -8  10  15 3.62866 4.93365   1
  -8  10  15 -1.1414 2.41229   2
  -5  10  16 68.9876 5.91687  -2
  -7  10  15 68.9876 5.91687   1
  -6  10  15 143.152 6.34667   1
  -5  10  15 11.3221 2.32194   1
  -4  10  15 5.61372 2.02664   2
  -2  10  15 116.131 6.36606  -2
  -4  10  15 116.131 6.36606   1
  -3  10  15 20.9119 2.61223   2
  -1  10  15 392.631 13.2733  -2
  -3  10  15 392.631 13.2733   1
  -3  10  15 372.664 15.2440   1
  -2  10  15 38.4458 2.17780   1
  -1  10  15 22.6136 1.66297   1
  -1  10  15 0.99286 2.81626   2
   0  10  15 9.03689 1.48758   2
   0  10  15 129.742 3.80791   1
   1  10  15 2.03609 1.43081   2
   1  10  15 38.5560 3.06175   1
   2  10  15 2.36876 1.46780   2
   2  10  15 23.4821 2.39402   1
   3  10  15 9.00268 2.27871   1
   3  10  15 2.36939 1.66823   2
  -8  11  15 4.69375 2.75101   1
  -8  11  15 -2.7741 2.14979   2
  -7  11  15 34.2313 7.83942   1
  -5  11  16 33.0442 6.30861  -2
  -7  11  15 33.0442 6.30861   1
  -6  11  15 23.2081 3.10024   1
  -5  11  15 63.8302 4.44483   1
  -2  11  15 81.4524 6.02784  -2
  -4  11  15 81.4524 6.02784   1
  -4  11  15 3.50750 2.18516   2
  -1  11  15 1.76764 4.90671  -2
  -3  11  15 1.76764 4.90671   1
  -3  11  15 0.65386 2.00609   2
  -3  11  15 5.31067 3.28434   1
  -2  11  15 63.8776 3.52279   1
  -1  11  15 12.5541 2.03984   1
  -1  11  15 -4.0812 3.13181   2
   0  11  15 59.6958 3.37514   1
   0  11  15 3.03790 1.96700   2
   1  11  15 3.47754 2.03929   2
   1  11  15 13.6338 2.16317   1
   2  11  15 0.66082 2.19848   1
   2  11  15 -0.4564 2.01431   2
   3  11  15 6.22593 3.66907   2
   3  11  15 95.3630 7.27652   1
  -7  12  15 0.76366 2.05579   2
  -7  12  15 36.9911 4.17673   1
  -6  12  15 2.63284 2.46857   1
  -5  12  15 16.5267 2.79459   1
  -4  12  15 3.18856 2.38950   2
  -2  12  15 29.7267 5.84088  -2
  -4  12  15 29.7267 5.84088   1
  -3  12  15 5.24797 2.36252   2
  -1  12  15 111.251 6.96295  -2
  -3  12  15 111.251 6.96295   1
  -3  12  15 110.820 7.11803   1
  -2  12  15 20.3552 2.37450   1
  -1  12  15 58.1040 3.64160   1
   0  12  15 31.4080 2.61605   1
   0  12  15 0.77830 2.12409   2
   1  12  15 23.6530 2.54021   1
   1  12  15 3.95788 2.25789   2
   2  12  15 5.12517 2.24917   2
   2  12  15 186.476 6.21314   1
  -6  13  15 9.83790 8.08857   2
  -6  13  15 5.36679 2.83530   1
  -5  13  15 2.42135 2.79568   1
  -4  13  15 0.11788 2.62055   2
  -2  13  15 95.0754 7.27920  -2
  -4  13  15 95.0754 7.27920   1
  -3  13  15 0.64844 2.47833   2
  -1  13  15 3.48283 5.88114  -2
  -3  13  15 3.48283 5.88114   1
  -2  13  15 49.0569 3.29734   1
  -1  13  15 8.00569 2.25809   1
   0  13  15 -0.0843 2.24026   1
   0  13  15 -1.6812 2.31761   2
  -3  14  15 4.84079 2.70767   2
  -3  14  15 94.7638 5.87042   1
  -2  14  15 5.57561 2.37218   1
  -2  14  15 -0.9498 2.64593   2
 -10   0  16 -2.3020 6.71275   2
 -10   0  16 -0.8499 6.28197   1
  -7   0  17 -17.286 12.2416  -2
  -9   0  16 -17.286 12.2416   1
  -9   0  16 5.79494 6.12937   2
  -8   0  16 6.56880 3.89024   2
  -6   0  17 19.7924 11.2438  -2
  -8   0  16 19.7924 11.2438   1
  -7   0  16 -1.7596 1.96488   1
  -6   0  16 8.80588 4.58847   1
  -5   0  16 -0.9787 1.69829   1
  -4   0  16 19.4181 2.22186   1
  -4   0  16 -1.1317 2.57066   2
  -3   0  16 0.65991 1.64568   2
  -3   0  16 -1.9990 1.66325   1
  -2   0  16 0.43780 1.66019   2
  -2   0  16 19.7499 2.30468   1
  -1   0  16 -1.2611 1.63993   2
  -1   0  16 0.24416 1.68215   1
   0   0  16 2.25179 1.44549   1
   0   0  16 -0.4512 1.77998   2
   1   0  16 0.25545 1.39574   1
   1   0  16 -2.0647 1.67326   2
   2   0  16 29.1673 3.20193   2
   2   0  16 639.269 17.8013   1
   3   0  16 -2.6981 2.11276   2
   3   0  16 -0.9468 1.64715   1
   4   0  16 49.6288 3.62170   1
   4   0  16 3.58056 2.75793   2
 -10   1  16 14.0815 4.74750   1
 -10   1  16 3.37001 3.59120   2
  -9   1  16 -1.9252 3.23202   2
  -7   1  17 26.0951 8.84289  -2
  -9   1  16 26.0951 8.84289   1
  -8   1  16 4.30507 2.95442   2
  -6   1  17 84.7253 8.81689  -2
  -8   1  16 84.7253 8.81689   1
  -7   1  16 134.577 3.74989   1
  -6   1  16 10.0215 1.51590   1
  -5   1  16 8.00584 1.36739   1
  -4   1  16 5.95235 1.81263   2
  -4   1  16 130.170 4.18458   1
  -3   1  16 9.01010 1.39840   2
  -3   1  16 142.385 4.34113   1
  -2   1  16 4.82330 1.30781   2
  -2   1  16 110.582 3.81458   1
  -1   1  16 14.9310 1.35398   1
  -1   1  16 2.70994 1.22693   2
   0   1  16 142.438 3.65660   1
   0   1  16 5.24430 1.39747   2
   1   1  16 2.64400 1.32392   2
   1   1  16 34.4308 2.02088   1
   2   1  16 5.21428 1.32258   2
   2   1  16 80.2511 3.06757   1
   3   1  16 0.60441 1.37645   2
   3   1  16 23.7218 1.88663   1
   4   1  16 86.6664 3.54232   1
   4   1  16 0.56376 1.50322   2
 -10   2  16 -2.9431 3.60019   2
 -10   2  16 0.24711 4.45489   1
  -9   2  16 15.5232 3.48928   2
  -7   2  17 256.749 12.8939  -2
  -9   2  16 256.749 12.8939   1
  -8   2  16 6.09949 2.85119   2
  -6   2  17 10.1880 6.19434  -2
  -8   2  16 10.1880 6.19434   1
  -7   2  16 50.4392 2.64416   1
  -6   2  16 13.2945 1.59494   1
  -5   2  16 44.1559 2.32246   1
  -4   2  16 18.2726 1.61016   1
  -4   2  16 -0.1235 1.61977   2
  -3   2  16 111.526 3.51604   1
  -3   2  16 6.24542 1.41854   2
  -2   2  16 1.90975 1.26534   2
  -2   2  16 51.6169 2.10343   1
  -1   2  16 92.4044 2.82585   1
  -1   2  16 5.17449 1.35920   2
   0   2  16 12.2648 1.32679   1
   0   2  16 2.30165 1.10158   2
   1   2  16 -0.9869 1.11121   2
   1   2  16 4.85819 1.20017   1
   2   2  16 2.37538 1.29411   2
   2   2  16 46.3091 2.32675   1
   3   2  16 5.33717 1.49326   1
   3   2  16 -0.0022 1.32985   2
   4   2  16 -0.0184 1.51817   2
   4   2  16 0.94032 1.69883   1
 -10   3  16 10.8433 3.75034   1
 -10   3  16 0.23706 3.61177   2
  -9   3  16 -1.0603 3.13777   2
  -7   3  17 30.1451 7.29380  -2
  -9   3  16 30.1451 7.29380   1
  -6   3  17 32.7216 4.63698  -2
  -8   3  16 32.7216 4.63698   1
  -8   3  16 1.83467 2.94318   2
  -7   3  16 344.845 8.10341   1
  -6   3  16 29.8583 2.12149   1
  -5   3  16 8.46183 1.41397   1
  -4   3  16 65.9826 2.93619   1
  -4   3  16 4.39125 1.48415   2
  -3   3  16 262.247 5.53811   1
  -3   3  16 13.8638 1.59801   2
  -2   3  16 47.9578 2.18582   1
  -2   3  16 4.59821 1.34282   2
  -1   3  16 1.02838 1.20648   2
  -1   3  16 5.77943 1.19007   1
   0   3  16 3.57693 1.18137   1
   0   3  16 0.80944 1.10086   2
   1   3  16 8.33891 1.27984   1
   1   3  16 0.54912 1.11757   2
   2   3  16 11.1663 1.46930   1
   2   3  16 2.66318 1.24386   2
   3   3  16 0.47019 1.32509   2
   3   3  16 3.98688 1.41398   1
   4   3  16 0.10980 1.50865   2
   4   3  16 15.6257 1.94738   1
  -9   4  16 2.61692 3.16967   2
  -7   4  17 64.6969 7.68645  -2
  -9   4  16 64.6969 7.68645   1
  -8   4  16 -2.8433 2.83042   2
  -6   4  17 26.9251 4.57310  -2
  -8   4  16 26.9251 4.57310   1
  -7   4  16 11.1463 2.17578   1
  -6   4  16 3.63953 1.48315   1
  -5   4  16 229.992 5.83737   1
  -4   4  16 5.95842 1.43969   2
  -4   4  16 130.893 4.29420   1
  -3   4  16 11.4482 1.30472   1
  -3   4  16 3.63854 1.33483   2
  -2   4  16 -1.4757 1.29935   2
  -2   4  16 1.15277 1.08440   1
  -1   4  16 26.1557 1.74511   1
  -1   4  16 0.22114 1.19990   2
   0   4  16 0.74071 1.12180   2
   0   4  16 1.16457 1.13943   1
   1   4  16 16.3054 1.47244   1
   1   4  16 3.08279 1.16847   2
   2   4  16 11.4687 1.51516   2
   2   4  16 235.339 5.67196   1
   3   4  16 -0.2141 1.37881   2
   3   4  16 10.4067 1.64969   1
   4   4  16 5.40305 1.65825   2
   4   4  16 56.8728 3.23437   1
  -9   5  16 1.10528 3.32038   2
  -7   5  17 28.6780 7.66127  -2
  -9   5  16 28.6780 7.66127   1
  -8   5  16 1.42236 2.91986   2
  -6   5  17 7.23236 5.09453  -2
  -8   5  16 7.23236 5.09453   1
  -7   5  16 3.10077 2.08413   1
  -6   5  16 2.72690 1.51878   1
  -5   5  16 6.68427 1.44356   1
  -4   5  16 4.93495 1.45993   2
  -4   5  16 126.092 3.60343   1
  -3   5  16 1.61529 1.16534   1
  -3   5  16 -0.4461 1.31186   2
  -2   5  16 5.40603 1.31037   2
  -2   5  16 92.6835 2.99207   1
  -1   5  16 1.87519 1.18165   2
  -1   5  16 18.2703 1.47075   1
   0   5  16 211.643 5.13703   1
   0   5  16 13.4436 1.44551   2
   1   5  16 91.8042 3.08587   1
   1   5  16 5.24164 1.35417   2
   2   5  16 60.4575 2.70468   1
   2   5  16 3.25681 1.37447   2
   3   5  16 61.1111 2.88295   1
   3   5  16 3.45640 1.50851   2
   4   5  16 1.95544 1.65892   2
   4   5  16 72.2201 3.17182   1
  -9   6  16 1.61162 4.02786   2
  -7   6  17 85.2030 9.75511  -2
  -9   6  16 85.2030 9.75511   1
  -8   6  16 4.12515 3.13020   2
  -6   6  17 58.3588 6.09669  -2
  -8   6  16 58.3588 6.09669   1
  -7   6  16 30.7372 2.82414   1
  -6   6  16 3.67713 1.64677   1
  -5   6  16 8.96906 1.62516   1
  -4   6  16 12.5088 1.45223   1
  -4   6  16 -2.0909 1.37062   2
  -3   6  16 5.09178 1.51438   2
  -3   6  16 86.2011 2.96250   1
  -2   6  16 188.972 4.70546   1
  -2   6  16 9.96849 1.41522   2
  -1   6  16 2.67752 1.23493   2
  -1   6  16 20.0445 1.52891   1
   0   6  16 4.81216 1.34957   2
   0   6  16 112.338 3.43619   1
   1   6  16 39.1704 2.36484   1
   1   6  16 3.74516 1.30149   2
   2   6  16 51.1020 2.58625   1
   2   6  16 2.83524 1.36898   2
   3   6  16 0.10899 1.55757   1
   3   6  16 -2.0441 1.52643   2
  -8   7  16 -2.1413 3.72446   2
  -6   7  17 69.4030 7.02803  -2
  -8   7  16 69.4030 7.02803   1
  -7   7  16 145.139 6.51524   1
  -6   7  16 12.3908 2.53414   1
  -5   7  16 10.3896 1.76793   1
  -4   7  16 3.68925 1.35322   1
  -4   7  16 -1.0167 1.90499   2
  -3   7  16 4.88623 1.60410   2
  -3   7  16 70.6946 2.78123   1
  -2   7  16 38.0681 2.22018   1
  -2   7  16 -0.6986 1.31321   2
  -1   7  16 0.34406 1.29205   2
  -1   7  16 17.3514 1.54102   1
   0   7  16 122.971 3.67318   1
   0   7  16 7.57799 1.45236   2
   1   7  16 -0.2207 1.34463   2
   1   7  16 3.65101 1.39998   1
   2   7  16 0.34939 1.43150   2
   2   7  16 1.36660 1.46401   1
   3   7  16 7.25805 1.67895   1
   3   7  16 2.21744 1.61251   2
  -6   8  17 106.800 15.5936  -2
  -8   8  16 106.800 15.5936   1
  -8   8  16 5.08007 4.21865   2
  -7   8  16 52.0062 4.25679   1
  -6   8  16 25.0248 2.86315   1
  -5   8  16 271.558 7.56760   1
  -4   8  16 27.6278 2.00227   1
  -4   8  16 1.45376 2.05018   2
  -3   8  16 0.94944 1.61688   2
  -3   8  16 5.47035 1.41873   1
  -2   8  16 42.0858 2.34143   1
  -2   8  16 3.39492 2.13768   2
  -1   8  16 61.5363 2.73470   1
  -1   8  16 3.57437 1.45597   2
   0   8  16 2.95753 1.42947   2
   0   8  16 23.0550 1.81243   1
   1   8  16 -2.1953 1.40065   2
   1   8  16 0.05125 1.45696   1
   2   8  16 44.9392 2.70428   1
   2   8  16 2.40763 1.59812   2
  -7   9  16 57.4619 4.55149   1
  -6   9  16 47.9065 4.19583   1
  -5   9  16 -3.9086 1.87624   1
  -4   9  16 1.50384 2.25780   1
  -4   9  16 -2.1360 2.18622   2
  -3   9  16 3.40215 1.77380   2
  -3   9  16 14.2195 1.67670   1
  -2   9  16 68.9564 2.87697   1
  -2   9  16 6.81616 2.34635   2
  -1   9  16 33.9830 2.02862   1
  -1   9  16 1.28610 1.54326   2
   0   9  16 1.93909 1.49375   2
   0   9  16 12.4882 1.64584   1
   1   9  16 101.075 3.55391   1
   1   9  16 6.55766 1.63661   2
   2   9  16 8.35396 1.79430   1
   2   9  16 2.36015 1.65902   2
  -7  10  16 3.27510 2.89668   2
  -7  10  16 34.1178 3.48101   1
  -6  10  16 3.29519 2.60215   1
  -5  10  16 94.8077 5.51925   1
  -4  10  16 2.34417 2.30873   2
  -4  10  16 2.40954 2.34271   1
  -3  10  16 2.31921 2.35017   2
  -3  10  16 78.2518 3.24836   1
  -2  10  16 160.968 4.54191   1
  -2  10  16 9.69117 2.51291   2
  -1  10  16 33.8817 2.07480   1
  -1  10  16 1.63132 1.85342   2
   0  10  16 116.733 3.87213   1
   0  10  16 4.60522 1.69941   2
   1  10  16 4.54130 1.76026   2
   1  10  16 60.0373 3.77157   1
  -5  11  16 -0.3122 2.63857   1
  -5  11  16 0.48005 7.29882   2
  -4  11  16 2.02298 2.49214   2
  -4  11  16 6.62415 2.71168   1
  -3  11  16 -0.3387 2.39770   2
  -3  11  16 3.63419 2.75876   1
  -2  11  16 -2.2306 2.19930   1
  -2  11  16 -0.5045 2.43978   2
  -1  11  16 63.4390 3.84653   1
  -1  11  16 4.79800 2.81631   2
   0  11  16 91.4280 4.44879   1
   0  11  16 2.14614 2.34529   2
  -3  12  16 0.14425 2.57817   2
  -3  12  16 1.37053 2.77664   1
  -2  12  16 116.736 5.06755   1
  -2  12  16 2.35705 2.83320   2
  -8   0  17 -8.3924 5.51886   1
  -8   0  17 -2.0234 5.99036   2
  -7   0  17 12.6432 2.84445   1
  -6   0  17 -2.5720 2.17711   1
  -5   0  17 70.4545 4.35793   1
  -5   0  17 2.08784 2.35383   2
  -4   0  17 -0.0206 2.13150   2
  -4   0  17 0.08530 1.90927   1
  -3   0  17 3.18282 1.94932   2
  -3   0  17 41.6017 3.46396   1
  -2   0  17 0.66596 1.85765   1
  -2   0  17 7.96343 5.35737   2
  -1   0  17 3.94374 2.02977   2
  -1   0  17 4.67948 2.04005   1
   0   0  17 1.25383 2.17415   1
   0   0  17 -2.4298 2.11143   2
   1   0  17 1.36470 2.31579   1
   1   0  17 1.03053 2.42225   2
   2   0  17 -0.8165 2.42576   2
   2   0  17 1.93705 2.85190   1
   3   0  17 12.3242 3.17158   2
   3   0  17 156.964 8.58248   1
  -8   1  17 5.10432 4.52315   2
  -8   1  17 19.1658 4.65133   1
  -7   1  17 14.6883 2.03486   1
  -6   1  17 116.132 3.97085   1
  -5   1  17 74.6282 3.19162   1
  -5   1  17 5.42052 1.67072   2
  -4   1  17 37.9356 2.36894   1
  -4   1  17 3.86236 1.55571   2
  -3   1  17 36.5475 2.36173   1
  -3   1  17 2.80259 1.44998   2
  -2   1  17 74.6454 3.11773   1
  -2   1  17 1.56974 1.40155   2
  -1   1  17 2.87591 1.41255   2
  -1   1  17 37.5765 2.64670   1
   0   1  17 3.43387 1.45324   2
   0   1  17 27.2967 2.31153   1
   1   1  17 3.46078 1.43648   1
   1   1  17 0.28509 1.58448   2
   2   1  17 2.42741 1.58763   1
   2   1  17 0.56530 1.79340   2
   3   1  17 3.23997 3.01634   2
   3   1  17 26.7048 3.52811   1
  -8   2  17 26.4214 5.03110   1
  -8   2  17 4.42604 3.69136   2
  -7   2  17 28.5221 2.88173   1
  -6   2  17 35.4721 2.59143   1
  -5   2  17 4.35147 1.57240   2
  -5   2  17 6.15418 1.53423   1
  -4   2  17 34.1029 2.21278   1
  -4   2  17 0.86842 1.50309   2
  -3   2  17 1.09341 1.78430   2
  -3   2  17 6.14764 1.42317   1
  -2   2  17 2.77541 1.45003   2
  -2   2  17 17.9032 1.87354   1
  -1   2  17 1.63577 1.29251   1
  -1   2  17 -3.0716 1.38806   2
   0   2  17 396.401 8.64608   1
   0   2  17 20.4389 1.99120   2
   1   2  17 0.99292 1.36910   1
   1   2  17 -1.5881 2.19100   2
   2   2  17 -0.5395 1.71951   2
   2   2  17 22.1321 1.94464   1
  -8   3  17 6.71527 3.55358   2
  -8   3  17 18.4604 3.13456   1
  -7   3  17 3.85023 2.32144   1
  -6   3  17 160.290 4.82362   1
  -5   3  17 31.4432 2.19164   1
  -5   3  17 2.09041 2.09768   2
  -4   3  17 32.6002 2.23510   1
  -4   3  17 6.52654 1.61012   2
  -3   3  17 7.05154 1.56671   1
  -3   3  17 0.01310 1.44306   2
  -2   3  17 14.1912 1.68537   2
  -2   3  17 203.504 5.04330   1
  -1   3  17 76.6695 2.88999   1
  -1   3  17 4.60046 1.56933   2
   0   3  17 18.7827 1.64702   1
   0   3  17 2.91877 1.52796   2
   1   3  17 4.81649 1.75775   2
   1   3  17 61.7486 2.75732   1
   2   3  17 59.5216 3.07658   1
   2   3  17 2.55983 1.55920   2
  -8   4  17 25.8972 2.85263   1
  -8   4  17 5.06351 3.48922   2
  -7   4  17 -2.8147 2.34054   1
  -6   4  17 12.9674 1.87454   1
  -5   4  17 7.35620 2.35062   2
  -5   4  17 118.850 4.29830   1
  -4   4  17 11.5052 1.75906   2
  -4   4  17 172.970 5.35984   1
  -3   4  17 4.33924 1.53063   2
  -3   4  17 15.8962 1.75181   1
  -2   4  17 14.3692 1.53562   1
  -2   4  17 2.01556 1.60264   2
  -1   4  17 -0.6473 1.31346   1
  -1   4  17 2.01812 1.51730   2
   0   4  17 69.3492 2.79969   1
   0   4  17 2.11262 1.40890   2
   1   4  17 5.53437 1.46219   1
   1   4  17 1.97682 1.43311   2
   2   4  17 -1.9771 1.52911   2
   2   4  17 6.78100 1.67241   1
  -8   5  17 4.49250 6.86206   1
  -7   5  17 19.4735 3.15748   1
  -6   5  17 17.7616 2.18785   1
  -5   5  17 3.78037 2.30665   2
  -5   5  17 105.814 4.16250   1
  -4   5  17 2.10200 1.72437   2
  -4   5  17 41.2228 2.81743   1
  -3   5  17 -0.9458 1.63133   2
  -3   5  17 2.64015 1.37439   1
  -2   5  17 -2.5025 1.56031   2
  -2   5  17 12.9813 1.51338   1
  -1   5  17 -0.6529 1.57500   2
  -1   5  17 8.01314 1.46952   1
   0   5  17 1.14678 1.44353   2
   0   5  17 11.9768 1.59948   1
   1   5  17 1.10698 1.47207   1
   1   5  17 2.05761 1.49818   2
   2   5  17 3.76836 1.61754   2
   2   5  17 59.9317 2.96988   1
  -7   6  17 138.772 6.63558   1
  -6   6  17 60.4350 4.40209   1
  -5   6  17 1.00024 1.83329   1
  -5   6  17 1.39039 2.57611   2
  -4   6  17 7.71609 1.81916   1
  -4   6  17 3.87369 2.23878   2
  -3   6  17 3.77228 1.47736   1
  -3   6  17 -0.5602 1.69736   2
  -2   6  17 -0.5036 1.71177   2
  -2   6  17 27.1644 1.84692   1
  -1   6  17 45.5542 2.54023   1
  -1   6  17 0.33136 1.50414   2
   0   6  17 123.356 3.84991   1
   0   6  17 7.24131 1.63745   2
   1   6  17 40.2451 2.55166   1
   1   6  17 1.94373 1.60874   2
  -6   7  17 70.4453 4.85792   1
  -5   7  17 3.50477 2.46590   2
  -5   7  17 8.83162 2.04550   1
  -4   7  17 2.70839 2.30331   2
  -4   7  17 45.7256 3.21245   1
  -3   7  17 -0.1844 1.83016   2
  -3   7  17 10.2078 1.67275   1
  -2   7  17 85.2830 3.30212   1
  -2   7  17 4.06102 1.86827   2
  -1   7  17 6.61654 1.70585   2
  -1   7  17 106.987 3.58448   1
   0   7  17 3.24544 1.64430   2
   0   7  17 12.5159 1.76820   1
   1   7  17 98.1739 3.51439   1
   1   7  17 3.46536 1.68340   2
  -6   8  17 5.10497 2.75323   1
  -5   8  17 72.1189 4.85408   1
  -5   8  17 4.42271 2.75726   2
  -4   8  17 10.4171 2.76232   2
  -4   8  17 223.811 6.71745   1
  -3   8  17 0.95948 1.67326   1
  -3   8  17 3.83071 2.50712   2
  -2   8  17 62.0103 2.99381   1
  -2   8  17 3.94647 2.00883   2
  -1   8  17 3.83227 1.99037   2
  -1   8  17 96.7304 3.57028   1
   0   8  17 0.77455 1.69432   2
   0   8  17 32.0446 2.18454   1
  -4   9  17 9.97800 2.24546   1
  -4   9  17 -0.6307 2.58821   2
  -3   9  17 1.88051 2.71574   2
  -3   9  17 32.3995 2.19500   1
  -2   9  17 7.38744 2.09867   2
  -2   9  17 86.7942 3.51009   1
  -1   9  17 26.6078 2.03770   1
  -1   9  17 2.09624 2.03313   2
  -6   0  18 42.9972 4.40328   1
  -6   0  18 6.70185 6.17949   2
  -5   0  18 2.00144 2.42857   1
  -5   0  18 0.82593 5.69757   2
  -4   0  18 38.1609 3.34216   1
  -4   0  18 1.57089 2.78255   2
  -3   0  18 -1.2553 2.39820   2
  -3   0  18 -4.0260 2.24584   1
  -2   0  18 503.227 20.5647   1
  -2   0  18 25.1102 3.14995   2
  -1   0  18 10.5886 7.38234   2
  -1   0  18 -2.1291 2.50901   1
   0   0  18 -0.4530 2.51744   2
   0   0  18 11.7313 3.19893   1
  -6   1  18 15.9770 2.19143   1
  -6   1  18 7.38668 4.43432   2
  -5   1  18 26.4933 2.17402   1
  -5   1  18 0.67924 2.55841   2
  -4   1  18 5.92619 1.93703   2
  -4   1  18 142.015 4.66278   1
  -3   1  18 4.58075 1.75886   2
  -3   1  18 51.7471 3.13581   1
  -2   1  18 4.97690 1.67845   2
  -2   1  18 10.9286 1.95023   1
  -1   1  18 1.22482 1.82560   2
  -1   1  18 2.25215 1.89113   1
   0   1  18 3.17599 1.85859   2
   0   1  18 14.5657 2.25621   1
  -6   2  18 40.7719 3.09118   1
  -6   2  18 -1.8958 4.52160   2
  -5   2  18 8.80319 2.04180   1
  -5   2  18 -0.9319 2.61970   2
  -4   2  18 5.18257 1.80456   1
  -4   2  18 1.13232 1.94843   2
  -3   2  18 -0.5726 1.72477   1
  -3   2  18 2.41037 1.78590   2
  -2   2  18 51.2292 3.18302   1
  -2   2  18 0.89314 1.81294   2
  -1   2  18 1.69288 1.80622   2
  -1   2  18 -0.0828 1.77762   1
   0   2  18 -0.9367 1.79720   2
   0   2  18 1.80113 1.93617   1
  -6   3  18 4.06801 4.88637   2
  -6   3  18 22.2616 3.19264   1
  -5   3  18 -1.4285 2.66345   2
  -5   3  18 19.0476 2.22053   1
  -4   3  18 13.3799 2.02636   1
  -4   3  18 -0.9639 2.03841   2
  -3   3  18 2.88044 1.91550   2
  -3   3  18 28.1334 2.24651   1
  -2   3  18 6.86684 1.91284   1
  -2   3  18 0.10085 1.80008   2
  -1   3  18 0.93430 1.81323   2
  -1   3  18 8.42450 2.00692   1
  -5   4  18 3.02371 1.95041   1
  -5   4  18 1.53765 2.61640   2
  -4   4  18 6.73110 2.68440   2
  -4   4  18 38.2843 2.83933   1
  -3   4  18 -1.2307 1.95675   2
  -3   4  18 10.9173 2.06074   1
  -2   4  18 140.812 5.02518   1
  -2   4  18 7.93821 2.05074   2
  -1   4  18 22.9495 1.96749   1
  -1   4  18 2.33557 1.90365   2
  -4   5  18 8.06540 2.58537   2
  -4   5  18 119.054 4.59958   1
  -3   5  18 108.463 4.33087   1
  -3   5  18 6.90550 2.12251   2
  -2   5  18 1.88010 1.92630   2
  -2   5  18 3.76830 1.61554   1
   0   0   0    0.00    0.00   0
;
_shelx_hkl_checksum              70154
_publcif_info_exptl_table_max_cols 4
_publcif_info_exptl_table_use_headnotes n
_publcif_funding_html
;
;
loop_
_space_group_symop_operation_xyz
'x, y, z'
'-x+1/2, y+1/2, -z+1/2'
'-x, -y, -z'
'x-1/2, -y-1/2, z-1/2'
loop_
_atom_site_label
_atom_site_type_symbol
_atom_site_fract_x
_atom_site_fract_y
_atom_site_fract_z
_atom_site_U_iso_or_equiv
_atom_site_adp_type
_atom_site_occupancy
_atom_site_site_symmetry_order
_atom_site_calc_flag
Sn1 Sn 0.34195(2) 0.85438(2) 0.36709(2) 0.00837(3) Uani 1 1 d
Sn2 Sn 0.89952(2) 0.83360(2) 0.54859(2) 0.00761(3) Uani 1 1 d
Sn3 Sn -0.04378(2) 0.38898(2) 0.65718(2) 0.00807(3) Uani 1 1 d
B1 B 0.5714(3) 0.7119(2) 0.6115(2) 0.0066(3) Uani 1 1 d
B2 B 0.4126(3) 0.5410(2) 0.6532(3) 0.0074(3) Uani 1 1 d
B3 B 0.2458(3) 0.7197(2) 0.6235(2) 0.0065(3) Uani 1 1 d
B4 B 0.3478(3) 0.3259(2) 0.6452(2) 0.0060(3) Uani 1 1 d
O1 O 0.7408(2) 0.75911(15) 0.69188(17) 0.0080(2) Uani 1 1 d
O2 O 0.1646(2) 0.32388(15) 0.56734(18) 0.0081(2) Uani 1 1 d
O3 O 0.5457(2) 0.73160(15) 0.45081(17) 0.0078(2) Uani 1 1 d
O4 O 0.1670(2) 0.75214(15) 0.46793(17) 0.0084(2) Uani 1 1 d
O5 O 0.3804(2) 0.26089(15) 0.78823(16) 0.0072(2) Uani 1 1 d
O6 O 0.5691(2) 0.59536(15) 0.6494(2) 0.0100(3) Uani 1 1 d
O7 O 0.2551(2) 0.59867(15) 0.6318(2) 0.0103(3) Uani 1 1 d
O8 O 0.4244(2) 0.77116(14) 0.66333(17) 0.0065(2) Uani 1 1 d
O9 O 0.4238(3) 0.43261(15) 0.6898(2) 0.0132(3) Uani 1 1 d
loop_
_atom_site_aniso_label
_atom_site_aniso_U_11
_atom_site_aniso_U_22
_atom_site_aniso_U_33
_atom_site_aniso_U_23
_atom_site_aniso_U_13
_atom_site_aniso_U_12
Sn1 0.00826(5) 0.00725(6) 0.00912(5) 0.00007(4) 0.00064(4) -0.00098(4)
Sn2 0.00675(5) 0.00802(6) 0.00792(5) 0.00183(4) 0.00118(4) 0.00036(4)
Sn3 0.00838(5) 0.00737(6) 0.00848(5) -0.00102(4) 0.00179(4) 0.00171(4)
B1 0.0049(7) 0.0091(9) 0.0061(7) -0.0003(6) 0.0015(6) -0.0001(6)
B2 0.0076(7) 0.0068(8) 0.0077(7) -0.0001(6) 0.0012(6) -0.0005(6)
B3 0.0049(7) 0.0085(8) 0.0061(7) -0.0004(6) 0.0015(6) -0.0003(6)
B4 0.0051(7) 0.0070(8) 0.0060(7) 0.0004(6) 0.0016(6) 0.0004(6)
O1 0.0051(5) 0.0127(7) 0.0063(5) 0.0004(5) 0.0009(4) -0.0025(5)
O2 0.0046(5) 0.0115(6) 0.0079(5) -0.0011(5) 0.0009(4) 0.0006(4)
O3 0.0064(5) 0.0126(7) 0.0048(5) 0.0008(4) 0.0020(4) 0.0033(5)
O4 0.0070(5) 0.0129(7) 0.0052(5) -0.0001(5) 0.0010(4) -0.0017(5)
O5 0.0045(5) 0.0123(6) 0.0050(5) 0.0019(4) 0.0014(4) -0.0013(4)
O6 0.0068(5) 0.0085(6) 0.0150(7) 0.0028(5) 0.0029(5) 0.0013(5)
O7 0.0065(5) 0.0072(6) 0.0172(7) -0.0013(5) 0.0028(5) -0.0005(4)
O8 0.0044(5) 0.0085(6) 0.0070(5) -0.0022(4) 0.0021(4) -0.0009(4)
O9 0.0161(7) 0.0062(6) 0.0153(7) -0.0002(5) -0.0018(6) -0.0018(5)
loop_
_atom_type_symbol
_atom_type_description
_atom_type_scat_dispersion_real
_atom_type_scat_dispersion_imag
_atom_type_scat_source
B B 0.0013 0.0007 'International Tables Vol C Tables 4.2.6.8 and 6.1.1.4'
O O 0.0106 0.0060 'International Tables Vol C Tables 4.2.6.8 and 6.1.1.4'
Sn Sn -0.6537 1.4246 'International Tables Vol C Tables 4.2.6.8 and 6.1.1.4'
loop_
_geom_angle_atom_site_label_1
_geom_angle_atom_site_label_2
_geom_angle_atom_site_label_3
_geom_angle
_geom_angle_site_symmetry_1
_geom_angle_site_symmetry_3
O1 Sn1 O4 78.55(6) 4_575 .
O1 Sn1 O3 87.51(6) 4_575 .
O4 Sn1 O3 85.62(6) . .
O1 Sn2 O2 80.88(6) . 3_666
O1 Sn2 O5 82.24(6) . 2_656
O2 Sn2 O5 93.08(6) 3_666 2_656
O1 Sn2 O4 127.74(6) . 1_655
O2 Sn2 O4 68.40(6) 3_666 1_655
O5 Sn2 O4 59.41(5) 2_656 1_655
O2 Sn3 O4 77.25(6) . 3_566
O2 Sn3 O8 79.99(6) . 2_546
O4 Sn3 O8 87.95(6) 3_566 2_546
O6 B1 O1 107.82(17) . .
O6 B1 O3 113.15(18) . .
O1 B1 O3 111.49(17) . .
O6 B1 O8 109.83(17) . .
O1 B1 O8 107.46(17) . .
O3 B1 O8 106.96(17) . .
O9 B2 O7 122.4(2) . .
O9 B2 O6 117.2(2) . .
O7 B2 O6 120.2(2) . .
O7 B3 O5 109.73(18) . 2_556
O7 B3 O8 111.90(17) . .
O5 B3 O8 113.64(17) 2_556 .
O7 B3 O4 108.53(18) . .
O5 B3 O4 105.18(17) 2_556 .
O8 B3 O4 107.50(17) . .
O9 B4 O2 117.05(19) . .
O9 B4 O3 110.28(18) . 3_666
O2 B4 O3 106.96(17) . 3_666
O9 B4 O5 103.22(17) . .
O2 B4 O5 113.35(17) . .
O3 B4 O5 105.41(16) 3_666 .
B1 O1 Sn1 106.24(13) . 4_676
B1 O1 Sn2 113.61(12) . .
Sn1 O1 Sn2 124.39(7) 4_676 .
B4 O2 Sn3 122.69(13) . .
B4 O2 Sn2 110.96(13) . 3_666
Sn3 O2 Sn2 113.92(7) . 3_666
B1 O3 B4 123.11(16) . 3_666
B1 O3 Sn1 113.86(13) . .
B4 O3 Sn1 123.02(12) 3_666 .
B3 O4 Sn3 110.79(13) . 3_566
B3 O4 Sn1 113.48(12) . .
Sn3 O4 Sn1 117.30(7) 3_566 .
B3 O4 Sn2 90.63(11) . 1_455
Sn3 O4 Sn2 99.87(6) 3_566 1_455
Sn1 O4 Sn2 121.25(8) . 1_455
B3 O5 B4 130.41(16) 2_546 .
B3 O5 Sn2 104.72(12) 2_546 2_646
B4 O5 Sn2 110.98(12) . 2_646
B2 O6 B1 121.46(18) . .
B2 O7 B3 122.99(18) . .
B3 O8 B1 116.16(16) . .
B3 O8 Sn3 132.00(13) . 2_556
B1 O8 Sn3 108.70(12) . 2_556
B2 O9 B4 142.6(2) . .
loop_
_geom_bond_atom_site_label_1
_geom_bond_atom_site_label_2
_geom_bond_distance
_geom_bond_site_symmetry_2
Sn1 O1 2.1421(17) 4_575
Sn1 O4 2.1709(17) .
Sn1 O3 2.1787(16) .
Sn2 O1 2.1710(16) .
Sn2 O2 2.1879(17) 3_666
Sn2 O5 2.2040(15) 2_656
Sn2 O4 2.5244(17) 1_655
Sn3 O2 2.1012(16) .
Sn3 O4 2.1645(17) 3_566
Sn3 O8 2.2347(15) 2_546
B1 O6 1.450(3) .
B1 O1 1.475(3) .
B1 O3 1.478(3) .
B1 O8 1.496(3) .
B2 O9 1.350(3) .
B2 O7 1.374(3) .
B2 O6 1.376(3) .
B3 O7 1.463(3) .
B3 O5 1.476(3) 2_556
B3 O8 1.481(3) .
B3 O4 1.495(3) .
B4 O9 1.439(3) .
B4 O2 1.443(3) .
B4 O3 1.496(3) 3_666
B4 O5 1.514(3) .
O1 Sn1 2.1421(17) 4_676
O2 Sn2 2.1879(17) 3_666
O3 B4 1.496(3) 3_666
O4 Sn3 2.1645(17) 3_566
O4 Sn2 2.5244(17) 1_455
O5 B3 1.476(3) 2_546
O5 Sn2 2.2040(15) 2_646
O8 Sn3 2.2348(15) 2_556
loop_
_publcif_info_datablock.id
_publcif_info_datablock.publ_exptl
_publcif_info_datablock.publ_geom
_publcif_info_datablock.structure
{98a6a171-7322-4e9f-9a9e-4d780fab2565} y y y
loop_
_publcif_info_exptl_table_extra_item
sin_theta_over_lambda_max
loop_
_publcif_info_tables.block_id
_publcif_info_tables.reference_item
{98a6a171-7322-4e9f-9a9e-4d780fab2565} '_publcif_info_datablock.publ_exptl'
loop_
_publcif_info_cif.paper_type
EX
