#------------------------------------------------------------------------------
#$Date: 2020-02-04 22:33:20 +0200 (Tue, 04 Feb 2020) $
#$Revision: 247715 $
#$URL: file:///home/coder/svn-repositories/cod/cif/7/70/30/7703061.cif $
#------------------------------------------------------------------------------
#
# This file is available in the Crystallography Open Database (COD),
# http://www.crystallography.net/
#
# All data on this site have been placed in the public domain by the
# contributors.
#
data_7703061
loop_
_publ_author_name
'Miao, Zhaohong'
'Yang, Yun'
'Wei, Zhonglei'
'Yang, Zhihua'
'Pan, Shilie'
_publ_section_title
;
 Effect of anion dimensionality on optical properties: the <sub>\\infty
 </sub>[B<sub>7</sub>O<sub>10</sub>(OH)<sub>2</sub>] layer in
 CsB<sub>7</sub>O<sub>10</sub>(OH)<sub>2</sub>vs. the <sub>\\infty
 </sub>[B<sub>7</sub>O<sub>12</sub>] framework in
 CsBaB<sub>7</sub>O<sub>12</sub>.
;
_journal_issue                   4
_journal_name_full
'Dalton transactions (Cambridge, England : 2003)'
_journal_page_first              1292
_journal_page_last               1299
_journal_paper_doi               10.1039/c9dt04539b
_journal_volume                  49
_journal_year                    2020
_chemical_formula_moiety         'B7 Ba Cs O12'
_chemical_formula_sum            'B7 Ba Cs O12'
_chemical_formula_weight         537.99
_space_group_crystal_system      monoclinic
_space_group_IT_number           14
_space_group_name_Hall           '-P 2ybc'
_space_group_name_H-M_alt        'P 1 21/c 1'
_symmetry_Int_Tables_number      14
_audit_creation_date             2019-05-05
_audit_creation_method
;
Olex2 1.2
(compiled 2018.05.29 svn.r3508 for OlexSys, GUI svn.r5506)
;
_audit_update_record
;
2019-05-08 deposited with the CCDC.	2019-12-23 downloaded from the CCDC.
;
_cell_angle_alpha                90
_cell_angle_beta                 112.502(2)
_cell_angle_gamma                90
_cell_formula_units_Z            4
_cell_length_a                   10.6012(4)
_cell_length_b                   8.6819(4)
_cell_length_c                   12.6458(5)
_cell_measurement_reflns_used    2175
_cell_measurement_temperature    296(2)
_cell_measurement_theta_max      27.483
_cell_measurement_theta_min      2.923
_cell_volume                     1075.29(8)
_computing_cell_refinement       'SAINT V8.38A (?, 2016)'
_computing_data_collection       'Bruker SMART'
_computing_data_reduction        'SAINT V8.38A (?, 2016)'
_computing_molecular_graphics    'Olex2 (Dolomanov et al., 2009)'
_computing_publication_material  'Olex2 (Dolomanov et al., 2009)'
_computing_structure_refinement  'olex2.refine (Bourhis et al., 2015)'
_computing_structure_solution    'Bruker SHELXTL'
_diffrn_ambient_temperature      296.15
_diffrn_measured_fraction_theta_full 0.9996
_diffrn_measured_fraction_theta_max 0.9996
_diffrn_measurement_device_type  'CCD area detector'
_diffrn_measurement_method       'phi and omega scans'
_diffrn_radiation_monochromator  graphite
_diffrn_radiation_type           'Mo K\a'
_diffrn_radiation_wavelength     0.71073
_diffrn_reflns_av_R_equivalents  0.0351
_diffrn_reflns_av_unetI/netI     0.0373
_diffrn_reflns_limit_h_max       13
_diffrn_reflns_limit_h_min       -13
_diffrn_reflns_limit_k_max       11
_diffrn_reflns_limit_k_min       -9
_diffrn_reflns_limit_l_max       16
_diffrn_reflns_limit_l_min       -16
_diffrn_reflns_number            9527
_diffrn_reflns_theta_full        27.4995
_diffrn_reflns_theta_max         27.50
_diffrn_reflns_theta_min         2.08
_exptl_absorpt_coefficient_mu    7.092
_exptl_absorpt_correction_T_max  0.7456
_exptl_absorpt_correction_T_min  0.6468
_exptl_absorpt_correction_type   multi-scan
_exptl_absorpt_process_details
'SADABS-2016/2 (Bruker,2016/2) was used for absorption correction. wR2(int) was 0.0680 before and 0.0430 after correction. The Ratio of minimum to maximum transmission is 0.8675. The \l/2 correction factor is Not present.'
_exptl_crystal_colour            colourless
_exptl_crystal_colour_primary    colourless
_exptl_crystal_density_diffrn    3.3224
_exptl_crystal_description       block
_exptl_crystal_F_000             966.9784
_exptl_crystal_size_max          0.097
_exptl_crystal_size_mid          0.085
_exptl_crystal_size_min          0.055
_refine_diff_density_max         1.0748
_refine_diff_density_min         -1.0592
_refine_diff_density_rms         0.2718
_refine_ls_d_res_high            0.7696
_refine_ls_d_res_low             9.7941
_refine_ls_extinction_expression Fc^*^=kFc[1+0.001xFc^2^\l^3^/sin(2\q)]^-1/4^
_refine_ls_goodness_of_fit_ref   1.0058
_refine_ls_hydrogen_treatment    undef
_refine_ls_matrix_type           full
_refine_ls_number_constraints    0
_refine_ls_number_parameters     191
_refine_ls_number_reflns         2476
_refine_ls_number_restraints     6
_refine_ls_restrained_S_all      1.0045
_refine_ls_R_factor_all          0.0461
_refine_ls_R_factor_gt           0.0286
_refine_ls_shift/su_max          0.0001
_refine_ls_shift/su_mean         0.0000
_refine_ls_structure_factor_coef Fsqd
_refine_ls_weighting_details
'w=1/[\s^2^(Fo^2^)+(0.0198P)^2^+1.3022P] where P=(Fo^2^+2Fc^2^)/3'
_refine_ls_weighting_scheme      calc
_refine_ls_wR_factor_gt          0.0529
_refine_ls_wR_factor_ref         0.0584
_reflns_Friedel_coverage         0.0
_reflns_limit_h_max              12
_reflns_limit_h_min              -13
_reflns_limit_k_max              11
_reflns_limit_k_min              0
_reflns_limit_l_max              16
_reflns_limit_l_min              0
_reflns_number_gt                1782
_reflns_number_total             2476
_reflns_threshold_expression     I>=2u(I)
_iucr_refine_instructions_details
;
TITL eee in P2(1)/c
CELL 0.71073 10.6012 8.6819 12.6458 90 112.502 90
ZERR 4 0.0004 0.0004 0.0005 0 0.002 0
LATT 1
SYMM -X,0.5+Y,0.5-Z
SFAC B O Cs Ba
UNIT 28 48 4 4
ISOR 0.001 0.002 B6

L.S. 20
PLAN  10
SIZE 0.097 0.085 0.055
TEMP 23
FREE Ba1 B2
ACTA 
FMAP 2
EXTI 0.001325
WGHT 0.019814 1.302213
FVAR 0.078051
REM <olex2.extras>
REM <HklSrc "%.\\eee.hkl">
REM </olex2.extras>

Ba1   4     0.47745  0.25516  0.11217  11.00000  0.01469  0.02196  0.01189 =
 0.00402  0.00754  0.00527 
Cs1   3     0.01362  0.25581 -0.00188  11.00000  0.02306  0.02310  0.01949 =
 0.00389  0.00697  0.00456 
B1    1    -0.25331  0.46414  0.05027  11.00000  0.00695  0.01930  0.01155 =
 -0.00119  0.00567 -0.00209 
B2    1     0.29919  0.55730  0.16478  11.00000  0.00720  0.01141  0.01094 =
 0.00221  0.00267 -0.00066 
B3    1     0.39956  0.12416 -0.17131  11.00000  0.00735  0.01338  0.01181 =
 0.00074  0.00183  0.00343 
B4    1     0.28659  0.12153  0.29606  11.00000  0.00955  0.01650  0.01734 =
 0.00115  0.00592  0.00034 
B5    1     0.17979  0.48993  0.29423  11.00000  0.00698  0.01274  0.01017 =
 -0.00511 -0.00286  0.00072 
B6    1    -0.37190  0.24268 -0.06435  11.00000  0.00905  0.00992  0.00994 =
 -0.00012  0.00334  0.00069 
B7    1     0.06917  0.00857  0.25964  11.00000  0.01371  0.01110  0.00876 =
 -0.00073  0.00274 -0.00111 
O1    2    -0.06291 -0.00699  0.18061  11.00000  0.00850  0.02712  0.00994 =
 -0.00413  0.00368 -0.00354 
O2    2     0.15950  0.07366  0.21768  11.00000  0.01227  0.02672  0.00808 =
 0.00168  0.00155 -0.00887 
O3    2     0.28983  0.08513 -0.12904  11.00000  0.01251  0.01668  0.01200 =
 -0.00281  0.00599 -0.00314 
O4    2     0.52440  0.14499 -0.07142  11.00000  0.00866  0.01292  0.01161 =
 0.00005  0.00383 -0.00333 
O5    2     0.35367  0.22880  0.26057  11.00000  0.01179  0.01078  0.01341 =
 -0.00044  0.00641 -0.00159 
O6    2     0.41851  0.49059  0.25488  11.00000  0.00838  0.01241  0.00971 =
 0.00327  0.00230  0.00045 
O7    2     0.26743  0.47345  0.05862  11.00000  0.01624  0.01112  0.00903 =
 -0.00217  0.00260 -0.00412 
O8    2     0.18043  0.55832  0.19915  11.00000  0.00844  0.02061  0.01389 =
 0.00678  0.00643  0.00246 
O9    2    -0.10844  0.46555  0.13118  11.00000  0.00394  0.01843  0.01326 =
 -0.00372  0.00118 -0.00164 
O10   2    -0.33668  0.56203  0.09679  11.00000  0.00869  0.02634  0.01383 =
 -0.00661  0.00094  0.00501 
O11   2    -0.30630  0.30736  0.04163  11.00000  0.01209  0.01444  0.00896 =
 0.00106  0.00171 -0.00750 
O12   2    -0.33691  0.27896 -0.15370  11.00000  0.01210  0.00926  0.01166 =
 -0.00065  0.00560 -0.00053 
HKLF 4

END
Q1 1 -0.111111 0.2 0.144444 11 0.05 1.07
Q2 1 -0.277778 0.5 0.155556 11 0.05 1
Q3 1 -0.083333 0.366667 -0.011111 11 0.05 0.98
Q4 1 -0.055556 0.033333 0.211111 11 0.05 0.97
Q5 1 0 0.233333 -0.088889 11 0.05 0.95
Q6 1 0.027778 0.366667 -0.033333 11 0.05 0.95
Q7 1 -0.388889 0.3 -0.188889 11 0.05 0.95
Q8 1 -0.138889 0.166667 -0.133333 11 0.05 0.94
Q9 1 0.166667 0.533333 0.311111 11 0.05 0.9
Q10 1 0.722222 0.6 0.388889 11 0.05 0.9
Q11 1 0.111111 0.366667 0.044444 11 0.05 0.9
Q12 1 -0.277778 0 -0.044444 11 0.05 0.88
Q13 1 0.166667 0.533333 0.144444 11 0.05 0.88
Q14 1 0.138889 0.133333 0.255556 11 0.05 0.88
Q15 1 -0.361111 0.6 0.011111 11 0.05 0.87
Q16 1 0.083333 -0.1 0.288889 11 0.05 0.86
Q17 1 0.194444 0.166667 0.2 11 0.05 0.85
Q18 1 -0.166667 0.6 0.155556 11 0.05 0.85
Q19 1 0.5 0.2 0.033333 11 0.05 0.85
Q20 1 0.222222 0.1 -0.166667 11 0.05 0.84

  REM The information below was added by Olex2.
  REM
  REM R1 = 0.0286 for 1782 Fo > 4sig(Fo) and 0.0461 for all 2476 data
  REM 191 parameters refined using 6 restraints
  REM Highest difference peak 1.0748, deepest hole -1.0592
  REM Mean Shift 0.0000, Max Shift 0.0001.

  REM +++ Tabular Listing of Refinement Information +++
  REM R1_all = 0.0461
  REM R1_gt = 0.0286
  REM wR_ref = 0.0584
  REM GOOF = 1.0058
  REM Shift_max = 0.0001
  REM Shift_mean = 0.0000
  REM Reflections_all = 2476
  REM Reflections_gt = 1782
  REM Parameters = 191
  REM Hole = -1.0592
  REM Peak = 1.0748
  REM Flack = n/a

  
;
_cod_data_source_file            c9dt04539b2.cif
_cod_data_source_block           eee
_cod_depositor_comments
'Adding full bibliography for 7703061--7703062.cif.'
_cod_database_code               7703061
_olex2_refinement_description
;
1. Uiso/Uaniso restraints and constraints
Uanis(B6) \\sim Ueq: with sigma of 0.001 and sigma for terminal atoms of 0.002
;
_iucr_refine_fcf_details
;
data_eee_CCDC1
_computing_structure_refinement   'olex2.refine (Bourhis et al., 2015)'
_shelx_refln_list_code            4
loop_
  _space_group_symop_id
  _space_group_symop_operation_xyz
  1  x,y,z
  2  -x,y+1/2,-z+1/2
  3  -x,-y,-z
  4  x,-y-1/2,z-1/2

_space_group_crystal_system       monoclinic
_space_group_IT_number            14
_space_group_name_H-M_alt         'P 1 21/c 1'
_space_group_name_Hall            '-P 2ybc'
_symmetry_space_group_name_H-M    'P 1 21/c 1'
_symmetry_space_group_name_Hall   '-P 2ybc'
_symmetry_Int_Tables_number       14
_cell_length_a                    10.6012(4)
_cell_length_b                    8.6819(4)
_cell_length_c                    12.6458(5)
_cell_angle_alpha                 90
_cell_angle_beta                  112.502(2)
_cell_angle_gamma                 90
_cell_volume                      1075.29(8)
loop_
  _refln_index_h
  _refln_index_k
  _refln_index_l
  _refln_F_squared_calc
  _refln_F_squared_meas
  _refln_F_squared_sigma
  _refln_F_squared_weight
  _refln_observed_status
-13 0 2 9046.170 6441.250 648.393 1.017 o
-13 0 4 151.707 -14.774 172.358 15.583 o
-13 0 6 1352.360 1350.960 305.319 4.860 o
-13 0 8 956.485 735.393 233.093 8.336 o
-13 0 10 7081.720 7148.740 641.827 1.055 o
-13 1 2 1418.140 1416.750 240.260 7.705 o
-13 1 3 163.408 254.206 134.403 25.370 o
-13 1 4 378.778 606.031 168.292 16.039 o
-13 1 5 123.387 188.742 124.329 29.706 o
-13 1 6 684.267 724.113 189.976 12.505 o
-13 1 7 18.581 -43.214 94.100 52.424 o
-13 1 8 11750.500 12649.400 758.374 0.718 o
-13 1 9 36.220 39.396 139.528 23.828 o
-13 1 10 5158.970 5252.810 582.733 1.303 o
-13 2 2 9700.740 10079.800 752.629 0.754 o
-13 2 3 19.799 36.113 162.509 17.588 o
-13 2 4 692.684 673.016 277.414 5.959 o
-13 2 5 524.870 438.281 198.622 11.570 o
-13 2 6 4319.050 5677.960 622.129 1.156 o
-13 2 7 28.941 18.056 146.094 21.755 o
-13 2 8 107.813 315.168 188.773 12.962 o
-13 2 9 157.222 -103.415 154.301 19.418 o
-13 2 10 6436.540 7228.290 870.817 0.593 o
-13 3 3 212.129 -55.811 175.641 14.982 o
-13 3 4 609.638 370.979 224.886 9.052 o
-13 3 5 323.845 333.225 215.037 9.957 o
-13 3 6 975.591 961.920 298.753 5.117 o
-13 3 7 12.656 -64.019 157.584 18.719 o
-13 3 8 6556.050 7229.180 704.204 0.890 o
-12 0 2 3766.750 3709.790 474.394 1.975 o
-12 0 4 508.818 860.147 238.018 8.071 o
-12 0 6 11214.300 12084.700 699.280 0.837 o
-12 0 8 6896.140 6362.460 576.167 1.297 o
-12 0 10 3181.430 3287.550 308.129 4.507 o
-12 0 12 252.412 110.977 163.661 17.180 o
-12 1 1 88.455 119.386 115.446 34.550 o
-12 1 2 2511.230 2826.990 290.550 5.138 o
-12 1 3 0.347 -6.780 96.235 50.214 o
-12 1 4 17366.100 17974.600 661.525 0.800 o
-12 1 5 77.690 47.385 101.707 44.570 o
-12 1 6 3459.630 3484.970 307.426 4.483 o
-12 1 7 0.517 -17.258 85.799 63.170 o
-12 1 8 122.428 239.065 115.452 34.323 o
-12 1 9 72.171 47.037 99.236 46.821 o
-12 1 10 103.179 11.435 103.840 42.746 o
-12 1 11 1.536 -75.442 99.236 47.218 o
-12 1 12 9881.810 10058.800 474.695 1.678 o
-12 2 1 21.813 129.845 113.059 36.166 o
-12 2 2 1655.330 1893.270 248.745 7.120 o
-12 2 3 148.357 145.956 123.612 30.041 o
-12 2 4 15.506 24.308 99.801 46.578 o
-12 2 5 322.196 410.376 200.263 11.451 o
-12 2 6 12424.400 11761.400 707.487 0.809 o
-12 2 7 13.596 65.113 136.308 24.976 o
-12 2 8 6331.610 7322.740 674.657 0.966 o
-12 2 9 5.088 28.716 97.480 48.854 o
-12 2 10 831.355 1231.510 208.456 10.317 o
-12 2 11 30.297 27.641 107.872 39.833 o
-12 2 12 1126.490 1179.820 214.394 9.695 o
-12 3 1 33.371 -21.340 157.584 18.706 o
-12 3 2 1394.590 1414.970 321.734 4.383 o
-12 3 3 10.554 -18.056 144.452 22.277 o
-12 3 4 13241.200 13091.000 782.997 0.666 o
-12 3 5 81.753 3.283 119.830 32.222 o
-12 3 6 5688.440 6139.220 602.431 1.211 o
-12 3 7 497.396 482.602 218.320 9.609 o
-12 3 8 4.842 179.744 126.518 28.902 o
-12 3 9 32.009 32.053 98.034 48.178 o
-12 3 10 65.998 168.572 128.448 27.959 o
-12 3 11 52.387 113.567 116.054 34.282 o
-12 4 1 24.162 193.697 188.773 13.011 o
-12 4 2 2384.190 4000.340 544.979 1.529 o
-12 4 3 76.913 55.811 149.377 20.756 o
-12 4 4 633.802 374.262 210.112 10.340 o
-12 4 5 775.501 1124.430 290.546 5.415 o
-12 4 6 8973.040 8834.560 654.959 0.986 o
-12 4 7 720.087 490.809 231.452 8.522 o
-12 4 8 3552.040 3445.180 359.489 3.354 o
-12 4 9 123.893 267.353 129.928 27.170 o
-12 4 10 2653.600 2661.130 308.221 4.594 o
-12 5 3 142.499 29.547 160.867 17.874 o
-12 5 4 10136.000 10041.100 738.676 0.777 o
-12 5 5 184.278 -49.245 154.301 19.398 o
-12 5 6 3165.970 3209.140 459.621 2.120 o
-12 5 7 269.713 216.678 187.131 13.148 o
-12 5 8 370.110 498.613 180.429 14.025 o
-11 0 2 12732.500 12501.700 702.563 0.812 o
-11 0 4 7588.830 8041.080 397.761 2.425 o
-11 0 6 1614.700 1643.120 216.426 9.303 o
-11 0 8 1937.450 1793.750 178.776 12.982 o
-11 0 10 4861.420 5303.380 362.749 3.143 o
-11 0 12 5876.450 6382.320 968.486 0.484 o
-11 1 1 54.726 66.153 100.952 45.287 o
-11 1 2 4138.340 4088.330 332.422 3.795 o
-11 1 3 4.341 14.685 80.023 72.508 o
-11 1 4 1057.750 864.371 136.235 22.976 o
-11 1 5 156.866 116.920 76.720 76.477 o
-11 1 6 2404.420 2376.570 174.480 12.985 o
-11 1 7 358.730 254.371 86.434 58.617 o
-11 1 8 15310.000 16196.000 499.923 1.271 o
-11 1 9 3.282 -38.684 56.139 147.428 o
-11 1 10 15180.700 14504.100 394.220 1.770 o
-11 1 11 28.707 -10.038 94.244 52.212 o
-11 1 12 36.206 52.050 89.925 57.124 o
-11 1 13 3.934 93.068 95.627 50.611 o
-11 1 14 954.828 721.466 186.778 12.801 o
-11 2 1 225.196 140.482 98.532 46.597 o
-11 2 2 10404.200 10468.900 363.566 2.468 o
-11 2 3 0.239 -15.853 77.814 76.802 o
-11 2 4 5747.180 6094.910 296.704 4.260 o
-11 2 5 135.953 104.566 132.824 26.109 o
-11 2 6 3794.190 3182.920 382.470 2.981 o
-11 2 7 66.601 17.783 89.116 58.072 o
-11 2 8 425.812 656.369 155.411 18.672 o
-11 2 9 19.362 63.528 89.353 57.924 o
-11 2 10 8182.600 7375.130 389.201 2.495 o
-11 2 11 108.424 100.021 111.897 36.726 o
-11 2 12 10591.500 12124.200 505.443 1.461 o
-11 2 13 75.929 143.881 119.794 32.111 o
-11 3 1 76.252 22.294 99.801 46.331 o
-11 3 2 3607.050 4262.830 223.375 7.671 o
-11 3 3 66.484 106.359 110.348 37.861 o
-11 3 4 461.362 603.755 116.145 32.627 o
-11 3 5 46.517 138.839 199.443 11.661 o
-11 3 6 283.370 374.262 172.358 15.422 o
-11 3 7 83.243 102.925 98.992 46.883 o
-11 3 8 14793.100 14880.300 564.366 1.097 o
-11 3 9 135.856 152.401 103.284 42.824 o
-11 3 10 11025.500 11872.000 504.588 1.455 o
-11 3 11 419.263 433.369 189.594 12.717 o
-11 3 12 15.458 214.207 110.250 37.920 o
-11 3 13 229.864 50.391 116.957 33.429 o
-11 4 1 1024.200 1295.150 310.244 4.736 o
-11 4 2 12047.100 10699.300 695.997 0.842 o
-11 4 3 35.042 -57.453 126.396 29.054 o
-11 4 4 1777.720 970.128 262.640 6.474 o
-11 4 5 232.403 449.772 193.697 12.254 o
-11 4 6 749.637 766.044 197.801 11.530 o
-11 4 7 446.160 561.148 139.863 22.926 o
-11 4 8 1212.140 1158.340 196.001 11.474 o
-11 4 9 692.343 482.708 142.415 21.890 o
-11 4 10 6007.140 5387.590 525.281 1.568 o
-11 4 11 166.037 68.262 122.773 30.487 o
-11 4 12 6561.410 6443.000 363.964 2.950 o
-11 5 1 231.621 375.904 198.622 11.671 o
-11 5 2 4318.580 4945.850 571.243 1.367 o
-11 5 3 77.979 27.905 144.452 22.201 o
-11 5 4 1051.910 914.317 260.999 6.660 o
-11 5 5 32.463 -98.490 128.037 28.319 o
-11 5 6 300.785 521.998 226.527 8.968 o
-11 5 7 251.643 406.327 141.169 22.842 o
-11 5 8 7506.380 7759.400 421.718 2.211 o
-11 5 9 27.990 -58.997 80.802 70.963 o
-11 5 10 6794.200 7946.580 409.627 2.356 o
-11 5 11 150.950 187.757 100.502 45.048 o
-11 6 1 322.534 558.111 238.018 8.125 o
-11 6 2 5686.940 6342.760 659.884 1.018 o
-11 6 3 11.064 -50.887 151.018 20.383 o
-11 6 4 4138.300 4067.640 513.790 1.685 o
-11 6 5 143.105 -3.283 128.037 28.149 o
-11 6 6 1572.260 2073.140 282.328 5.592 o
-11 6 7 32.063 -90.132 81.428 69.844 o
-11 6 8 78.690 104.012 88.407 58.629 o
-11 6 9 307.927 343.613 104.978 40.521 o
-10 0 2 2639.560 2753.680 640.186 1.118 o
-10 0 4 2013.190 1679.750 205.813 10.054 o
-10 0 6 18182.900 17544.100 445.698 1.333 o
-10 0 8 17740.700 17667.000 434.030 1.390 o
-10 0 10 22.500 4.000 106.568 40.873 o
-10 0 12 2564.050 2455.670 337.329 3.889 o
-10 0 14 3095.030 3069.740 760.836 0.793 o
-10 1 1 95.697 38.560 69.648 93.893 o
-10 1 2 1560.800 1509.130 143.739 19.701 o
-10 1 3 1316.880 1343.480 132.861 23.173 o
-10 1 4 18726.400 18802.200 468.360 1.218 o
-10 1 5 1515.920 1344.360 126.298 24.888 o
-10 1 6 11123.000 11430.100 296.301 3.062 o
-10 1 7 107.559 50.303 49.054 184.210 o
-10 1 8 709.795 716.038 78.728 63.497 o
-10 1 9 409.515 315.218 63.523 101.461 o
-10 1 10 389.180 391.022 67.712 90.263 o
-10 1 11 282.946 305.563 144.291 21.904 o
-10 1 12 10072.700 10678.600 448.019 1.820 o
-10 1 13 42.208 -9.064 93.432 53.049 o
-10 1 14 13107.800 12657.100 636.903 0.952 o
-10 2 1 378.823 279.581 78.215 70.306 o
-10 2 2 179.113 182.592 70.131 90.023 o
-10 2 3 104.548 77.032 63.664 111.233 o
-10 2 4 80.977 85.068 63.889 110.947 o
-10 2 5 378.285 267.818 72.574 80.775 o
-10 2 6 11996.300 12064.700 286.414 3.012 o
-10 2 7 447.882 450.987 95.666 47.379 o
-10 2 8 6606.360 6891.240 264.150 4.838 o
-10 2 9 1.133 66.584 76.438 79.186 o
-10 2 10 2.119 87.023 78.487 75.006 o
-10 2 11 17.614 35.634 79.350 73.498 o
-10 2 12 3175.570 2918.910 620.488 1.184 o
-10 2 13 1.019 37.331 81.004 70.689 o
-10 2 14 1937.430 2129.700 209.255 9.695 o
-10 3 1 338.425 435.192 76.978 71.965 o
-10 3 2 133.187 237.191 62.971 110.860 o
-10 3 3 1043.870 1177.450 191.235 12.094 o
-10 3 4 22852.800 22413.300 782.176 0.551 o
-10 3 5 219.049 256.726 224.886 9.137 o
-10 3 6 8203.510 9043.930 303.096 3.545 o
-10 3 7 153.616 247.660 75.295 78.507 o
-10 3 8 197.249 221.561 64.530 104.552 o
-10 3 9 290.117 269.764 93.150 51.232 o
-10 3 10 801.475 629.004 94.258 46.179 o
-10 3 11 120.066 18.910 76.237 78.457 o
-10 3 12 6772.740 7027.710 317.565 3.626 o
-10 3 13 471.043 363.912 106.266 38.970 o
-10 3 14 13414.500 13845.200 453.150 1.576 o
-10 4 1 268.594 -121.471 108.339 38.809 o
-10 4 2 687.798 835.525 254.433 7.056 o
-10 4 3 443.093 155.943 121.471 30.485 o
-10 4 4 18.278 96.849 116.547 34.090 o
-10 4 5 36.834 128.998 69.805 93.713 o
-10 4 6 11706.400 11683.200 295.059 2.981 o
-10 4 7 1.864 15.574 44.395 234.959 o
-10 4 8 11192.000 11232.400 276.230 3.317 o
-10 4 9 55.610 -12.645 61.350 121.975 o
-10 4 10 163.788 234.488 76.151 76.783 o
-10 4 11 199.188 134.961 70.080 90.212 o
-10 4 12 1968.540 1796.180 166.217 14.740 o
-10 4 13 126.128 71.027 89.593 56.909 o
-10 5 1 157.860 73.868 146.094 21.611 o
-10 5 2 314.191 233.093 180.565 14.088 o
-10 5 3 241.813 205.172 123.113 30.049 o
-10 5 4 15621.700 15387.600 547.901 1.120 o
-10 5 5 36.683 97.075 84.399 64.605 o
-10 5 6 10890.300 11188.200 320.223 2.831 o
-10 5 7 145.082 179.707 74.353 80.991 o
-10 5 8 60.423 148.525 71.758 88.257 o
-10 5 9 373.709 427.602 115.622 33.364 o
-10 5 10 49.656 69.978 71.674 89.230 o
-10 5 11 169.023 103.601 72.803 84.547 o
-10 5 12 4123.500 4226.710 256.080 5.979 o
-10 6 1 110.058 30.997 92.200 53.997 o
-10 6 2 719.226 625.932 136.403 23.621 o
-10 6 3 56.378 72.394 83.281 66.269 o
-10 6 4 18.831 -20.454 76.261 79.740 o
-10 6 5 960.115 1217.140 198.296 11.312 o
-10 6 6 8364.210 8474.850 341.891 2.990 o
-10 6 7 277.804 497.720 98.825 45.274 o
-10 6 8 7113.980 7543.390 275.418 4.388 o
-10 6 9 32.320 11.819 68.218 99.218 o
-10 6 10 38.528 9.645 80.082 72.088 o
-10 6 11 72.387 131.022 79.667 71.880 o
-10 7 1 0.472 29.483 109.932 38.440 o
-10 7 2 1207.860 1052.740 168.038 15.365 o
-10 7 3 112.889 85.992 101.614 44.439 o
-10 7 4 7539.060 8694.200 505.100 1.603 o
-10 7 5 3.103 -19.180 89.654 57.839 o
-10 7 6 3748.520 3760.680 242.910 6.699 o
-10 7 7 613.038 700.247 164.904 16.496 o
-10 7 8 213.319 228.198 89.427 56.030 o
-10 7 9 29.358 66.674 76.417 78.893 o
-9 0 2 39658.200 38774.200 1240.150 0.212 o
-9 0 4 13566.000 13245.400 559.831 1.157 o
-9 0 6 161.565 180.636 59.042 125.159 o
-9 0 8 66.491 19.969 52.151 166.857 o
-9 0 10 6462.560 6208.100 240.591 5.661 o
-9 0 12 16511.800 16625.600 415.216 1.543 o
-9 0 14 72.953 11.499 76.197 79.154 o
-9 1 1 231.513 241.086 64.482 103.687 o
-9 1 2 9423.510 8593.330 225.570 4.863 o
-9 1 3 234.558 338.175 68.508 91.686 o
-9 1 4 24.110 8.183 41.810 262.336 o
-9 1 5 52.025 30.005 34.828 365.619 o
-9 1 6 218.012 314.028 55.062 137.512 o
-9 1 7 94.166 110.387 49.375 180.851 o
-9 1 8 18607.200 18544.300 297.804 1.871 o
-9 1 9 329.237 313.902 53.836 138.344 o
-9 1 10 21190.300 21613.100 303.462 1.558 o
-9 1 11 113.523 115.250 45.223 211.503 o
-9 1 12 154.222 169.304 68.071 95.868 o
-9 1 13 1.898 39.688 65.745 107.121 o
-9 1 14 1344.270 1547.530 194.709 11.473 o
-9 1 15 0.900 41.037 83.455 66.594 o
-9 2 1 1045.120 979.462 94.351 43.685 o
-9 2 2 17063.900 16656.900 324.633 1.938 o
-9 2 3 566.403 559.228 74.067 73.291 o
-9 2 4 23238.100 22928.800 420.913 1.114 o
-9 2 5 154.751 65.079 45.397 208.579 o
-9 2 6 3.635 19.068 37.719 324.260 o
-9 2 7 22.009 25.628 33.266 408.996 o
-9 2 8 921.294 874.926 75.808 64.159 o
-9 2 9 17.378 47.991 53.309 161.583 o
-9 2 10 4573.750 4606.050 340.943 3.565 o
-9 2 11 32.716 42.044 60.467 125.574 o
-9 2 12 16310.400 16762.400 446.274 1.422 o
-9 2 13 112.019 160.961 88.677 57.862 o
-9 2 14 123.558 72.543 82.144 67.489 o
-9 2 15 11.988 -34.877 87.059 61.274 o
-9 3 1 197.368 261.342 58.094 126.426 o
-9 3 2 13251.100 13187.000 285.160 2.781 o
-9 3 3 276.766 249.895 58.136 123.795 o
-9 3 4 1772.720 2037.700 130.906 22.231 o
-9 3 5 30.589 63.669 39.254 291.427 o
-9 3 6 959.675 990.680 90.361 47.466 o
-9 3 7 21.484 72.924 41.760 259.108 o
-9 3 8 21093.800 21240.300 357.164 1.407 o
-9 3 9 89.307 87.568 46.479 204.067 o
-9 3 10 16410.200 16687.900 363.019 1.787 o
-9 3 11 247.738 304.365 85.281 60.807 o
-9 3 12 376.458 304.374 91.924 51.917 o
-9 3 13 520.573 647.085 128.918 26.610 o
-9 3 14 2407.740 2219.980 211.052 9.347 o
-9 4 1 1722.000 1976.950 166.708 14.798 o
-9 4 2 14636.800 14741.600 382.696 1.860 o
-9 4 3 300.627 317.536 79.111 69.472 o
-9 4 4 8210.880 8550.390 335.020 3.095 o
-9 4 5 75.066 72.564 41.969 249.995 o
-9 4 6 44.083 64.593 39.184 290.169 o
-9 4 7 7.332 7.590 42.053 261.535 o
-9 4 8 36.280 51.377 44.723 226.344 o
-9 4 9 374.252 252.503 62.076 107.363 o
-9 4 10 5877.330 5908.550 209.511 7.136 o
-9 4 11 1.257 -6.769 59.080 133.197 o
-9 4 12 11394.700 12560.300 551.449 1.244 o
-9 4 13 61.495 241.600 98.590 47.051 o
-9 4 14 487.854 492.950 123.833 28.946 o
-9 5 1 0.216 -2.236 68.118 100.223 o
-9 5 2 5602.450 6146.280 272.820 4.890 o
-9 5 3 646.949 658.569 140.524 22.401 o
-9 5 4 196.913 264.134 83.933 63.279 o
-9 5 5 287.758 269.707 73.638 79.898 o
-9 5 6 1.069 3.931 48.175 200.159 o
-9 5 7 35.056 33.841 56.382 144.224 o
-9 5 8 7323.950 7503.690 255.405 4.832 o
-9 5 9 3.040 -3.738 51.220 177.086 o
-9 5 10 13804.800 13695.800 360.655 2.091 o
-9 5 11 669.888 670.003 106.278 37.676 o
-9 5 12 527.807 585.604 108.388 36.974 o
-9 5 13 1.365 39.461 86.731 61.673 o
-9 6 1 1180.180 1340.480 160.648 16.602 o
-9 6 2 10272.500 10596.100 360.489 2.503 o
-9 6 3 299.586 386.882 96.577 47.467 o
-9 6 4 8471.260 8443.960 314.030 3.376 o
-9 6 5 266.438 130.758 66.104 99.435 o
-9 6 6 993.916 894.934 138.604 22.332 o
-9 6 7 17.726 17.117 58.195 136.396 o
-9 6 8 596.092 635.020 102.675 40.507 o
-9 6 9 617.197 647.383 105.671 38.315 o
-9 6 10 4445.960 3821.930 230.977 7.055 o
-9 6 11 67.131 82.327 68.801 96.291 o
-9 6 12 11202.700 11510.900 382.435 2.202 o
-9 7 1 28.016 59.545 82.490 67.838 o
-9 7 2 2989.020 3265.910 250.177 6.613 o
-9 7 3 768.972 764.194 196.724 11.646 o
-9 7 4 249.343 239.591 181.443 13.980 o
-9 7 5 40.233 40.051 66.649 103.458 o
-9 7 6 446.835 431.032 96.187 46.959 o
-9 7 7 7.357 102.815 64.048 111.959 o
-9 7 8 8017.850 8436.660 295.089 3.756 o
-9 7 9 44.346 107.043 74.917 81.600 o
-9 7 10 9024.600 9117.650 316.073 3.232 o
-9 8 1 1404.910 1385.140 184.873 12.649 o
-9 8 2 9304.720 9692.790 383.495 2.394 o
-9 8 3 611.308 409.137 183.685 13.455 o
-9 8 4 3507.660 3204.330 256.279 6.228 o
-9 8 5 265.768 195.469 90.413 54.627 o
-9 8 6 2.113 44.627 75.583 81.103 o
-9 8 7 12.454 72.828 83.473 66.336 o
-9 8 8 221.055 224.915 95.492 49.329 o
-8 0 2 214.019 256.390 75.527 77.228 o
-8 0 4 260.676 321.441 75.094 77.049 o
-8 0 6 16420.200 16592.600 331.976 1.952 o
-8 0 8 21059.200 21327.300 334.457 1.476 o
-8 0 10 330.524 345.722 64.125 101.247 o
-8 0 12 2003.240 1878.960 133.792 21.172 o
-8 0 14 3755.600 3454.220 237.087 7.023 o
-8 0 16 10771.800 11200.300 493.884 1.525 o
-8 1 1 2029.690 2056.320 125.902 23.094 o
-8 1 2 5.088 21.195 35.309 368.969 o
-8 1 3 370.196 306.704 50.932 150.189 o
-8 1 4 23924.200 24205.900 300.434 1.336 o
-8 1 5 6.104 11.379 26.224 666.318 o
-8 1 6 36193.800 36158.100 324.447 0.698 o
-8 1 7 61.425 7.410 28.185 546.052 o
-8 1 8 1.847 -35.424 28.889 556.160 o
-8 1 9 67.223 77.412 38.374 296.874 o
-8 1 10 2093.400 2074.290 120.674 24.490 o
-8 1 11 798.807 880.614 66.341 80.954 o
-8 1 12 3290.120 3371.260 166.792 12.756 o
-8 1 13 0.334 25.899 51.252 176.271 o
-8 1 14 21290.200 22321.500 463.239 1.090 o
-8 1 15 0.396 -94.462 66.069 106.531 o
-8 2 1 1196.750 1189.270 82.648 51.985 o
-8 2 2 8683.390 8413.370 183.963 6.283 o
-8 2 3 161.979 190.903 37.553 282.655 o
-8 2 4 37.857 16.143 25.519 672.557 o
-8 2 5 533.263 553.645 46.680 155.184 o
-8 2 6 17543.400 17595.700 248.108 2.263 o
-8 2 7 263.838 231.012 40.521 232.946 o
-8 2 8 22005.800 21727.500 305.704 1.498 o
-8 2 9 103.898 89.347 40.279 264.958 o
-8 2 10 2189.480 1990.980 137.609 19.814 o
-8 2 11 4.118 3.158 44.479 234.481 o
-8 2 12 473.343 468.408 102.864 41.219 o
-8 2 13 14.936 68.124 61.607 121.159 o
-8 2 14 1074.810 1097.480 129.168 25.065 o
-8 2 15 45.417 -29.578 71.053 91.396 o
-8 3 1 1507.350 1462.670 101.580 35.402 o
-8 3 2 1767.370 1808.510 92.619 38.298 o
-8 3 3 2.100 13.664 30.240 504.283 o
-8 3 4 16600.400 17124.100 247.316 2.404 o
-8 3 5 7.799 17.337 30.709 485.763 o
-8 3 6 30729.100 30595.200 605.462 0.599 o
-8 3 7 854.245 887.346 78.036 61.922 o
-8 3 8 2.307 37.883 39.475 294.931 o
-8 3 9 288.216 283.279 74.668 77.760 o
-8 3 10 850.171 913.986 98.531 41.741 o
-8 3 11 8.704 -33.075 42.947 251.106 o
-8 3 12 5309.070 5503.470 325.890 3.734 o
-8 3 13 150.547 131.759 76.557 76.779 o
-8 3 14 9999.130 10272.300 400.110 2.181 o
-8 3 15 64.491 14.433 124.116 30.065 o
-8 4 1 422.965 418.046 82.933 62.038 o
-8 4 2 678.092 703.691 97.535 43.905 o
-8 4 3 111.090 39.832 36.479 321.300 o
-8 4 4 83.571 60.606 36.080 331.495 o
-8 4 5 1750.900 2014.580 180.940 12.755 o
-8 4 6 12936.900 12754.600 252.703 3.192 o
-8 4 7 1057.200 940.764 83.759 53.156 o
-8 4 8 18197.000 17372.000 313.783 1.876 o
-8 4 9 106.810 99.958 44.983 214.914 o
-8 4 10 74.318 98.623 64.407 109.213 o
-8 4 11 70.185 8.224 51.392 171.822 o
-8 4 12 3247.370 3569.770 249.971 6.525 o
-8 4 13 104.767 63.194 79.876 71.527 o
-8 4 14 1385.270 1304.250 166.373 15.413 o
-8 5 1 556.055 460.223 94.934 47.441 o
-8 5 2 566.867 504.669 186.660 13.038 o
-8 5 3 2474.190 2592.190 190.059 11.106 o
-8 5 4 14232.200 14702.000 336.341 2.182 o
-8 5 5 1559.510 1727.980 130.725 23.002 o
-8 5 6 16319.300 15568.200 658.430 0.837 o
-8 5 7 8.405 59.059 45.450 221.570 o
-8 5 8 129.503 86.140 55.780 142.376 o
-8 5 9 227.682 117.465 58.415 126.536 o
-8 5 10 1578.280 1611.600 145.755 19.133 o
-8 5 11 74.968 71.317 67.490 99.946 o
-8 5 12 1271.690 1296.040 158.076 17.037 o
-8 5 13 34.122 33.421 75.990 79.919 o
-8 5 14 14335.300 15123.200 484.295 1.379 o
-8 6 1 10.174 97.767 71.957 88.925 o
-8 6 2 591.869 783.445 115.296 32.485 o
-8 6 3 3.575 29.855 60.868 124.981 o
-8 6 4 170.846 172.879 63.429 109.214 o
-8 6 5 532.963 565.667 102.117 41.330 o
-8 6 6 12025.400 11937.400 315.638 2.708 o
-8 6 7 927.019 825.432 199.258 11.293 o
-8 6 8 9157.800 8617.850 286.212 3.713 o
-8 6 9 401.151 408.100 91.638 51.748 o
-8 6 10 30.142 52.071 61.377 121.855 o
-8 6 11 0.513 62.619 81.504 69.716 o
-8 6 12 753.941 676.907 109.491 35.379 o
-8 6 13 1262.390 1145.740 163.281 16.124 o
-8 7 1 39.609 -45.890 69.171 96.499 o
-8 7 2 126.061 127.698 84.772 63.208 o
-8 7 3 9.035 71.627 71.367 90.608 o
-8 7 4 7084.370 7639.670 370.085 2.782 o
-8 7 5 320.738 321.989 80.016 67.779 o
-8 7 6 12809.800 12503.400 362.945 2.197 o
-8 7 7 445.846 335.327 82.565 62.716 o
-8 7 8 2.797 10.246 60.747 125.790 o
-8 7 9 585.438 688.484 109.334 36.018 o
-8 7 10 669.185 532.248 99.090 43.126 o
-8 7 11 9.813 6.250 70.892 92.328 o
-8 8 1 0.139 -16.243 91.143 55.983 o
-8 8 2 210.191 82.455 92.749 52.658 o
-8 8 3 223.546 402.721 122.519 30.176 o
-8 8 4 1.980 -29.036 63.892 113.874 o
-8 8 5 1550.260 1751.440 160.757 16.050 o
-8 8 6 4703.620 4019.420 248.837 6.151 o
-8 8 7 339.354 419.073 95.980 47.741 o
-8 8 8 7108.310 6706.850 375.061 2.754 o
-8 8 9 20.514 84.587 74.014 84.047 o
-8 9 2 3.909 -29.664 113.466 36.112 o
-8 9 3 997.670 852.790 193.697 11.891 o
-8 9 4 4244.920 3820.210 279.470 5.164 o
-8 9 5 544.724 565.764 115.466 32.819 o
-8 9 6 3369.260 3687.140 245.135 6.705 o
-7 0 2 46772.200 46216.000 689.885 0.335 o
-7 0 4 27348.900 26957.300 307.298 1.105 o
-7 0 6 622.069 721.044 80.969 61.374 o
-7 0 8 548.497 318.477 93.114 49.622 o
-7 0 10 6873.390 7030.820 200.700 6.826 o
-7 0 12 12627.500 13046.000 300.186 2.724 o
-7 0 14 4332.830 4039.830 310.968 4.256 o
-7 0 16 1090.260 1180.960 206.776 10.402 o
-7 1 1 297.282 291.262 35.503 276.950 o
-7 1 2 17780.000 17991.200 212.149 2.405 o
-7 1 3 9.302 16.911 20.326 1084.970 o
-7 1 4 577.313 685.678 46.755 148.455 o
-7 1 5 352.079 401.413 34.874 265.839 o
-7 1 6 6108.040 6326.110 112.354 13.038 o
-7 1 7 108.020 119.402 27.243 520.969 o
-7 1 8 15131.600 14782.900 191.094 3.217 o
-7 1 9 1166.770 1214.560 69.333 67.435 o
-7 1 10 31778.400 31397.000 336.090 0.849 o
-7 1 11 1538.660 1434.440 120.109 26.924 o
-7 1 12 3499.630 3627.020 136.954 16.436 o
-7 1 13 345.002 353.946 59.747 114.253 o
-7 1 14 2529.850 2578.830 260.869 6.292 o
-7 1 15 10.008 -5.613 65.559 107.984 o
-7 1 16 555.775 691.360 145.544 21.036 o
-7 2 1 378.851 431.394 50.050 150.852 o
-7 2 2 37011.600 37013.300 346.568 0.659 o
-7 2 3 8.822 -10.421 20.050 1135.210 o
-7 2 4 31686.300 31512.800 294.902 0.893 o
-7 2 5 546.874 597.506 45.601 158.270 o
-7 2 6 1054.640 1067.380 64.501 77.775 o
-7 2 7 187.451 153.007 33.093 347.984 o
-7 2 8 2851.760 2981.590 123.329 20.882 o
-7 2 9 226.683 160.489 34.973 308.797 o
-7 2 10 9090.960 8954.120 229.040 4.826 o
-7 2 11 433.877 389.608 60.022 110.272 o
-7 2 12 21870.000 22640.100 382.864 1.265 o
-7 2 13 3.851 3.998 53.416 162.701 o
-7 2 14 2650.320 2721.130 213.085 8.996 o
-7 2 15 51.811 -33.733 71.316 90.629 o
-7 3 1 279.737 260.998 40.942 225.566 o
-7 3 2 13923.600 13878.400 220.389 3.261 o
-7 3 3 464.554 450.738 51.770 138.322 o
-7 3 4 182.929 166.919 32.766 353.046 o
-7 3 5 75.446 98.888 31.607 418.915 o
-7 3 6 983.379 830.548 92.497 45.994 o
-7 3 7 1387.180 1248.890 92.293 42.392 o
-7 3 8 3252.610 2958.580 195.941 10.021 o
-7 3 9 681.985 660.346 79.496 63.041 o
-7 3 10 22577.700 22266.000 412.317 1.170 o
-7 3 11 8.246 18.119 46.567 212.981 o
-7 3 12 4131.330 4039.670 253.630 6.097 o
-7 3 13 445.925 674.703 162.898 17.021 o
-7 3 14 1605.770 1181.690 238.289 7.812 o
-7 3 15 19.215 -79.045 76.302 79.649 o
-7 4 1 89.159 88.294 39.490 277.100 o
-7 4 2 30981.900 30864.300 493.651 0.705 o
-7 4 3 795.971 637.348 74.634 68.850 o
-7 4 4 25005.500 24217.300 324.363 1.231 o
-7 4 5 440.294 417.953 49.340 151.404 o
-7 4 6 270.051 179.068 55.497 136.193 o
-7 4 7 1224.250 1189.450 89.443 45.789 o
-7 4 8 479.360 375.054 61.198 105.652 o
-7 4 9 384.129 431.055 71.079 82.521 o
-7 4 10 7522.440 7458.500 226.821 5.583 o
-7 4 11 644.056 558.545 85.629 56.148 o
-7 4 12 17509.400 17547.700 470.908 1.274 o
-7 4 13 17.573 -15.884 90.024 57.275 o
-7 4 14 2560.940 2972.390 515.834 1.707 o
-7 4 15 3.344 30.015 82.277 68.536 o
-7 5 1 1108.710 1267.320 138.919 21.792 o
-7 5 2 13501.900 14048.900 733.781 0.738 o
-7 5 3 715.226 683.216 83.103 57.997 o
-7 5 4 304.452 226.353 58.755 120.944 o
-7 5 5 41.913 23.978 37.481 320.259 o
-7 5 6 4537.130 4726.690 217.807 7.533 o
-7 5 7 0.367 73.845 45.716 219.102 o
-7 5 8 8531.000 8255.390 248.803 4.611 o
-7 5 9 305.230 207.866 63.269 105.997 o
-7 5 10 15152.400 15142.200 420.390 1.623 o
-7 5 11 462.059 378.263 99.653 43.998 o
-7 5 12 1544.690 1551.270 170.731 14.486 o
-7 5 13 2.077 -69.395 66.905 103.851 o
-7 5 14 1073.180 764.295 161.961 16.690 o
-7 6 1 18.025 -4.534 54.314 156.808 o
-7 6 2 15065.500 15315.600 401.196 1.717 o
-7 6 3 904.526 956.160 104.511 37.334 o
-7 6 4 9538.450 9522.900 267.648 3.884 o
-7 6 5 1827.440 1581.230 131.198 22.486 o
-7 6 6 2315.390 2076.240 152.022 16.619 o
-7 6 7 452.845 302.698 67.405 90.625 o
-7 6 8 551.654 399.386 88.467 54.220 o
-7 6 9 1136.620 1283.200 130.487 24.320 o
-7 6 10 5689.430 5894.680 259.627 5.290 o
-7 6 11 222.953 213.083 74.421 79.586 o
-7 6 12 10766.500 10988.600 394.070 2.158 o
-7 6 13 30.581 75.970 81.635 69.157 o
-7 7 1 3.840 34.327 66.915 103.440 o
-7 7 2 10309.800 10180.000 339.385 2.737 o
-7 7 3 2490.290 2530.640 168.840 13.587 o
-7 7 4 36.711 60.317 57.574 137.851 o
-7 7 5 235.853 261.574 69.636 89.590 o
-7 7 6 1043.580 927.317 109.348 34.040 o
-7 7 7 70.730 99.407 58.073 133.652 o
-7 7 8 2941.870 2935.080 191.982 10.551 o
-7 7 9 6.026 10.535 53.499 161.928 o
-7 7 10 10302.800 10722.400 326.904 2.848 o
-7 7 11 16.774 20.546 60.233 127.353 o
-7 7 12 1349.310 1249.260 145.237 19.800 o
-7 8 1 279.327 473.078 110.904 36.349 o
-7 8 2 9317.850 10022.000 359.766 2.617 o
-7 8 3 471.513 437.560 148.355 20.495 o
-7 8 4 12548.400 12555.300 346.103 2.349 o
-7 8 5 250.356 161.119 69.627 90.227 o
-7 8 6 11.771 7.880 60.487 126.638 o
-7 8 7 16.532 33.578 54.483 155.148 o
-7 8 8 86.599 26.079 65.565 106.009 o
-7 8 9 349.395 464.843 96.442 47.141 o
-7 8 10 2833.220 2466.920 220.819 8.428 o
-7 9 1 10.556 -18.291 105.148 42.028 o
-7 9 2 3161.300 3660.630 558.931 1.448 o
-7 9 3 1291.370 1092.460 193.836 11.697 o
-7 9 4 260.794 271.749 124.773 29.175 o
-7 9 5 379.472 387.673 97.247 46.450 o
-7 9 6 103.207 80.557 79.579 71.979 o
-7 9 7 148.157 163.602 88.873 57.363 o
-7 9 8 2308.430 2233.160 213.378 9.200 o
-6 0 2 500.144 518.001 48.660 148.704 o
-6 0 4 144.415 139.075 24.781 575.700 o
-6 0 6 15617.500 15586.200 265.302 2.496 o
-6 0 8 46467.300 47168.600 712.450 0.326 o
-6 0 10 17569.700 17738.600 371.159 1.645 o
-6 0 12 2013.450 1939.640 183.152 12.340 o
-6 0 14 376.432 284.952 94.950 48.887 o
-6 0 16 8924.320 9386.760 452.675 1.867 o
-6 1 1 393.564 446.192 36.379 241.570 o
-6 1 2 167.855 113.186 28.462 458.752 o
-6 1 3 1193.020 1282.370 65.551 71.809 o
-6 1 4 23725.600 23443.700 206.727 1.589 o
-6 1 5 16.489 17.458 17.213 1461.150 o
-6 1 6 30948.900 30602.400 276.546 0.949 o
-6 1 7 1969.470 1980.210 74.873 47.926 o
-6 1 8 1199.960 1159.440 61.324 79.384 o
-6 1 9 320.081 387.473 45.834 179.356 o
-6 1 10 6504.160 6667.260 154.708 9.421 o
-6 1 11 2374.910 2466.510 188.197 11.392 o
-6 1 12 1261.490 1286.370 89.614 45.076 o
-6 1 13 149.861 124.236 51.398 164.121 o
-6 1 14 13773.900 13921.200 353.225 2.135 o
-6 1 15 85.472 89.175 77.061 76.815 o
-6 1 16 4239.580 3891.940 297.157 4.634 o
-6 2 1 1632.130 1756.210 66.004 60.909 o
-6 2 2 547.514 611.463 48.782 143.208 o
-6 2 3 117.885 121.848 23.039 672.409 o
-6 2 4 83.289 90.923 21.299 818.310 o
-6 2 5 57.621 66.283 18.510 1099.790 o
-6 2 6 27067.400 26784.100 270.643 1.180 o
-6 2 7 1228.220 1313.440 70.481 64.378 o
-6 2 8 52675.800 52158.100 494.818 0.333 o
-6 2 9 17.719 62.853 26.607 619.237 o
-6 2 10 177.553 121.325 47.126 190.788 o
-6 2 11 296.486 286.698 61.015 112.376 o
-6 2 12 426.883 386.155 84.793 59.659 o
-6 2 13 17.591 26.271 63.318 115.225 o
-6 2 14 172.010 230.798 82.199 66.241 o
-6 2 15 0.272 -2.130 75.040 82.585 o
-6 2 16 12705.800 13092.300 446.694 1.655 o
-6 3 1 782.716 801.267 71.362 73.074 o
-6 3 2 4136.340 4252.830 92.582 22.303 o
-6 3 3 460.664 467.974 42.582 185.984 o
-6 3 4 12609.000 12502.200 183.977 4.142 o
-6 3 5 1131.010 1149.730 64.191 76.125 o
-6 3 6 27482.300 26082.000 366.115 1.020 o
-6 3 7 1009.080 903.960 74.617 64.514 o
-6 3 8 2598.360 2397.660 127.135 21.162 o
-6 3 9 47.395 -3.564 33.923 390.050 o
-6 3 10 1620.730 1622.130 163.576 15.554 o
-6 3 11 1548.560 1551.110 235.265 7.976 o
-6 3 12 7.030 18.009 56.544 144.821 o
-6 3 13 0.030 20.841 78.342 75.661 o
-6 3 14 16946.800 18556.700 961.100 0.436 o
-6 3 15 127.052 5.020 89.278 57.514 o
-6 4 1 1230.900 1249.260 89.223 45.718 o
-6 4 2 108.506 103.867 37.140 305.325 o
-6 4 3 57.288 104.647 26.439 584.016 o
-6 4 4 4.004 22.884 23.042 854.278 o
-6 4 5 370.001 382.677 46.135 174.128 o
-6 4 6 20371.700 19747.500 285.622 1.739 o
-6 4 7 114.736 117.179 36.869 306.965 o
-6 4 8 34817.000 34246.500 506.524 0.602 o
-6 4 9 14.973 -33.202 35.681 361.583 o
-6 4 10 3675.270 3713.820 235.272 7.101 o
-6 4 11 162.978 148.423 65.075 104.496 o
-6 4 12 1837.830 1601.430 152.621 17.354 o
-6 4 13 194.159 145.287 102.130 43.567 o
-6 4 14 795.325 576.069 152.634 19.026 o
-6 4 15 139.029 -9.127 105.453 41.359 o
-6 5 1 334.558 498.401 75.254 74.654 o
-6 5 2 525.124 473.029 63.896 95.984 o
-6 5 3 65.317 72.101 38.467 296.302 o
-6 5 4 10605.700 10506.800 237.064 4.085 o
-6 5 5 16.723 -14.518 31.039 475.521 o
-6 5 6 24979.600 23824.300 421.970 1.039 o
-6 5 7 1746.660 1780.270 130.964 22.517 o
-6 5 8 3114.250 2487.350 155.691 14.841 o
-6 5 9 893.513 824.099 113.377 32.555 o
-6 5 10 2189.980 2022.030 180.678 12.498 o
-6 5 11 44.727 -22.015 56.756 142.637 o
-6 5 12 955.183 862.736 130.449 25.062 o
-6 5 13 9.676 39.652 89.014 58.503 o
-6 5 14 7084.130 7217.580 551.545 1.395 o
-6 6 1 1741.130 1763.690 156.588 16.611 o
-6 6 2 3.137 17.616 42.463 256.437 o
-6 6 3 41.531 56.059 44.246 230.345 o
-6 6 4 21.706 2.988 36.803 338.292 o
-6 6 5 1174.300 1038.090 169.405 15.164 o
-6 6 6 7989.710 7644.710 234.091 5.202 o
-6 6 7 272.331 196.846 60.898 114.702 o
-6 6 8 22165.300 21523.300 573.372 0.851 o
-6 6 9 38.437 -0.647 47.852 200.157 o
-6 6 10 1051.380 920.453 154.355 18.212 o
-6 6 11 298.668 176.488 82.720 64.549 o
-6 6 12 430.552 467.023 110.673 36.045 o
-6 6 13 97.358 85.008 72.606 86.177 o
-6 7 1 435.827 584.681 103.513 40.653 o
-6 7 2 1819.330 1786.130 143.248 19.250 o
-6 7 3 166.867 129.805 58.264 128.995 o
-6 7 4 7605.730 7607.180 241.973 5.101 o
-6 7 5 31.117 36.755 48.249 196.114 o
-6 7 6 11183.600 10626.900 455.380 1.728 o
-6 7 7 524.252 311.172 75.663 72.713 o
-6 7 8 397.722 453.387 86.618 57.323 o
-6 7 9 784.676 889.918 116.875 31.022 o
-6 7 10 922.120 854.956 117.069 30.606 o
-6 7 11 14.901 49.978 63.578 114.064 o
-6 7 12 1002.920 1103.770 209.447 10.190 o
-6 8 1 146.073 112.980 76.555 76.950 o
-6 8 2 232.468 120.297 85.009 62.044 o
-6 8 3 3.755 84.130 59.093 131.665 o
-6 8 4 188.770 126.767 61.900 114.500 o
-6 8 5 551.576 410.978 85.803 57.276 o
-6 8 6 5281.140 4859.770 286.866 4.680 o
-6 8 7 11.072 39.073 82.926 67.366 o
-6 8 8 11823.200 11535.600 333.649 2.575 o
-6 8 9 59.202 50.313 61.432 120.845 o
-6 8 10 929.234 990.670 135.524 23.302 o
-6 8 11 137.621 180.111 79.120 71.915 o
-6 9 1 616.800 796.665 168.316 15.823 o
-6 9 2 444.968 476.124 139.574 23.073 o
-6 9 3 82.659 69.778 94.440 51.538 o
-6 9 4 3551.550 4150.030 473.573 1.982 o
-6 9 5 51.937 60.121 87.143 60.663 o
-6 9 6 8754.810 8764.070 338.752 2.976 o
-6 9 7 2296.200 2593.090 195.353 10.683 o
-6 9 8 792.918 732.514 122.332 28.697 o
-6 9 9 45.258 -22.247 75.740 80.513 o
-6 10 1 17.014 -41.366 101.070 45.460 o
-6 10 2 82.305 99.207 113.797 35.589 o
-6 10 3 262.500 154.495 137.365 24.241 o
-6 10 4 65.586 150.290 175.641 15.014 o
-6 10 5 451.996 457.651 153.792 19.119 o
-5 0 2 22364.900 21129.200 284.084 1.558 o
-5 0 4 152348.000 161729.000 1237.210 0.041 o
-5 0 6 3186.680 3036.910 104.942 24.528 o
-5 0 8 2919.170 2849.480 139.871 17.465 o
-5 0 10 8362.330 7968.210 258.370 4.469 o
-5 0 12 33652.000 33925.200 601.509 0.545 o
-5 0 14 8494.940 8737.480 314.625 3.345 o
-5 0 16 429.143 275.989 158.405 18.137 o
-5 1 1 167.366 190.403 22.661 617.203 o
-5 1 2 39976.500 39832.000 300.173 0.606 o
-5 1 3 664.678 665.235 36.443 196.438 o
-5 1 4 94.450 145.368 19.672 866.074 o
-5 1 5 14.319 9.869 12.722 2603.310 o
-5 1 6 365.889 334.608 42.112 203.446 o
-5 1 7 94.776 46.034 19.703 943.514 o
-5 1 8 4558.670 4460.890 121.127 16.256 o
-5 1 9 14.375 41.452 25.031 707.597 o
-5 1 10 26496.100 26247.900 439.482 0.927 o
-5 1 11 320.715 326.742 47.896 168.794 o
-5 1 12 4466.560 4469.480 148.069 13.072 o
-5 1 13 27.381 61.000 50.286 180.287 o
-5 1 14 1911.960 1784.360 184.172 12.327 o
-5 1 15 79.218 109.901 65.460 105.582 o
-5 1 16 434.996 608.622 134.490 24.704 o
-5 2 1 1370.450 1548.420 60.695 73.257 o
-5 2 2 42827.900 43243.300 389.321 0.499 o
-5 2 3 900.588 959.915 52.358 108.849 o
-5 2 4 30629.500 28913.100 277.875 0.987 o
-5 2 5 1313.940 1370.120 84.407 48.660 o
-5 2 6 13625.800 14050.000 163.140 3.910 o
-5 2 7 646.228 573.606 44.346 158.808 o
-5 2 8 1372.950 1472.130 100.818 36.414 o
-5 2 9 232.479 216.993 45.598 194.135 o
-5 2 10 6004.290 5813.160 219.161 6.680 o
-5 2 11 67.225 93.548 46.066 209.174 o
-5 2 12 28583.000 27436.500 468.530 0.818 o
-5 2 13 317.102 345.996 110.480 36.696 o
-5 2 14 8667.420 9133.130 561.394 1.302 o
-5 2 15 6.348 61.096 69.312 96.157 o
-5 2 16 515.028 343.388 203.973 10.998 o
-5 3 1 87.284 80.930 18.536 1016.870 o
-5 3 2 41660.300 41794.900 386.671 0.525 o
-5 3 3 6.048 4.001 16.380 1689.200 o
-5 3 4 22.528 18.992 16.643 1524.930 o
-5 3 5 21.805 24.128 17.940 1323.300 o
-5 3 6 5306.180 5316.070 106.533 15.856 o
-5 3 7 138.337 120.839 35.290 326.393 o
-5 3 8 1625.180 1710.570 115.967 27.889 o
-5 3 9 659.915 666.198 80.396 62.027 o
-5 3 10 25831.500 25349.600 490.032 0.874 o
-5 3 11 254.930 223.088 151.630 19.931 o
-5 3 12 3875.070 3928.290 464.328 2.052 o
-5 3 13 702.112 476.037 233.093 8.409 o
-5 3 14 848.353 812.252 158.943 17.466 o
-5 3 15 55.666 -62.247 95.207 51.031 o
-5 4 1 719.801 881.135 80.629 60.059 o
-5 4 2 22215.900 22223.300 287.424 1.523 o
-5 4 3 748.347 772.883 67.008 81.589 o
-5 4 4 53935.500 52643.800 472.636 0.328 o
-5 4 5 40.011 25.910 21.366 924.589 o
-5 4 6 1546.990 1459.190 137.548 21.333 o
-5 4 7 599.658 550.046 59.390 105.217 o
-5 4 8 1787.040 1898.730 111.678 28.789 o
-5 4 9 1.813 -35.296 39.777 293.640 o
-5 4 10 8116.280 8315.410 262.036 4.404 o
-5 4 11 98.188 73.213 53.245 157.367 o
-5 4 12 19528.800 19395.300 492.689 1.115 o
-5 4 13 193.237 166.401 96.665 48.456 o
-5 4 14 6927.700 7049.040 1501.150 0.204 o
-5 4 15 192.610 157.256 116.593 33.597 o
-5 5 1 156.203 222.939 48.876 176.575 o
-5 5 2 24921.400 24781.100 373.758 1.121 o
-5 5 3 637.181 718.637 72.442 73.980 o
-5 5 4 0.010 -17.580 27.879 598.350 o
-5 5 5 2359.260 2405.690 121.004 23.313 o
-5 5 6 1163.690 1179.890 91.518 44.569 o
-5 5 7 28.130 19.279 32.028 439.216 o
-5 5 8 441.107 495.449 87.760 55.478 o
-5 5 9 20.116 56.311 48.846 191.517 o
-5 5 10 14218.300 13425.300 466.945 1.487 o
-5 5 11 1711.850 1653.230 203.546 10.390 o
-5 5 12 2888.480 2858.750 506.403 1.765 o
-5 5 13 862.796 666.183 154.241 18.544 o
-5 5 14 1733.190 1682.060 378.366 3.173 o
-5 6 1 1767.700 1802.110 188.871 11.854 o
-5 6 2 18874.000 19177.500 364.376 1.556 o
-5 6 3 176.849 96.600 43.481 221.990 o
-5 6 4 29868.300 29026.000 468.237 0.773 o
-5 6 5 27.354 42.568 41.771 260.181 o
-5 6 6 1489.370 1477.410 119.796 27.114 o
-5 6 7 537.191 388.878 63.926 96.582 o
-5 6 8 2038.400 2006.030 146.212 18.143 o
-5 6 9 214.183 239.702 111.844 36.280 o
-5 6 10 2059.240 1716.070 163.294 15.157 o
-5 6 11 722.476 1025.500 167.977 15.735 o
-5 6 12 15874.900 16383.600 1034.970 0.390 o
-5 6 13 224.797 143.114 113.130 35.579 o
-5 7 1 54.382 45.888 56.542 142.428 o
-5 7 2 10754.700 11012.300 280.191 3.352 o
-5 7 3 484.271 443.924 101.406 42.342 o
-5 7 4 157.351 157.392 51.907 159.868 o
-5 7 5 3649.510 3658.980 191.328 9.980 o
-5 7 6 1988.240 1948.800 146.994 18.088 o
-5 7 7 448.026 385.680 72.752 78.546 o
-5 7 8 1003.350 966.316 110.071 33.720 o
-5 7 9 276.395 249.925 73.643 80.184 o
-5 7 10 8354.010 8334.850 280.117 3.985 o
-5 7 11 491.973 590.431 101.120 42.213 o
-5 7 12 1687.690 1700.490 260.362 6.539 o
-5 8 1 634.186 375.186 111.356 35.148 o
-5 8 2 10433.700 10611.300 411.138 2.058 o
-5 8 3 7.499 32.519 52.941 164.712 o
-5 8 4 13848.400 13608.300 334.693 2.276 o
-5 8 5 3.118 22.842 49.986 185.189 o
-5 8 6 2154.740 2363.420 170.675 13.691 o
-5 8 7 4.682 -44.568 52.651 167.515 o
-5 8 8 342.333 458.403 85.060 59.712 o
-5 8 9 640.373 523.630 101.673 41.292 o
-5 8 10 748.280 810.632 120.759 29.403 o
-5 8 11 610.699 760.263 122.539 28.980 o
-5 9 1 25.947 17.454 90.294 56.829 o
-5 9 2 6920.080 7210.450 595.865 1.213 o
-5 9 3 946.894 1083.520 318.451 4.511 o
-5 9 4 6.665 -138.777 81.151 70.556 o
-5 9 5 740.403 807.555 159.373 17.469 o
-5 9 6 2504.840 2362.510 230.178 7.942 o
-5 9 7 184.788 114.137 82.926 65.530 o
-5 9 8 738.641 669.283 113.351 33.263 o
-5 9 9 0.179 61.871 74.507 83.367 o
-5 10 1 451.982 373.751 143.261 21.989 o
-5 10 2 6328.650 6128.870 435.125 2.185 o
-5 10 3 619.023 263.769 337.329 4.060 o
-5 10 4 8178.080 9083.550 794.487 0.694 o
-5 10 5 181.060 127.280 152.660 19.766 o
-5 10 6 535.325 505.234 161.139 17.380 o
-4 0 2 9648.420 9511.790 125.897 7.204 o
-4 0 4 593.602 589.608 38.606 193.821 o
-4 0 6 11970.200 11624.500 233.171 3.721 o
-4 0 8 56130.800 55865.200 746.753 0.250 o
-4 0 10 9315.980 9064.900 250.043 4.306 o
-4 0 12 2308.390 2356.740 356.618 3.514 o
-4 0 14 1065.570 1162.690 183.642 13.053 o
-4 0 16 11188.200 11489.800 505.467 1.452 o
-4 1 1 428.499 459.046 35.702 242.037 o
-4 1 2 14728.100 14753.600 145.712 3.700 o
-4 1 3 3317.610 3593.390 65.437 35.004 o
-4 1 4 10357.500 10308.900 113.563 6.804 o
-4 1 5 18.049 12.151 14.475 2017.090 o
-4 1 6 27918.200 26525.100 309.054 1.089 o
-4 1 7 22.636 1.877 19.564 1153.030 o
-4 1 8 3166.070 3095.280 104.452 24.633 o
-4 1 9 322.447 353.545 45.941 179.733 o
-4 1 10 2102.230 2193.670 87.530 38.043 o
-4 1 11 283.293 361.414 53.832 139.310 o
-4 1 12 40.198 37.666 37.456 319.673 o
-4 1 13 56.190 34.577 47.356 201.552 o
-4 1 14 10677.600 10681.000 272.564 3.498 o
-4 1 15 7.670 58.277 71.837 89.557 o
-4 1 16 9620.620 9706.090 382.095 2.384 o
-4 2 1 1825.530 2056.740 58.136 63.895 o
-4 2 2 10638.300 11313.000 138.671 5.835 o
-4 2 3 1765.340 1889.190 94.056 37.263 o
-4 2 4 5668.080 5996.010 99.667 15.218 o
-4 2 5 130.749 116.740 20.728 774.980 o
-4 2 6 13121.300 12476.600 179.110 4.069 o
-4 2 7 190.865 141.879 26.619 490.651 o
-4 2 8 60776.900 60626.900 703.876 0.230 o
-4 2 9 537.056 571.341 62.966 96.946 o
-4 2 10 19070.600 19150.900 342.125 1.631 o
-4 2 11 204.974 226.933 104.486 41.480 o
-4 2 12 267.609 283.267 63.718 104.638 o
-4 2 13 146.677 112.322 71.510 87.797 o
-4 2 14 56.280 24.964 89.285 57.898 o
-4 2 15 3.547 -48.267 78.903 74.662 o
-4 2 16 9105.460 9983.870 394.735 2.294 o
-4 3 1 473.883 513.962 33.177 254.353 o
-4 3 2 18438.600 18793.800 171.378 2.464 o
-4 3 3 1190.960 1284.670 53.437 92.392 o
-4 3 4 18958.400 19114.700 269.905 1.942 o
-4 3 5 197.750 184.736 24.044 550.586 o
-4 3 6 33746.400 33298.300 344.409 0.768 o
-4 3 7 14.564 16.950 23.665 801.674 o
-4 3 8 4907.110 4746.250 199.315 8.411 o
-4 3 9 2044.950 2251.690 137.627 19.834 o
-4 3 10 7994.890 7582.280 414.033 2.259 o
-4 3 11 24.086 6.273 48.888 192.665 o
-4 3 12 881.468 854.219 111.515 33.529 o
-4 3 13 123.723 118.851 92.785 53.004 o
-4 3 14 8772.080 8738.270 919.241 0.525 o
-4 3 15 216.317 347.998 132.868 25.809 o
-4 4 1 1180.040 1275.290 51.404 96.951 o
-4 4 2 9820.810 9813.420 139.213 6.643 o
-4 4 3 23.573 37.267 22.868 830.597 o
-4 4 4 1.994 2.260 13.552 2495.500 o
-4 4 5 353.593 318.776 40.802 215.699 o
-4 4 6 17590.700 17419.200 247.147 2.273 o
-4 4 7 3100.390 3273.710 139.136 16.981 o
-4 4 8 30412.700 29993.000 461.676 0.759 o
-4 4 9 395.788 276.983 58.871 116.864 o
-4 4 10 12361.000 12216.500 359.921 2.268 o
-4 4 11 21.319 44.720 50.725 178.095 o
-4 4 12 1437.420 1253.150 150.344 18.500 o
-4 4 13 18.683 -83.466 68.453 98.904 o
-4 4 14 19.415 41.453 145.273 21.999 o
-4 4 15 68.949 6.340 96.042 50.073 o
-4 5 1 476.157 460.836 47.367 157.957 o
-4 5 2 6931.230 6854.040 125.367 10.708 o
-4 5 3 1320.220 1471.650 72.043 60.297 o
-4 5 4 1540.430 1337.960 104.242 34.104 o
-4 5 5 2019.510 2087.070 103.976 30.784 o
-4 5 6 13609.500 13464.500 239.257 3.161 o
-4 5 7 2194.170 2401.410 150.957 16.761 o
-4 5 8 3024.870 2985.330 200.390 9.762 o
-4 5 9 139.708 69.077 63.334 111.582 o
-4 5 10 840.403 737.122 187.131 12.803 o
-4 5 11 0.560 -28.658 77.971 76.489 o
-4 5 12 46.912 175.641 95.094 50.754 o
-4 5 13 0.371 -128.634 76.186 80.117 o
-4 5 14 5612.450 5965.060 427.626 2.288 o
-4 6 1 755.559 795.610 75.244 67.447 o
-4 6 2 1418.220 1342.900 124.113 25.865 o
-4 6 3 116.447 64.707 30.168 445.813 o
-4 6 4 186.179 221.033 38.165 268.892 o
-4 6 5 22.555 78.886 34.180 380.336 o
-4 6 6 10976.500 10519.300 240.304 3.947 o
-4 6 7 302.828 260.970 57.500 125.175 o
-4 6 8 42305.900 40903.000 626.753 0.410 o
-4 6 9 148.008 176.188 78.187 73.492 o
-4 6 10 4462.500 3799.600 294.226 4.690 o
-4 6 11 1.034 59.303 85.905 62.790 o
-4 6 12 344.375 280.721 115.915 33.462 o
-4 6 13 95.817 189.667 113.403 35.685 o
-4 7 1 1940.850 1791.650 127.942 22.982 o
-4 7 2 3240.010 3162.590 167.205 12.847 o
-4 7 3 33.953 56.129 48.097 196.406 o
-4 7 4 4441.050 4110.210 182.561 10.038 o
-4 7 5 49.190 10.144 38.669 301.410 o
-4 7 6 16071.600 15636.900 337.654 1.985 o
-4 7 7 167.513 172.439 55.278 141.474 o
-4 7 8 1753.420 1814.550 129.157 22.992 o
-4 7 9 2101.230 2069.390 144.429 18.383 o
-4 7 10 2376.730 2102.920 194.224 10.879 o
-4 7 11 0.634 -43.309 76.088 80.322 o
-4 7 12 55.071 76.632 98.830 47.214 o
-4 8 1 638.057 638.648 131.707 25.360 o
-4 8 2 2418.820 1944.820 211.277 9.378 o
-4 8 3 404.158 385.878 86.466 57.721 o
-4 8 4 83.760 134.255 54.921 147.577 o
-4 8 5 1780.270 1805.350 144.054 19.109 o
-4 8 6 5117.320 5141.560 227.362 6.771 o
-4 8 7 656.020 727.498 101.643 40.801 o
-4 8 8 12624.500 12420.100 304.679 2.718 o
-4 8 9 454.479 452.542 84.310 59.776 o
-4 8 10 7493.850 7208.510 279.117 4.265 o
-4 8 11 96.117 74.552 80.601 70.298 o
-4 9 1 575.131 442.105 166.612 16.282 o
-4 9 2 1471.910 1439.480 628.695 1.168 o
-4 9 3 413.286 383.667 117.774 32.161 o
-4 9 4 2136.620 2153.620 244.903 7.202 o
-4 9 5 216.909 231.710 113.340 35.354 o
-4 9 6 4649.840 4956.550 434.998 2.277 o
-4 9 7 1175.250 1326.080 197.467 11.294 o
-4 9 8 149.899 132.561 80.454 69.737 o
-4 9 9 411.506 223.190 83.636 62.033 o
-4 10 1 2.605 -87.452 87.866 60.219 o
-4 10 2 506.310 386.567 198.622 11.585 o
-4 10 3 7.077 24.685 91.147 55.864 o
-4 10 4 3.051 99.389 110.103 38.216 o
-4 10 5 204.600 329.105 212.575 10.214 o
-4 10 6 1885.080 1570.570 226.911 8.448 o
-4 10 7 139.008 174.497 122.353 30.645 o
-3 0 2 47515.800 48817.000 443.817 0.400 o
-3 0 4 116013.000 116773.000 1874.080 0.052 o
-3 0 6 23882.300 23460.500 240.536 1.500 o
-3 0 8 17.081 -14.363 27.210 615.742 o
-3 0 10 506.589 521.444 86.536 56.320 o
-3 0 12 33630.100 34604.500 646.897 0.508 o
-3 0 14 5982.500 5920.720 362.920 3.031 o
-3 0 16 174.395 80.739 115.726 34.228 o
-3 1 1 963.370 1082.210 41.172 136.935 o
-3 1 2 57492.300 59895.800 465.040 0.286 o
-3 1 3 751.889 926.725 54.335 109.041 o
-3 1 4 85.163 77.315 13.214 1633.060 o
-3 1 5 281.654 209.747 26.611 434.729 o
-3 1 6 16223.300 16526.500 218.218 2.681 o
-3 1 7 408.816 387.955 39.567 216.077 o
-3 1 8 83.077 53.413 24.802 652.671 o
-3 1 9 27.053 -3.179 22.021 914.502 o
-3 1 10 22722.700 22174.900 283.418 1.504 o
-3 1 11 1.274 -5.783 29.500 533.716 o
-3 1 12 5968.980 6078.920 273.605 4.802 o
-3 1 13 1917.960 1825.840 123.037 24.485 o
-3 1 14 1604.240 1753.750 147.751 18.559 o
-3 1 15 358.606 293.844 87.617 56.990 o
-3 1 16 1694.640 1549.450 160.018 16.140 o
-3 2 1 628.501 613.213 35.299 210.395 o
-3 2 2 43926.800 44424.700 375.011 0.484 o
-3 2 3 2985.420 3224.350 76.718 34.283 o
-3 2 4 112643.000 115232.000 1208.110 0.070 o
-3 2 5 578.829 797.999 73.024 73.257 o
-3 2 6 26537.900 26115.000 347.194 1.085 o
-3 2 7 454.609 485.414 41.051 195.781 o
-3 2 8 67.740 64.581 29.392 488.261 o
-3 2 9 18.614 24.121 28.906 539.287 o
-3 2 10 664.251 662.845 74.455 70.668 o
-3 2 11 410.729 332.696 88.612 55.290 o
-3 2 12 18265.600 18403.100 325.322 1.780 o
-3 2 13 98.143 47.488 64.481 109.007 o
-3 2 14 14850.100 14946.500 439.708 1.552 o
-3 2 15 3.147 -94.813 85.189 64.058 o
-3 3 1 1225.170 1406.610 62.276 74.993 o
-3 3 2 35109.300 34608.100 299.745 0.757 o
-3 3 3 2360.730 2492.270 59.471 52.031 o
-3 3 4 55.073 71.642 19.328 1024.570 o
-3 3 5 355.106 279.813 54.410 135.470 o
-3 3 6 7966.360 7679.080 170.211 7.319 o
-3 3 7 131.075 194.617 39.816 259.415 o
-3 3 8 1465.760 1497.410 88.780 43.626 o
-3 3 9 55.098 51.030 35.599 347.475 o
-3 3 10 13553.000 13630.300 498.124 1.375 o
-3 3 11 352.992 348.917 77.694 71.079 o
-3 3 12 2714.870 2473.440 357.574 3.470 o
-3 3 13 3.942 69.324 71.706 89.857 o
-3 3 14 902.816 685.654 152.631 18.868 o
-3 3 15 107.560 87.425 107.362 39.878 o
-3 4 1 4796.190 4899.350 90.617 19.654 o
-3 4 2 18810.200 18025.700 258.292 2.058 o
-3 4 3 58.342 54.561 19.357 1032.760 o
-3 4 4 75286.500 74275.100 674.823 0.169 o
-3 4 5 144.067 146.001 27.890 477.204 o
-3 4 6 8689.470 7927.010 165.635 7.009 o
-3 4 7 319.511 342.851 57.967 121.473 o
-3 4 8 141.650 136.985 42.948 228.567 o
-3 4 9 16.129 28.919 36.360 344.791 o
-3 4 10 94.701 83.003 49.292 182.286 o
-3 4 11 33.180 -10.053 43.501 242.053 o
-3 4 12 27075.000 26734.800 687.446 0.586 o
-3 4 13 374.875 397.097 109.827 36.859 o
-3 4 14 10524.700 10756.700 668.912 0.920 o
-3 4 15 1.596 0.215 88.653 59.161 o
-3 5 1 1223.700 1260.880 62.005 76.817 o
-3 5 2 30699.500 29656.500 298.064 0.949 o
-3 5 3 919.581 856.404 66.891 78.010 o
-3 5 4 3919.680 4135.070 107.629 20.188 o
-3 5 5 1237.090 1261.790 100.572 37.671 o
-3 5 6 9646.130 9368.000 275.061 3.753 o
-3 5 7 319.735 307.731 62.681 106.197 o
-3 5 8 4.810 -15.649 39.376 299.141 o
-3 5 9 8.941 38.303 51.535 173.500 o
-3 5 10 14088.200 13501.100 747.704 0.712 o
-3 5 11 49.059 -12.566 65.573 107.086 o
-3 5 12 3216.290 3448.100 296.425 4.823 o
-3 5 13 700.270 687.047 154.406 18.649 o
-3 5 14 489.870 419.518 345.536 3.873 o
-3 6 1 1166.150 1256.790 71.701 64.050 o
-3 6 2 22432.600 22021.800 277.107 1.545 o
-3 6 3 219.163 163.240 34.622 315.159 o
-3 6 4 29720.000 29010.500 342.691 0.936 o
-3 6 5 291.766 171.600 42.571 214.808 o
-3 6 6 6464.230 6342.420 184.148 7.953 o
-3 6 7 1125.580 1175.260 135.747 22.767 o
-3 6 8 51.758 37.828 51.547 171.018 o
-3 6 9 804.023 647.370 108.524 35.833 o
-3 6 10 903.007 957.443 157.197 17.721 o
-3 6 11 38.392 -86.200 68.182 99.320 o
-3 6 12 14026.700 15403.100 561.206 1.117 o
-3 6 13 23.746 -79.383 86.845 61.492 o
-3 7 1 84.572 40.372 33.345 386.018 o
-3 7 2 16736.600 16732.800 250.938 2.388 o
-3 7 3 2038.830 2059.310 113.581 27.026 o
-3 7 4 61.177 45.256 32.508 411.268 o
-3 7 5 2620.970 2745.850 134.989 19.003 o
-3 7 6 1323.540 1368.240 101.325 36.581 o
-3 7 7 293.158 261.348 59.392 118.435 o
-3 7 8 112.111 100.986 59.166 127.536 o
-3 7 9 0.216 19.695 54.862 154.065 o
-3 7 10 8391.050 8470.370 332.162 3.119 o
-3 7 11 554.135 447.649 251.971 7.236 o
-3 7 12 2412.830 2448.470 276.610 5.673 o
-3 8 1 1323.730 1443.840 187.001 12.410 o
-3 8 2 4732.750 4779.200 271.285 5.247 o
-3 8 3 16.759 42.887 52.513 166.623 o
-3 8 4 26321.400 25424.500 428.838 0.962 o
-3 8 5 300.067 282.436 55.939 131.140 o
-3 8 6 4494.560 4363.950 186.539 9.614 o
-3 8 7 0.898 -49.696 44.087 239.173 o
-3 8 8 375.650 329.171 73.568 78.396 o
-3 8 9 407.059 393.519 92.721 50.632 o
-3 8 10 506.445 517.406 134.480 24.669 o
-3 8 11 2.178 -9.046 82.487 68.330 o
-3 9 1 268.324 111.836 105.580 40.627 o
-3 9 2 3968.620 4441.890 341.759 3.609 o
-3 9 3 514.463 569.804 140.995 22.483 o
-3 9 4 207.627 92.730 94.167 51.110 o
-3 9 5 1174.130 876.596 137.280 22.467 o
-3 9 6 1404.400 1651.080 237.495 7.855 o
-3 9 7 163.886 165.380 83.109 65.208 o
-3 9 8 626.683 549.834 130.636 25.850 o
-3 9 9 21.392 35.239 74.323 83.672 o
-3 10 1 1146.000 872.056 169.686 15.196 o
-3 10 2 3649.410 3406.490 310.490 4.385 o
-3 10 3 363.329 624.251 155.873 18.630 o
-3 10 4 11351.600 12076.400 513.428 1.403 o
-3 10 5 75.236 24.963 92.159 54.261 o
-3 10 6 2658.810 2321.130 455.517 2.180 o
-3 10 7 267.585 291.935 135.076 24.957 o
-3 11 1 52.679 49.438 118.240 33.103 o
-3 11 2 3555.500 3531.000 354.219 3.444 o
-2 0 2 18774.700 18733.800 282.118 1.920 o
-2 0 4 54.665 36.723 21.310 897.035 o
-2 0 6 20169.300 20425.300 245.837 1.876 o
-2 0 8 48271.600 46836.600 788.833 0.294 o
-2 0 10 34674.900 33210.600 672.176 0.487 o
-2 0 12 2568.400 2669.210 219.624 8.568 o
-2 0 14 12.096 20.683 105.877 41.414 o
-2 1 1 9101.060 9617.950 149.815 6.811 o
-2 1 2 13825.100 14263.200 168.986 3.769 o
-2 1 3 511.886 597.306 46.264 157.184 o
-2 1 4 5333.300 5464.410 109.608 15.315 o
-2 1 5 79.190 77.188 19.027 996.468 o
-2 1 6 54757.500 55295.400 531.100 0.302 o
-2 1 7 6740.870 7100.540 138.007 10.010 o
-2 1 8 3609.610 3593.830 104.294 22.498 o
-2 1 9 0.637 -8.695 17.464 1522.060 o
-2 1 10 8894.020 8587.550 190.381 5.959 o
-2 1 11 81.079 69.374 32.884 392.719 o
-2 1 12 2113.670 2113.160 155.341 16.240 o
-2 1 13 49.778 29.078 46.233 211.966 o
-2 1 14 7173.950 7275.770 341.103 3.182 o
-2 1 15 50.252 30.011 102.807 43.763 o
-2 2 1 2992.140 3083.440 68.312 38.153 o
-2 2 2 31579.400 32251.200 344.296 0.835 o
-2 2 3 766.143 828.539 47.141 133.249 o
-2 2 4 1562.660 1680.200 81.677 47.628 o
-2 2 5 8.786 0.942 15.926 1777.220 o
-2 2 6 10101.500 10350.300 191.035 5.140 o
-2 2 7 2052.810 2282.860 85.898 38.976 o
-2 2 8 49129.100 48070.500 510.493 0.370 o
-2 2 9 3.138 -27.290 24.996 741.114 o
-2 2 10 29381.500 28490.900 448.536 0.814 o
-2 2 11 9.316 -19.203 34.596 385.943 o
-2 2 12 181.842 107.106 51.748 160.813 o
-2 2 13 20.178 26.793 65.915 106.320 o
-2 2 14 128.792 106.449 86.819 60.386 o
-2 2 15 284.181 465.955 147.715 20.840 o
-2 3 1 1657.330 1645.040 64.990 62.427 o
-2 3 2 6906.830 6562.750 94.225 12.978 o
-2 3 3 14.684 28.332 17.849 1352.750 o
-2 3 4 2798.810 3256.260 149.128 15.764 o
-2 3 5 3507.060 3745.460 111.584 20.976 o
-2 3 6 28362.900 28118.300 314.024 1.035 o
-2 3 7 46.020 67.409 25.896 627.645 o
-2 3 8 3983.500 4081.630 248.066 6.362 o
-2 3 9 1879.690 1976.150 120.585 25.185 o
-2 3 10 3093.870 3022.650 150.415 15.337 o
-2 3 11 3.448 20.811 42.659 253.867 o
-2 3 12 606.115 755.188 114.472 32.920 o
-2 3 13 111.015 105.233 79.274 72.314 o
-2 3 14 4469.370 4957.680 374.222 3.010 o
-2 3 15 0.672 165.965 109.610 38.472 o
-2 4 1 1441.050 1639.900 62.013 69.407 o
-2 4 2 856.463 889.525 64.447 83.365 o
-2 4 3 3398.030 3684.960 83.712 28.445 o
-2 4 4 443.252 589.094 61.716 102.337 o
-2 4 5 561.203 693.967 71.444 77.040 o
-2 4 6 10123.600 9858.570 221.245 4.579 o
-2 4 7 107.667 107.847 33.472 367.562 o
-2 4 8 46211.400 44925.500 538.732 0.397 o
-2 4 9 78.316 49.180 39.231 285.260 o
-2 4 10 22565.600 21406.200 394.519 1.231 o
-2 4 11 3.156 -0.413 41.293 272.307 o
-2 4 12 13.303 72.624 62.114 119.193 o
-2 4 13 50.938 96.221 89.525 57.397 o
-2 4 14 26.080 -83.692 76.119 79.950 o
-2 5 1 134.415 72.406 20.468 812.821 o
-2 5 2 17410.000 16557.800 202.346 2.607 o
-2 5 3 7.014 1.638 19.636 1185.260 o
-2 5 4 1004.150 1084.190 71.606 67.527 o
-2 5 5 143.784 48.224 29.887 445.506 o
-2 5 6 30733.500 29532.600 464.056 0.755 o
-2 5 7 1997.090 2041.120 137.105 20.214 o
-2 5 8 1816.760 2001.490 144.760 18.762 o
-2 5 9 1221.790 1306.070 123.174 26.708 o
-2 5 10 2815.840 2836.250 247.225 6.847 o
-2 5 11 957.604 801.569 147.225 20.066 o
-2 5 12 770.780 635.112 152.372 19.084 o
-2 5 13 0.049 -23.532 75.861 80.810 o
-2 5 14 3637.560 3731.730 347.844 3.548 o
-2 6 1 582.923 624.146 51.661 129.699 o
-2 6 2 18694.700 18203.100 290.582 1.911 o
-2 6 3 936.187 950.236 63.272 83.403 o
-2 6 4 495.125 513.635 74.969 72.986 o
-2 6 5 2490.960 2591.240 120.986 22.767 o
-2 6 6 6613.080 6109.600 179.705 8.160 o
-2 6 7 1525.420 1341.660 168.458 14.941 o
-2 6 8 16545.900 16794.600 422.669 1.506 o
-2 6 9 781.884 629.817 106.517 37.181 o
-2 6 10 14114.700 13438.800 478.668 1.440 o
-2 6 11 426.992 413.512 114.754 33.727 o
-2 6 12 39.837 -20.692 83.195 66.853 o
-2 6 13 5.645 -9.068 94.649 51.884 o
-2 7 1 2230.480 2326.000 204.204 9.968 o
-2 7 2 7067.320 6908.620 151.138 9.067 o
-2 7 3 0.144 12.061 27.464 612.224 o
-2 7 4 278.937 244.253 44.085 200.481 o
-2 7 5 760.616 712.411 66.377 83.147 o
-2 7 6 6979.690 7438.880 265.599 4.660 o
-2 7 7 54.066 20.153 47.579 200.437 o
-2 7 8 2222.150 2199.630 157.365 15.726 o
-2 7 9 1441.670 1458.050 192.198 11.730 o
-2 7 10 2097.970 2066.770 195.221 10.932 o
-2 7 11 0.278 75.927 95.712 50.581 o
-2 7 12 249.346 247.490 160.046 17.912 o
-2 8 1 8.326 -15.785 49.050 192.717 o
-2 8 2 2148.470 2494.920 164.155 14.575 o
-2 8 3 414.453 399.849 74.264 76.060 o
-2 8 4 261.138 187.804 63.424 106.839 o
-2 8 5 2.282 13.372 43.127 248.989 o
-2 8 6 1144.420 1132.440 102.887 36.964 o
-2 8 7 640.356 598.786 96.326 45.377 o
-2 8 8 17065.000 16980.900 400.514 1.568 o
-2 8 9 292.354 197.245 74.319 78.965 o
-2 8 10 5171.480 5522.240 334.546 3.583 o
-2 8 11 103.094 67.103 78.870 73.325 o
-2 9 1 1268.480 1554.190 139.780 21.096 o
-2 9 2 1204.840 1366.940 192.861 11.786 o
-2 9 3 18.699 57.929 60.629 125.092 o
-2 9 4 318.157 343.017 86.986 57.889 o
-2 9 5 25.725 49.186 59.649 129.104 o
-2 9 6 5178.940 5568.100 311.973 4.033 o
-2 9 7 835.849 620.087 126.620 26.950 o
-2 9 8 876.268 740.746 136.798 23.175 o
-2 9 9 721.969 672.814 186.828 12.911 o
-2 10 1 311.087 223.198 214.216 10.047 o
-2 10 2 2826.520 2555.410 237.413 7.397 o
-2 10 3 118.155 84.601 74.149 82.429 o
-2 10 4 555.622 497.888 109.507 36.323 o
-2 10 5 877.253 781.504 128.459 26.005 o
-2 10 6 1188.140 1258.230 165.748 15.697 o
-2 10 7 467.493 575.037 137.618 23.614 o
-2 11 1 519.201 1107.950 263.461 6.592 o
-2 11 2 2100.430 2064.860 282.338 5.527 o
-2 11 3 11.461 27.688 113.733 35.892 o
-1 0 2 12610.600 12665.100 194.397 3.980 o
-1 0 4 102641.000 102536.000 1909.330 0.059 o
-1 0 6 71626.500 73290.900 1078.510 0.141 o
-1 0 8 34.715 44.020 24.195 732.152 o
-1 0 10 636.571 743.717 167.433 15.989 o
-1 0 12 10949.800 11493.900 405.027 2.047 o
-1 0 14 18353.800 18901.700 634.900 0.827 o
-1 1 1 2040.510 2116.290 49.172 68.559 o
-1 1 2 11181.100 10988.500 160.921 5.232 o
-1 1 3 0.334 8.838 13.436 2518.390 o
-1 1 4 5157.940 5291.880 72.358 20.545 o
-1 1 5 1703.840 1740.540 60.020 66.501 o
-1 1 6 23170.000 23486.600 281.744 1.443 o
-1 1 7 1623.530 1848.990 80.845 47.067 o
-1 1 8 159.851 148.684 31.708 381.729 o
-1 1 9 0.057 -9.510 20.667 1088.690 o
-1 1 10 18127.200 18193.900 263.184 2.093 o
-1 1 11 423.501 325.274 55.293 128.252 o
-1 1 12 11168.000 10989.800 276.090 3.342 o
-1 1 13 204.273 165.501 68.171 94.699 o
-1 1 14 1340.450 1218.050 157.315 17.158 o
-1 1 15 0.034 -77.128 77.978 76.481 o
-1 2 1 5.686 4.327 7.409 7536.030 o
-1 2 2 58299.600 59811.700 449.992 0.284 o
-1 2 3 3494.840 3754.880 80.737 28.675 o
-1 2 4 97801.100 94400.900 822.221 0.104 o
-1 2 5 56.368 80.271 20.425 925.308 o
-1 2 6 13728.800 12809.400 175.572 3.907 o
-1 2 7 225.984 269.522 52.989 147.931 o
-1 2 8 475.058 468.788 48.944 150.053 o
-1 2 9 0.564 -6.758 23.165 865.857 o
-1 2 10 940.532 903.450 79.189 59.486 o
-1 2 11 259.388 256.565 51.752 152.924 o
-1 2 12 20616.400 20917.800 353.951 1.450 o
-1 2 13 9.679 -57.818 59.653 130.380 o
-1 2 14 13545.800 14219.000 441.276 1.620 o
-1 2 15 33.310 -27.502 85.625 63.181 o
-1 3 1 90.272 126.177 15.726 1209.360 o
-1 3 2 35021.200 34723.900 295.240 0.761 o
-1 3 3 1461.810 1435.510 61.379 71.674 o
-1 3 4 7468.250 7665.350 126.584 9.665 o
-1 3 5 338.650 464.585 37.641 236.147 o
-1 3 6 13084.500 12891.500 190.276 3.885 o
-1 3 7 1193.730 1511.300 85.249 48.329 o
-1 3 8 1676.160 1787.620 120.124 26.107 o
-1 3 9 47.442 25.782 33.397 398.034 o
-1 3 10 10814.600 10629.300 293.157 3.200 o
-1 3 11 1379.640 1401.930 115.859 29.093 o
-1 3 12 8791.910 9002.830 366.531 2.632 o
-1 3 13 377.034 379.609 94.598 48.969 o
-1 3 14 1141.460 1156.080 270.027 6.207 o
-1 3 15 256.024 -15.594 124.329 29.637 o
-1 4 1 4.661 14.784 12.074 2976.060 o
-1 4 2 27501.600 27299.400 265.873 1.157 o
-1 4 3 115.796 113.965 23.455 659.336 o
-1 4 4 61182.800 58629.300 607.108 0.248 o
-1 4 5 140.274 123.178 30.036 428.813 o
-1 4 6 28474.200 28317.900 364.309 0.955 o
-1 4 7 146.353 164.413 42.870 227.374 o
-1 4 8 10.458 30.998 32.190 439.209 o
-1 4 9 306.249 414.345 63.679 102.283 o
-1 4 10 378.229 323.581 69.270 87.448 o
-1 4 11 4.553 -58.073 46.123 218.203 o
-1 4 12 13393.100 13987.100 381.161 1.975 o
-1 4 13 38.889 -3.869 100.132 46.226 o
-1 4 14 10873.900 12741.300 535.255 1.316 o
-1 5 1 30.413 26.261 15.799 1616.230 o
-1 5 2 19973.700 19154.800 230.595 2.012 o
-1 5 3 1132.410 1110.280 69.232 68.846 o
-1 5 4 3332.270 3280.200 110.914 22.217 o
-1 5 5 633.109 592.036 69.325 80.693 o
-1 5 6 11977.200 11976.000 268.219 3.233 o
-1 5 7 41.826 -8.670 35.799 352.792 o
-1 5 8 376.469 265.548 69.933 86.473 o
-1 5 9 2.924 16.780 48.111 200.068 o
-1 5 10 5249.700 5080.970 333.990 3.608 o
-1 5 11 101.583 83.869 81.225 69.145 o
-1 5 12 6147.530 6176.510 749.346 0.796 o
-1 5 13 773.481 856.444 171.132 15.207 o
-1 5 14 802.272 850.371 187.131 12.795 o
-1 6 1 226.108 207.371 31.534 357.823 o
-1 6 2 13962.200 13816.200 255.589 2.917 o
-1 6 3 507.387 545.272 56.176 118.061 o
-1 6 4 38701.000 38084.600 444.285 0.561 o
-1 6 5 369.931 385.999 54.238 133.416 o
-1 6 6 19711.200 19252.300 332.339 1.626 o
-1 6 7 406.938 422.415 87.183 56.685 o
-1 6 8 1.530 -26.249 48.790 195.256 o
-1 6 9 163.066 139.045 70.696 89.273 o
-1 6 10 230.371 100.626 72.505 84.335 o
-1 6 11 789.668 865.493 262.640 6.615 o
-1 6 12 8675.240 9411.730 439.797 1.968 o
-1 6 13 2.671 110.472 120.130 32.112 o
-1 7 1 92.329 64.764 36.472 322.682 o
-1 7 2 8668.270 8539.270 211.262 5.467 o
-1 7 3 2013.960 1974.840 109.897 28.611 o
-1 7 4 1109.970 1033.120 83.026 53.046 o
-1 7 5 179.548 273.717 80.803 68.177 o
-1 7 6 5318.460 5537.440 203.416 7.776 o
-1 7 7 484.308 326.499 133.675 25.132 o
-1 7 8 412.721 358.155 77.140 71.268 o
-1 7 9 16.290 9.919 62.163 119.772 o
-1 7 10 4873.930 4690.780 292.145 4.618 o
-1 7 11 881.205 685.767 170.716 15.264 o
-1 7 12 2436.690 2677.730 370.159 3.257 o
-1 8 1 20.604 41.815 42.787 249.083 o
-1 8 2 6433.310 6667.110 246.785 5.406 o
-1 8 3 547.723 576.704 83.517 59.448 o
-1 8 4 34609.400 34441.900 568.117 0.556 o
-1 8 5 434.688 404.067 83.678 60.986 o
-1 8 6 7315.120 7692.700 451.279 1.978 o
-1 8 7 336.055 312.924 74.870 76.547 o
-1 8 8 153.424 165.821 69.871 91.244 o
-1 8 9 99.879 157.538 79.713 71.383 o
-1 8 10 247.431 239.603 97.632 47.097 o
-1 8 11 1035.030 1067.700 146.734 19.940 o
-1 9 1 62.421 98.887 61.467 119.936 o
-1 9 2 4167.170 4520.670 231.129 7.024 o
-1 9 3 2941.660 2895.880 231.481 7.654 o
-1 9 4 736.460 741.304 107.715 36.396 o
-1 9 5 623.048 915.418 139.552 22.557 o
-1 9 6 2353.860 2209.680 204.004 9.957 o
-1 9 7 48.308 -39.666 78.298 75.337 o
-1 9 8 1030.900 833.150 214.906 9.728 o
-1 9 9 55.168 -36.435 99.898 46.376 o
-1 10 1 240.444 222.377 91.047 53.973 o
-1 10 2 3554.650 3730.650 244.038 6.702 o
-1 10 3 467.577 506.102 105.003 39.607 o
-1 10 4 9962.790 10910.500 341.129 2.716 o
-1 10 5 1.064 -57.469 70.867 92.583 o
-1 10 6 7031.170 6771.840 365.119 2.883 o
-1 10 7 910.974 1039.900 164.093 16.303 o
-1 11 1 60.233 98.751 103.223 43.252 o
-1 11 2 3089.260 3718.410 319.382 4.206 o
-1 11 3 1026.840 1501.900 167.624 15.403 o
0 0 2 16804.900 16451.200 233.664 2.505 o
0 0 4 73.895 71.847 17.262 1176.140 o
0 0 6 1338.830 1297.020 59.670 77.835 o
0 0 8 38538.800 37345.400 593.605 0.478 o
0 0 10 20041.200 19648.900 596.686 0.865 o
0 0 12 340.935 424.501 141.990 22.472 o
0 0 14 89.098 93.412 104.235 42.332 o
0 1 1 4869.840 4978.470 70.362 22.371 o
0 1 2 12206.900 11858.900 179.680 4.411 o
0 1 3 821.788 853.081 44.929 137.827 o
0 1 4 6278.850 6293.190 111.327 12.891 o
0 1 5 798.868 880.096 54.911 106.698 o
0 1 6 17168.800 16661.600 270.338 2.229 o
0 1 7 25.919 19.198 20.707 1011.310 o
0 1 8 6176.520 5839.290 181.597 8.408 o
0 1 9 15.206 6.217 23.785 799.513 o
0 1 10 6738.020 6477.070 153.013 9.406 o
0 1 11 64.571 60.062 40.135 274.455 o
0 1 12 5561.830 5470.020 198.856 7.915 o
0 1 13 42.825 -74.215 59.600 129.555 o
0 1 14 2598.110 2663.740 294.725 5.002 o
0 1 15 0.905 -88.499 86.202 62.578 o
0 2 0 58213.600 57201.100 628.340 0.261 o
0 2 1 131.202 154.489 16.329 1021.690 o
0 2 2 71661.700 73060.700 592.954 0.187 o
0 2 3 8231.220 9060.860 126.915 8.364 o
0 2 4 72.269 116.817 22.107 768.524 o
0 2 5 8.906 17.458 13.634 2310.860 o
0 2 6 5826.670 5599.880 112.073 14.078 o
0 2 7 23.165 32.748 21.264 955.400 o
0 2 8 45361.500 44672.300 504.135 0.418 o
0 2 9 627.004 576.272 60.298 101.619 o
0 2 10 22700.800 22414.300 312.338 1.420 o
0 2 11 59.105 16.436 34.712 367.882 o
0 2 12 1110.470 1114.210 91.068 45.477 o
0 2 13 62.074 14.540 65.175 107.929 o
0 2 14 13.369 78.401 88.888 58.518 o
0 3 1 21.884 46.828 13.005 2227.180 o
0 3 2 34272.600 34720.600 297.457 0.777 o
0 3 3 65.115 63.644 20.143 946.126 o
0 3 4 1195.340 1235.050 67.241 69.738 o
0 3 5 2925.060 3245.550 98.144 27.055 o
0 3 6 18697.200 18784.900 267.594 1.990 o
0 3 7 659.917 580.613 57.473 108.516 o
0 3 8 7319.620 7070.590 188.506 7.098 o
0 3 9 1004.980 947.956 187.175 12.672 o
0 3 10 2311.880 2420.650 146.957 17.341 o
0 3 11 46.048 23.855 47.059 205.280 o
0 3 12 8158.870 8029.190 326.227 3.256 o
0 3 13 96.520 145.782 80.588 69.969 o
0 3 14 1835.970 1563.150 230.668 8.206 o
0 4 0 136196.000 136413.000 1064.340 0.054 o
0 4 1 418.156 452.501 32.212 278.561 o
0 4 2 16985.900 16286.700 178.389 2.839 o
0 4 3 95.297 97.635 28.383 497.735 o
0 4 4 850.077 978.671 59.728 92.213 o
0 4 5 422.722 442.870 48.345 156.645 o
0 4 6 1809.490 1711.030 95.628 36.626 o
0 4 7 14.953 -4.796 28.655 557.530 o
0 4 8 36454.500 35752.600 597.724 0.506 o
0 4 9 447.899 418.523 82.784 62.016 o
0 4 10 13711.000 13458.100 461.968 1.530 o
0 4 11 794.410 852.880 151.576 19.142 o
0 4 12 740.832 543.999 256.074 6.979 o
0 4 13 76.142 270.576 115.277 34.499 o
0 4 14 442.734 477.345 302.036 5.061 o
0 5 1 6073.150 5996.360 87.819 15.530 o
0 5 2 13740.900 13295.500 160.408 4.010 o
0 5 3 195.084 184.074 26.890 471.321 o
0 5 4 3494.220 3309.680 107.448 22.531 o
0 5 5 116.823 239.998 44.569 211.214 o
0 5 6 9392.340 9345.380 231.614 4.633 o
0 5 7 1669.330 1647.630 143.137 19.592 o
0 5 8 4511.830 4546.570 228.553 7.029 o
0 5 9 455.995 488.859 96.242 46.710 o
0 5 10 2341.400 2426.090 320.914 4.295 o
0 5 11 591.467 597.663 317.631 4.568 o
0 5 12 1553.110 1442.820 210.649 9.842 o
0 5 13 18.925 16.050 104.155 42.776 o
0 6 0 50750.700 50124.600 754.048 0.284 o
0 6 1 17.062 13.654 20.802 1025.360 o
0 6 2 13830.000 13710.100 208.643 3.416 o
0 6 3 1380.760 1298.800 80.340 52.042 o
0 6 4 448.304 411.573 51.947 139.199 o
0 6 5 166.698 144.426 41.581 238.940 o
0 6 6 2546.600 2475.300 172.062 13.141 o
0 6 7 12.110 57.856 53.233 162.061 o
0 6 8 24242.100 22700.700 507.194 0.913 o
0 6 9 400.743 385.008 91.346 52.133 o
0 6 10 17004.200 17754.200 481.510 1.253 o
0 6 11 957.224 1395.520 363.593 3.468 o
0 6 12 141.213 152.480 104.838 41.567 o
0 7 1 4312.170 4012.850 149.389 13.376 o
0 7 2 4339.400 4469.360 153.363 12.648 o
0 7 3 131.875 119.686 51.017 167.550 o
0 7 4 10.407 14.360 33.568 407.191 o
0 7 5 233.828 279.658 57.652 126.633 o
0 7 6 7847.310 7644.180 236.694 5.172 o
0 7 7 596.830 715.667 116.096 32.148 o
0 7 8 4827.230 4769.060 450.629 2.129 o
0 7 9 254.374 290.290 93.167 51.360 o
0 7 10 979.842 1273.820 207.772 10.328 o
0 7 11 528.956 597.961 140.340 22.648 o
0 8 0 30298.100 30862.600 681.504 0.535 o
0 8 1 158.807 140.467 47.874 186.031 o
0 8 2 5277.290 5757.910 205.470 7.636 o
0 8 3 268.953 259.261 69.403 89.598 o
0 8 4 226.836 254.497 66.152 98.835 o
0 8 5 605.200 673.388 96.431 45.277 o
0 8 6 423.059 697.473 117.346 31.975 o
0 8 7 220.087 205.939 89.114 56.439 o
0 8 8 11476.200 12018.400 375.061 2.223 o
0 8 9 110.890 37.431 73.028 85.354 o
0 8 10 6853.700 7342.490 313.915 3.662 o
0 9 1 784.363 979.392 113.692 32.487 o
0 9 2 4498.420 4665.220 234.561 6.731 o
0 9 3 332.003 231.160 74.652 77.555 o
0 9 4 579.787 410.723 86.270 56.496 o
0 9 5 1.537 48.358 64.274 111.963 o
0 9 6 6767.590 6717.250 710.411 0.875 o
0 9 7 861.533 1050.390 159.826 17.171 o
0 9 8 1207.740 887.450 161.482 16.617 o
0 9 9 1494.310 1740.600 473.329 2.048 o
0 10 0 12999.600 14582.100 537.036 1.231 o
0 10 1 447.196 635.491 118.531 31.389 o
0 10 2 5778.970 5885.270 383.730 2.767 o
0 10 3 690.878 802.516 123.652 28.278 o
0 10 4 211.839 201.271 82.817 65.071 o
0 10 5 0.734 6.915 79.289 73.930 o
0 10 6 295.402 302.846 190.549 12.661 o
0 10 7 10.512 -179.203 112.698 36.590 o
0 11 1 1521.260 1979.960 184.521 12.458 o
0 11 2 1070.780 1172.410 152.852 18.395 o
0 11 3 238.493 211.758 92.844 52.022 o
1 0 0 4072.950 4367.050 89.950 22.850 o
1 0 2 15737.700 15840.100 367.255 1.838 o
1 0 4 102393.000 102223.000 1358.340 0.076 o
1 0 6 57458.800 56444.700 719.163 0.248 o
1 0 8 457.434 465.065 85.167 58.605 o
1 0 10 3563.200 3507.160 223.842 7.796 o
1 0 12 10567.800 11434.700 664.808 0.926 o
1 0 14 14161.100 14508.400 567.983 1.104 o
1 1 0 1731.030 1803.440 32.636 101.983 o
1 1 1 672.463 669.113 46.392 145.174 o
1 1 2 27622.000 27872.200 252.379 1.159 o
1 1 3 965.107 984.386 47.762 118.730 o
1 1 4 2828.400 2752.500 94.744 29.600 o
1 1 5 112.935 97.118 25.459 586.502 o
1 1 6 8727.970 8292.940 156.243 7.209 o
1 1 7 178.879 264.334 39.894 247.578 o
1 1 8 9934.010 10260.100 198.141 5.059 o
1 1 9 75.787 54.054 29.730 477.003 o
1 1 10 3022.310 3001.190 130.836 18.894 o
1 1 11 1.132 -39.044 37.953 322.641 o
1 1 12 8393.190 8628.220 271.993 4.109 o
1 1 13 141.783 126.914 80.635 69.540 o
1 1 14 453.534 325.480 171.290 15.532 o
1 2 0 8145.350 8652.280 110.302 9.277 o
1 2 1 3609.730 3725.210 68.512 31.702 o
1 2 2 13124.300 13185.400 139.500 4.454 o
1 2 3 694.997 925.788 55.717 107.068 o
1 2 4 89649.500 89558.100 737.740 0.122 o
1 2 5 1469.540 1724.130 78.427 50.974 o
1 2 6 55816.600 55812.200 524.433 0.296 o
1 2 7 211.113 248.428 46.234 189.947 o
1 2 8 1260.730 1048.630 95.506 41.423 o
1 2 9 172.083 81.064 31.520 392.128 o
1 2 10 89.829 168.508 53.872 152.048 o
1 2 11 312.264 226.680 48.367 169.697 o
1 2 12 12194.300 12780.100 531.127 1.297 o
1 2 13 157.793 101.376 85.123 62.554 o
1 2 14 13259.000 12944.400 446.129 1.637 o
1 3 0 521.365 742.164 31.689 242.477 o
1 3 1 2806.300 2901.950 52.698 48.266 o
1 3 2 34010.400 34423.600 274.847 0.805 o
1 3 3 49.614 37.271 15.481 1551.550 o
1 3 4 1890.820 1940.000 87.959 39.924 o
1 3 5 4544.900 4682.640 98.746 19.375 o
1 3 6 14743.300 14754.500 229.475 2.958 o
1 3 7 136.886 98.651 40.053 262.457 o
1 3 8 7073.190 7545.960 253.031 4.949 o
1 3 9 788.750 709.868 98.230 42.782 o
1 3 10 3903.010 4139.890 185.053 10.186 o
1 3 11 1155.470 1242.700 118.339 28.890 o
1 3 12 5019.790 5351.700 304.008 4.250 o
1 3 13 79.487 33.984 86.217 61.852 o
1 3 14 27.717 79.638 114.668 35.209 o
1 4 0 303.108 339.300 26.171 409.988 o
1 4 1 27.102 43.901 13.424 2083.500 o
1 4 2 7272.560 7084.370 102.532 11.537 o
1 4 3 8934.330 9226.190 161.161 6.667 o
1 4 4 44035.200 43816.500 439.028 0.461 o
1 4 5 1801.740 1843.220 94.725 36.818 o
1 4 6 41457.700 41178.500 489.919 0.482 o
1 4 7 214.545 236.825 53.546 146.446 o
1 4 8 151.409 143.218 54.290 147.650 o
1 4 9 402.266 340.358 72.970 79.108 o
1 4 10 1008.940 922.657 126.487 26.345 o
1 4 11 191.812 71.965 85.120 62.405 o
1 4 12 9125.080 10390.200 455.389 1.820 o
1 4 13 26.578 1.194 95.712 50.635 o
1 5 0 1144.960 1068.160 55.015 93.457 o
1 5 1 292.449 374.526 35.735 268.263 o
1 5 2 9942.580 9679.560 134.167 6.744 o
1 5 3 3848.280 3912.600 86.729 25.220 o
1 5 4 1419.510 1318.360 74.955 56.875 o
1 5 5 612.948 566.480 65.840 88.529 o
1 5 6 1355.540 1185.160 116.919 29.023 o
1 5 7 0.969 -39.489 45.394 225.593 o
1 5 8 6544.600 6807.670 280.034 4.458 o
1 5 9 1315.520 1311.390 147.011 19.376 o
1 5 10 987.689 877.751 220.782 9.239 o
1 5 11 82.605 61.141 107.518 39.882 o
1 5 12 5036.480 5172.670 382.146 2.857 o
1 5 13 869.305 1083.030 197.777 11.430 o
1 6 0 206.281 249.117 32.689 338.257 o
1 6 1 64.964 58.152 29.883 476.419 o
1 6 2 5372.320 5319.720 130.172 13.221 o
1 6 3 588.657 538.635 58.062 109.565 o
1 6 4 49636.000 48708.100 572.097 0.345 o
1 6 5 461.882 438.148 60.294 107.965 o
1 6 6 11575.600 12187.900 330.809 2.594 o
1 6 7 344.443 540.152 95.947 47.429 o
1 6 8 232.787 150.757 71.563 86.035 o
1 6 9 23.313 5.980 59.955 128.554 o
1 6 10 6.572 -79.372 66.233 105.875 o
1 6 11 71.224 -8.208 88.109 59.426 o
1 6 12 5741.100 6179.280 429.528 2.260 o
1 7 0 1659.900 1699.650 105.367 32.340 o
1 7 1 2.611 -4.667 35.139 375.950 o
1 7 2 8167.280 8322.760 212.605 5.642 o
1 7 3 876.296 938.604 92.760 46.098 o
1 7 4 1932.390 2165.520 199.495 10.569 o
1 7 5 5810.670 5766.550 182.655 8.596 o
1 7 6 8749.270 8693.570 248.996 4.502 o
1 7 7 133.671 122.406 59.841 123.792 o
1 7 8 3147.160 3428.640 237.100 7.203 o
1 7 9 31.864 32.510 73.815 84.696 o
1 7 10 2267.430 2773.100 224.658 8.309 o
1 7 11 636.146 676.061 136.862 23.556 o
1 8 0 155.001 116.971 52.565 157.306 o
1 8 1 152.285 59.391 50.024 174.430 o
1 8 2 3354.590 3477.680 191.080 10.230 o
1 8 3 234.418 201.886 66.071 99.454 o
1 8 4 8710.020 9059.410 268.808 4.067 o
1 8 5 1303.950 1503.850 135.451 22.284 o
1 8 6 16493.700 16338.300 746.620 0.679 o
1 8 7 194.472 205.292 86.458 60.020 o
1 8 8 16.611 132.137 109.643 38.452 o
1 8 9 30.750 -86.846 87.120 61.057 o
1 8 10 35.785 -133.456 117.343 33.698 o
1 9 0 377.028 355.445 79.498 67.840 o
1 9 1 1.062 60.738 60.897 124.481 o
1 9 2 3168.890 3137.040 241.669 7.000 o
1 9 3 816.678 963.075 205.182 10.686 o
1 9 4 21.801 6.301 65.204 108.828 o
1 9 5 1401.290 1656.180 182.800 12.840 o
1 9 6 2308.090 2152.150 252.513 6.769 o
1 9 7 56.559 119.830 172.358 15.600 o
1 9 8 957.004 1062.050 292.187 5.342 o
1 10 0 139.198 78.220 74.026 82.454 o
1 10 1 1.263 -20.455 66.843 104.059 o
1 10 2 445.074 341.518 112.754 34.929 o
1 10 3 123.736 161.058 133.140 25.965 o
1 10 4 10901.500 11734.100 529.066 1.354 o
1 10 5 179.729 258.680 182.207 13.889 o
1 10 6 4778.410 5208.490 600.790 1.234 o
1 11 0 15.207 92.432 134.763 25.531 o
1 11 1 255.737 180.742 145.500 21.639 o
1 11 2 1041.880 1235.770 299.574 5.073 o
2 0 0 68872.300 72991.800 791.202 0.175 o
2 0 2 60412.400 60844.300 550.622 0.255 o
2 0 4 886.042 1035.130 67.249 76.431 o
2 0 6 33.955 37.022 27.180 592.610 o
2 0 8 47633.500 45925.700 663.771 0.339 o
2 0 10 23189.100 22547.200 588.476 0.797 o
2 0 12 3740.640 3260.020 431.715 2.372 o
2 0 14 743.671 664.749 175.754 14.521 o
2 1 0 256.997 317.709 19.522 602.181 o
2 1 1 613.350 714.308 27.194 266.294 o
2 1 2 52084.900 52208.000 483.952 0.340 o
2 1 3 411.363 499.312 34.947 248.510 o
2 1 4 3248.460 3039.300 73.438 34.451 o
2 1 5 187.163 194.313 24.044 554.254 o
2 1 6 9144.660 9111.810 240.663 4.534 o
2 1 7 122.156 84.022 28.246 492.085 o
2 1 8 11071.200 10936.900 216.979 4.260 o
2 1 9 6698.420 6580.490 228.855 5.928 o
2 1 10 1959.810 1739.030 109.940 29.176 o
2 1 11 707.623 658.104 79.743 62.453 o
2 1 12 5949.750 6459.270 422.877 2.308 o
2 1 13 0.563 26.257 77.537 77.202 o
2 1 14 3.289 -34.076 86.290 62.433 o
2 2 0 120345.000 121179.000 1362.580 0.060 o
2 2 1 1532.810 1601.890 77.079 52.151 o
2 2 2 70606.100 72539.500 488.895 0.200 o
2 2 3 43.420 80.754 19.644 1011.280 o
2 2 4 86.290 78.643 22.804 736.067 o
2 2 5 3.281 -8.618 19.369 1230.250 o
2 2 6 275.558 215.274 57.101 128.512 o
2 2 7 736.613 810.262 98.326 42.718 o
2 2 8 17612.900 17745.800 264.251 2.161 o
2 2 9 1554.280 1428.990 111.461 30.413 o
2 2 10 27477.800 27896.600 380.273 0.969 o
2 2 11 41.821 8.123 40.577 275.724 o
2 2 12 550.140 339.657 96.830 46.083 o
2 2 13 41.440 -55.691 75.844 80.339 o
2 3 0 1134.410 1256.280 30.628 154.490 o
2 3 1 139.218 91.664 13.698 1312.710 o
2 3 2 29520.100 29707.100 340.576 0.934 o
2 3 3 38.496 47.821 13.657 1926.810 o
2 3 4 3778.640 3748.020 84.884 26.293 o
2 3 5 1485.010 1576.560 78.326 51.614 o
2 3 6 2377.780 2341.090 142.513 18.175 o
2 3 7 2026.840 1962.660 108.704 29.053 o
2 3 8 6898.100 6940.410 192.041 7.195 o
2 3 9 376.168 349.432 81.727 64.497 o
2 3 10 1203.160 1110.480 112.294 31.688 o
2 3 11 477.921 448.857 102.380 41.607 o
2 3 12 3023.260 3317.670 321.178 4.188 o
2 3 13 11.627 -54.729 83.753 66.203 o
2 4 0 70191.900 68081.800 513.960 0.207 o
2 4 1 1929.560 2022.000 54.049 66.600 o
2 4 2 39237.900 38679.400 334.776 0.611 o
2 4 3 457.804 483.481 39.479 206.574 o
2 4 4 13.766 -6.848 19.504 1185.210 o
2 4 5 86.927 48.458 34.462 361.556 o
2 4 6 1224.830 1257.130 99.566 38.365 o
2 4 7 599.710 598.400 79.618 64.053 o
2 4 8 30921.700 30980.400 530.013 0.667 o
2 4 9 537.570 463.942 80.458 64.190 o
2 4 10 21578.600 22133.500 550.822 0.898 o
2 4 11 9.574 53.676 75.431 81.279 o
2 4 12 1205.090 1591.260 350.461 3.713 o
2 4 13 157.681 138.375 188.773 12.975 o
2 5 0 1393.520 1482.380 54.565 82.667 o
2 5 1 58.895 44.432 17.960 1179.930 o
2 5 2 21892.300 21821.100 220.846 1.755 o
2 5 3 103.853 54.496 25.619 601.524 o
2 5 4 5471.150 5483.230 259.963 5.378 o
2 5 5 6.809 -5.474 29.773 521.145 o
2 5 6 3233.120 3111.010 160.892 13.660 o
2 5 7 18.198 18.407 47.292 205.737 o
2 5 8 7084.470 6649.960 262.145 4.811 o
2 5 9 2575.760 2859.890 217.133 8.705 o
2 5 10 757.276 628.945 164.971 16.406 o
2 5 11 107.656 141.371 134.603 25.443 o
2 5 12 4807.290 5558.730 401.486 2.615 o
2 6 0 29657.200 29854.300 307.602 0.969 o
2 6 1 309.794 284.583 41.931 212.706 o
2 6 2 24257.100 23231.300 356.788 1.214 o
2 6 3 418.525 472.286 54.526 128.602 o
2 6 4 1482.420 1465.570 99.079 36.921 o
2 6 5 898.731 930.063 82.240 56.221 o
2 6 6 268.361 192.965 69.080 90.972 o
2 6 7 183.942 151.043 72.492 84.677 o
2 6 8 16265.300 16562.100 435.782 1.470 o
2 6 9 36.526 41.062 73.815 84.573 o
2 6 10 12159.400 12991.400 484.891 1.490 o
2 6 11 468.423 733.751 229.810 8.667 o
2 7 0 80.681 93.063 44.533 221.824 o
2 7 1 1978.840 1839.620 118.552 25.783 o
2 7 2 13108.300 13161.300 290.895 2.746 o
2 7 3 322.692 265.089 97.852 46.475 o
2 7 4 4023.330 4132.630 323.216 4.001 o
2 7 5 1022.650 1034.230 108.644 34.312 o
2 7 6 1750.860 1673.590 203.723 10.353 o
2 7 7 1295.040 1435.600 316.707 4.526 o
2 7 8 2194.110 2311.460 297.933 4.967 o
2 7 9 438.779 115.631 137.065 24.145 o
2 7 10 906.741 401.414 212.575 10.031 o
2 8 0 33124.800 33669.100 647.531 0.518 o
2 8 1 1109.030 1121.470 131.023 24.345 o
2 8 2 14587.800 14271.600 330.675 2.209 o
2 8 3 96.447 73.113 57.508 135.756 o
2 8 4 251.746 224.470 83.320 63.870 o
2 8 5 13.326 23.341 84.637 64.724 o
2 8 6 582.908 395.602 170.716 15.539 o
2 8 7 112.316 18.056 152.660 19.863 o
2 8 8 5615.580 5679.600 618.846 1.155 o
2 8 9 43.374 -109.981 169.075 16.247 o
2 9 0 343.929 175.148 70.618 86.216 o
2 9 1 1981.590 2123.290 188.410 11.698 o
2 9 2 3754.510 4009.650 1006.240 0.454 o
2 9 3 246.449 256.256 115.277 34.099 o
2 9 4 695.482 739.443 156.022 18.262 o
2 9 5 29.740 69.963 93.001 53.417 o
2 9 6 1596.930 2045.310 382.470 3.105 o
2 9 7 236.206 433.357 223.244 9.252 o
2 10 0 10956.300 13117.200 527.200 1.341 o
2 10 1 312.457 238.240 123.159 29.858 o
2 10 2 8082.850 8319.060 430.326 2.095 o
2 10 3 229.228 149.865 233.093 8.515 o
2 10 4 168.604 55.383 105.580 41.067 o
2 10 5 51.061 127.635 121.402 31.337 o
2 11 0 13.883 26.737 110.625 37.927 o
2 11 1 311.690 383.147 158.561 18.150 o
3 0 0 5571.610 5544.420 111.111 14.654 o
3 0 2 11977.700 11839.000 175.800 4.545 o
3 0 4 32244.000 30013.300 399.531 0.788 o
3 0 6 46041.900 46753.300 668.670 0.345 o
3 0 8 3569.040 3612.270 316.717 4.227 o
3 0 10 1960.230 1741.410 421.866 2.558 o
3 0 12 8480.360 9430.430 645.110 1.015 o
3 1 0 13743.400 13976.300 141.196 4.118 o
3 1 1 1307.240 1363.930 39.893 116.010 o
3 1 2 20187.800 20910.200 221.495 1.942 o
3 1 3 3948.180 4330.470 91.689 22.983 o
3 1 4 224.947 205.224 26.196 470.076 o
3 1 5 8.192 -23.014 17.497 1484.510 o
3 1 6 14482.400 14449.500 234.179 2.983 o
3 1 7 2005.770 2177.040 128.835 22.193 o
3 1 8 12830.600 12734.200 440.684 1.690 o
3 1 9 94.965 100.067 41.887 246.832 o
3 1 10 779.260 725.862 93.934 46.307 o
3 1 11 5.001 10.847 66.064 106.335 o
3 1 12 2718.140 2876.270 236.037 7.460 o
3 1 13 3.429 67.169 88.629 58.962 o
3 2 0 4046.180 4512.080 69.577 26.972 o
3 2 1 247.404 329.979 23.189 502.546 o
3 2 2 745.903 1011.250 49.557 121.880 o
3 2 3 270.086 297.865 29.085 374.942 o
3 2 4 65924.300 64883.200 579.989 0.220 o
3 2 5 0.325 1.519 19.094 1272.270 o
3 2 6 37719.400 36222.400 453.895 0.583 o
3 2 7 570.716 529.589 59.475 106.070 o
3 2 8 1294.170 1338.740 96.731 39.633 o
3 2 9 89.364 85.790 43.859 227.804 o
3 2 10 49.796 40.982 46.682 207.509 o
3 2 11 27.579 18.025 54.097 157.192 o
3 2 12 4057.930 4492.950 600.128 1.248 o
3 2 13 45.459 108.863 93.010 53.214 o
3 3 0 13746.600 13882.200 152.414 4.014 o
3 3 1 868.006 1038.280 43.340 136.046 o
3 3 2 4502.940 4550.330 91.935 20.806 o
3 3 3 39.571 26.301 18.085 1245.690 o
3 3 4 5167.740 5292.840 102.590 16.631 o
3 3 5 1137.060 1269.840 81.324 53.456 o
3 3 6 4837.540 4838.130 156.825 11.603 o
3 3 7 1.566 3.485 33.761 406.977 o
3 3 8 11520.700 11702.800 276.403 3.227 o
3 3 9 277.940 156.203 52.147 152.451 o
3 3 10 29.497 40.055 55.931 146.624 o
3 3 11 7.903 69.267 71.997 89.078 o
3 3 12 4213.550 4347.740 326.407 3.901 o
3 4 0 1428.390 1599.730 52.097 84.327 o
3 4 1 450.991 517.351 30.095 288.910 o
3 4 2 6506.840 6477.580 106.320 12.799 o
3 4 3 1117.360 1181.430 62.301 79.180 o
3 4 4 37308.400 36302.700 418.415 0.612 o
3 4 5 164.301 121.978 50.940 166.131 o
3 4 6 27442.400 26953.100 439.336 0.893 o
3 4 7 267.384 287.147 63.894 104.070 o
3 4 8 555.558 428.379 82.556 61.294 o
3 4 9 31.974 39.475 55.036 151.270 o
3 4 10 334.612 475.401 108.521 37.715 o
3 4 11 76.190 95.198 105.877 41.082 o
3 4 12 5208.550 4944.200 576.167 1.333 o
3 5 0 6675.480 6800.860 108.499 12.164 o
3 5 1 56.251 52.858 23.153 763.585 o
3 5 2 15344.500 15613.100 214.330 2.915 o
3 5 3 692.694 624.524 53.159 120.030 o
3 5 4 2353.600 2262.920 111.136 26.581 o
3 5 5 1543.300 1483.380 111.481 30.351 o
3 5 6 5709.220 5980.560 197.428 7.785 o
3 5 7 153.676 121.948 58.239 129.679 o
3 5 8 6897.860 6708.340 333.013 3.367 o
3 5 9 199.137 107.106 102.719 43.134 o
3 5 10 155.906 229.810 146.094 21.539 o
3 5 11 8.483 -21.340 134.603 25.658 o
3 6 0 530.488 530.575 50.624 138.241 o
3 6 1 123.891 130.257 35.876 319.091 o
3 6 2 588.044 600.858 61.436 99.299 o
3 6 3 50.544 15.257 34.698 370.547 o
3 6 4 19540.500 19045.100 342.674 1.603 o
3 6 5 3407.430 3270.620 244.315 6.789 o
3 6 6 18554.200 18286.700 554.990 0.998 o
3 6 7 1262.890 1527.710 274.131 5.991 o
3 6 8 1383.040 1332.800 200.201 10.919 o
3 6 9 139.970 -7.281 171.537 15.738 o
3 6 10 186.704 54.443 164.150 17.136 o
3 6 11 23.396 49.245 170.716 15.934 o
3 7 0 2855.820 2848.140 320.330 4.246 o
3 7 1 735.941 1015.450 127.830 26.289 o
3 7 2 4189.190 3940.960 291.836 4.788 o
3 7 3 46.489 75.710 96.028 50.028 o
3 7 4 2935.330 3163.100 283.794 5.284 o
3 7 5 670.846 690.794 144.147 21.293 o
3 7 6 1534.040 1848.330 331.583 4.111 o
3 7 7 458.627 398.222 125.229 28.480 o
3 7 8 4690.900 4775.220 371.727 3.038 o
3 7 9 39.690 59.939 117.215 33.698 o
3 7 10 108.984 224.497 150.980 20.224 o
3 8 0 3.083 117.594 81.824 68.901 o
3 8 1 56.953 57.655 73.301 85.350 o
3 8 2 88.826 2.043 76.202 79.008 o
3 8 3 13.225 4.557 74.094 84.502 o
3 8 4 15178.100 15945.600 569.558 1.062 o
3 8 5 188.770 429.129 222.424 9.329 o
3 8 6 12866.000 13491.500 776.431 0.677 o
3 8 7 891.756 697.638 247.867 7.407 o
3 8 8 753.304 523.639 251.150 7.251 o
3 9 0 1473.770 1568.420 213.867 9.571 o
3 9 1 177.613 313.722 112.518 35.856 o
3 9 2 2413.490 2261.540 251.878 6.768 o
3 9 3 439.279 575.646 164.971 16.645 o
3 9 4 945.417 1081.500 199.060 11.260 o
3 9 5 3201.860 3485.980 368.517 3.221 o
3 9 6 1604.040 2227.520 410.376 2.703 o
3 9 7 3.525 157.584 219.961 9.598 o
3 10 0 48.868 11.372 149.377 20.797 o
3 10 1 883.192 616.073 240.480 7.867 o
3 10 2 266.028 174.425 119.896 31.629 o
3 10 3 194.477 68.881 123.933 29.874 o
3 10 4 5815.920 5297.130 622.129 1.143 o
4 0 0 60475.700 58945.700 551.526 0.259 o
4 0 2 119138.000 124040.000 1652.960 0.054 o
4 0 4 1099.720 1128.310 186.630 12.652 o
4 0 6 578.385 647.640 110.660 35.309 o
4 0 8 5011.860 5030.880 265.648 5.346 o
4 0 10 26597.100 26981.400 1089.960 0.309 o
4 0 12 2423.370 2422.860 412.017 2.654 o
4 1 0 1543.200 1517.230 62.956 67.534 o
4 1 1 757.258 793.568 36.922 179.039 o
4 1 2 23435.700 22986.500 232.660 1.564 o
4 1 3 47.592 50.153 20.107 993.104 o
4 1 4 19440.400 19212.000 287.862 1.822 o
4 1 5 3032.760 2980.180 131.267 18.808 o
4 1 6 1933.990 1808.090 118.688 25.900 o
4 1 7 1421.400 1454.870 111.538 30.774 o
4 1 8 3403.170 3433.560 170.555 12.204 o
4 1 9 41.205 14.266 49.628 185.628 o
4 1 10 1632.800 1480.400 303.666 4.882 o
4 1 11 38.381 57.163 73.161 85.939 o
4 1 12 5641.640 6254.610 458.755 2.009 o
4 2 0 64330.900 63420.300 475.750 0.242 o
4 2 1 181.707 152.534 20.507 708.800 o
4 2 2 30005.900 29192.100 309.813 0.965 o
4 2 3 462.014 511.294 52.413 134.410 o
4 2 4 3586.770 3636.300 114.906 20.226 o
4 2 5 1994.240 2150.530 134.463 20.772 o
4 2 6 427.254 419.984 51.681 141.138 o
4 2 7 1036.550 1055.370 86.908 49.803 o
4 2 8 18187.200 18656.200 328.551 1.762 o
4 2 9 351.530 382.567 65.687 96.137 o
4 2 10 26766.000 26018.700 659.473 0.624 o
4 2 11 256.816 208.361 166.612 16.552 o
4 2 12 1670.000 1907.040 480.139 1.987 o
4 3 0 5074.530 5377.490 128.969 13.723 o
4 3 1 57.695 74.219 20.761 903.221 o
4 3 2 20127.300 20222.200 258.891 1.840 o
4 3 3 12.448 23.789 20.703 1033.820 o
4 3 4 17671.200 17451.600 254.694 2.221 o
4 3 5 71.539 77.725 34.943 352.589 o
4 3 6 804.813 752.773 91.335 48.388 o
4 3 7 3542.360 3416.590 164.928 12.717 o
4 3 8 3687.550 3886.900 180.640 10.802 o
4 3 9 543.837 374.196 165.998 16.443 o
4 3 10 1138.390 916.178 152.106 18.627 o
4 3 11 204.482 229.960 169.895 15.949 o
4 3 12 4547.600 5333.270 435.338 2.270 o
4 4 0 35566.800 34898.400 301.374 0.741 o
4 4 1 40.408 25.321 19.117 1128.740 o
4 4 2 39299.800 38362.000 356.065 0.601 o
4 4 3 196.393 167.433 33.768 332.859 o
4 4 4 573.085 561.920 59.722 104.851 o
4 4 5 356.940 309.888 61.264 109.597 o
4 4 6 144.718 51.125 71.135 89.210 o
4 4 7 402.890 215.358 127.216 27.893 o
4 4 8 8830.070 8612.980 431.395 2.043 o
4 4 9 302.005 177.856 114.905 34.273 o
4 4 10 16328.000 16916.800 603.238 0.944 o
4 4 11 171.980 274.728 145.019 21.817 o
4 5 0 557.917 537.942 68.565 83.970 o
4 5 1 3419.150 3434.880 172.264 12.005 o
4 5 2 16833.300 16530.100 290.098 2.154 o
4 5 3 247.975 274.149 48.649 170.545 o
4 5 4 18070.300 18448.200 358.599 1.648 o
4 5 5 173.362 175.167 63.338 109.422 o
4 5 6 64.775 60.040 94.956 51.102 o
4 5 7 102.655 3.719 65.653 105.622 o
4 5 8 4113.140 4120.500 269.519 5.494 o
4 5 9 1463.700 1651.690 187.733 12.191 o
4 5 10 317.116 728.827 246.225 7.587 o
4 5 11 47.023 -62.377 137.886 24.407 o
4 6 0 23996.800 24862.200 438.629 1.021 o
4 6 1 979.358 1003.890 103.064 37.837 o
4 6 2 21399.300 20545.500 447.352 1.155 o
4 6 3 1156.570 1206.270 130.297 24.418 o
4 6 4 164.601 168.676 59.043 125.249 o
4 6 5 132.115 145.575 62.720 112.906 o
4 6 6 186.600 366.977 117.295 32.975 o
4 6 7 220.107 75.499 114.905 34.606 o
4 6 8 5797.080 5926.800 412.798 2.430 o
4 6 9 536.029 380.388 142.415 22.141 o
4 6 10 15649.600 15869.200 645.110 0.871 o
4 7 0 159.894 138.795 61.368 117.015 o
4 7 1 320.248 244.550 78.030 71.470 o
4 7 2 7377.380 7213.770 387.395 2.574 o
4 7 3 1576.330 1603.990 216.678 9.301 o
4 7 4 5719.010 6249.090 402.168 2.540 o
4 7 5 3.361 4.925 83.858 66.085 o
4 7 6 851.711 1203.220 285.621 5.589 o
4 7 7 315.422 95.207 169.075 16.078 o
4 7 8 1375.580 1243.640 222.093 8.986 o
4 7 9 104.192 211.178 132.078 26.372 o
4 8 0 15335.800 16781.500 551.847 1.099 o
4 8 1 812.955 699.295 142.768 21.503 o
4 8 2 11740.600 11634.700 464.684 1.632 o
4 8 3 391.936 349.466 119.364 31.431 o
4 8 4 126.481 34.850 90.335 56.105 o
4 8 5 96.153 283.918 118.540 32.593 o
4 8 6 85.295 22.981 152.660 19.882 o
4 8 7 585.698 192.056 208.471 10.538 o
4 9 0 146.208 70.207 100.952 44.913 o
4 9 1 2359.470 2785.570 282.233 5.448 o
4 9 2 4959.010 4372.920 351.232 3.358 o
4 9 3 75.930 53.800 96.235 49.727 o
4 9 4 5266.970 4636.800 375.815 2.946 o
4 9 5 82.050 102.106 111.144 37.289 o
4 9 6 52.415 200.263 203.546 11.188 o
4 10 0 8119.360 8808.140 450.346 1.929 o
4 10 1 300.224 604.960 311.065 4.777 o
4 10 2 6130.100 5636.980 450.592 2.069 o
4 10 3 994.740 968.325 195.851 11.620 o
5 0 0 2063.150 2255.730 66.286 52.015 o
5 0 2 343.472 350.388 43.947 191.497 o
5 0 4 25515.700 25376.500 460.897 0.930 o
5 0 6 37623.300 37809.900 772.222 0.387 o
5 0 8 3728.480 4206.960 329.942 3.880 o
5 0 10 11.469 -118.188 141.169 23.324 o
5 1 0 22825.800 22114.300 210.773 1.696 o
5 1 1 2429.460 2545.820 63.636 48.166 o
5 1 2 528.192 543.785 46.652 155.918 o
5 1 3 36.580 53.741 25.914 639.418 o
5 1 4 7836.780 8034.890 183.639 6.786 o
5 1 5 6.217 -19.307 35.850 360.324 o
5 1 6 6250.910 6472.910 198.267 7.353 o
5 1 7 188.863 211.295 72.039 85.168 o
5 1 8 9422.290 9218.430 307.977 3.289 o
5 1 9 1.576 -100.235 75.809 80.901 o
5 1 10 92.511 152.687 230.631 8.718 o
5 1 11 119.433 -35.811 93.954 52.057 o
5 2 0 314.569 356.261 38.195 241.095 o
5 2 1 6.879 17.427 16.969 1542.370 o
5 2 2 1296.040 1273.060 65.628 70.077 o
5 2 3 999.153 924.524 64.702 79.801 o
5 2 4 22879.500 22538.200 295.749 1.451 o
5 2 5 119.103 114.359 45.659 207.321 o
5 2 6 25987.100 25658.300 530.961 0.804 o
5 2 7 24.751 20.389 55.396 150.055 o
5 2 8 4325.560 4662.680 271.413 5.335 o
5 2 9 22.877 15.356 89.010 58.501 o
5 2 10 800.393 634.253 159.342 17.498 o
5 2 11 140.737 130.888 118.288 32.800 o
5 3 0 22794.100 22291.700 263.609 1.550 o
5 3 1 574.806 491.789 73.309 74.958 o
5 3 2 780.246 855.104 73.440 69.447 o
5 3 3 783.937 840.579 76.013 65.718 o
5 3 4 7340.510 7456.620 225.246 5.691 o
5 3 5 20.378 23.565 45.006 226.450 o
5 3 6 3794.600 4336.210 199.161 9.111 o
5 3 7 12.623 38.742 44.176 234.940 o
5 3 8 9403.900 9524.410 581.034 1.208 o
5 3 9 1.945 103.269 125.575 29.404 o
5 3 10 162.796 178.178 113.493 35.472 o
5 3 11 143.520 42.945 103.763 42.608 o
5 4 0 364.142 308.177 49.610 157.225 o
5 4 1 908.786 1005.140 90.721 47.440 o
5 4 2 265.639 234.594 46.285 185.995 o
5 4 3 8.643 -45.140 29.748 521.084 o
5 4 4 23436.400 23344.300 439.405 1.060 o
5 4 5 555.872 372.208 69.657 83.159 o
5 4 6 19638.200 19578.100 495.422 1.102 o
5 4 7 777.043 786.286 126.282 27.035 o
5 4 8 3219.030 3192.560 200.881 9.573 o
5 4 9 0.419 44.636 90.514 56.627 o
5 4 10 410.749 323.188 141.550 22.586 o
5 5 0 14127.800 13810.200 304.313 2.473 o
5 5 1 698.751 625.035 69.225 79.518 o
5 5 2 694.426 582.737 112.771 33.840 o
5 5 3 292.031 285.307 61.105 112.221 o
5 5 4 5004.500 4937.690 238.352 6.367 o
5 5 5 547.301 622.997 211.433 10.203 o
5 5 6 2353.750 2529.280 265.096 6.143 o
5 5 7 10.958 36.523 69.594 95.515 o
5 5 8 7678.200 8343.250 717.444 0.846 o
5 5 9 54.900 -102.722 76.678 78.455 o
5 5 10 19.764 22.981 142.811 22.772 o
5 6 0 144.807 94.910 50.533 170.538 o
5 6 1 47.674 -38.889 45.912 216.335 o
5 6 2 878.303 823.584 111.303 33.703 o
5 6 3 231.716 202.946 76.731 75.054 o
5 6 4 15169.200 15283.800 414.509 1.647 o
5 6 5 490.743 599.338 105.229 39.184 o
5 6 6 17777.200 17722.600 500.832 1.169 o
5 6 7 673.577 772.028 238.018 8.050 o
5 6 8 672.170 671.922 321.734 4.447 o
5 6 9 44.525 101.477 138.832 24.023 o
5 7 0 6568.760 7359.850 271.119 4.617 o
5 7 1 330.284 152.480 96.382 48.086 o
5 7 2 4.400 51.902 62.828 117.028 o
5 7 3 140.235 161.554 95.501 49.894 o
5 7 4 2344.980 2517.100 363.593 3.380 o
5 7 5 444.252 522.298 147.933 20.593 o
5 7 6 2043.730 2573.880 402.168 2.792 o
5 7 7 472.881 359.489 193.697 12.187 o
5 7 8 4468.690 4354.910 574.526 1.354 o
5 8 0 451.150 294.114 112.618 35.060 o
5 8 1 3.888 -15.416 81.630 69.756 o
5 8 2 180.575 114.213 94.652 50.686 o
5 8 3 3.654 -48.424 76.607 79.201 o
5 8 4 6721.460 6324.340 433.191 2.180 o
5 8 5 469.984 357.205 189.594 12.713 o
5 8 6 9326.710 9510.860 691.072 0.887 o
5 9 0 4752.600 4798.110 517.073 1.646 o
5 9 1 36.056 -48.451 87.837 60.031 o
5 9 2 1049.830 1113.260 194.426 11.730 o
5 9 3 738.903 776.919 334.866 4.103 o
5 9 4 623.820 726.450 189.455 12.596 o
5 9 5 158.084 433.939 165.107 16.843 o
5 10 0 19.890 -0.197 106.201 41.170 o
5 10 1 506.626 289.085 245.405 7.641 o
5 10 2 0.196 -4.445 116.274 34.398 o
6 0 0 49545.600 48923.400 516.623 0.361 o
6 0 2 36079.900 35579.900 430.489 0.630 o
6 0 4 1147.550 934.203 132.261 24.034 o
6 0 6 26.504 -22.896 77.264 77.600 o
6 0 8 3272.370 3115.570 421.866 2.497 o
6 0 10 14381.200 14366.400 838.808 0.579 o
6 1 0 764.307 794.014 48.987 127.648 o
6 1 1 231.534 258.524 33.248 322.655 o
6 1 2 10687.200 10572.400 198.198 4.762 o
6 1 3 71.959 47.916 34.568 363.366 o
6 1 4 22797.900 22863.000 350.841 1.302 o
6 1 5 7.311 -42.995 58.285 136.641 o
6 1 6 281.651 199.850 94.772 49.800 o
6 1 7 3.710 -8.535 69.896 95.129 o
6 1 8 2439.150 2229.820 190.510 11.184 o
6 1 9 214.584 101.728 99.906 45.486 o
6 1 10 137.508 189.393 139.776 23.549 o
6 2 0 55410.300 55081.600 452.025 0.315 o
6 2 1 385.122 377.901 42.143 199.428 o
6 2 2 33922.800 33861.200 395.734 0.713 o
6 2 3 386.004 412.206 51.655 143.383 o
6 2 4 2276.400 2237.360 105.403 28.942 o
6 2 5 14.471 51.672 46.461 211.978 o
6 2 6 2107.830 1974.910 147.257 17.857 o
6 2 7 250.140 177.639 90.452 54.739 o
6 2 8 4748.570 5165.940 703.384 0.911 o
6 2 9 112.497 61.174 132.141 26.440 o
6 2 10 8498.940 8459.310 452.968 1.902 o
6 3 0 653.810 666.360 53.444 119.766 o
6 3 1 1155.870 1200.950 63.453 76.373 o
6 3 2 10853.400 10818.300 233.931 4.044 o
6 3 3 42.825 -11.955 33.047 411.694 o
6 3 4 28180.900 27759.400 427.340 0.881 o
6 3 5 394.326 365.348 69.500 86.294 o
6 3 6 46.860 36.864 51.422 172.135 o
6 3 7 0.205 18.152 68.850 97.940 o
6 3 8 1836.170 1591.730 221.697 8.834 o
6 3 9 70.888 89.592 114.084 35.452 o
6 3 10 155.439 227.537 132.487 26.128 o
6 4 0 21023.700 21302.000 423.201 1.219 o
6 4 1 1587.270 1582.580 106.677 32.224 o
6 4 2 26660.400 26595.900 410.312 0.966 o
6 4 3 3424.640 3421.010 213.474 8.513 o
6 4 4 134.179 162.664 101.019 44.717 o
6 4 5 1387.810 1214.630 146.664 19.428 o
6 4 6 120.983 146.487 69.013 94.180 o
6 4 7 232.560 131.258 87.128 59.125 o
6 4 8 2748.720 2352.620 221.672 8.420 o
6 4 9 25.372 1.021 99.801 46.585 o
6 5 0 1469.600 1341.160 130.369 23.663 o
6 5 1 653.745 908.967 109.976 35.042 o
6 5 2 1818.680 2043.500 171.064 14.034 o
6 5 3 215.670 187.655 59.319 122.249 o
6 5 4 12876.700 12197.900 521.531 1.324 o
6 5 5 222.236 182.536 87.363 58.707 o
6 5 6 352.268 179.225 81.794 65.427 o
6 5 7 37.858 0.759 73.813 84.837 o
6 5 8 1298.500 1374.330 181.019 13.219 o
6 5 9 125.251 235.347 126.793 28.535 o
6 6 0 27448.900 27248.000 551.245 0.734 o
6 6 1 80.593 77.331 71.922 88.099 o
6 6 2 10193.400 10708.800 447.561 1.817 o
6 6 3 299.810 318.420 89.331 55.263 o
6 6 4 1654.000 1499.370 163.091 15.662 o
6 6 5 23.834 91.128 96.665 49.447 o
6 6 6 617.039 358.115 108.621 36.909 o
6 6 7 0.419 32.148 103.773 43.128 o
6 6 8 3550.580 3165.650 326.576 4.019 o
6 7 0 2282.680 2218.090 182.016 12.212 o
6 7 1 3807.670 4003.470 253.387 6.189 o
6 7 2 6254.040 6304.110 423.063 2.296 o
6 7 3 68.379 120.044 82.321 67.486 o
6 7 4 9178.270 10103.400 452.048 1.845 o
6 7 5 422.986 682.865 239.659 7.990 o
6 7 6 76.765 -1.641 142.811 22.727 o
6 7 7 12.948 131.320 195.339 12.166 o
6 8 0 4889.710 5158.450 373.313 2.989 o
6 8 1 587.759 718.840 149.558 19.920 o
6 8 2 15272.600 15067.800 564.617 1.083 o
6 8 3 1894.040 2222.190 264.386 6.277 o
6 8 4 405.364 435.819 145.090 21.471 o
6 8 5 215.251 72.226 180.565 14.164 o
6 9 0 193.141 154.981 163.329 17.273 o
6 9 1 863.446 776.499 173.020 14.860 o
6 9 2 753.001 1317.610 375.083 3.269 o
6 9 3 1.745 -62.404 102.898 43.917 o
7 0 0 879.530 854.150 100.966 40.000 o
7 0 2 1192.910 1111.640 143.261 20.600 o
7 0 4 16414.100 16785.900 500.614 1.225 o
7 0 6 25925.600 26255.400 689.615 0.600 o
7 0 8 2779.780 2770.860 434.998 2.374 o
7 1 0 20619.100 20672.300 245.225 1.829 o
7 1 1 21.690 20.244 32.567 427.285 o
7 1 2 320.801 277.561 59.370 117.419 o
7 1 3 201.437 227.616 62.116 112.077 o
7 1 4 1186.360 1096.850 111.508 32.150 o
7 1 5 1376.260 1225.430 148.318 19.048 o
7 1 6 2186.910 2390.850 298.498 4.946 o
7 1 7 149.719 104.267 105.002 41.494 o
7 1 8 11678.600 11415.400 510.055 1.418 o
7 1 9 684.972 480.903 150.041 19.819 o
7 2 0 33.750 32.549 28.655 537.648 o
7 2 1 182.668 204.507 39.500 255.277 o
7 2 2 20.904 78.181 37.612 316.928 o
7 2 3 213.470 248.121 49.536 168.086 o
7 2 4 8314.380 8041.530 220.158 5.425 o
7 2 5 204.505 180.242 72.569 83.988 o
7 2 6 25635.600 25803.300 633.248 0.671 o
7 2 7 51.571 -57.453 82.985 67.090 o
7 2 8 3019.550 3088.580 315.133 4.350 o
7 2 9 187.599 240.873 148.556 20.805 o
7 3 0 19122.100 19170.200 282.953 1.869 o
7 3 1 135.850 156.689 32.995 362.584 o
7 3 2 328.540 382.202 55.930 128.240 o
7 3 3 755.157 634.137 76.593 66.456 o
7 3 4 2025.570 1537.820 131.744 21.994 o
7 3 5 63.101 116.972 63.539 112.188 o
7 3 6 1430.520 1460.640 356.024 3.593 o
7 3 7 103.197 147.819 123.113 30.364 o
7 3 8 8548.930 8669.050 457.902 1.862 o
7 3 9 1.517 -29.822 114.114 35.709 o
7 4 0 25.694 2.466 36.221 348.238 o
7 4 1 10.971 28.760 42.919 249.467 o
7 4 2 170.945 104.875 54.635 145.894 o
7 4 3 798.545 575.447 188.640 12.660 o
7 4 4 7713.390 8023.010 249.331 4.828 o
7 4 5 703.697 804.380 110.173 34.936 o
7 4 6 19062.500 18241.100 496.946 1.134 o
7 4 7 388.964 464.287 156.249 18.587 o
7 4 8 1996.790 1787.560 273.310 5.912 o
7 5 0 21572.800 21624.900 474.062 1.067 o
7 5 1 31.341 -20.632 52.315 168.240 o
7 5 2 721.326 577.450 121.791 29.271 o
7 5 3 91.487 32.076 54.726 150.487 o
7 5 4 2247.400 2177.400 271.041 5.939 o
7 5 5 1053.010 1054.810 161.886 16.600 o
7 5 6 1050.340 1224.690 163.390 16.248 o
7 5 7 12.493 34.724 92.798 53.841 o
7 5 8 5064.690 4944.630 635.200 1.107 o
7 6 0 389.436 284.134 83.118 62.682 o
7 6 1 221.967 163.286 81.715 66.846 o
7 6 2 543.407 463.056 101.870 41.690 o
7 6 3 67.172 48.642 79.030 73.507 o
7 6 4 5925.130 6444.750 428.074 2.260 o
7 6 5 200.734 250.025 123.612 29.847 o
7 6 6 10911.600 11554.300 672.195 0.903 o
7 6 7 933.226 659.933 224.886 8.952 o
7 7 0 8967.110 8727.260 323.352 3.161 o
7 7 1 687.484 601.799 116.752 31.724 o
7 7 2 10.565 -55.282 67.055 103.217 o
7 7 3 354.923 292.492 105.794 39.846 o
7 7 4 729.033 883.406 168.772 15.637 o
7 7 5 775.884 842.091 270.848 6.230 o
7 8 0 1.347 52.601 84.608 64.747 o
7 8 1 35.922 39.869 94.593 51.691 o
7 8 2 102.007 69.916 109.462 38.421 o
7 8 3 4.334 -96.060 99.685 46.782 o
7 8 4 1449.090 2145.780 281.393 5.638 o
7 9 0 5419.240 5122.600 399.943 2.613 o
7 9 1 49.979 154.545 121.291 31.370 o
8 0 0 8294.080 9223.200 360.530 2.732 o
8 0 2 40502.600 38904.000 966.024 0.288 o
8 0 4 1533.230 1417.240 406.272 2.770 o
8 0 6 1375.020 956.861 233.914 8.170 o
8 0 8 1980.030 1234.410 297.112 5.071 o
8 1 0 322.793 297.051 64.794 100.093 o
8 1 1 194.007 127.665 57.782 130.115 o
8 1 2 6298.630 5839.030 218.409 6.594 o
8 1 3 473.750 394.567 83.452 60.988 o
8 1 4 10639.100 10425.400 292.783 3.245 o
8 1 5 6.472 -46.416 68.982 97.616 o
8 1 6 1499.230 1202.020 300.395 5.010 o
8 1 7 86.303 171.338 117.522 33.299 o
8 1 8 1738.010 2203.610 316.810 4.461 o
8 2 0 20001.600 19590.500 333.239 1.594 o
8 2 1 5.848 13.734 44.376 234.843 o
8 2 2 21183.400 20873.700 357.153 1.412 o
8 2 3 570.449 545.473 79.925 64.198 o
8 2 4 4303.050 4357.830 260.051 5.771 o
8 2 5 37.083 201.156 104.406 42.188 o
8 2 6 771.455 884.442 311.065 4.742 o
8 2 7 82.668 114.191 119.794 32.127 o
8 2 8 1006.390 718.038 182.967 13.292 o
8 3 0 3638.910 3705.610 120.803 18.887 o
8 3 1 45.468 32.628 43.174 242.433 o
8 3 2 3838.920 3850.730 187.805 10.094 o
8 3 3 7.768 68.958 62.742 117.037 o
8 3 4 11374.500 12249.700 399.485 2.038 o
8 3 5 121.031 135.780 104.291 42.099 o
8 3 6 1151.670 885.409 293.008 5.304 o
8 3 7 26.594 18.944 114.905 35.139 o
8 3 8 1204.120 1258.230 462.083 2.156 o
8 4 0 8733.480 8578.850 243.255 4.647 o
8 4 1 6.436 61.505 47.663 201.821 o
8 4 2 21760.700 21484.700 546.551 0.910 o
8 4 3 4.167 48.835 55.675 148.831 o
8 4 4 1243.340 1176.650 129.492 24.549 o
8 4 5 36.787 -31.626 89.285 58.103 o
8 4 6 830.814 693.560 283.980 5.678 o
8 4 7 83.532 27.596 121.988 31.071 o
8 5 0 1496.220 1749.100 163.193 15.674 o
8 5 1 287.877 256.933 85.795 59.988 o
8 5 2 6592.440 6190.820 337.599 3.352 o
8 5 3 135.481 88.478 84.934 63.055 o
8 5 4 9254.160 8571.290 336.567 2.962 o
8 5 5 403.238 315.334 117.983 32.157 o
8 5 6 1638.130 1707.160 202.468 10.512 o
8 6 0 8372.310 8574.520 316.727 3.339 o
8 6 1 908.170 810.406 130.791 25.074 o
8 6 2 11049.300 11793.600 393.528 2.117 o
8 6 3 1247.630 1604.260 290.688 5.345 o
8 6 4 3031.030 3225.170 309.677 4.485 o
8 6 5 1.534 -109.951 127.095 28.788 o
8 7 0 542.816 289.392 99.503 43.955 o
8 7 1 456.883 267.182 118.690 31.721 o
8 7 2 929.611 979.408 150.652 19.154 o
8 7 3 125.209 154.408 129.252 27.536 o
8 7 4 6148.810 5675.890 640.186 1.077 o
8 8 0 4942.090 4828.230 311.724 4.116 o
8 8 1 77.072 -55.227 102.679 43.828 o
8 8 2 13580.900 14173.100 741.959 0.723 o
9 0 0 9.723 -29.331 81.025 70.747 o
9 0 2 1246.020 1192.740 191.423 11.975 o
9 0 4 431.062 791.204 249.508 7.371 o
9 0 6 8808.380 8985.580 682.865 0.914 o
9 1 0 22761.200 22570.100 454.114 1.062 o
9 1 1 1673.110 1520.690 138.501 20.828 o
9 1 2 1161.830 988.304 211.816 9.941 o
9 1 3 734.873 574.369 106.122 37.713 o
9 1 4 535.354 495.142 124.325 28.631 o
9 1 5 0.822 -49.717 83.877 66.096 o
9 1 6 708.297 1033.390 208.375 10.393 o
9 1 7 132.036 106.863 126.904 28.581 o
9 2 0 3371.820 3424.320 187.803 10.523 o
9 2 1 607.329 709.603 127.805 26.834 o
9 2 2 3496.590 3680.150 189.346 10.231 o
9 2 3 523.110 443.562 133.467 25.061 o
9 2 4 1926.420 1723.540 235.617 7.843 o
9 2 5 32.586 69.384 122.292 30.974 o
9 2 6 12178.900 12825.700 555.359 1.208 o
9 2 7 106.530 139.149 128.066 28.084 o
9 3 0 20710.000 21321.000 405.069 1.281 o
9 3 1 280.835 226.766 75.539 76.546 o
9 3 2 582.114 493.993 107.064 37.802 o
9 3 3 389.572 403.683 147.735 20.761 o
9 3 4 33.771 57.185 99.317 46.887 o
9 3 5 47.491 -4.925 182.207 13.990 o
9 3 6 431.168 401.991 150.038 20.106 o
9 4 0 1060.390 842.082 224.065 8.965 o
9 4 1 3.763 3.673 66.468 105.148 o
9 4 2 1007.830 937.481 135.887 23.105 o
9 4 3 873.049 949.500 172.888 14.821 o
9 4 4 911.846 728.278 161.219 16.983 o
9 4 5 127.359 87.632 102.794 43.380 o
9 4 6 9625.230 9137.330 484.598 1.647 o
9 5 0 16998.100 17327.400 454.571 1.353 o
9 5 1 70.201 24.817 79.063 73.539 o
9 5 2 331.555 281.072 105.601 40.090 o
9 5 3 466.104 380.829 178.924 14.240 o
9 5 4 1329.600 1416.620 325.017 4.301 o
9 5 5 728.001 989.826 306.961 4.867 o
9 6 0 794.788 1001.740 208.642 10.346 o
9 6 1 258.863 294.896 105.388 40.481 o
9 6 2 361.569 257.907 111.809 35.859 o
9 6 3 154.732 207.207 135.668 24.947 o
9 6 4 900.855 881.916 228.693 8.647 o
9 7 0 7255.730 7984.930 601.869 1.180 o
9 7 1 15.496 14.903 91.508 55.405 o
9 7 2 298.856 390.943 141.142 22.805 o
10 0 0 3873.730 3948.490 608.177 1.221 o
10 0 2 17508.900 17830.000 874.921 0.511 o
10 0 4 4128.920 4082.420 535.130 1.559 o
10 1 0 1123.940 1068.670 159.691 16.960 o
10 1 1 44.912 102.839 80.933 70.087 o
10 1 2 3233.130 3404.970 311.916 4.394 o
10 1 3 18.720 2.521 95.832 50.542 o
10 1 4 13449.500 14607.200 757.553 0.697 o
10 1 5 36.423 142.338 126.777 28.764 o
10 2 0 2772.350 2803.870 178.986 12.017 o
10 2 1 145.284 169.806 79.875 70.579 o
10 2 2 17105.400 18171.500 630.497 0.861 o
10 2 3 84.759 154.472 155.943 19.010 o
10 2 4 3255.640 2753.870 302.707 4.679 o
10 2 5 40.976 76.561 121.091 31.566 o
10 3 0 886.816 774.182 125.852 26.994 o
10 3 1 6.958 -29.203 93.482 53.180 o
10 3 2 3534.430 3201.660 306.977 4.502 o
10 3 3 54.874 -11.987 99.095 47.128 o
10 3 4 8036.310 7776.600 507.822 1.587 o
10 3 5 2.329 42.394 113.307 36.166 o
10 4 0 1010.960 983.553 204.034 10.733 o
10 4 1 3.323 -52.528 124.754 29.875 o
10 4 2 11859.000 11683.500 507.805 1.418 o
10 4 3 889.276 966.739 307.782 4.832 o
10 4 4 2711.420 2658.090 298.135 4.883 o
10 5 0 951.791 1396.920 302.036 4.993 o
10 5 1 290.957 275.772 185.490 13.360 o
10 5 2 1462.930 1337.820 305.319 4.851 o
10 5 3 56.606 108.339 178.924 14.482 o
10 6 0 1387.560 1382.140 308.602 4.755 o
10 6 1 315.728 118.188 172.358 15.472 o
10 6 2 8581.300 8970.810 681.223 0.921 o
11 0 0 2469.510 3025.290 436.640 2.362 o
11 0 2 1294.500 1040.710 288.904 5.432 o
11 0 4 3.547 -16.415 155.943 19.121 o
11 1 0 13103.100 12869.400 526.778 1.288 o
11 1 1 0.397 2.700 98.034 48.382 o
11 1 2 1982.500 2077.490 267.757 6.126 o
11 1 3 28.117 67.119 107.671 39.928 o
11 1 4 1038.240 900.110 283.980 5.649 o
11 2 0 786.343 753.007 275.772 6.017 o
11 2 1 15.437 23.186 109.160 38.951 o
11 2 2 1088.440 965.562 216.678 9.541 o
11 2 3 166.384 122.398 122.244 30.696 o
11 3 0 15043.700 15983.800 594.224 0.999 o
11 3 1 303.510 190.812 129.665 27.058 o
11 3 2 1639.730 1876.800 267.226 6.217 o
11 3 3 0.863 61.748 127.063 28.756 o
11 4 0 1755.800 1825.350 374.262 3.238 o
11 4 1 346.057 208.471 183.848 13.588 o
11 4 2 899.544 1104.730 302.036 5.008 o
11 5 0 7271.170 7253.800 692.714 0.912 o
11 5 1 14.563 -36.113 173.999 15.354 o
12 0 0 937.912 1437.960 329.942 4.198 o
12 1 0 246.093 215.213 132.141 26.141 o
12 1 1 89.353 169.973 141.990 22.889 o
12 2 0 2.622 -12.746 107.965 39.889 o
12 2 1 4.382 -111.297 111.356 37.492 o
12 3 0 140.776 85.358 164.150 17.154 o
;
_olex2_submission_special_instructions 'No special instructions were received'
loop_
_space_group_symop_id
_space_group_symop_operation_xyz
1 x,y,z
2 -x,y+1/2,-z+1/2
3 -x,-y,-z
4 x,-y-1/2,z-1/2
loop_
_atom_site_label
_atom_site_type_symbol
_atom_site_fract_x
_atom_site_fract_y
_atom_site_fract_z
_atom_site_U_iso_or_equiv
_atom_site_adp_type
_atom_site_occupancy
_atom_site_refinement_flags_adp
Ba1 Ba 0.47745(3) 0.25516(3) 0.11217(2) 0.01545(10) Uani 1.000000 .
Cs1 Cs 0.01362(3) 0.25581(4) -0.00188(3) 0.02224(11) Uani 1.000000 .
B1 B -0.2533(5) 0.4641(6) 0.0503(4) 0.0120(11) Uani 1.000000 .
B2 B 0.2992(5) 0.5573(6) 0.1648(4) 0.0101(11) Uani 1.000000 .
B3 B 0.3996(5) 0.1242(6) -0.1713(4) 0.0114(11) Uani 1.000000 .
B4 B 0.2866(5) 0.1215(6) 0.2961(5) 0.0142(12) Uani 1.000000 .
B5 B 0.1798(5) 0.4899(6) 0.2942(5) 0.0118(11) Uani 1.000000 .
B6 B -0.3719(5) 0.2427(6) -0.0643(4) 0.0097(10) Uani 1.000000 U
B7 B 0.0692(6) 0.0086(6) 0.2596(5) 0.0117(11) Uani 1.000000 .
O1 O -0.0629(3) -0.0070(4) 0.1806(3) 0.0151(7) Uani 1.000000 .
O2 O 0.1595(3) 0.0737(4) 0.2177(3) 0.0164(7) Uani 1.000000 .
O3 O 0.2898(3) 0.0851(4) -0.1290(3) 0.0133(7) Uani 1.000000 .
O4 O 0.5244(3) 0.1450(3) -0.0714(3) 0.0111(7) Uani 1.000000 .
O5 O 0.3537(3) 0.2288(3) 0.2606(3) 0.0115(7) Uani 1.000000 .
O6 O 0.4185(3) 0.4906(3) 0.2549(3) 0.0105(7) Uani 1.000000 .
O7 O 0.2674(3) 0.4735(3) 0.0586(3) 0.0128(7) Uani 1.000000 .
O8 O 0.1804(3) 0.5583(4) 0.1991(3) 0.0137(7) Uani 1.000000 .
O9 O -0.1084(3) 0.4656(3) 0.1312(3) 0.0125(7) Uani 1.000000 .
O10 O -0.3367(3) 0.5620(4) 0.0968(3) 0.0173(8) Uani 1.000000 .
O11 O -0.3063(3) 0.3074(4) 0.0416(2) 0.0125(7) Uani 1.000000 .
O12 O -0.3369(3) 0.2790(3) -0.1537(3) 0.0107(7) Uani 1.000000 .
loop_
_atom_site_aniso_label
_atom_site_aniso_U_11
_atom_site_aniso_U_22
_atom_site_aniso_U_33
_atom_site_aniso_U_12
_atom_site_aniso_U_13
_atom_site_aniso_U_23
Ba1 0.01469(16) 0.02196(17) 0.01189(15) 0.00527(14) 0.00754(12) 0.00402(13)
Cs1 0.02306(19) 0.02310(19) 0.01949(18) 0.00456(15) 0.00697(14) 0.00389(15)
B1 0.007(3) 0.019(3) 0.012(3) -0.002(2) 0.006(2) -0.001(2)
B2 0.007(3) 0.011(3) 0.011(3) -0.001(2) 0.003(2) 0.002(2)
B3 0.007(3) 0.013(3) 0.012(3) 0.003(2) 0.002(2) 0.001(2)
B4 0.010(3) 0.016(3) 0.017(3) 0.000(2) 0.006(2) 0.001(2)
B5 0.007(3) 0.013(3) 0.010(3) 0.001(2) -0.003(2) -0.005(2)
B6 0.0091(12) 0.0099(12) 0.0099(12) 0.0007(5) 0.0033(5) -0.0001(5)
B7 0.014(3) 0.011(3) 0.009(3) -0.001(2) 0.003(2) -0.001(2)
O1 0.0085(18) 0.027(2) 0.0099(17) -0.0035(14) 0.0037(14) -0.0041(14)
O2 0.0123(18) 0.027(2) 0.0081(17) -0.0089(15) 0.0016(14) 0.0017(15)
O3 0.0125(18) 0.0167(18) 0.0120(17) -0.0031(14) 0.0060(14) -0.0028(14)
O4 0.0087(17) 0.0129(17) 0.0116(17) -0.0033(13) 0.0038(13) 0.0001(14)
O5 0.0118(17) 0.0108(17) 0.0134(16) -0.0016(13) 0.0064(13) -0.0004(13)
O6 0.0084(17) 0.0124(16) 0.0097(16) 0.0005(13) 0.0023(13) 0.0033(13)
O7 0.0162(18) 0.0111(16) 0.0090(17) -0.0041(13) 0.0026(14) -0.0022(13)
O8 0.0084(17) 0.0206(18) 0.0139(17) 0.0025(14) 0.0064(14) 0.0068(15)
O9 0.0039(16) 0.0184(17) 0.0133(18) -0.0016(13) 0.0012(14) -0.0037(14)
O10 0.0087(17) 0.0263(19) 0.0138(18) 0.0050(15) 0.0009(14) -0.0066(15)
O11 0.0121(17) 0.0144(16) 0.0090(16) -0.0075(14) 0.0017(13) 0.0011(13)
O12 0.0121(17) 0.0093(16) 0.0117(16) -0.0005(13) 0.0056(13) -0.0007(13)
loop_
_atom_type_symbol
_atom_type_scat_dispersion_real
_atom_type_scat_dispersion_imag
_atom_type_scat_Cromer_Mann_a1
_atom_type_scat_Cromer_Mann_a2
_atom_type_scat_Cromer_Mann_a3
_atom_type_scat_Cromer_Mann_a4
_atom_type_scat_Cromer_Mann_b1
_atom_type_scat_Cromer_Mann_b2
_atom_type_scat_Cromer_Mann_b3
_atom_type_scat_Cromer_Mann_b4
_atom_type_scat_Cromer_Mann_c
_atom_type_scat_source
_atom_type_scat_dispersion_source
Cs -0.25336 2.18958 20.38920 19.10620 10.66200 1.49530 3.56900 0.31070 24.38790
213.90401 3.33520007133
'International Tables Volume C Table 6.1.1.4 (pp. 500-502)'
'Henke, Gullikson and Davis, At. Data and Nucl. Data Tables, 1993, 54, 2'
B 0.00141 0.00067 2.05450 1.33260 1.09790 0.70680 23.21850 1.02100 60.34980
0.14030 -0.193200007081
'International Tables Volume C Table 6.1.1.4 (pp. 500-502)'
'Henke, Gullikson and Davis, At. Data and Nucl. Data Tables, 1993, 54, 2'
Ba -0.15704 2.40393 20.33610 19.29700 10.88800 2.69590 3.21600 0.27560 20.20730
167.20200 2.77309989929
'International Tables Volume C Table 6.1.1.4 (pp. 500-502)'
'Henke, Gullikson and Davis, At. Data and Nucl. Data Tables, 1993, 54, 2'
O 0.01158 0.00611 3.04850 2.28680 1.54630 0.86700 13.27710 5.70110 0.32390
32.90890 0.250800013542
'International Tables Volume C Table 6.1.1.4 (pp. 500-502)'
'Henke, Gullikson and Davis, At. Data and Nucl. Data Tables, 1993, 54, 2'
loop_
_geom_angle_atom_site_label_1
_geom_angle_atom_site_label_2
_geom_angle_atom_site_label_3
_geom_angle
_geom_angle_site_symmetry_1
_geom_angle_site_symmetry_3
B3 Ba1 B2 77.74(12) 4_566 2_645
B6 Ba1 B2 100.81(12) 1_655 2_645
B6 Ba1 B3 158.93(13) 1_655 4_566
O3 Ba1 B2 121.92(10) . 2_645
O3 Ba1 B3 130.89(10) . 4_566
O3 Ba1 B6 67.93(10) . 1_655
O4 Ba1 B2 103.57(11) . 2_645
O4 Ba1 B3 175.96(11) . 4_566
O4 Ba1 B6 24.95(10) . 1_655
O4 Ba1 O3 45.17(8) . .
O5 Ba1 B2 75.31(10) . 2_645
O5 Ba1 B3 26.59(10) . 4_566
O5 Ba1 B6 173.15(11) . 1_655
O5 Ba1 O3 109.09(8) . .
O5 Ba1 O4 149.78(9) . .
O6 Ba1 B2 25.23(10) 2_645 2_645
O6 Ba1 B2 94.96(10) . 2_645
O6 Ba1 B3 25.54(10) . 4_566
O6 Ba1 B3 85.93(11) 2_645 4_566
O6 Ba1 B6 101.71(11) 2_645 1_655
O6 Ba1 B6 136.78(11) . 1_655
O6 Ba1 O3 98.49(8) 2_645 .
O6 Ba1 O3 133.24(8) . .
O6 Ba1 O4 156.20(8) . .
O6 Ba1 O4 93.72(9) 2_645 .
O6 Ba1 O5 49.84(8) . .
O6 Ba1 O5 72.33(9) 2_645 .
O7 Ba1 B2 141.65(10) . 2_645
O7 Ba1 B3 63.91(11) . 4_566
O7 Ba1 B6 114.59(11) . 1_655
O7 Ba1 O3 86.38(8) . .
O7 Ba1 O4 114.73(9) . .
O7 Ba1 O5 70.75(9) . .
O7 Ba1 O6 142.26(8) . 2_645
O7 Ba1 O6 49.01(8) . .
O10 Ba1 B2 166.94(10) 3_565 2_645
O10 Ba1 B3 111.64(11) 3_565 4_566
O10 Ba1 B6 67.08(11) 3_565 1_655
O10 Ba1 O3 59.43(8) 3_565 .
O10 Ba1 O4 67.72(9) 3_565 .
O10 Ba1 O5 117.23(8) 3_565 .
O10 Ba1 O6 91.27(8) 3_565 .
O10 Ba1 O6 157.41(9) 3_565 2_645
O10 Ba1 O7 48.49(8) 3_565 .
O11 Ba1 B2 87.16(10) 1_655 2_645
O11 Ba1 B3 134.86(11) 1_655 4_566
O11 Ba1 B6 25.26(11) 1_655 1_655
O11 Ba1 O3 93.18(8) 1_655 .
O11 Ba1 O4 49.18(9) 1_655 .
O11 Ba1 O5 156.64(9) 1_655 .
O11 Ba1 O6 118.33(8) 1_655 .
O11 Ba1 O6 98.12(9) 1_655 2_645
O11 Ba1 O7 119.06(9) 1_655 .
O11 Ba1 O10 79.78(8) 1_655 3_565
O12 Ba1 B2 26.18(10) 4_666 2_645
O12 Ba1 B3 58.07(11) 4_666 4_566
O12 Ba1 B6 112.74(10) 4_666 1_655
O12 Ba1 O3 147.38(8) 4_666 .
O12 Ba1 O4 124.37(8) 4_666 .
O12 Ba1 O5 66.15(9) 4_666 .
O12 Ba1 O6 70.30(8) 4_666 .
O12 Ba1 O6 48.90(8) 4_666 2_645
O12 Ba1 O7 119.07(8) 4_666 .
O12 Ba1 O10 152.83(9) 4_666 3_565
O12 Ba1 O11 91.35(8) 4_666 1_655
O2 Cs1 O1 97.21(8) . 3
O7 Cs1 O1 102.42(8) . 3
O7 Cs1 O2 90.09(8) . .
O8 Cs1 O1 91.16(8) 3_565 3
O8 Cs1 O2 167.31(8) 3_565 .
O8 Cs1 O7 97.42(8) 3_565 .
O9 Cs1 O1 88.99(8) 3_565 3
O9 Cs1 O1 165.49(7) . 3
O9 Cs1 O2 88.96(8) . .
O9 Cs1 O2 133.57(8) 3_565 .
O9 Cs1 O7 90.64(8) . .
O9 Cs1 O7 43.93(8) 3_565 .
O9 Cs1 O8 55.75(7) 3_565 3_565
O9 Cs1 O8 80.78(8) . 3_565
O12 Cs1 O1 94.32(7) . 3
O12 Cs1 O2 126.51(7) . .
O12 Cs1 O7 137.46(7) . .
O12 Cs1 O8 42.84(7) . 3_565
O12 Cs1 O9 98.55(7) . 3_565
O12 Cs1 O9 71.56(7) . .
O9 B1 O7 111.1(4) . 3_565
O10 B1 O7 107.6(4) . 3_565
O10 B1 O9 109.6(4) . .
O11 B1 O7 112.6(4) . 3_565
O11 B1 O9 109.0(4) . .
O11 B1 O10 106.9(4) . .
O6 B2 Ba1 55.2(2) . 2_655
O7 B2 Ba1 150.4(3) . 2_655
O7 B2 O6 110.4(4) . .
O8 B2 Ba1 98.9(3) . 2_655
O8 B2 O6 110.7(4) . .
O8 B2 O7 110.7(4) . .
O12 B2 Ba1 57.9(2) 3_565 2_655
O12 B2 O6 105.5(4) 3_565 .
O12 B2 O7 111.5(4) 3_565 .
O12 B2 O8 108.0(4) 3_565 .
O3 B3 Ba1 147.3(3) . 4_565
O4 B3 Ba1 104.3(3) . 4_565
O4 B3 O3 107.0(4) . .
O5 B3 Ba1 52.47(19) 4_565 4_565
O5 B3 O3 105.7(3) 4_565 .
O5 B3 O4 112.2(4) 4_565 .
O6 B3 Ba1 62.6(2) 4_565 4_565
O6 B3 O3 113.5(4) 4_565 .
O6 B3 O4 110.2(4) 4_565 .
O6 B3 O5 108.1(4) 4_565 4_565
O5 B4 O2 117.3(4) . .
O10 B4 O2 119.9(4) 2_545 .
O10 B4 O5 122.8(4) 2_545 .
O3 B5 O1 116.1(4) 4_566 2
O8 B5 O1 120.4(4) . 2
O8 B5 O3 123.5(4) . 4_566
O4 B6 Ba1 57.5(2) 1_455 1_455
O11 B6 Ba1 60.5(2) . 1_455
O11 B6 O4 114.4(4) . 1_455
O12 B6 Ba1 160.3(3) . 1_455
O12 B6 O4 124.1(4) . 1_455
O12 B6 O11 121.4(4) . .
O2 B7 O1 115.0(4) . .
O9 B7 O1 123.4(4) 2_545 .
O9 B7 O2 121.7(4) 2_545 .
B5 O1 Cs1 122.0(3) 2_545 3
B7 O1 Cs1 100.2(3) . 3
B7 O1 B5 125.5(4) . 2_545
B4 O2 Cs1 120.5(3) . .
B7 O2 Cs1 112.2(3) . .
B7 O2 B4 118.2(4) . .
B3 O3 Ba1 87.3(2) . .
B5 O3 Ba1 157.5(3) 4_565 .
B5 O3 B3 115.2(4) 4_565 .
B3 O4 Ba1 112.5(2) . .
B6 O4 Ba1 97.5(2) 1_655 .
B6 O4 B3 125.4(4) 1_655 .
B3 O5 Ba1 100.9(2) 4_566 .
B4 O5 Ba1 138.9(3) . .
B4 O5 B3 119.3(4) . 4_566
B2 O6 Ba1 96.9(2) . .
B2 O6 Ba1 99.6(2) . 2_655
B3 O6 Ba1 91.8(2) 4_566 .
B3 O6 Ba1 107.4(3) 4_566 2_655
B3 O6 B2 119.3(3) 4_566 .
Cs1 O7 Ba1 100.35(9) . .
B1 O7 Ba1 105.6(3) 3_565 .
B1 O7 Cs1 103.2(3) 3_565 .
B2 O7 Ba1 103.6(3) . .
B2 O7 Cs1 113.7(2) . .
B2 O7 B1 127.0(4) . 3_565
B2 O8 Cs1 98.5(2) . 3_565
B5 O8 Cs1 137.7(3) . 3_565
B5 O8 B2 123.8(4) . .
B1 O9 Cs1 99.1(2) . .
B1 O9 Cs1 95.5(2) . 3_565
B7 O9 Cs1 134.5(3) 2 .
B7 O9 Cs1 106.0(3) 2 3_565
B7 O9 B1 123.1(4) 2 .
B1 O10 Ba1 97.2(3) . 3_565
B4 O10 Ba1 124.1(3) 2 3_565
B4 O10 B1 123.0(4) 2 .
B1 O11 Ba1 117.8(3) . 1_455
B6 O11 Ba1 94.3(2) . 1_455
B6 O11 B1 119.4(4) . .
Cs1 O12 Ba1 136.78(10) . 4_465
B2 O12 Ba1 95.9(2) 3_565 4_465
B2 O12 Cs1 80.7(2) 3_565 .
B6 O12 Ba1 122.5(3) . 4_465
B6 O12 Cs1 95.9(3) . .
B6 O12 B2 117.8(3) . 3_565
loop_
_geom_bond_atom_site_label_1
_geom_bond_atom_site_label_2
_geom_bond_distance
_geom_bond_site_symmetry_2
Ba1 B2 3.377(5) 2_645
Ba1 B3 3.318(5) 4_566
Ba1 B6 3.205(5) 1_655
Ba1 O3 3.286(3) .
Ba1 O4 2.727(3) .
Ba1 O5 2.680(3) .
Ba1 O6 2.948(3) .
Ba1 O6 2.811(3) 2_645
Ba1 O7 2.802(3) .
Ba1 O10 2.951(3) 3_565
Ba1 O11 2.797(3) 1_655
Ba1 O12 2.875(3) 4_666
Cs1 O1 3.309(3) 3
Cs1 O2 3.052(3) .
Cs1 O7 3.134(3) .
Cs1 O8 3.022(3) 3_565
Cs1 O9 3.080(3) .
Cs1 O9 3.285(3) 3_565
Cs1 O12 3.475(3) .
B1 O7 1.433(6) 3_565
B1 O9 1.484(6) .
B1 O10 1.499(6) .
B1 O11 1.461(6) .
B2 O6 1.460(6) .
B2 O7 1.449(6) .
B2 O8 1.481(6) .
B2 O12 1.498(6) 3_565
B3 O3 1.493(6) .
B3 O4 1.449(6) .
B3 O5 1.512(6) 4_565
B3 O6 1.431(6) 4_565
B4 O2 1.396(6) .
B4 O5 1.349(6) .
B4 O10 1.354(6) 2_545
B5 O1 1.392(6) 2
B5 O3 1.364(6) 4_566
B5 O8 1.343(6) .
B6 O4 1.364(6) 1_455
B6 O11 1.372(6) .
B6 O12 1.354(5) .
B7 O1 1.381(6) .
B7 O2 1.381(6) .
B7 O9 1.334(6) 2_545
loop_
_restr_u_iso_atom_site_label
_restr_u_iso_weight_param
B6 0.0010
