#------------------------------------------------------------------------------
#$Date: 2020-09-06 12:41:39 +0300 (Sun, 06 Sep 2020) $
#$Revision: 256100 $
#$URL: file:///home/coder/svn-repositories/cod/cif/7/70/49/7704953.cif $
#------------------------------------------------------------------------------
#
# This file is available in the Crystallography Open Database (COD),
# http://www.crystallography.net/
#
# All data on this site have been placed in the public domain by the
# contributors.
#
data_7704953
loop_
_publ_author_name
'Liu, Runqing'
'Wu, Hongping'
'Yu, Hongwei'
'Hu, Zhanggui'
'Wang, Jiyang'
'Wu, Yicheng'
_publ_section_title
;
 Synthesis and characterization of three new rare-earth orthoborates:
 Ba<sub>2</sub>MgY<sub>2</sub>(BO<sub>3</sub>)<sub>4</sub>,
 Ba<sub>2</sub>CdY<sub>2</sub>(BO<sub>3</sub>)<sub>4</sub>, and
 Ba<sub>2</sub>CdSc(BO<sub>3</sub>)<sub>3</sub>.
;
_journal_issue                   31
_journal_name_full
'Dalton transactions (Cambridge, England : 2003)'
_journal_page_first              10874
_journal_page_last               10879
_journal_paper_doi               10.1039/d0dt01799j
_journal_volume                  49
_journal_year                    2020
_chemical_formula_sum            'B3 Ba2 Cd O9 Sc'
_chemical_formula_weight         608.47
_space_group_crystal_system      triclinic
_space_group_IT_number           2
_space_group_name_Hall           '-P 1'
_space_group_name_H-M_alt        'P -1'
_audit_creation_method           SHELXL-2018/3
_audit_update_record
;
2020-04-28 deposited with the CCDC.	2020-07-08 downloaded from the CCDC.
;
_cell_angle_alpha                111.512(9)
_cell_angle_beta                 103.895(11)
_cell_angle_gamma                102.032(10)
_cell_formula_units_Z            2
_cell_length_a                   6.458(2)
_cell_length_b                   8.338(3)
_cell_length_c                   9.273(3)
_cell_measurement_reflns_used    9578
_cell_measurement_temperature    298(2)
_cell_measurement_theta_max      27.53
_cell_measurement_theta_min      3.65
_cell_volume                     425.9(3)
_computing_structure_refinement  'SHELXL-2018/3 (Sheldrick, 2018)'
_computing_structure_solution    'SHELXT 2014/5 (Sheldrick, 2014)'
_diffrn_ambient_temperature      298(2)
_diffrn_measured_fraction_theta_full 1.000
_diffrn_measured_fraction_theta_max 0.998
_diffrn_measurement_device_type  'Bruker APEX-II CCD'
_diffrn_measurement_method       '\f and \w scans'
_diffrn_radiation_type           MoK\a
_diffrn_radiation_wavelength     0.71073
_diffrn_reflns_av_R_equivalents  0.0307
_diffrn_reflns_av_unetI/netI     0.0162
_diffrn_reflns_Laue_measured_fraction_full 1.000
_diffrn_reflns_Laue_measured_fraction_max 0.998
_diffrn_reflns_limit_h_max       8
_diffrn_reflns_limit_h_min       -8
_diffrn_reflns_limit_k_max       10
_diffrn_reflns_limit_k_min       -10
_diffrn_reflns_limit_l_max       12
_diffrn_reflns_limit_l_min       -12
_diffrn_reflns_number            15565
_diffrn_reflns_point_group_measured_fraction_full 1.000
_diffrn_reflns_point_group_measured_fraction_max 0.998
_diffrn_reflns_theta_full        25.242
_diffrn_reflns_theta_max         27.538
_diffrn_reflns_theta_min         2.518
_exptl_absorpt_coefficient_mu    12.375
_exptl_crystal_colour            clourless
_exptl_crystal_density_diffrn    4.745
_exptl_crystal_description       block
_exptl_crystal_F_000             536
_refine_diff_density_max         0.847
_refine_diff_density_min         -1.145
_refine_diff_density_rms         0.147
_refine_ls_extinction_method     none
_refine_ls_goodness_of_fit_ref   1.098
_refine_ls_hydrogen_treatment    undef
_refine_ls_matrix_type           full
_refine_ls_number_parameters     145
_refine_ls_number_reflns         1954
_refine_ls_number_restraints     0
_refine_ls_restrained_S_all      1.098
_refine_ls_R_factor_all          0.0167
_refine_ls_R_factor_gt           0.0153
_refine_ls_shift/su_max          0.001
_refine_ls_shift/su_mean         0.000
_refine_ls_structure_factor_coef Fsqd
_refine_ls_weighting_details
'w=1/[\s^2^(Fo^2^)+(0.0166P)^2^+0.8997P] where P=(Fo^2^+2Fc^2^)/3'
_refine_ls_weighting_scheme      calc
_refine_ls_wR_factor_gt          0.0382
_refine_ls_wR_factor_ref         0.0388
_reflns_Friedel_coverage         0.000
_reflns_number_gt                1869
_reflns_number_total             1954
_reflns_threshold_expression     'I > 2\s(I)'
_cod_data_source_file            d0dt01799j2.cif
_cod_data_source_block           Ba2CdScB3O9
_cod_depositor_comments
'Adding full bibliography for 7704953--7704955.cif.'
_cod_database_code               7704953
_shelx_shelxl_version_number     2018/3
_shelx_space_group_comment
;
The symmetry employed for this shelxl refinement is uniquely defined
by the following loop, which should always be used as a source of
symmetry information in preference to the above space-group names.
They are only intended as comments.
;
_shelx_res_file
;
TITL 666_a.res in P-1
    666_a.res
    created by SHELXL-2018/3 at 09:12:17 on 20-Nov-2019
REM Old TITL 666 in P-1
REM SHELXT solution in P-1
REM R1 0.057,  Rweak 0.005,  Alpha 0.032,  Orientation as input
REM Formula found by SHELXT:  B3 Cd3 O9 Sc
CELL  0.71073   6.4576   8.3382   9.2726  111.512  103.895  102.032
ZERR    2.000   0.0024   0.0027   0.0033    0.009    0.011    0.010
LATT  1
SFAC B BA CD O SC
UNIT 6 4 2 18 2
acta
TEMP 24.850
L.S. 10
BOND $H
LIST 4
FMAP 2
PLAN 20
WGHT    0.016600    0.899700
FVAR       0.44753
BA1   2    0.560024    0.384745    0.279544    11.00000    0.01590    0.01876 =
         0.01736    0.00900    0.00553    0.00520
CD1   3    0.098629   -0.204917   -0.014572    11.00000    0.02299    0.02053 =
         0.02024    0.00670    0.00806    0.00255
O1    4    0.770613    0.695693    1.008096    11.00000    0.02149    0.02006 =
         0.01961    0.00741    0.00705    0.00828
B1    1    0.765987    0.523780    0.991427    11.00000    0.01483    0.01897 =
         0.01807    0.00759    0.00748    0.00425
BA2   2    1.266091    1.096959    0.698819    11.00000    0.01547    0.01662 =
         0.01742    0.00627    0.00542    0.00405
O2    4    0.660817    0.376646    0.837314    11.00000    0.01863    0.01880 =
         0.01806    0.00566    0.00758    0.00159
B2    1    0.958495    0.693420    0.621396    11.00000    0.01716    0.01768 =
         0.01856    0.00878    0.00667    0.00903
SC1   5    0.824119    0.329654    0.660683    11.00000    0.01416    0.01374 =
         0.01326    0.00585    0.00438    0.00409
O3    4    0.793074    0.556915    0.619900    11.00000    0.01648    0.01827 =
         0.02285    0.01150    0.00805    0.00483
O6    4    0.960240    0.703897    0.477044    11.00000    0.02388    0.02114 =
         0.02066    0.01006    0.01098    0.00698
O5    4    1.131172    0.815460    0.766044    11.00000    0.02216    0.02048 =
         0.01976    0.00889    0.00328    0.00116
O8    4    0.170822   -0.073076    0.354668    11.00000    0.01668    0.01561 =
         0.02062    0.00820    0.00613    0.00479
O7    4    0.505239    0.191072    0.479448    11.00000    0.01895    0.01940 =
         0.02021    0.00937    0.00174    0.00049
O4    4    0.865212    0.496891    1.127005    11.00000    0.01904    0.02253 =
         0.01730    0.00965    0.00425    0.00404
O9    4    0.345955    0.029561    0.190033    11.00000    0.03214    0.02117 =
         0.02001    0.00707    0.01090   -0.00047
B3    1    0.335702    0.050281    0.341435    11.00000    0.01655    0.01618 =
         0.02022    0.00847    0.00584    0.00699
HKLF 4




REM  666_a.res in P-1
REM wR2 = 0.038815, GooF = S = 1.09754, Restrained GooF = 1.09754 for all data
REM R1 = 0.015307 for 1869 Fo > 4sig(Fo) and 0.016688 for all 1954 data
REM 145 parameters refined using 0 restraints

END

WGHT      0.0160      0.8940

REM Highest difference peak  0.847,  deepest hole -1.145,  1-sigma level  0.147
Q1    1   0.0000  0.0000  0.0000  10.50000  0.05    0.85
Q2    1   0.0461 -0.1068 -0.0155  11.00000  0.05    0.65
Q3    1   0.8135  0.4557  0.6014  11.00000  0.05    0.47
Q4    1   0.6026  0.1172  0.3974  11.00000  0.05    0.40
Q5    1   0.2469 -0.2640  0.0258  11.00000  0.05    0.40
Q6    1   0.6635  0.2848  0.9018  11.00000  0.05    0.39
Q7    1   0.5050 -0.0369  0.2180  11.00000  0.05    0.38
Q8    1   0.8817  0.5973  0.6208  11.00000  0.05    0.38
Q9    1   0.4347  0.3544  0.2964  11.00000  0.05    0.37
Q10   1   0.7124  0.5823  0.6184  11.00000  0.05    0.37
Q11   1   0.5756  0.1035  0.2507  11.00000  0.05    0.36
Q12   1   0.8898  0.6159  1.1992  11.00000  0.05    0.36
Q13   1   0.5914  0.5339  0.8426  11.00000  0.05    0.34
Q14   1   0.3910 -0.1446  0.1013  11.00000  0.05    0.34
Q15   1   0.4732  0.3408  0.1966  11.00000  0.05    0.33
Q16   1   1.0725  0.6010  0.4516  11.00000  0.05    0.33
Q17   1   0.4350  0.1124  0.4260  11.00000  0.05    0.33
Q18   1   0.5667  0.4587  0.2286  11.00000  0.05    0.32
Q19   1   1.2389  0.8004  0.8453  11.00000  0.05    0.32
Q20   1   1.0303  0.6995  0.5354  11.00000  0.05    0.32
;
_shelx_res_checksum              41542
_shelx_hkl_file
;
  -1   0   0    3.70    1.30
  -1   0   0    2.20    1.00
  -1   0   0    3.20    1.40
  -1   0   0   10.00    2.10
  -1   0   0    1.60    0.90
  -1   0   0    2.70    1.10
   1   0   0    2.20    1.20
   1   0   0    3.00    1.20
   1   0   0    3.80    1.30
   1   0   0    4.20    1.40
   1   0   0    3.00    1.20
   1   0   0    6.10    1.90
  -2   0   0  303.07   17.00
  -2   0   0  309.07   16.30
  -2   0   0  316.87   15.60
  -2   0   0  310.37   14.70
   2   0   0  296.97   15.20
   2   0   0  318.97   15.00
   2   0   0  306.57   15.20
   2   0   0  295.77   16.20
   2   0   0  310.97   14.70
  -3   0   0  813.02   33.90
  -3   0   0  845.42   36.00
  -3   0   0  814.02   30.90
  -3   0   0  785.12   33.30
  -3   0   0  845.82   32.80
   3   0   0  853.51   31.50
   3   0   0  869.81   31.90
   3   0   0  868.91   32.70
   3   0   0  874.91   35.10
   3   0   0  846.72   32.60
  -4   0   0   34.60    7.10
  -4   0   0   48.10    9.40
  -4   0   0   34.60    7.40
  -4   0   0   60.09    8.10
  -4   0   0   48.50    8.50
  -4   0   0   45.90    9.00
   4   0   0   63.89   11.10
   4   0   0   40.30    7.90
   4   0   0   58.89    7.90
   4   0   0   47.40    8.40
   4   0   0   32.00    6.90
  -5   0   0  226.78   17.50
  -5   0   0  228.28   20.30
  -5   0   0  248.88   20.30
  -5   0   0  232.18   18.50
  -5   0   0  216.08   22.00
  -5   0   0  194.78   16.70
   5   0   0  228.78   18.10
   5   0   0  225.28   17.40
   5   0   0  212.48   20.20
   5   0   0  225.88   16.90
   5   0   0  262.07   19.50
  -6   0   0  820.32   42.60
  -6   0   0  826.82   41.60
  -6   0   0  845.92   50.49
   6   0   0  819.12   38.20
   6   0   0  739.13   35.80
   6   0   0  752.02   36.70
   6   0   0  763.32   53.89
  -7   0   0  299.77   25.50
  -7   0   0  276.77   21.20
  -7   0   0  286.27   24.10
   7   0   0  331.57   23.30
   7   0   0  304.47   22.20
   7   0   0  288.17   22.40
   7  -1   0   60.39   12.30
   7  -1   0   90.29   11.70
   7  -1   0   62.09   11.20
  -7   1   0   84.29   13.70
  -7   1   0   71.89   13.80
  -7   1   0   88.89   16.90
   6  -1   0   58.89   10.40
   6  -1   0   57.59   14.00
   6  -1   0   49.50   10.10
   6  -1   0   52.79    9.20
  -6   1   0   61.49   12.50
  -6   1   0   70.09   12.80
  -6   1   0   44.90   10.60
   5  -1   0  305.37   20.70
   5  -1   0  284.37   23.50
   5  -1   0  309.87   20.20
   5  -1   0  298.27   19.50
   5  -1   0  332.77   23.90
   5  -1   0  281.77   19.50
  -5   1   0  327.67   21.80
  -5   1   0  335.67   23.50
  -5   1   0  292.67   22.60
  -5   1   0  304.07   20.70
  -5   1   0  282.37   19.50
  -5   1   0  298.47   23.30
   4  -1   0 1288.57   45.40
   4  -1   0 1347.07   44.30
   4  -1   0 1181.58   47.40
   4  -1   0 1325.47   44.60
   4  -1   0 1230.28   49.70
   4  -1   0 1293.67   44.30
  -4   1   0 1281.37   52.29
  -4   1   0 1258.97   45.60
  -4   1   0 1202.58   47.10
  -4   1   0 1279.77   48.50
  -4   1   0 1357.76   45.30
  -4   1   0 1279.07   43.90
   3  -1   0 1901.31   52.99
   3  -1   0 1875.11   52.79
   3  -1   0 1868.01   51.69
   3  -1   0 1799.02   53.89
   3  -1   0 1776.12   56.49
  -3   1   0 1763.02   55.99
  -3   1   0 1652.43   53.49
  -3   1   0 1843.52   56.49
  -3   1   0 1677.43   55.59
  -3   1   0 1846.12   52.39
   2  -1   0 4452.25  107.69
   2  -1   0 4202.48  105.49
   2  -1   0 4580.64  102.69
   2  -1   0 4533.75  104.09
   2  -1   0 4643.94  100.69
   2  -1   0 4439.66  102.29
  -2   1   0 4296.77  102.89
  -2   1   0 4539.45  102.19
  -2   1   0 4720.83  108.29
  -2   1   0 4316.47  105.99
  -2   1   0 4410.36  100.99
  -2   1   0 4402.06  105.39
   1  -1   0   36.50    3.10
   1  -1   0   39.80    3.30
   1  -1   0   35.40    3.30
   1  -1   0   33.80    3.60
   1  -1   0   38.90    2.70
   1  -1   0   41.80    4.10
  -1   1   0   34.60    3.20
  -1   1   0   35.60    2.60
  -1   1   0   38.80    3.90
  -1   1   0   29.70    3.40
  -1   1   0   36.50    3.10
  -1   1   0   35.20    3.50
   0  -1   0    0.60    0.60
   0  -1   0    3.70    3.70
   0  -1   0    1.60    0.40
   0  -1   0    1.50    0.70
   0   1   0    0.90    0.60
   0   1   0    1.50    0.30
   0   1   0    6.60    1.60
   0   1   0    2.20    0.50
   0   1   0    1.90    0.50
   0   1   0    0.50    0.30
  -1  -1   0 1593.84   42.40
  -1  -1   0 1461.85   37.80
  -1  -1   0 1359.96   38.20
  -1  -1   0 1512.55   41.10
  -1  -1   0 1513.95   37.90
   1   1   0 1508.45   40.20
   1   1   0 1525.85   38.00
   1   1   0 1473.15   40.50
   1   1   0 1537.05   38.50
   1   1   0 1473.65   37.70
  -2  -1   0  222.98   15.90
  -2  -1   0  265.67   16.10
  -2  -1   0  232.28   13.90
  -2  -1   0  243.08   15.00
  -2  -1   0  242.88   13.20
  -2  -1   0  228.38   14.10
   2   1   0  246.08   13.30
   2   1   0  248.98   14.80
   2   1   0  251.07   15.90
   2   1   0  255.37   15.50
   2   1   0  245.98   13.20
   2   1   0  285.17   14.60
  -3  -1   0 7087.19  166.78
  -3  -1   0 6697.13  163.38
  -3  -1   0 6861.51  159.48
  -3  -1   0 6763.12  162.48
  -3  -1   0 7025.50  159.08
  -3  -1   0 7037.80  164.08
   3   1   0 6493.85  167.78
   3   1   0 6609.24  157.68
   3   1   0 6798.62  162.98
   3   1   0 6917.51  158.68
   3   1   0 7044.20  167.38
   3   1   0 6953.60  163.58
  -4  -1   0   73.29    9.00
  -4  -1   0   76.49   13.50
  -4  -1   0   85.39   13.40
  -4  -1   0   54.69   12.30
  -4  -1   0   58.59   11.20
  -4  -1   0   81.99   10.50
   4   1   0   82.09    9.40
   4   1   0   77.49   13.70
   4   1   0   55.39   10.20
   4   1   0   60.59   12.90
   4   1   0   59.69    9.80
   4   1   0   68.39    8.90
  -5  -1   0  824.32   37.10
  -5  -1   0  910.61   43.20
  -5  -1   0  899.11   42.50
  -5  -1   0  945.81   44.00
   5   1   0  867.71   38.10
   5   1   0  879.11   38.00
   5   1   0  876.31   37.70
   5   1   0  902.71   40.70
   5   1   0  870.41   43.50
  -6  -1   0  296.17   27.00
  -6  -1   0  348.37   26.90
  -6  -1   0  366.06   26.80
   6   1   0  361.66   25.50
   6   1   0  349.77   23.50
   6   1   0  348.07   22.80
   6   1   0  333.47   27.40
  -7  -1   0    9.60    5.20
  -7  -1   0    5.00    4.40
  -7  -1   0   14.20    7.70
   7   1   0    9.90    5.30
   7   1   0   12.10    5.00
   7   1   0    7.10    4.60
   8  -2   0  177.98   16.60
   8  -2   0  170.18   17.30
   8  -2   0  168.58   16.40
  -8   2   0  165.78   19.70
  -8   2   0  178.28   18.90
  -8   2   0  221.18   18.40
   7  -2   0  197.58   17.30
   7  -2   0  206.88   17.10
   7  -2   0  207.78   18.50
  -7   2   0  182.48   18.50
  -7   2   0  192.48   17.00
  -7   2   0  175.48   19.10
   6  -2   0  460.15   25.30
   6  -2   0  478.05   26.20
   6  -2   0  478.15   27.30
  -6   2   0  477.25   27.60
  -6   2   0  422.06   25.30
  -6   2   0  449.36   29.20
  -6   2   0  457.55   30.90
  -6   2   0  426.46   29.70
   5  -2   0 1987.80   59.79
   5  -2   0 2150.28   65.19
   5  -2   0 1977.20   61.69
   5  -2   0 1917.01   61.79
   5  -2   0 1845.72   66.39
   5  -2   0 1997.00   71.39
  -5   2   0 1952.50   61.59
  -5   2   0 1940.71   60.59
  -5   2   0 1889.31   66.19
  -5   2   0 1910.21   67.79
  -5   2   0 1892.11   64.09
  -5   2   0 2047.70   70.69
   4  -2   0   84.39    8.30
   4  -2   0   81.79   13.50
   4  -2   0   75.49    8.80
   4  -2   0   67.89    8.30
   4  -2   0   81.79    9.40
   4  -2   0   96.09   11.30
  -4   2   0   60.49   10.40
  -4   2   0   77.39   13.00
  -4   2   0   97.39    9.00
  -4   2   0   82.69   10.50
  -4   2   0   73.59    9.30
   3  -2   0    1.50    1.30
   3  -2   0    2.20    1.40
   3  -2   0   -1.30    1.00
   3  -2   0    1.00    1.30
   3  -2   0    4.70    2.70
   3  -2   0    2.00    1.80
  -3   2   0    0.50    1.70
  -3   2   0    0.80    1.10
  -3   2   0   -0.60    1.30
  -3   2   0    1.10    1.60
  -3   2   0    0.20    1.30
  -3   2   0    3.10    1.70
   2  -2   0 7989.60  171.88
   2  -2   0 8011.70  173.58
   2  -2   0 8038.90  171.98
   2  -2   0 7899.41  178.68
   2  -2   0 8130.59  168.28
   2  -2   0 7427.86  175.58
   2  -2   0 7878.61  177.28
  -2   2   0 7319.57  176.08
  -2   2   0 7990.30  175.98
  -2   2   0 7871.81  173.18
  -2   2   0 8330.67  177.48
  -2   2   0 8332.17  171.78
  -2   2   0 8073.99  168.48
   1  -2   0  104.29    5.40
   1  -2   0   91.49    6.60
   1  -2   0  100.19    4.80
   1  -2   0  104.69    5.90
   1  -2   0   95.19    6.30
  -1   2   0   84.39    6.20
  -1   2   0   92.89    5.60
  -1   2   0   88.29    5.00
  -1   2   0   97.19    4.60
  -1   2   0   98.69    5.80
  -1   2   0   97.69    6.70
   0  -2   0  202.28    6.30
   0  -2   0  186.58    6.10
   0  -2   0  212.28   34.00
   0  -2   0  188.88    6.00
   0  -2   0  192.98    6.20
   0  -2   0  204.88   11.00
   0   2   0  188.78    6.10
   0   2   0  194.38   10.50
   0   2   0  201.88   30.00
   0   2   0  178.48    9.60
   0   2   0  192.28    6.80
   0   2   0  189.88    6.10
  -1  -2   0 5701.43  124.59
  -1  -2   0 5741.03  127.19
  -1  -2   0 5816.02  133.49
  -1  -2   0 5716.23  125.99
  -1  -2   0 5584.74  124.39
   1   2   0 5669.53  132.39
   1   2   0 5699.33  124.49
   1   2   0 5763.02  124.59
   1   2   0 5590.64  129.89
   1   2   0 5740.13  124.29
  -2  -2   0  729.83   31.20
  -2  -2   0  682.23   25.90
  -2  -2   0  736.23   27.90
  -2  -2   0  678.33   28.40
  -2  -2   0  697.23   25.80
   2   2   0  709.73   26.40
   2   2   0  695.73   25.40
   2   2   0  704.63   28.50
   2   2   0  746.83   30.40
   2   2   0  745.63   26.30
   2   2   0  706.73   30.40
  -3  -2   0  625.24   27.40
  -3  -2   0  605.34   28.50
  -3  -2   0  621.74   31.00
  -3  -2   0  621.34   30.50
  -3  -2   0  647.64   30.60
  -3  -2   0  610.94   26.60
   3   2   0  604.84   26.90
   3   2   0  619.24   26.70
   3   2   0  628.04   29.10
   3   2   0  625.94   26.50
   3   2   0  622.24   31.00
   3   2   0  604.34   30.50
  -4  -2   0 1445.06   55.49
  -4  -2   0 1393.76   50.49
  -4  -2   0 1472.45   56.09
  -4  -2   0 1528.75   54.79
  -4  -2   0 1476.25   50.29
  -4  -2   0 1506.75   56.09
   4   2   0 1558.24   54.79
   4   2   0 1485.85   50.09
   4   2   0 1399.06   54.29
   4   2   0 1509.75   50.39
   4   2   0 1478.35   50.69
   4   2   0 1533.75   57.39
  -5  -2   0  348.97   25.80
  -5  -2   0  347.77   23.00
   5   2   0  372.46   22.80
   5   2   0  388.26   27.50
   5   2   0  372.36   22.90
   5   2   0  361.76   25.10
   5   2   0  345.77   22.70
  -6  -2   0  343.67   26.90
  -6  -2   0  346.57   37.20
   6   2   0  383.16   24.50
   6   2   0  371.16   23.90
   6   2   0  372.76   28.90
   6   2   0  388.16   27.00
  -7  -2   0    1.70    7.20
   7   2   0    8.50    6.40
   7   2   0    9.10    4.00
   7   2   0    4.70    6.80
   8  -3   0  233.18   19.20
   8  -3   0  161.78   17.20
   8  -3   0  197.28   16.40
   8  -3   0  220.88   19.00
  -8   3   0  206.38   18.20
  -8   3   0  219.18   21.80
  -8   3   0  175.48   20.00
   7  -3   0  352.06   24.60
   7  -3   0  393.96   22.90
   7  -3   0  371.86   24.40
   7  -3   0  363.96   24.80
  -7   3   0  398.06   24.60
  -7   3   0  420.86   28.40
  -7   3   0  411.26   29.30
   6  -3   0   73.99    9.50
   6  -3   0   51.19   11.00
   6  -3   0   59.79    9.70
  -6   3   0   60.79   10.60
  -6   3   0   69.49   13.50
  -6   3   0   62.09   11.30
  -6   3   0   62.19   11.40
  -6   3   0   67.69   15.90
  -6   3   0   43.90   10.20
   5  -3   0  878.71   36.60
   5  -3   0  910.31   32.90
   5  -3   0  847.52   40.30
   5  -3   0  844.82   35.50
   5  -3   0  904.81   42.80
   5  -3   0  870.81   35.20
   5  -3   0  878.31   36.70
  -5   3   0  865.51   38.10
  -5   3   0  903.71   33.80
  -5   3   0  840.52   40.10
  -5   3   0  888.31   41.50
  -5   3   0  840.32   34.90
  -5   3   0  852.11   40.00
   4  -3   0 2124.99   69.89
   4  -3   0 2192.68   64.39
   4  -3   0 2205.38   62.99
   4  -3   0 2241.68   62.39
   4  -3   0 2184.58   68.39
   4  -3   0 2202.18   63.89
   4  -3   0 2171.78   58.09
  -4   3   0 2201.18   68.69
  -4   3   0 2180.78   59.39
  -4   3   0 2160.68   65.19
  -4   3   0 2205.28   69.69
  -4   3   0 2112.29   61.39
  -4   3   0 2238.18   69.59
   3  -3   0 1460.15   48.70
   3  -3   0 1447.06   42.90
   3  -3   0 1418.96   43.70
   3  -3   0 1493.25   39.00
   3  -3   0 1514.75   46.00
   3  -3   0 1451.45   47.40
   3  -3   0 1449.65   42.50
  -3   3   0 1447.26   51.09
  -3   3   0 1500.85   39.40
  -3   3   0 1283.67   47.90
  -3   3   0 1466.15   48.00
  -3   3   0 1445.46   45.00
  -3   3   0 1463.15   47.40
   2  -3   0 1282.47   35.00
   2  -3   0 1322.47   39.70
   2  -3   0 1287.77   38.70
   2  -3   0 1324.97   34.80
   2  -3   0 1293.37   35.70
  -2   3   0 1081.69  110.39
  -2   3   0 1308.87   34.30
  -2   3   0 1333.57   38.80
  -2   3   0 1262.47   37.70
  -2   3   0 1264.87   40.20
  -2   3   0 1324.27   38.60
  -2   3   0 1259.57   32.50
  -2   3   0 1333.67   36.80
   1  -3   0   19.10    1.70
   1  -3   0   12.90   12.30
   1  -3   0   11.70    1.40
   1  -3   0   16.30    3.90
   1  -3   0   16.80    1.70
  -1   3   0    3.00    9.30
  -1   3   0    9.60    2.70
  -1   3   0   20.40    4.00
  -1   3   0   18.30    4.20
  -1   3   0   17.40    1.90
  -1   3   0   16.10    2.00
   0  -3   0   10.10    1.30
   0  -3   0   10.80    1.40
   0  -3   0    3.70    7.90
   0  -3   0    4.90    2.60
   0  -3   0   10.10    1.60
   0  -3   0   10.60    1.40
   0   3   0   14.70   13.20
   0   3   0   10.00    1.60
   0   3   0   11.50    1.70
   0   3   0    9.60    1.80
   0   3   0    7.60    3.10
   0   3   0    3.80    2.50
   0   3   0    6.90    1.40
  -1  -3   0 4017.10   92.09
  -1  -3   0 4034.50   93.79
  -1  -3   0 3987.10   92.09
  -1  -3   0 4435.16  192.98
  -1  -3   0 3985.10  103.69
  -1  -3   0 3909.31   92.89
   1   3   0 4211.48   91.89
   1   3   0 4103.49   91.59
   1   3   0 4098.89  102.99
   1   3   0 3903.81   91.69
   1   3   0 3979.40   95.59
  -2  -3   0  366.06   18.70
  -2  -3   0  367.56   17.50
  -2  -3   0  365.96   17.60
  -2  -3   0  373.46   22.50
   2   3   0  350.26   19.80
   2   3   0  353.06   17.00
   2   3   0  359.46   17.00
   2   3   0  337.17   17.00
   2   3   0  342.37   19.80
   2   3   0  351.76   21.60
  -3  -3   0 1051.69   41.20
  -3  -3   0 1040.10   37.40
  -3  -3   0 1035.80   39.70
  -3  -3   0 1000.90   37.60
   3   3   0 1020.90   37.00
   3   3   0 1083.19   42.80
   3   3   0 1081.29   41.20
   3   3   0  991.90   43.50
   3   3   0 1034.20   36.80
   3   3   0  985.30   43.00
  -4  -3   0  773.32   33.40
  -4  -3   0  816.12   38.00
   4   3   0  750.82   37.80
   4   3   0  741.73   32.50
   4   3   0  787.12   38.20
   4   3   0  829.02   34.30
   4   3   0  729.83   32.30
  -5  -3   0  443.36   25.70
  -5  -3   0  461.35   29.20
   5   3   0  403.06   27.80
   5   3   0  431.36   24.90
   5   3   0  386.96   23.80
   5   3   0  404.16   24.50
   5   3   0  431.46   29.30
  -6  -3   0  139.99   17.20
   6   3   0  183.98   16.30
   6   3   0  210.28   19.60
   6   3   0  112.39   17.20
   6   3   0  192.88   16.50
   8  -4   0   34.90    8.50
   8  -4   0   38.10    8.50
   8  -4   0   33.50    7.70
   8  -4   0   35.50    8.30
  -8   4   0   35.10    9.10
  -8   4   0   40.40   11.40
  -8   4   0   22.00    6.50
   7  -4   0 1806.32   55.69
   7  -4   0 1725.23   61.59
   7  -4   0 1760.82   60.49
   7  -4   0 1816.62   60.19
  -7   4   0 1633.54   67.09
  -7   4   0 1788.12   66.29
  -7   4   0 1648.64   56.39
  -7   4   0 1770.42   67.59
  -7   4   0 1787.72   59.69
   6  -4   0   11.00    4.30
   6  -4   0    3.60    2.40
   6  -4   0    6.60    3.30
   6  -4   0    3.50    3.40
  -6   4   0    6.70    4.20
  -6   4   0   11.80    5.70
  -6   4   0    7.40    4.00
  -6   4   0    6.20    3.90
  -6   4   0    8.10    4.90
  -6   4   0   17.10    7.30
   5  -4   0  341.67   16.80
   5  -4   0  312.87   22.90
   5  -4   0  340.47   21.30
   5  -4   0  317.07   19.50
   5  -4   0  341.67   19.40
  -5   4   0  289.77   21.90
  -5   4   0  333.27   23.50
  -5   4   0  322.77   16.80
  -5   4   0  297.97   18.60
  -5   4   0  285.97   21.70
  -5   4   0  339.77   21.40
   4  -4   0    0.40    3.00
   4  -4   0    6.30    2.90
   4  -4   0    9.40    3.20
   4  -4   0    4.50    2.20
   4  -4   0    5.40    2.30
   4  -4   0    8.70    2.60
  -4   4   0    4.10    3.20
  -4   4   0    4.60    3.40
  -4   4   0    3.40    3.30
  -4   4   0    9.80    3.10
  -4   4   0    6.80    3.80
  -4   4   0    3.50    1.80
   3  -4   0  414.96   18.40
   3  -4   0  422.86   18.50
   3  -4   0  410.36   17.50
   3  -4   0  474.35   25.10
   3  -4   0  442.86   21.80
   3  -4   0  449.95   22.30
  -3   4   0  322.77   67.89
  -3   4   0  452.95   21.60
  -3   4   0  420.56   21.40
  -3   4   0  444.66   17.90
  -3   4   0  428.46   15.50
  -3   4   0  405.26   22.30
  -3   4   0  443.76   20.30
   2  -4   0  103.29    7.40
   2  -4   0  103.79    6.40
   2  -4   0  100.09    8.40
   2  -4   0  111.79   10.10
  -2   4   0  106.29    7.60
  -2   4   0  108.19    9.60
  -2   4   0   90.69    7.10
  -2   4   0   79.69   35.50
  -2   4   0  109.59    8.90
   1  -4   0 5825.72  131.89
  -1   4   0 5505.25  129.99
  -1   4   0 5649.63  256.77
  -1   4   0 5751.22  129.69
  -1   4   0 5685.53  131.49
   0  -4   0 1797.72  143.29
   0  -4   0 1828.42   42.50
   0  -4   0 1884.91   58.89
   0   4   0 2170.48  132.59
   0   4   0 1818.22   42.20
   0   4   0 1920.81   58.59
   0   4   0 1855.51   44.20
   0   4   0 1848.42   55.49
   0   4   0 1913.51   42.80
  -1  -4   0   79.69    6.70
  -1  -4   0   91.19   34.70
  -1  -4   0   68.99    6.10
  -1  -4   0   77.39    6.50
  -1  -4   0   84.39   10.20
  -1  -4   0   79.79    6.60
   1   4   0   77.79    6.10
   1   4   0   65.59    6.80
   1   4   0   77.59    9.80
   1   4   0   79.19    6.00
   1   4   0   76.19    8.40
   1   4   0   80.99    6.30
  -2  -4   0   12.80    3.80
  -2  -4   0    6.90   10.70
  -2  -4   0    9.70    4.60
  -2  -4   0   17.20    4.30
  -2  -4   0   14.00    3.40
   2   4   0   14.50    4.20
   2   4   0   12.10    3.60
   2   4   0   16.20    5.70
   2   4   0    8.40    2.90
   2   4   0   14.60    3.70
   2   4   0   15.30    4.80
  -3  -4   0   76.29    8.60
  -3  -4   0   62.99    7.90
   3   4   0   65.69    7.70
   3   4   0   71.09    8.00
   3   4   0   64.99    7.80
   3   4   0   67.39   10.90
   3   4   0   80.79   10.00
   3   4   0   67.09   12.30
  -4  -4   0 1348.37   48.30
  -4  -4   0 1386.86   52.49
   4   4   0 1391.26   48.20
   4   4   0 1380.06   54.39
   4   4   0 1423.16   48.20
   4   4   0 1408.06   56.69
   4   4   0 1447.96   48.70
  -5  -4   0  489.45   27.30
  -5  -4   0  524.65   31.20
   5   4   0  483.25   26.90
   5   4   0  511.05   32.40
   5   4   0  428.46   29.10
   5   4   0  507.85   27.00
   5   4   0  504.55   27.10
   6   4   0  636.24   32.50
   6   4   0  638.44   37.90
   8  -5   0  230.18   15.90
  -8   5   0  263.77   23.50
  -8   5   0  240.88   22.00
   7  -5   0   39.00    7.20
   7  -5   0   26.80    6.90
   7  -5   0   29.10    7.00
   7  -5   0   40.10    8.20
  -7   5   0   22.50    7.60
  -7   5   0   34.40    7.80
  -7   5   0   33.80    7.90
  -7   5   0   35.90    9.90
  -7   5   0   30.80    8.80
  -7   5   0   23.20    6.70
   6  -5   0   76.19    7.90
   6  -5   0   74.69   13.00
   6  -5   0   86.49    9.80
   6  -5   0   75.69   10.00
  -6   5   0  106.49   13.50
  -6   5   0   88.99   13.80
  -6   5   0   72.29    8.30
  -6   5   0   77.19    9.30
  -6   5   0   90.29   12.10
  -6   5   0   80.29   14.10
   5  -5   0    4.80    2.80
   5  -5   0    3.00    2.30
   5  -5   0    2.90    2.40
  -5   5   0   -0.10    3.20
  -5   5   0    1.90    2.50
  -5   5   0    6.80    3.80
  -5   5   0    2.60    2.70
  -5   5   0    3.10    2.40
   4  -5   0 2805.22   70.79
   4  -5   0 2604.64   76.69
   4  -5   0 2722.83   68.89
   4  -5   0 2738.83   76.99
   4  -5   0 2702.23   77.69
   4  -5   0 2669.13   75.39
  -4   5   0 2664.63   75.99
  -4   5   0 2748.93   73.99
  -4   5   0 2616.54   79.39
  -4   5   0 2121.79  195.98
  -4   5   0 2664.43   63.99
  -4   5   0 2661.63   68.89
  -4   5   0 2603.64   76.49
   3  -5   0  198.38   11.30
   3  -5   0  201.38   10.90
   3  -5   0  203.68   15.20
   3  -5   0  216.28   13.40
   3  -5   0  202.68   13.90
   3  -5   0  192.78   12.10
  -3   5   0  202.58   10.50
  -3   5   0  190.28    9.40
  -3   5   0  200.88   15.70
  -3   5   0  198.28   68.09
  -3   5   0  195.58   11.70
  -3   5   0  212.48   13.90
  -3   5   0  177.38   12.40
  -3   5   0  204.58   13.10
   2  -5   0 2316.67   50.59
   2  -5   0 2211.28   64.29
   2  -5   0 2286.47   51.79
   2  -5   0 2265.17   50.19
  -2   5   0 2300.87   60.39
  -2   5   0 2296.17   63.19
  -2   5   0 2267.27   54.39
  -2   5   0 2228.78  174.38
  -2   5   0 2301.37   52.99
  -2   5   0 2155.18   63.19
   1  -5   0   15.80    4.40
   1  -5   0   16.30   18.10
  -1   5   0   19.40    4.50
  -1   5   0   19.30    5.00
  -1   5   0   24.00    5.60
  -1   5   0   22.60   14.70
   0  -5   0   64.99   33.00
   0   5   0   88.89   10.80
   0   5   0   90.29   30.80
   0   5   0  105.99   10.20
  -1  -5   0  854.41   25.40
  -1  -5   0  805.82   99.29
  -1  -5   0  858.71   26.70
  -1  -5   0  836.52   26.80
  -1  -5   0  872.81   39.50
   1   5   0  850.11   37.20
   1   5   0  883.71   29.10
   1   5   0  830.02   25.50
   1   5   0  845.02   25.80
   1   5   0  795.62   33.20
   1   5   0  879.01   26.40
  -2  -5   0 2979.00   77.69
  -2  -5   0 3033.80   92.89
  -2  -5   0 3127.39   76.99
  -2  -5   0 3053.29  192.28
  -2  -5   0 3028.30   77.19
   2   5   0 2878.11   75.29
   2   5   0 3028.40   85.59
   2   5   0 2944.01   75.59
   2   5   0 3135.19   81.99
   2   5   0 2916.21   89.79
   2   5   0 3130.69   76.59
  -3  -5   0  265.67   16.70
  -3  -5   0  235.38   83.19
  -3  -5   0  292.57   18.40
   3   5   0  251.07   15.90
   3   5   0  258.07   16.00
   3   5   0  261.47   22.10
   3   5   0  234.78   18.10
   3   5   0  238.18   15.40
  -4  -5   0  237.48   17.40
  -4  -5   0  274.47   57.59
  -4  -5   0  215.08   17.90
   4   5   0  226.78   16.30
   4   5   0  254.57   21.90
   4   5   0  250.67   17.10
   4   5   0  217.68   16.10
   4   5   0  222.08   19.10
  -5  -5   0   78.59   13.20
  -5  -5   0   71.39   33.10
  -5  -5   0   39.10    8.70
   5   5   0   60.19   12.40
   5   5   0   62.39   10.10
   5   5   0   68.49   11.70
   7  -6   0   38.40    9.50
   7  -6   0   38.40    7.70
   7  -6   0   26.70    7.00
  -7   6   0   14.50    6.10
  -7   6   0   12.80    6.70
  -7   6   0   28.70    8.20
  -7   6   0   29.50    6.30
  -7   6   0   33.30    8.30
  -7   6   0   39.70    7.70
   6  -6   0 1512.45   48.80
   6  -6   0 1440.76   55.19
   6  -6   0 1461.85   49.10
  -6   6   0 1577.04   59.79
  -6   6   0 1563.54   49.20
  -6   6   0 1479.95   43.20
  -6   6   0 1491.35   55.79
  -6   6   0 1535.25   58.09
  -6   6   0 1475.45   53.89
   5  -6   0  619.44   25.60
   5  -6   0  578.44   30.70
   5  -6   0  597.74   24.60
  -5   6   0  577.34   30.20
  -5   6   0  618.84   32.70
  -5   6   0  567.74   24.30
  -5   6   0  581.14   28.00
  -5   6   0  642.94   30.30
  -5   6   0  577.94   20.70
   4  -6   0  199.28   11.40
   4  -6   0  195.68   16.50
   4  -6   0  196.68   12.70
   4  -6   0  199.48   15.20
   4  -6   0  189.98   11.60
  -4   6   0  201.08   14.30
  -4   6   0  180.88   15.90
  -4   6   0  193.98   11.20
  -4   6   0  224.08   15.40
  -4   6   0  199.78    9.60
   3  -6   0 1226.88   33.20
   3  -6   0 1259.67   45.70
   3  -6   0 1187.18   42.10
   3  -6   0 1267.17   32.50
   3  -6   0 1286.17   36.00
  -3   6   0 1107.09  134.49
  -3   6   0 1247.08   42.20
  -3   6   0 1256.27   32.30
  -3   6   0 1279.17   37.40
  -3   6   0 1236.38   37.50
  -3   6   0 1287.87   37.20
  -3   6   0 1274.77   34.20
  -3   6   0 1276.37   45.40
  -3   6   0 1267.07   32.10
   2  -6   0   62.59   10.20
   2  -6   0   38.70   33.30
  -2   6   0   70.09   37.40
  -2   6   0   79.49    9.30
  -2   6   0   80.49    8.10
  -2   6   0   72.19    8.30
   1  -6   0  295.37   70.79
  -1   6   0  399.86   21.50
  -1   6   0  414.46   21.20
  -1   6   0  401.26   20.30
  -1   6   0  384.46   63.29
   0  -6   0  166.18   59.59
   0   6   0  206.48   15.60
   0   6   0  199.98   14.10
   0   6   0  205.38   16.10
  -1  -6   0 2189.88  181.18
  -1  -6   0 2052.59   50.09
  -1  -6   0 2190.88   53.69
  -1  -6   0 2061.09   73.79
  -1  -6   0 2109.49   51.99
  -1  -6   0 2164.48   52.69
   1   6   0 2113.09   69.39
   1   6   0 2170.38   52.99
   1   6   0 2196.28   55.99
   1   6   0 2116.99   65.69
   1   6   0 2169.28   52.29
   1   6   0 2232.48   52.89
  -2  -6   0  198.28   49.50
  -2  -6   0  203.88   12.80
  -2  -6   0  205.28   15.90
  -2  -6   0  207.58   12.90
   2   6   0  227.08   12.90
   2   6   0  202.38   12.10
   2   6   0  197.78   18.60
   2   6   0  182.18   13.70
   2   6   0  203.28   12.10
   2   6   0  198.58   16.80
  -3  -6   0  115.99   44.40
  -3  -6   0   83.99    9.30
  -3  -6   0   95.99    9.70
   3   6   0  106.89    9.50
   3   6   0   86.59    9.00
   3   6   0   83.59   10.20
   3   6   0   88.59    8.90
   3   6   0   65.29   12.60
  -4  -6   0  319.27   63.09
  -4  -6   0  336.07   21.20
  -4  -6   0  358.26   20.90
   4   6   0  334.37   19.50
   4   6   0  356.06   20.20
   4   6   0  326.87   25.80
   4   6   0  314.17   19.10
   4   6   0  359.06   23.30
   7  -7   0   60.89   11.90
   7  -7   0   78.59    9.50
  -7   7   0   68.39   12.90
  -7   7   0   77.19    9.00
  -7   7   0   48.80   12.10
  -7   7   0   63.39   11.50
   6  -7   0  197.28   13.20
   6  -7   0  177.48   13.10
   6  -7   0  196.78   18.00
  -6   7   0  137.19   14.30
  -6   7   0  179.68   15.30
  -6   7   0  192.28   13.10
  -6   7   0  174.58   16.60
  -6   7   0  157.48   16.80
  -6   7   0  175.28    9.50
   5  -7   0  404.86   18.20
   5  -7   0  446.66   26.30
   5  -7   0  395.06   18.30
  -5   7   0  374.76   17.50
  -5   7   0  418.76   14.40
  -5   7   0  409.86   22.00
  -5   7   0  364.56   18.20
  -5   7   0  394.16   25.30
   4  -7   0  171.38   10.60
   4  -7   0  208.78   17.30
   4  -7   0  189.78    9.90
   4  -7   0  196.88   10.10
  -4   7   0  189.48   12.70
  -4   7   0  171.58    8.70
  -4   7   0  211.98   10.00
  -4   7   0  210.88   17.10
  -4   7   0  190.78   10.50
  -4   7   0  201.08   10.30
  -4   7   0  197.58   12.90
   3  -7   0 1471.95   51.29
  -3   7   0 1447.46   39.20
  -3   7   0 1393.06   50.29
  -3   7   0 1478.85   35.30
  -3   7   0 1483.95   36.60
  -3   7   0 1432.16   42.10
   2  -7   0  385.96   84.29
   2  -7   0  478.65   24.60
  -2   7   0  480.05   24.20
  -2   7   0  483.15   22.10
  -2   7   0  482.35   24.60
   1  -7   0  368.76   82.89
  -1   7   0  380.56   21.40
  -1   7   0  384.56   22.00
  -1   7   0  381.26   20.70
   0   7   0 1137.69   40.80
   0   7   0 1130.79   44.40
  -1  -7   0  119.19   49.99
  -1  -7   0  119.29    7.00
   1   7   0  132.59    7.10
   1   7   0  133.69    7.00
   1   7   0  122.89   14.00
   1   7   0  115.19    6.40
   1   7   0  127.99   13.80
   1   7   0  114.39    7.40
  -2  -7   0  445.66   81.79
  -2  -7   0  365.76   15.20
   2   7   0  399.36   16.90
   2   7   0  402.06   17.30
   2   7   0  376.16   26.90
   2   7   0  389.26   19.10
  -3  -7   0  144.99   11.50
  -3  -7   0  169.68   12.70
  -3  -7   0  159.28   57.69
   3   7   0  162.98   11.80
   3   7   0  174.28   18.10
   3   7   0  157.58   11.80
   3   7   0  129.99   12.70
   3   7   0  166.38   11.90
   6  -8   0    4.30    4.70
   6  -8   0    4.30    3.00
   6  -8   0   12.60    5.90
  -6   8   0    3.20    2.80
  -6   8   0   12.30    4.80
  -6   8   0    8.40    3.90
  -6   8   0    7.00    5.80
  -6   8   0   -0.60    3.00
   5  -8   0  318.77   23.20
   5  -8   0  319.07   14.60
   5  -8   0  337.77   14.40
  -5   8   0  355.56   18.00
  -5   8   0  344.87   14.70
  -5   8   0  353.36   18.80
  -5   8   0  339.57   14.10
  -5   8   0  342.47   24.00
   4  -8   0  119.79   13.00
  -4   8   0  111.89    7.20
  -4   8   0  138.29    8.10
  -4   8   0  113.89    6.60
  -4   8   0  112.99    7.20
  -4   8   0  130.09   13.50
   3  -8   0  491.75   26.50
  -3   8   0  482.45   18.50
  -3   8   0  506.45   27.30
  -3   8   0  500.55   24.60
  -3   8   0  488.25   20.50
   2  -8   0  706.83  121.59
  -2   8   0  904.71   36.30
  -2   8   0  862.81   32.60
  -2   8   0  816.72   34.50
   1  -8   0  922.01  138.69
  -1   8   0 1108.89   42.30
  -1   8   0 1111.69   40.60
  -1   8   0 1134.59   42.00
   0  -8   0    8.30   19.90
  -1  -8   0  142.69   56.29
   1   8   0  196.78   18.10
  -2  -8   0  154.08   60.29
   2   8   0  135.49    8.30
   2   8   0  126.29    8.80
   2   8   0  150.68   16.20
   2   8   0  132.79    8.50
   5  -9   0  547.85   30.40
  -5   9   0  488.95   18.60
  -5   9   0  516.25   30.00
  -5   9   0  523.45   18.60
   4  -9   0   54.09   10.60
  -4   9   0   41.20    8.90
  -4   9   0   41.30    3.90
  -4   9   0   29.60    3.70
   3  -9   0  316.47   20.80
  -3   9   0  298.17   20.60
  -3   9   0  284.67   13.80
  -3   9   0  310.07   16.70
   2  -9   0   53.19   39.90
  -2   9   0   87.09   10.10
  -2   9   0   50.39    8.40
   1  -9   0  231.28   77.49
  -1   9   0  173.38   14.70
  -1   9   0  184.68   14.70
   0  -9   0   26.20   31.50
   0   9   0   15.00    4.80
   0   9   0   11.70    5.30
  -1  -9   0  381.96   89.99
   1   9   0  396.26   27.20
   1   9   0  403.96   22.80
  -3  10   0   83.09   12.60
  -3  10   0   76.09    8.20
  -2  10   0  172.78   15.80
  -2  10   0  194.48   14.80
  -1  10  -1 1157.98   40.70
  -1  10  -1 1130.59   44.20
   1 -10   1  904.61  145.29
  -2  10  -1  166.88   15.40
  -2  10  -1  158.68   11.10
  -3  10  -1   17.20    2.50
  -3  10  -1   22.40    6.60
  -4  10  -1  183.08   17.70
   4 -10   1  169.28   15.30
   1   9  -1  151.68   15.50
   1   9  -1  139.59   13.30
  -1  -9   1   98.69   57.39
   0   9  -1  234.78   17.50
   0   9  -1  226.38   17.00
   0   9  -1  246.98   18.00
   0  -9   1  224.08   80.19
  -1   9  -1   27.40    6.70
  -1   9  -1   25.90    6.90
  -1   9  -1   35.40    6.90
   1  -9   1   44.10   32.60
  -2   9  -1   98.39   10.00
  -2   9  -1  118.99   13.00
   2  -9   1   95.89   51.39
  -3   9  -1  228.48   14.90
  -3   9  -1  222.58   18.00
  -3   9  -1  209.08    8.30
  -3   9  -1  206.78    8.00
   3  -9   1  215.18   16.10
  -4   9  -1 1215.78   32.40
  -4   9  -1 1258.27   50.69
  -4   9  -1 1193.88   34.20
   4  -9   1 1255.17   46.40
  -5   9  -1   14.10    3.20
  -5   9  -1   15.60    4.00
  -5   9  -1    7.50    5.10
  -5   9  -1   14.30    3.10
  -5   9  -1    8.90    3.90
   5  -9   1   24.00    8.20
   5  -9   1    8.80    3.80
   5  -9   1   14.10    3.40
  -6   9  -1  152.18   13.20
  -6   9  -1  166.48   13.60
   3   8  -1  132.19   12.20
   3   8  -1   99.89    9.30
   3   8  -1  121.29   14.80
   3   8  -1  119.89   10.10
  -3  -8   1   84.29   41.30
   2   8  -1  173.38   10.30
   2   8  -1  164.18   11.40
   2   8  -1  179.48   10.60
   2   8  -1  129.19   15.60
   2   8  -1  174.28   10.80
  -2  -8   1  161.68   10.30
  -2  -8   1  157.58    9.00
  -2  -8   1  154.78   58.79
   1   8  -1  903.11   37.50
   1   8  -1  957.10   40.90
  -1  -8   1  902.91  128.69
  -1  -8   1  893.51   25.10
   0   8  -1  597.84   30.00
   0   8  -1  592.54   28.10
   0   8  -1  653.53   30.10
   0  -8   1  607.64  106.79
  -1   8  -1  118.39   10.80
  -1   8  -1   99.69   11.10
  -1   8  -1  114.69   10.80
   1  -8   1  130.69   63.69
  -2   8  -1  480.35   25.60
  -2   8  -1  433.76   18.60
  -2   8  -1  432.86   21.30
   2  -8   1  354.16   85.29
   2  -8   1  431.26   22.10
  -3   8  -1  215.98    9.20
  -3   8  -1  209.48    7.70
  -3   8  -1  219.98    8.10
  -3   8  -1  226.08   18.70
  -3   8  -1  221.08   10.60
   3  -8   1  201.18   15.40
  -4   8  -1   47.70    5.80
  -4   8  -1   42.40    4.40
  -4   8  -1   34.40    6.30
  -4   8  -1   44.80    4.60
  -4   8  -1   44.70    9.90
   4  -8   1   74.69    9.60
   4  -8   1   50.49    5.10
   4  -8   1   36.80    4.70
   4  -8   1   46.10    5.70
  -5   8  -1  601.64   22.60
  -5   8  -1  563.74   27.00
  -5   8  -1  586.04   32.90
  -5   8  -1  573.54   23.00
  -5   8  -1  581.74   27.40
   5  -8   1  603.04   22.90
   5  -8   1  525.15   27.50
   5  -8   1  503.15   33.40
  -6   8  -1  284.97   19.90
  -6   8  -1  226.88   20.30
  -6   8  -1  270.77   20.80
  -6   8  -1  226.48   15.50
  -6   8  -1  260.57   15.30
   6  -8   1  280.07   21.20
   6  -8   1  279.67   16.70
   6  -8   1  258.67   15.90
   4   7  -1  272.67   43.20
   4   7  -1  338.87   22.50
   4   7  -1  339.07   19.70
   4   7  -1  344.77   19.50
  -4  -7   1  377.46   73.49
  -4  -7   1  349.77   20.90
   3   7  -1  849.91   41.80
   3   7  -1  826.62   30.80
   3   7  -1  795.92   30.30
   3   7  -1  813.72   35.00
   3   7  -1  893.21   32.20
  -3  -7   1  805.32   30.60
  -3  -7   1  731.13  103.49
  -3  -7   1  870.81   32.10
   2   7  -1 1044.30   41.70
   2   7  -1 1106.19   34.90
   2   7  -1 1100.39   37.80
   2   7  -1 1094.99   46.30
   2   7  -1 1109.49   34.20
   2   7  -1 1073.79   33.90
  -2  -7   1  965.80  122.19
  -2  -7   1 1087.49   34.40
  -2  -7   1 1055.49   32.40
   1   7  -1   11.80    4.60
   1   7  -1   -5.50    4.20
   1   7  -1    8.30    2.40
   1   7  -1    6.70    2.50
   1   7  -1    7.90    2.50
  -1  -7   1    6.30    1.90
  -1  -7   1    6.00    4.60
  -1  -7   1    1.80    1.60
  -1  -7   1    0.00   16.30
   0   7  -1  104.49   10.90
   0   7  -1  102.99   10.80
   0   7  -1   81.99    9.90
   0  -7   1   67.29   42.30
  -1   7  -1   52.79    9.00
  -1   7  -1   61.19    7.40
  -1   7  -1   56.99    8.90
   1  -7   1   56.39   38.40
  -2   7  -1 1518.45   36.50
  -2   7  -1 1444.96   39.90
  -2   7  -1 1436.26   44.80
  -2   7  -1 1432.46   36.90
  -2   7  -1 1423.66   49.90
   2  -7   1 1448.56   46.90
  -3   7  -1    9.00    2.30
  -3   7  -1   12.80    3.10
  -3   7  -1    8.80    2.90
  -3   7  -1    8.70    2.30
  -3   7  -1   18.00    5.50
   3  -7   1   11.50    2.60
   3  -7   1    9.40    2.60
   3  -7   1   12.50    2.60
   3  -7   1   13.90    4.30
   3  -7   1   18.40    5.30
  -4   7  -1  604.04   26.90
  -4   7  -1  621.74   22.70
  -4   7  -1  604.64   23.00
  -4   7  -1  635.64   32.70
   4  -7   1  623.04   24.40
   4  -7   1  607.74   29.90
   4  -7   1  593.34   22.60
   4  -7   1  599.24   23.50
  -5   7  -1  472.75   26.10
  -5   7  -1  454.75   25.70
  -5   7  -1  485.95   27.80
  -5   7  -1  441.66   21.70
  -5   7  -1  467.05   28.60
   5  -7   1  481.35   22.50
   5  -7   1  456.55   21.40
   5  -7   1  441.86   26.10
  -6   7  -1  180.98   18.10
  -6   7  -1  204.48   17.30
  -6   7  -1  174.98   13.60
   6  -7   1  185.38   16.90
   6  -7   1  193.28   14.40
  -7   7  -1   21.60    6.80
  -7   7  -1   25.10    6.20
   7  -7   1   14.20    5.70
   7  -7   1   18.00    5.50
   7  -7   1   11.80    5.20
   4   6  -1  194.58   14.80
   4   6  -1  166.38   17.40
   4   6  -1  180.78   17.00
   4   6  -1  203.48   15.20
   4   6  -1  186.08   14.10
  -4  -6   1  181.98   15.50
  -4  -6   1  154.78   51.69
   3   6  -1    2.40    2.90
   3   6  -1    6.20    3.10
   3   6  -1    6.40    2.50
   3   6  -1   -4.50    2.90
   3   6  -1    6.50    3.20
  -3  -6   1   11.50    4.00
  -3  -6   1    0.00   13.60
  -3  -6   1    4.70    3.50
   2   6  -1   57.29    6.30
   2   6  -1   42.60    8.80
   2   6  -1   67.29   11.00
   2   6  -1   53.59    6.50
   2   6  -1   70.59    8.50
   2   6  -1   50.99    6.00
  -2  -6   1   47.60    6.80
  -2  -6   1   40.40    6.30
  -2  -6   1   31.70   26.80
  -2  -6   1   43.20    5.90
   1   6  -1  147.49   13.80
   1   6  -1  117.19    7.90
   1   6  -1  119.79    8.30
   1   6  -1  136.49   11.70
   1   6  -1  135.99    9.90
   1   6  -1  131.09    8.20
  -1  -6   1  115.89    7.90
  -1  -6   1  130.29   13.50
  -1  -6   1   80.19   38.00
  -1  -6   1  125.49    8.40
   0   6  -1 2238.58   53.79
   0   6  -1 2258.27   63.39
   0   6  -1 2306.77   65.39
   0   6  -1 2257.17   52.09
   0   6  -1 2251.57   65.49
   0   6  -1 2245.18   54.19
   0   6  -1 2318.87   51.69
   0  -6   1 2231.68   69.69
   0  -6   1 1931.71  177.68
   0  -6   1 2262.47   51.59
   0  -6   1 2328.27   52.29
  -1   6  -1 3068.79   66.69
  -1   6  -1 3266.47  197.98
  -1   6  -1 3040.20   77.59
  -1   6  -1 3103.99   76.39
  -1   6  -1 3024.80   80.99
   1  -6   1 2517.05  209.98
  -2   6  -1  113.09   11.30
  -2   6  -1  123.19    8.70
  -2   6  -1  127.99    6.50
  -2   6  -1  124.19    7.50
  -2   6  -1  128.29    7.30
  -2   6  -1  124.89   51.49
  -2   6  -1  132.69    6.50
  -2   6  -1  137.79   10.10
   2  -6   1  129.79    7.20
   2  -6   1  124.69   10.90
   2  -6   1  121.39    6.60
   2  -6   1  113.49    6.80
   2  -6   1   86.69   44.70
   2  -6   1  116.19    7.50
  -3   6  -1   19.00    5.50
  -3   6  -1   15.60    3.90
  -3   6  -1   14.30    3.10
  -3   6  -1   23.40    4.30
  -3   6  -1   15.50    4.30
  -3   6  -1   16.30   21.60
   3  -6   1   13.80    3.20
   3  -6   1   28.40    5.50
   3  -6   1   14.10    3.60
   3  -6   1    7.00    3.30
   3  -6   1   26.10    6.10
   3  -6   1   19.70    4.20
  -4   6  -1   21.40    5.90
  -4   6  -1   23.20    4.70
  -4   6  -1   27.00    5.50
  -4   6  -1    7.70    4.50
   4  -6   1   28.20    5.50
   4  -6   1   13.80    5.70
   4  -6   1   22.20    4.80
   4  -6   1   17.40    5.20
  -5   6  -1  308.67   17.90
  -5   6  -1  367.26   24.00
  -5   6  -1  326.47   22.00
  -5   6  -1  335.77   23.00
  -5   6  -1  344.87   13.00
   5  -6   1  338.97   18.90
   5  -6   1  320.07   23.00
   5  -6   1  359.36   22.50
  -6   6  -1  177.08   14.40
  -6   6  -1  152.38   16.30
  -6   6  -1  160.28   15.40
  -6   6  -1  185.98   17.80
  -6   6  -1  167.08   17.40
   6  -6   1  143.09   14.60
   6  -6   1  155.78   13.40
   6  -6   1  147.69   13.90
  -7   6  -1  907.01   46.10
  -7   6  -1  977.60   44.40
  -7   6  -1  912.71   33.70
  -7   6  -1 1012.20   40.40
  -7   6  -1 1018.70   47.00
   7  -6   1 1019.00   40.30
   7  -6   1  992.20   44.10
   7  -6   1  996.60   41.40
   5   5  -1   75.69   13.40
   5   5  -1   73.09   11.40
   5   5  -1   94.79   15.40
   5   5  -1  119.69   12.00
   5   5  -1  105.19   14.00
  -5  -5   1   93.29   12.70
  -5  -5   1   84.19   11.30
  -5  -5   1   95.69   39.70
   4   5  -1  115.29   11.40
   4   5  -1   97.69   10.50
   4   5  -1   98.59   13.10
   4   5  -1  109.59   11.10
   4   5  -1  132.59   14.10
  -4  -5   1   94.19   17.20
  -4  -5   1  121.39   11.90
  -4  -5   1  103.09   42.30
   3   5  -1  893.11   33.50
   3   5  -1  828.62   39.60
   3   5  -1  853.51   32.70
   3   5  -1  870.01   33.20
   3   5  -1  867.91   40.70
  -3  -5   1  980.30  104.09
  -3  -5   1  916.61   34.00
  -3  -5   1  913.41   35.70
   2   5  -1   65.99    7.20
   2   5  -1   78.29    8.90
   2   5  -1   50.59    9.80
   2   5  -1  101.69   11.90
   2   5  -1   79.29    7.60
   2   5  -1   72.29    7.20
  -2  -5   1   66.49    7.10
  -2  -5   1   77.49   10.40
  -2  -5   1   90.29    9.90
  -2  -5   1   71.99    7.80
  -2  -5   1   65.29   32.40
  -2  -5   1   71.29    7.80
   1   5  -1 3106.89   81.09
   1   5  -1 3054.49   86.19
   1   5  -1 3247.38   75.49
   1   5  -1 3120.69   74.29
   1   5  -1 3087.29   74.29
   1   5  -1 3196.88   78.69
  -1  -5   1 3186.18   74.39
  -1  -5   1 3051.19  197.08
  -1  -5   1 3147.98   74.29
  -1  -5   1 3088.89   73.79
  -1  -5   1 3245.68   89.19
  -1  -5   1 3162.78   74.89
   0   5  -1  565.24   25.60
   0   5  -1  550.84   18.70
   0   5  -1  738.73   80.09
   0   5  -1  560.74   17.30
   0   5  -1  572.24   17.70
   0   5  -1  564.34   18.80
   0   5  -1  598.84   24.90
   0  -5   1  477.95   78.89
   0  -5   1  578.34   17.30
   0  -5   1  593.94   26.70
   0  -5   1  574.44   16.90
   0  -5   1  575.84   17.10
   0  -5   1  578.04   17.70
  -1   5  -1  388.86   12.80
  -1   5  -1  389.36   14.70
  -1   5  -1  373.76   19.20
  -1   5  -1  409.86   65.19
  -1   5  -1  355.46   15.80
  -1   5  -1  375.96   12.30
  -1   5  -1  366.86   11.70
  -1   5  -1  384.96   17.30
   1  -5   1  350.16   12.20
   1  -5   1  299.27   64.09
   1  -5   1  367.16   13.40
   1  -5   1  379.56   13.20
   1  -5   1  381.86   12.00
   1  -5   1  380.26   17.60
  -2   5  -1  574.94   15.80
  -2   5  -1  575.14   16.70
  -2   5  -1  570.14   20.90
  -2   5  -1  552.64   85.59
  -2   5  -1  561.44   18.90
  -2   5  -1  568.14   18.80
  -2   5  -1  544.45   25.40
  -2   5  -1  605.04   23.00
  -2   5  -1  557.24   21.90
   2  -5   1  579.94   25.10
   2  -5   1  553.24   20.80
   2  -5   1  586.64   24.60
   2  -5   1  558.74   19.20
   2  -5   1  577.44   21.00
  -3   5  -1 2279.97  194.48
  -3   5  -1 2631.54   68.39
  -3   5  -1 2735.73   78.69
  -3   5  -1 2905.81   76.59
  -3   5  -1 2719.33   67.89
   3  -5   1 2734.93   75.39
   3  -5   1 2780.12   70.09
   3  -5   1 2787.32   69.49
   3  -5   1 2769.92   71.49
   3  -5   1 2713.23   74.29
   3  -5   1 2578.74   74.19
  -4   5  -1 1973.00   64.99
  -4   5  -1 2060.79   58.79
  -4   5  -1 2179.98   63.79
  -4   5  -1 1655.23  172.68
  -4   5  -1 2056.49   66.19
  -4   5  -1 2081.99   68.19
  -4   5  -1 2084.59   50.09
   4  -5   1 2292.57   61.09
   4  -5   1 2090.69   65.89
   4  -5   1 2141.39   63.69
   4  -5   1 2088.49   67.19
   4  -5   1 2193.08   61.89
  -5   5  -1  262.17   17.20
  -5   5  -1  283.77   21.90
  -5   5  -1  272.77   21.00
  -5   5  -1  270.37   13.80
  -5   5  -1  240.78   20.10
  -5   5  -1  249.68   18.60
   5  -5   1  249.97   12.40
   5  -5   1  265.27   17.40
   5  -5   1  303.87   19.40
   5  -5   1  268.87   18.60
  -6   5  -1   -2.30    3.30
  -6   5  -1    1.10    3.60
  -6   5  -1   -4.90    2.30
  -6   5  -1    0.90    4.20
  -6   5  -1   -1.40    4.00
  -6   5  -1    1.20    2.60
   6  -5   1    5.80    2.70
   6  -5   1    4.90    3.80
   6  -5   1    0.90    3.50
   6  -5   1   -2.10    2.40
  -7   5  -1   76.99   13.90
  -7   5  -1   61.99   10.50
  -7   5  -1   62.49   13.10
  -7   5  -1   73.79   14.40
   7  -5   1   54.89   10.20
   7  -5   1   60.79   10.40
   7  -5   1   69.49    8.40
   7  -5   1   49.60   10.20
   6   4  -1  181.58   20.10
   6   4  -1  220.98   19.90
   6   4  -1  220.28   22.40
  -6  -4   1  232.58   20.80
   5   4  -1 1065.09   41.60
   5   4  -1  969.60   45.80
   5   4  -1 1032.60   41.00
   5   4  -1  997.30   46.80
   5   4  -1  973.60   40.50
  -5  -4   1 1012.20   44.70
  -5  -4   1  958.50   40.70
   4   4  -1  514.85   30.00
   4   4  -1  513.15   25.80
   4   4  -1  485.45   37.40
   4   4  -1  510.55   31.20
  -4  -4   1  545.45   29.00
  -4  -4   1  533.05   26.60
   3   4  -1   66.29   11.50
   3   4  -1   89.69   10.70
   3   4  -1   60.69   10.90
   3   4  -1   60.19   10.60
   3   4  -1   59.19    7.50
   3   4  -1   76.79    8.30
  -3  -4   1   87.79    9.50
  -3  -4   1   84.19    8.80
  -3  -4   1   78.69    8.90
  -3  -4   1   51.59   10.60
   2   4  -1 1586.24   52.49
   2   4  -1 1650.83   47.50
   2   4  -1 1666.63   56.39
   2   4  -1 1656.13   47.60
   2   4  -1 1668.83   47.50
   2   4  -1 1711.73   55.79
  -2  -4   1 1941.41  134.19
  -2  -4   1 1614.04   56.29
  -2  -4   1 1673.63   48.00
  -2  -4   1 1646.24   49.60
  -2  -4   1 1654.03   47.50
  -2  -4   1 1647.94   48.70
   1   4  -1  194.78   11.90
   1   4  -1  196.78   10.50
   1   4  -1  194.88   14.20
   1   4  -1  202.98   10.80
   1   4  -1  213.28   10.70
  -1  -4   1  205.68   10.80
  -1  -4   1  209.18   10.60
  -1  -4   1  202.58   10.60
  -1  -4   1  196.38   42.20
  -1  -4   1  204.38   10.40
   0   4  -1  244.78   12.70
   0   4  -1  251.37   10.20
   0   4  -1  272.97   44.90
   0   4  -1  249.28    9.90
   0   4  -1  251.17   13.70
   0   4  -1  268.87   11.20
   0   4  -1  250.87   10.70
   0  -4   1  256.27    9.50
   0  -4   1  260.27   10.10
   0  -4   1  248.08    9.60
   0  -4   1  245.28   14.50
   0  -4   1  282.67   53.59
  -1   4  -1   46.80    3.90
  -1   4  -1   59.99    5.50
  -1   4  -1   52.19    4.50
  -1   4  -1   37.00   20.30
  -1   4  -1   52.59    3.90
  -1   4  -1   54.69    4.20
  -1   4  -1   54.59    5.00
  -1   4  -1   65.89    6.80
   1  -4   1   49.50    4.20
   1  -4   1   58.19    4.20
   1  -4   1   53.19    4.80
   1  -4   1   29.70   19.30
   1  -4   1   48.20    5.30
  -2   4  -1 6069.59  143.29
  -2   4  -1 6208.48  146.29
  -2   4  -1 5735.93  289.77
  -2   4  -1 6178.98  137.39
  -2   4  -1 6448.55  137.79
   2  -4   1 6463.25  139.39
   2  -4   1 6271.57  142.39
   2  -4   1 6040.10  137.89
   2  -4   1 6543.05  142.49
   2  -4   1 6496.35  141.79
   2  -4   1 6208.48  143.89
  -3   4  -1  414.16   23.00
  -3   4  -1  389.86   22.10
  -3   4  -1  404.46   21.90
  -3   4  -1  371.26   72.19
  -3   4  -1  398.56   18.40
  -3   4  -1  390.26   13.30
  -3   4  -1  422.66   20.80
   3  -4   1  427.46   20.20
   3  -4   1  406.86   19.40
   3  -4   1  407.06   22.30
   3  -4   1  395.46   21.60
   3  -4   1  396.36   19.10
   3  -4   1  335.57   29.70
  -4   4  -1    1.40    2.30
  -4   4  -1   -0.30    1.80
  -4   4  -1    6.20    3.30
  -4   4  -1    1.00    2.40
  -4   4  -1    1.70    1.40
  -4   4  -1    4.30    1.90
   4  -4   1    4.80    2.70
   4  -4   1    2.30    1.80
   4  -4   1    0.70    1.50
   4  -4   1    4.40    2.70
   4  -4   1    5.60    3.20
  -5   4  -1 2670.63   84.99
  -5   4  -1 2702.63   82.49
  -5   4  -1 2744.73   77.99
  -5   4  -1 2801.52   87.09
  -5   4  -1 2705.33   85.89
  -5   4  -1 2652.33   72.09
   5  -4   1 2797.92   70.69
   5  -4   1 2770.62   79.29
   5  -4   1 2728.03   80.59
   5  -4   1 2828.52   78.79
  -6   4  -1  346.07   21.70
  -6   4  -1  352.86   25.70
  -6   4  -1  306.17   23.10
  -6   4  -1  301.57   18.90
  -6   4  -1  341.07   25.60
  -6   4  -1  343.67   26.40
   6  -4   1  308.77   21.50
   6  -4   1  323.47   21.70
   6  -4   1  296.97   20.40
   6  -4   1  317.47   17.70
  -7   4  -1   52.49   11.00
  -7   4  -1   63.19   13.30
  -7   4  -1   59.39   10.10
  -7   4  -1   60.69   12.10
   7  -4   1   64.49    8.60
   7  -4   1   91.59   11.80
   7  -4   1   58.89   10.60
   7  -4   1   62.39   11.30
   6   3  -1  286.27   20.80
   6   3  -1  317.47   21.40
   6   3  -1  292.47   24.10
   6   3  -1  311.37   26.10
  -6  -3   1  220.78   36.10
  -6  -3   1  283.57   21.70
   5   3  -1   59.39    9.90
   5   3  -1   77.59    9.90
   5   3  -1   89.49   11.50
   5   3  -1   79.89   13.60
  -5  -3   1   84.89   14.10
  -5  -3   1   77.69   10.00
   4   3  -1   84.09    9.60
   4   3  -1   92.79   10.10
   4   3  -1   88.09   14.30
   4   3  -1   93.99   15.30
   4   3  -1   92.29   10.10
   4   3  -1   97.89   12.40
  -4  -3   1   70.69   11.60
  -4  -3   1   82.99    9.20
   3   3  -1 2584.64   77.59
   3   3  -1 2545.35   69.59
   3   3  -1 2586.34   76.59
   3   3  -1 2585.94   75.39
   3   3  -1 2462.25   68.89
   3   3  -1 2555.34   69.69
  -3  -3   1 2593.04   70.19
  -3  -3   1 2494.15   77.09
  -3  -3   1 2557.14   72.29
  -3  -3   1 2484.85   69.39
  -3  -3   1 2519.75   73.79
   2   3  -1 1511.35   49.10
   2   3  -1 1527.55   43.00
   2   3  -1 1465.85   42.90
   2   3  -1 1461.15   42.80
   2   3  -1 1464.85   49.00
   2   3  -1 1458.35   47.10
  -2  -3   1 1404.76   43.00
  -2  -3   1 1414.86   42.60
  -2  -3   1 1385.86   46.00
  -2  -3   1 1446.26   48.80
  -2  -3   1 1432.56   42.10
   1   3  -1 1169.98   35.60
   1   3  -1 1198.78   33.50
   1   3  -1 1255.97   33.70
   1   3  -1 1236.18   33.70
   1   3  -1 1236.28   39.60
  -1  -3   1 1148.29   32.80
  -1  -3   1 1166.88   34.20
  -1  -3   1 1377.66   97.79
  -1  -3   1 1179.38   33.30
  -1  -3   1 1182.08   39.20
   0   3  -1 1507.15   38.90
   0   3  -1 1494.75   40.40
   0   3  -1 1552.04   38.00
   0   3  -1 1598.14  100.79
   0   3  -1 1500.85   36.30
   0   3  -1 1491.25   37.00
   0   3  -1 1568.64   37.10
   0  -3   1 1481.35   36.10
   0  -3   1 1520.95   36.70
   0  -3   1 1392.26  106.79
   0  -3   1 1525.95   41.30
   0  -3   1 1505.95   36.10
  -1   3  -1 7057.89  156.38
  -1   3  -1 7463.55  158.88
  -1   3  -1 7302.57  155.28
  -1   3  -1 7214.58  154.48
  -1   3  -1 7293.07  161.38
  -1   3  -1 7616.14  150.98
  -1   3  -1 6603.24  273.77
  -1   3  -1 7508.15  155.48
   1  -3   1 7176.88  155.08
   1  -3   1 7144.79  156.28
   1  -3   1 7244.08  157.88
   1  -3   1 7184.78  157.28
   1  -3   1 7948.40  157.88
  -2   3  -1 1287.47   41.10
  -2   3  -1 1318.87   39.50
  -2   3  -1 1401.76   43.10
  -2   3  -1 1254.77   30.20
  -2   3  -1 1305.37   37.50
   2  -3   1 1294.57   37.50
   2  -3   1 1305.97   38.80
   2  -3   1 1292.37   38.00
   2  -3   1 1363.76   41.80
   2  -3   1 1360.66   42.20
  -3   3  -1 1948.61   60.69
  -3   3  -1 1945.51   49.40
  -3   3  -1 2013.00   58.79
  -3   3  -1 1896.41   60.29
  -3   3  -1 2023.90   62.69
  -3   3  -1 1968.30   55.09
   3  -3   1 1989.00   56.29
   3  -3   1 1962.90   54.99
   3  -3   1 1912.41   48.40
   3  -3   1 1951.00   56.19
   3  -3   1 1936.71   61.69
   3  -3   1 1939.61   58.29
   3  -3   1 1862.21   59.09
  -4   3  -1  147.29   14.80
  -4   3  -1  163.48   11.70
  -4   3  -1  160.18   12.80
  -4   3  -1  175.38   16.30
  -4   3  -1  162.68   15.30
  -4   3  -1  179.98   14.90
   4  -3   1  164.08   16.30
   4  -3   1  161.58   10.80
   4  -3   1  182.48   14.90
   4  -3   1  168.28   13.60
   4  -3   1  176.48   13.90
   4  -3   1  170.18   15.10
  -5   3  -1 1667.73   62.29
  -5   3  -1 1704.73   63.19
  -5   3  -1 1705.43   53.09
  -5   3  -1 1611.34   58.19
  -5   3  -1 1665.13   60.99
  -5   3  -1 1596.44   54.69
   5  -3   1 1596.64   56.99
   5  -3   1 1739.73   56.39
   5  -3   1 1664.13   50.79
   5  -3   1 1622.94   62.79
  -6   3  -1    0.40    3.00
  -6   3  -1   -6.00    3.00
  -6   3  -1    8.00    5.10
  -6   3  -1   -2.80    3.40
   6  -3   1    5.70    3.10
   6  -3   1    3.50    3.40
   6  -3   1    6.00    3.20
  -7   3  -1    5.70    6.00
  -7   3  -1    3.50    3.50
  -7   3  -1   -7.60    4.10
  -7   3  -1    8.00    5.60
   7  -3   1    3.90    4.10
   7  -3   1    8.10    4.10
   7  -3   1   14.60    5.40
   7   2  -1  559.54   37.90
   7   2  -1  476.95   36.30
   7   2  -1  657.83   33.70
  -7  -2   1  604.44   36.40
   6   2  -1 1277.47   56.79
   6   2  -1 1315.37   50.29
   6   2  -1 1324.27   53.69
   6   2  -1 1404.16   50.89
  -6  -2   1 1238.08   54.29
  -6  -2   1 1255.17   49.30
   5   2  -1  215.38   20.10
   5   2  -1  256.97   18.30
   5   2  -1  228.98   19.40
   5   2  -1  254.97   18.80
   5   2  -1  246.48   18.30
  -5  -2   1  240.28   20.30
  -5  -2   1  248.88   21.60
  -5  -2   1  232.58   17.70
   4   2  -1  166.08   13.60
   4   2  -1  184.38   14.50
   4   2  -1  198.58   14.80
   4   2  -1  167.88   16.50
   4   2  -1  169.78   15.90
   4   2  -1  168.98   15.20
  -4  -2   1  174.08   14.40
  -4  -2   1  179.18   16.10
  -4  -2   1  166.98   13.80
  -4  -2   1  196.78   16.90
  -4  -2   1  204.38   18.30
   3   2  -1  392.96   19.80
   3   2  -1  390.56   22.20
   3   2  -1  395.86   19.90
   3   2  -1  399.06   20.30
   3   2  -1  364.16   21.80
   3   2  -1  406.36   23.60
  -3  -2   1  367.26   19.40
  -3  -2   1  424.36   20.80
  -3  -2   1  402.26   22.70
  -3  -2   1  392.96   20.90
  -3  -2   1  422.26   23.60
   2   2  -1  358.86   16.30
   2   2  -1  333.17   18.30
   2   2  -1  376.16   16.80
   2   2  -1  340.97   18.80
   2   2  -1  360.86   16.60
   2   2  -1  354.16   19.20
  -2  -2   1  358.16   16.60
  -2  -2   1  371.36   16.60
  -2  -2   1  355.96   18.30
  -2  -2   1  335.07   16.50
  -2  -2   1  380.76   19.90
   1   2  -1 1762.52   43.70
   1   2  -1 1773.22   47.80
   1   2  -1 1782.52   44.00
   1   2  -1 1759.42   43.90
   1   2  -1 1634.04   45.50
  -1  -2   1 1742.13   43.50
  -1  -2   1 1744.93   47.80
  -1  -2   1 1772.62   43.90
  -1  -2   1 1748.72   43.40
   0   2  -1 6773.82  141.59
   0   2  -1 6794.22  212.48
   0  -2   1 6639.14  141.69
   0  -2   1 6494.35  221.58
  -1   2  -1   31.60    4.00
  -1   2  -1   30.90    3.30
  -1   2  -1   28.00    3.20
  -1   2  -1   22.50    4.10
  -1   2  -1   23.00    3.90
  -1   2  -1   31.20   16.50
   1  -2   1   26.90    3.30
   1  -2   1   26.30    3.40
   1  -2   1   20.80    3.80
   1  -2   1   24.50    4.30
   1  -2   1   25.90    2.80
  -2   2  -1   22.40    4.70
  -2   2  -1   29.90    6.00
  -2   2  -1   31.40    6.00
  -2   2  -1   32.80    4.30
  -2   2  -1   34.20    3.60
  -2   2  -1   39.00    7.50
   2  -2   1   40.40    5.10
   2  -2   1   27.40    3.20
   2  -2   1   23.70    4.30
   2  -2   1   37.90    6.60
   2  -2   1   27.50    5.70
   2  -2   1   41.40    7.70
  -3   2  -1   29.80    6.80
  -3   2  -1   61.89   10.50
  -3   2  -1   34.40    9.20
  -3   2  -1   29.10    5.10
   3  -2   1   34.30    7.30
   3  -2   1   32.10    6.40
   3  -2   1   37.70    4.80
   3  -2   1   29.50    5.80
   3  -2   1   43.80    8.10
   3  -2   1   30.40    7.40
  -4   2  -1  593.74   29.50
  -4   2  -1  560.14   26.00
  -4   2  -1  626.24   31.50
  -4   2  -1  619.54   28.00
  -4   2  -1  617.74   33.00
  -4   2  -1  624.84   32.40
   4  -2   1  614.84   26.10
   4  -2   1  606.64   28.10
   4  -2   1  647.04   29.10
   4  -2   1  597.14   31.00
   4  -2   1  612.54   33.00
   4  -2   1  643.34   30.60
  -5   2  -1  332.57   20.80
  -5   2  -1  256.57   21.30
  -5   2  -1  249.38   18.30
  -5   2  -1  263.87   20.70
  -5   2  -1  265.47   21.20
  -5   2  -1  269.47   22.60
   5  -2   1  287.37   19.60
   5  -2   1  256.07   22.60
   5  -2   1  276.27   20.20
   5  -2   1  301.67   20.30
   5  -2   1  269.47   17.80
  -6   2  -1 2413.96   80.29
  -6   2  -1 2334.77   82.69
  -6   2  -1 2395.26   84.49
  -6   2  -1 2394.96   74.99
   6  -2   1 2529.05   78.69
   6  -2   1 2403.46   75.69
   6  -2   1 2435.56   73.39
  -7   2  -1  188.38   20.60
  -7   2  -1  188.58   19.30
  -7   2  -1  188.48   17.40
   7  -2   1  170.88   16.60
   7  -2   1  216.08   19.30
   7  -2   1  190.48   16.60
   7   1  -1    0.40    2.40
   7   1  -1   -1.10    3.10
   7   1  -1    4.70    4.20
  -7  -1   1    6.20    6.30
  -7  -1   1   -3.00    3.90
  -7  -1   1    4.40    3.60
   6   1  -1  240.38   18.70
   6   1  -1  231.68   22.20
   6   1  -1  251.27   20.00
   6   1  -1  254.27   19.40
  -6  -1   1  280.27   23.30
  -6  -1   1  233.48   18.70
  -6  -1   1  221.68   21.50
   5   1  -1   95.79   10.90
   5   1  -1  112.79   13.90
   5   1  -1   96.69   11.60
   5   1  -1  111.49   12.90
   5   1  -1   93.89   11.00
  -5  -1   1   63.19   12.00
  -5  -1   1   89.59   10.80
  -5  -1   1   81.19   16.10
  -5  -1   1  100.09   12.60
   4   1  -1  462.05   23.40
   4   1  -1  479.65   26.70
   4   1  -1  456.15   23.20
   4   1  -1  453.25   25.30
   4   1  -1  470.85   28.20
   4   1  -1  467.95   23.90
  -4  -1   1  474.25   26.00
  -4  -1   1  430.96   23.20
  -4  -1   1  473.45   23.90
  -4  -1   1  385.06   25.40
  -4  -1   1  466.65   25.80
  -4  -1   1  472.05   27.20
   3   1  -1 2819.52   97.09
   3   1  -1 3263.37   89.69
   3   1  -1 3252.07   82.79
   3   1  -1 3241.28   82.89
   3   1  -1 3263.37   87.19
  -3  -1   1 3231.18   88.19
  -3  -1   1 3279.27   83.09
  -3  -1   1 3325.87   86.99
  -3  -1   1 3134.59   90.09
  -3  -1   1 3164.58   84.59
  -3  -1   1 3365.66   83.39
   2   1  -1 5301.97  125.19
   2   1  -1 5488.05  122.19
   2   1  -1 5398.06  121.39
   2   1  -1 5482.45  125.29
   2   1  -1 5270.77  126.89
   2   1  -1 5331.47  121.59
  -2  -1   1 5585.14  122.49
  -2  -1   1 5213.88  121.19
  -2  -1   1 5118.99  121.79
  -2  -1   1 5492.15  126.29
   1   1  -1  430.66   16.70
   1   1  -1  406.46   15.80
   1   1  -1  431.26   14.70
   1   1  -1  430.06   14.50
   1   1  -1  419.26   15.90
  -1  -1   1  426.56   14.60
  -1  -1   1  439.36   16.00
  -1  -1   1  406.36   14.30
  -1  -1   1  424.26   16.00
   0   1  -1    1.20    2.20
   0   1  -1    0.20    0.40
   0   1  -1    0.30    0.40
   0   1  -1    0.40    0.40
   0   1  -1    0.20    0.40
   0   1  -1    1.00    0.50
   0  -1   1    0.00    0.30
   0  -1   1    0.60    0.50
   0  -1   1    0.50    0.50
   0  -1   1   -0.20    0.20
   0  -1   1   -1.60    1.60
  -1   1  -1   82.49    6.80
  -1   1  -1   89.89    7.30
  -1   1  -1   80.49    5.30
  -1   1  -1   80.39    6.30
  -1   1  -1   81.99    6.30
   1  -1   1   83.79    6.90
   1  -1   1   90.79    6.60
   1  -1   1   84.29    5.10
   1  -1   1   75.79    6.70
   1  -1   1   84.09    6.00
  -2   1  -1 3569.44   86.59
  -2   1  -1 3687.33   92.49
  -2   1  -1 3673.43   87.79
  -2   1  -1 3406.26   88.69
  -2   1  -1 3789.72   94.19
   2  -1   1 3624.34   87.79
   2  -1   1 3603.54   91.39
   2  -1   1 3702.03   86.19
   2  -1   1 3639.74   90.89
   2  -1   1 3724.73   93.89
   2  -1   1 3543.45   88.99
  -3   1  -1 6528.85  190.08
  -3   1  -1 7259.37  162.98
  -3   1  -1 7180.18  169.98
  -3   1  -1 7182.78  165.88
  -3   1  -1 7099.19  162.98
  -3   1  -1 7500.15  172.98
   3  -1   1 7072.59  162.18
   3  -1   1 7002.10  167.08
   3  -1   1 7058.29  163.68
   3  -1   1 7135.89  163.08
   3  -1   1 6689.03  166.58
  -4   1  -1  685.33   30.00
  -4   1  -1  610.94   30.40
  -4   1  -1  651.13   30.20
  -4   1  -1  627.74   34.20
  -4   1  -1  689.53   32.80
  -4   1  -1  651.63   33.70
   4  -1   1  703.83   31.00
   4  -1   1  631.24   34.30
   4  -1   1  683.83   30.30
   4  -1   1  691.43   33.50
   4  -1   1  629.34   36.80
   4  -1   1  660.03   29.60
  -5   1  -1   16.50    5.80
  -5   1  -1   17.30    6.70
  -5   1  -1   12.80    5.90
  -5   1  -1    7.70    5.30
  -5   1  -1   15.70    5.20
  -5   1  -1    8.80    3.90
   5  -1   1   13.50    4.90
   5  -1   1   16.30    4.70
   5  -1   1   11.60    4.50
   5  -1   1   12.30    4.50
   5  -1   1    6.00    4.60
  -6   1  -1   29.70    7.90
  -6   1  -1   30.00    9.00
  -6   1  -1   33.40    9.00
   6  -1   1   18.80    6.40
   6  -1   1   26.20    9.40
   6  -1   1   14.20    5.90
   6  -1   1   28.50    7.30
  -7   1  -1    2.60    3.00
  -7   1  -1    3.00    4.00
  -7   1  -1   -3.20    3.60
   7  -1   1    0.40    3.00
   7  -1   1    2.40    4.20
   7  -1   1   -3.20    4.10
   7   0  -1   15.80    5.30
   7   0  -1   10.80    4.80
   7   0  -1   14.90    6.70
  -7   0   1   20.50    6.50
  -7   0   1    9.70    6.30
  -7   0   1   11.50    5.00
   6   0  -1  528.65   36.40
   6   0  -1  483.45   32.90
   6   0  -1  500.95   28.20
   6   0  -1  501.65   28.80
  -6   0   1  524.85   32.20
  -6   0   1  541.65   32.20
  -6   0   1  504.55   31.70
  -6   0   1  556.54   29.10
   5   0  -1 4598.94  128.59
   5   0  -1 4285.27  122.89
   5   0  -1 4587.24  118.19
   5   0  -1 4539.85  116.59
   5   0  -1 4734.73  120.19
   5   0  -1 4657.43  118.39
  -5   0   1 4369.76  123.89
  -5   0   1 4559.34  119.49
  -5   0   1 4473.25  117.19
  -5   0   1 4773.42  126.69
  -5   0   1 4470.25  123.09
  -5   0   1 4516.85  120.59
   4   0  -1  371.66   23.40
   4   0  -1  383.36   20.80
   4   0  -1  324.07   23.10
   4   0  -1  399.06   21.50
   4   0  -1  391.46   21.70
   4   0  -1  377.56   20.40
  -4   0   1  367.16   20.90
  -4   0   1  336.17   22.40
  -4   0   1  408.96   23.60
  -4   0   1  388.66   22.00
  -4   0   1  386.96   20.80
   3   0  -1   52.69    6.90
   3   0  -1   68.09    7.20
   3   0  -1   59.09    8.10
   3   0  -1   68.59    7.20
   3   0  -1   68.69    8.50
  -3   0   1   55.69    6.60
  -3   0   1   53.59    6.50
  -3   0   1   64.19    8.20
  -3   0   1   56.69    7.20
  -3   0   1   66.99    7.70
  -3   0   1   73.59    9.00
   2   0  -1 1135.79   36.50
   2   0  -1 1146.89   33.60
   2   0  -1 1163.98   37.90
   2   0  -1 1177.28   35.10
   2   0  -1 1233.58   34.60
   2   0  -1 1184.58   34.30
  -2   0   1 1161.28   36.90
  -2   0   1 1183.58   35.30
  -2   0   1 1166.68   37.30
  -2   0   1 1191.78   35.00
  -2   0   1 1152.28   34.00
  -2   0   1 1170.28   34.10
   1   0  -1   10.80    2.10
   1   0  -1    5.20    1.70
   1   0  -1    3.90    1.20
   1   0  -1    7.00    1.70
   1   0  -1    4.30    1.40
   1   0  -1    4.00    1.30
   1   0  -1    5.10    1.50
  -1   0   1    5.50    1.40
  -1   0   1    6.90    1.70
  -1   0   1    9.20    2.10
  -1   0   1    5.30    1.50
  -1   0   1    7.70    1.80
  -1   0   1   11.60    2.50
  -1   0   1    3.80    1.10
   0   0  -1    1.50    0.70
   0   0  -1    1.40    0.60
   0   0  -1    2.80    1.10
   0   0  -1    2.40    0.80
   0   0   1    0.60    0.50
   0   0   1    1.30    0.40
   0   0   1    2.40    0.90
   0   0   1    1.60    0.70
   0   0   1    1.00    0.60
  -1   0  -1 4293.67   97.79
  -1   0  -1 4411.96   99.49
  -1   0  -1 4221.08  100.39
  -1   0  -1 4244.88  100.89
  -1   0  -1 4519.85   98.79
   1   0   1 4059.89   98.09
   1   0   1 4515.25  100.79
   1   0   1 4468.25  101.29
   1   0   1 4546.04   99.79
  -2   0  -1  354.56   22.30
  -2   0  -1  428.36   19.90
  -2   0  -1  412.56   21.80
  -2   0  -1  387.96   20.30
  -2   0  -1  390.26   19.90
   2   0   1  441.76   19.80
   2   0   1  408.26   18.50
   2   0   1  422.46   21.90
   2   0   1  445.86   20.70
   2   0   1  400.46   20.10
   2   0   1  398.66   19.50
  -3   0  -1   69.09    7.90
  -3   0  -1   44.80    8.30
  -3   0  -1   68.59    8.30
  -3   0  -1   41.60    7.90
  -3   0  -1   73.09    8.80
  -3   0  -1   55.29    9.90
   3   0   1   50.89    8.70
   3   0   1   64.19    8.30
   3   0   1   37.10    7.00
   3   0   1   63.79   11.20
   3   0   1   69.69    7.80
   3   0   1   40.60    9.70
  -4   0  -1 1357.26   50.29
  -4   0  -1 1306.47   50.79
  -4   0  -1 1354.66   47.40
  -4   0  -1 1379.56   52.69
  -4   0  -1 1351.06   50.19
  -4   0  -1 1291.47   52.99
   4   0   1 1286.77   47.00
   4   0   1 1396.66   49.80
   4   0   1 1430.76   48.00
   4   0   1 1311.47   53.39
   4   0   1 1371.86   49.90
   4   0   1 1272.67   50.09
  -5   0  -1  762.12   40.40
  -5   0  -1  712.13   38.20
  -5   0  -1  738.43   34.50
  -5   0  -1  775.22   37.80
   5   0   1  773.52   35.20
   5   0   1  736.33   34.90
   5   0   1  776.32   36.50
   5   0   1  835.62   37.70
   5   0   1  805.02   41.70
  -6   0  -1 1611.94   57.19
  -6   0  -1 1564.54   64.29
  -6   0  -1 1533.05   60.29
   6   0   1 1544.05   58.69
   6   0   1 1470.35   89.69
   6   0   1 1520.35   56.09
   6   0   1 1641.14   67.79
  -7   0  -1  347.47   29.00
  -7   0  -1  413.06   26.20
  -7   0  -1  409.06   28.80
   7   0   1  419.06   27.30
   7   0   1  370.56   26.40
   7   0   1  432.56   26.70
   8  -1  -1    0.00    4.00
   8  -1  -1   -3.80    3.40
   8  -1  -1   -7.80    2.90
   8  -1  -1    1.90    4.50
  -8   1   1   -1.40    4.20
  -8   1   1    6.90    5.00
  -8   1   1    8.40    8.30
   7  -1  -1  527.95   29.70
   7  -1  -1  553.64   29.70
   7  -1  -1  548.65   30.50
  -7   1   1  489.55   28.70
  -7   1   1  495.05   33.60
  -7   1   1  539.15   33.40
   6  -1  -1   55.19   10.00
   6  -1  -1   47.90    8.90
   6  -1  -1   79.59   14.90
   6  -1  -1   65.69   11.30
  -6   1   1   81.59   14.50
  -6   1   1   71.59   13.30
  -6   1   1   68.09   13.70
  -6   1   1   45.30    8.60
   5  -1  -1   46.80   10.10
   5  -1  -1   66.19   13.20
   5  -1  -1   72.79    9.20
   5  -1  -1   65.69   10.50
   5  -1  -1   82.59   13.40
   5  -1  -1   82.49    9.60
  -5   1   1   74.69   13.30
  -5   1   1   65.69    8.90
  -5   1   1   74.09   13.80
  -5   1   1   50.49    9.80
  -5   1   1   50.39    9.70
  -5   1   1   56.89    9.60
   4  -1  -1 3067.59   80.69
   4  -1  -1 3002.40   80.39
   4  -1  -1 2889.11   85.39
   4  -1  -1 3032.70   89.49
   4  -1  -1 2987.60   80.59
  -4   1   1 3055.49   81.69
  -4   1   1 2829.52   85.79
  -4   1   1 2911.21   79.69
  -4   1   1 3036.80   86.19
  -4   1   1 3025.00   82.19
  -4   1   1 3015.10   84.89
   3  -1  -1 1238.68   38.70
   3  -1  -1 1290.87   38.70
   3  -1  -1 1269.87   38.90
   3  -1  -1 1201.98   39.00
   3  -1  -1 1255.97   39.00
   3  -1  -1 1246.98   42.70
   3  -1  -1 1226.28   43.70
  -3   1   1 1255.37   42.70
  -3   1   1 1203.68   38.20
  -3   1   1 1226.58   40.90
  -3   1   1 1155.28   40.00
  -3   1   1 1232.48   43.00
  -3   1   1 1152.28   38.50
   2  -1  -1 6087.39  131.09
   2  -1  -1 6222.78  133.09
   2  -1  -1 5972.40  135.49
   2  -1  -1 5912.41  130.09
   2  -1  -1 5943.60  129.59
   2  -1  -1 5852.91  129.99
   2  -1  -1 5372.36  132.89
  -2   1   1 5686.53  133.89
  -2   1   1 5980.10  129.99
  -2   1   1 5817.52  130.19
  -2   1   1 5852.01  130.79
  -2   1   1 5898.51  131.69
  -2   1   1 6263.67  134.99
   1  -1  -1  130.39    5.90
   1  -1  -1  138.99    8.40
   1  -1  -1  136.59    5.90
   1  -1  -1  130.99    6.80
   1  -1  -1  136.29    6.20
   1  -1  -1  137.79    6.70
  -1   1   1  145.29    7.10
  -1   1   1  127.39    7.90
  -1   1   1  131.39    5.80
  -1   1   1  133.79    5.80
  -1   1   1  126.19    6.10
  -1   1   1  145.29    6.80
   0  -1  -1    6.60    6.10
   0  -1  -1    6.70    1.60
   0  -1  -1    6.40    1.30
   0  -1  -1    4.30    1.20
   0   1   1    6.70    1.50
   0   1   1    7.10    2.10
   0   1   1    5.20    1.40
   0   1   1    6.60    1.30
   0   1   1   15.20    7.60
   0   1   1    6.30    2.50
  -1  -1  -1 4294.57  104.59
  -1  -1  -1 4243.58   98.09
  -1  -1  -1 4366.56   97.29
  -1  -1  -1 4323.47   99.79
  -1  -1  -1 4393.16   98.89
   1   1   1 4269.37   97.89
   1   1   1 4293.17   98.09
   1   1   1 4012.00   99.99
   1   1   1 4291.47   99.69
   1   1   1 4352.56  104.19
   1   1   1 4283.57   96.99
  -2  -1  -1  195.68   12.90
  -2  -1  -1  186.68   13.70
  -2  -1  -1  197.48   14.70
  -2  -1  -1  199.48   13.40
  -2  -1  -1  185.18   12.20
  -2  -1  -1  211.08   15.20
   2   1   1  204.08   13.80
   2   1   1  195.88   12.70
   2   1   1  185.28   14.00
   2   1   1  213.98   15.20
   2   1   1  186.78   12.00
   2   1   1  199.78   13.60
  -3  -1  -1  401.16   23.60
  -3  -1  -1  412.16   21.50
  -3  -1  -1  411.86   22.20
  -3  -1  -1  429.76   24.80
  -3  -1  -1  436.26   25.60
  -3  -1  -1  448.56   24.00
   3   1   1  438.16   23.80
   3   1   1  386.76   21.10
   3   1   1  411.76   23.90
   3   1   1  439.76   23.30
   3   1   1  426.56   25.40
   3   1   1  455.15   22.20
  -4  -1  -1 2215.18   71.09
  -4  -1  -1 2309.57   75.19
  -4  -1  -1 2431.46   74.29
  -4  -1  -1 2227.78   74.59
  -4  -1  -1 2437.06   78.59
  -4  -1  -1 2425.86   70.69
   4   1   1 2371.06   72.39
   4   1   1 2290.87   69.89
   4   1   1 2350.66   69.89
   4   1   1 2415.56   74.69
   4   1   1 2342.37   77.99
   4   1   1 2378.56   75.59
  -5  -1  -1   -2.40    4.10
  -5  -1  -1    5.60    4.90
  -5  -1  -1    9.90    4.30
   5   1   1    0.10    2.60
   5   1   1    7.60    3.50
   5   1   1    5.10    4.20
   5   1   1    2.80    4.80
   5   1   1   -1.20    2.90
  -6  -1  -1    6.10    3.50
  -6  -1  -1   -3.40    3.50
  -6  -1  -1   10.60    5.80
   6   1   1    0.50    6.20
   6   1   1   -0.20    2.60
   6   1   1    9.60    5.30
   6   1   1    9.80    4.20
  -7  -1  -1  750.82   42.50
  -7  -1  -1  699.73   36.70
  -7  -1  -1  768.52   41.60
   7   1   1  760.22   43.10
   7   1   1  765.82   37.90
   7   1   1  800.02   39.30
   8  -2  -1  111.09   13.10
   8  -2  -1  117.39   13.40
   8  -2  -1  127.09   14.00
   8  -2  -1   95.29   16.70
  -8   2   1   88.19   15.10
  -8   2   1   94.99   17.70
  -8   2   1   77.69   13.90
   7  -2  -1 1364.66   50.19
   7  -2  -1 1340.27   50.59
   7  -2  -1 1346.37   52.59
   7  -2  -1 1405.16   52.19
  -7   2   1 1299.27   55.99
  -7   2   1 1397.46   58.39
  -7   2   1 1243.58   56.99
  -7   2   1 1330.37   50.89
   6  -2  -1   14.60    5.20
   6  -2  -1    3.70    2.90
   6  -2  -1    4.40    2.30
  -6   2   1    1.00    4.40
  -6   2   1    4.50    4.60
  -6   2   1    4.50    4.40
  -6   2   1    6.20    3.80
  -6   2   1    6.10    5.80
  -6   2   1   12.80    7.30
   5  -2  -1   74.99    9.00
   5  -2  -1   79.49    9.40
   5  -2  -1   74.49    9.10
   5  -2  -1   64.59    8.50
   5  -2  -1   63.29   11.50
   5  -2  -1   65.69   11.80
  -5   2   1   58.49   11.00
  -5   2   1   86.29   10.40
  -5   2   1   67.69   12.10
  -5   2   1   70.39    8.80
  -5   2   1   74.89   13.10
  -5   2   1   65.69    8.50
   4  -2  -1 2443.36   76.19
   4  -2  -1 2621.74   68.39
   4  -2  -1 2436.16   73.79
   4  -2  -1 2539.35   68.79
   4  -2  -1 2449.85   66.59
   4  -2  -1 2348.97   69.59
   4  -2  -1 2408.26   68.19
  -4   2   1 2395.16   69.69
  -4   2   1 2537.55   75.19
  -4   2   1 2536.95   74.69
  -4   2   1 2430.26   72.59
  -4   2   1 2424.66   67.79
  -4   2   1 2476.75   67.39
   3  -2  -1   25.10    5.10
   3  -2  -1   29.40    6.30
   3  -2  -1   18.20    4.60
   3  -2  -1   27.90    5.30
   3  -2  -1   31.10    5.20
   3  -2  -1   32.80    4.50
   3  -2  -1   24.20    5.50
  -3   2   1   28.40    6.20
  -3   2   1   32.20    5.70
  -3   2   1   18.60    4.50
  -3   2   1   25.30    4.80
  -3   2   1   13.30    4.20
  -3   2   1   28.00    4.80
   2  -2  -1   51.09    6.00
   2  -2  -1   36.20    4.20
   2  -2  -1   57.69    5.80
   2  -2  -1   58.09    4.60
   2  -2  -1   51.29    4.60
   2  -2  -1   64.49    6.30
  -2   2   1   46.40    7.10
  -2   2   1   52.89    5.20
  -2   2   1   53.49    4.90
  -2   2   1   60.09    5.80
  -2   2   1   48.80    5.70
  -2   2   1   41.00    4.40
  -2   2   1   53.49    4.60
   1  -2  -1 8873.61  175.68
   1  -2  -1 8608.14  175.68
   1  -2  -1 8548.84  187.38
   1  -2  -1 8683.63  179.88
   1  -2  -1 8646.74  177.58
   1  -2  -1 8578.04  175.98
  -1   2   1 8902.81  176.68
  -1   2   1 8301.17  180.68
  -1   2   1 8618.14  187.18
  -1   2   1 8575.54  176.38
  -1   2   1 8491.75  175.68
  -1   2   1 7647.23  283.97
   0  -2  -1 1296.07   31.10
   0  -2  -1 1290.87   32.00
   0  -2  -1 1355.86   91.69
   0   2   1 1276.37   31.80
   0   2   1 1280.57   31.10
   0   2   1 1465.15   84.79
   0   2   1 1280.37   31.80
   0   2   1 1310.77   41.80
   0   2   1 1280.47   39.10
   0   2   1 1207.28   30.80
  -1  -2  -1  466.45   20.10
  -1  -2  -1  606.84   56.69
  -1  -2  -1  482.15   18.10
  -1  -2  -1  484.65   19.50
  -1  -2  -1  464.95   21.90
  -1  -2  -1  500.75   24.90
   1   2   1  489.35   19.10
   1   2   1  471.05   20.20
   1   2   1  487.45   19.80
   1   2   1  488.55   18.20
   1   2   1  492.55   24.20
   1   2   1  484.05   18.20
  -2  -2  -1  102.99   11.80
  -2  -2  -1  119.99   10.10
  -2  -2  -1  138.89   15.60
  -2  -2  -1  144.69   10.70
  -2  -2  -1  119.79   10.70
   2   2   1  132.39   10.00
   2   2   1  131.09   11.00
   2   2   1  147.79   12.60
   2   2   1  136.69   10.30
   2   2   1  133.39   12.90
   2   2   1  131.49   10.60
  -3  -2  -1    0.70    1.40
  -3  -2  -1    1.20    2.10
  -3  -2  -1    3.20    2.50
  -3  -2  -1   -1.50    2.20
  -3  -2  -1    5.10    4.70
   3   2   1    2.00    1.60
   3   2   1    4.90    3.70
   3   2   1   -1.00    2.50
   3   2   1    1.40    1.50
   3   2   1   -1.10    2.00
   3   2   1   -1.10    1.50
  -4  -2  -1  989.30   42.90
  -4  -2  -1 1025.40   44.90
  -4  -2  -1 1028.80   40.10
   4   2   1  983.00   41.80
   4   2   1  982.40   39.20
   4   2   1  996.60   39.40
   4   2   1  933.61   43.60
   4   2   1 1002.80   40.70
   4   2   1  994.60   45.20
  -5  -2  -1  609.44   34.00
  -5  -2  -1  557.44   33.90
  -5  -2  -1  590.84   30.70
   5   2   1  592.54   31.10
   5   2   1  570.94   30.00
   5   2   1  613.44   34.50
   5   2   1  635.54   36.40
   5   2   1  585.84   30.10
  -6  -2  -1  644.94   38.30
  -6  -2  -1  615.94   33.10
   6   2   1  647.84   38.90
   6   2   1  639.64   32.90
   6   2   1  679.83   34.60
   6   2   1  670.43   36.80
   8  -3  -1  472.05   27.80
   8  -3  -1  465.45   31.80
   8  -3  -1  513.85   27.50
   8  -3  -1  486.35   28.00
  -8   3   1  475.05   28.60
  -8   3   1  450.05   31.00
  -8   3   1  473.25   38.10
   7  -3  -1   30.30    7.70
   7  -3  -1   22.90    6.50
   7  -3  -1   26.30    7.60
   7  -3  -1   26.20    6.70
  -7   3   1   44.60   10.80
  -7   3   1   24.40    7.30
  -7   3   1   22.10    8.40
  -7   3   1   19.40    5.70
   6  -3  -1   20.20    5.80
   6  -3  -1   13.00    5.40
   6  -3  -1    9.20    4.40
  -6   3   1   17.30    5.00
  -6   3   1   27.90    7.70
  -6   3   1   21.00    7.80
  -6   3   1   19.80    8.10
  -6   3   1   10.20    4.40
  -6   3   1   21.40    6.80
   5  -3  -1  940.51   38.60
   5  -3  -1  909.91   36.50
   5  -3  -1  879.21   41.80
   5  -3  -1  928.21   33.80
   5  -3  -1  925.71   40.90
   5  -3  -1  898.41   35.60
  -5   3   1  917.51   35.50
  -5   3   1  944.01   38.50
  -5   3   1  949.01   41.30
  -5   3   1  947.81   41.40
  -5   3   1  961.10   41.40
  -5   3   1  928.01   34.70
   4  -3  -1 3203.68   87.99
   4  -3  -1 3218.78   83.39
   4  -3  -1 3307.37   82.29
   4  -3  -1 3247.58   82.89
   4  -3  -1 3083.99   90.49
   4  -3  -1 3274.97   80.89
   4  -3  -1 3236.08   89.09
  -4   3   1 3207.28   81.29
  -4   3   1 3193.68   88.79
  -4   3   1 3372.86   82.89
  -4   3   1 3145.49   88.79
  -4   3   1 3166.48   90.09
  -4   3   1 3267.07   85.89
   3  -3  -1 2002.60   52.59
   3  -3  -1 1944.11   56.59
   3  -3  -1 1965.00   50.79
   3  -3  -1 1892.51   57.39
  -3   3   1 1948.71   51.29
  -3   3   1 1969.30   56.19
  -3   3   1 1971.10   53.69
  -3   3   1 1906.71   55.69
  -3   3   1 1948.71   51.59
  -3   3   1 1972.60   55.99
  -3   3   1 1979.90   58.49
   2  -3  -1  416.36   17.70
   2  -3  -1  451.35   21.50
   2  -3  -1  418.36   14.60
   2  -3  -1  422.46   14.10
   2  -3  -1  429.36   17.10
  -2   3   1  443.16   16.30
  -2   3   1  426.96   15.30
  -2   3   1  454.65   19.80
  -2   3   1  368.26   62.49
  -2   3   1  415.06   16.20
  -2   3   1  441.76   20.40
  -2   3   1  418.66   16.60
  -2   3   1  447.26   14.10
   1  -3  -1  381.46   18.70
   1  -3  -1  289.57   53.39
  -1   3   1  351.66   20.20
  -1   3   1  402.36   15.30
  -1   3   1  342.37   51.59
   0  -3  -1  497.55   65.09
   0  -3  -1  453.55   13.50
   0  -3  -1  478.55   13.90
   0   3   1  473.85   14.60
   0   3   1  573.34   59.49
   0   3   1  445.76   13.20
   0   3   1  465.45   13.70
   0   3   1  475.25   13.70
   0   3   1  452.45   21.70
   0   3   1  479.55   23.90
  -1  -3  -1  421.26   16.90
  -1  -3  -1  428.16   17.50
  -1  -3  -1  393.46   17.40
  -1  -3  -1  486.05   60.19
  -1  -3  -1  421.46   24.60
  -1  -3  -1  398.36   18.10
   1   3   1  428.16   16.70
   1   3   1  418.66   23.90
   1   3   1  440.86   19.30
   1   3   1  446.96   17.10
   1   3   1  460.45   17.50
   1   3   1  406.16   19.70
  -2  -3  -1 6156.78  147.39
  -2  -3  -1 6356.56  152.78
  -2  -3  -1 6334.37  162.18
  -2  -3  -1 6433.06  151.28
  -2  -3  -1 7547.54  272.77
  -2  -3  -1 6480.85  149.09
   2   3   1 6204.68  148.09
   2   3   1 6418.56  160.78
   2   3   1 6203.88  146.89
   2   3   1 6407.36  151.98
   2   3   1 6695.53  148.19
  -3  -3  -1  117.79   12.30
  -3  -3  -1  142.69   15.30
  -3  -3  -1  107.79   11.10
  -3  -3  -1  139.29   11.80
  -3  -3  -1  116.09   12.50
   3   3   1  144.49   13.00
   3   3   1  138.49   13.70
   3   3   1  111.29   10.60
   3   3   1  136.79   15.20
   3   3   1  127.09   11.20
   3   3   1  113.79   11.10
  -4  -3  -1  249.88   20.40
  -4  -3  -1  271.37   18.70
   4   3   1  272.97   22.60
   4   3   1  267.97   18.60
   4   3   1  254.47   17.70
   4   3   1  232.18   17.30
   4   3   1  243.88   20.30
  -5  -3  -1   13.20    6.80
  -5  -3  -1   28.10    8.00
   5   3   1   28.50    7.30
   5   3   1   18.50    7.20
   5   3   1   15.20    5.40
   5   3   1   28.40    7.70
   5   3   1   38.60    8.80
  -6  -3  -1    3.80    5.50
   6   3   1   -5.60    2.70
   6   3   1    1.10    3.50
   6   3   1    2.00    3.30
   8  -4  -1    4.30    4.50
   8  -4  -1   21.20    7.00
   8  -4  -1   18.40    5.50
   8  -4  -1    8.20    4.90
  -8   4   1   12.90    6.40
  -8   4   1    1.30    3.30
  -8   4   1    8.20    6.70
   7  -4  -1   56.99   10.00
   7  -4  -1   57.99    7.90
   7  -4  -1   36.50    9.70
   7  -4  -1   45.60    9.00
  -7   4   1   69.09   13.50
  -7   4   1   76.09   14.40
  -7   4   1   41.20    9.70
  -7   4   1   45.80    9.20
  -7   4   1   54.19   11.40
  -7   4   1   38.70   10.10
   6  -4  -1 1854.91   59.39
   6  -4  -1 1924.31   60.79
   6  -4  -1 1983.00   66.59
   6  -4  -1 1910.21   57.39
  -6   4   1 2028.00   70.29
  -6   4   1 1954.10   65.69
  -6   4   1 2071.49   61.69
  -6   4   1 1941.81   59.09
  -6   4   1 2018.80   68.69
   5  -4  -1  464.95   26.60
   5  -4  -1  481.35   21.20
   5  -4  -1  541.45   23.60
   5  -4  -1  472.15   24.00
   5  -4  -1  456.15   26.30
   5  -4  -1  484.75   23.10
  -5   4   1  476.45   27.50
  -5   4   1  438.06   25.90
  -5   4   1  461.55   22.70
  -5   4   1  462.85   25.10
  -5   4   1  456.65   21.30
  -5   4   1  446.56   27.10
   4  -4  -1   24.50    5.50
   4  -4  -1   26.30    5.00
   4  -4  -1   30.50    7.50
   4  -4  -1   36.10    8.00
   4  -4  -1   35.90    7.10
  -4   4   1   23.30    5.70
  -4   4   1   23.20    5.80
  -4   4   1   29.30    5.60
  -4   4   1   27.00    6.10
  -4   4   1   27.10    5.00
  -4   4   1   24.50    6.50
   3  -4  -1   24.00    4.30
   3  -4  -1   22.40    5.20
   3  -4  -1   26.70    5.10
   3  -4  -1   23.00    4.00
   3  -4  -1   45.30    8.90
   3  -4  -1   20.30    3.50
  -3   4   1   12.80    5.20
  -3   4   1   15.60    3.40
  -3   4   1   22.90    4.90
  -3   4   1   26.20    5.30
  -3   4   1   29.60   23.50
  -3   4   1   15.50    4.70
  -3   4   1   24.40    4.80
   2  -4  -1  671.93   29.40
   2  -4  -1  688.33   18.30
   2  -4  -1  675.93   24.60
   2  -4  -1  685.33   17.90
   2  -4  -1  698.43   17.50
   2  -4  -1  710.23   20.20
  -2   4   1  705.73   26.60
  -2   4   1  663.73   19.90
  -2   4   1  613.34   85.99
  -2   4   1  703.53   28.70
  -2   4   1  663.43   21.10
   1  -4  -1 2397.76  176.18
   1  -4  -1 2556.24   70.79
  -1   4   1 2548.95  160.68
  -1   4   1 2546.75   64.39
  -1   4   1 2637.34   72.19
  -1   4   1 2661.73   73.59
   0  -4  -1 4222.18  233.98
   0   4   1 4347.37  113.89
   0   4   1 5212.68  218.48
  -1  -4  -1 1141.49   33.40
  -1  -4  -1 1114.29   33.40
  -1  -4  -1 1166.18   48.10
  -1  -4  -1 1039.10   38.60
  -1  -4  -1 1111.49   33.70
  -1  -4  -1 1186.08  110.39
   1   4   1 1090.89   35.00
   1   4   1 1119.79   32.00
   1   4   1 1127.29   39.20
   1   4   1 1078.89   31.80
   1   4   1 1140.39   32.70
   1   4   1 1103.09   44.60
   1   4   1 1094.79   40.80
  -2  -4  -1  297.27   17.80
  -2  -4  -1  322.87   23.80
  -2  -4  -1  328.77   55.89
  -2  -4  -1  297.47   17.20
  -2  -4  -1  329.37   17.00
  -2  -4  -1  306.07   18.20
   2   4   1  288.37   22.30
   2   4   1  311.87   16.40
   2   4   1  332.87   16.70
   2   4   1  348.27   19.90
   2   4   1  321.97   16.40
   2   4   1  308.27   18.70
  -3  -4  -1 1102.19  105.49
  -3  -4  -1 1054.59   41.70
  -3  -4  -1 1031.10   37.90
   3   4   1 1013.00   38.30
   3   4   1  943.71   60.69
   3   4   1 1020.10   40.70
   3   4   1 1031.30   37.10
   3   4   1 1023.50   37.20
   3   4   1 1017.20   46.20
  -4  -4  -1  278.97   18.90
  -4  -4  -1  270.67   27.80
  -4  -4  -1  286.27   55.29
   4   4   1  242.38   20.00
   4   4   1  279.47   18.70
   4   4   1  247.58   17.60
   4   4   1  249.78   17.50
   4   4   1  233.58   21.80
  -5  -4  -1  607.74   31.20
  -5  -4  -1  566.94   33.20
   5   4   1  606.34   30.10
   5   4   1  540.55   33.10
   5   4   1  632.84   37.40
   5   4   1  637.74   30.40
   5   4   1  614.24   30.70
   8  -5  -1   88.59   14.50
   8  -5  -1   97.99   12.40
   8  -5  -1   78.89   13.90
  -8   5   1  130.99   15.80
  -8   5   1  100.59   13.40
  -8   5   1   98.59   11.70
   7  -5  -1  175.68   14.70
   7  -5  -1  171.88   17.10
   7  -5  -1  159.48   14.40
  -7   5   1  191.88   18.30
  -7   5   1  140.69   17.70
  -7   5   1  162.78   13.90
  -7   5   1  179.88   17.30
  -7   5   1  168.48   14.40
   6  -5  -1  326.57   22.90
   6  -5  -1  258.37   21.60
   6  -5  -1  307.27   18.80
  -6   5   1  324.07   18.20
  -6   5   1  286.87   21.50
  -6   5   1  317.97   21.20
  -6   5   1  295.97   23.10
  -6   5   1  344.47   19.50
  -6   5   1  340.17   24.00
   5  -5  -1  304.97   16.60
   5  -5  -1  303.37   21.40
   5  -5  -1  286.17   22.90
   5  -5  -1  260.57   16.20
  -5   5   1  312.57   21.30
  -5   5   1  319.27   21.90
  -5   5   1  327.27   19.90
  -5   5   1  311.07   16.00
  -5   5   1  287.87   16.30
  -5   5   1  293.57   19.50
   4  -5  -1 1077.89   32.30
   4  -5  -1  950.80   40.90
   4  -5  -1  981.40   37.80
   4  -5  -1  996.60   38.60
   4  -5  -1 1056.29   32.60
   4  -5  -1 1045.10   34.40
  -4   5   1 1036.70   32.10
  -4   5   1 1030.30   32.70
  -4   5   1 1044.00   36.10
  -4   5   1 1058.59   39.20
  -4   5   1 1067.39   41.50
  -4   5   1 1056.29   37.10
   3  -5  -1 2184.28   53.19
   3  -5  -1 2251.97   69.29
   3  -5  -1 2257.27   58.39
   3  -5  -1 2320.87   53.09
   3  -5  -1 2210.28   61.69
   3  -5  -1 2254.17   54.79
  -3   5   1 2164.58   64.79
  -3   5   1 2329.87   57.29
  -3   5   1 2242.88   56.09
  -3   5   1 2236.58   65.89
  -3   5   1 2293.07   59.69
   2  -5  -1   47.10    8.60
  -2   5   1   34.40    7.30
  -2   5   1   23.90   22.60
  -2   5   1   29.30    6.60
   1  -5  -1  487.35   23.90
   1  -5  -1  353.26   70.89
  -1   5   1  471.85   68.89
  -1   5   1  451.85   19.90
  -1   5   1  489.55   25.00
   0  -5  -1  889.31  110.59
   0   5   1  905.91   39.20
   0   5   1  939.31   37.90
  -1  -5  -1   51.49    5.20
  -1  -5  -1   41.40    4.40
  -1  -5  -1   46.00   28.60
   1   5   1   33.30    8.90
   1   5   1   33.00    4.00
   1   5   1   45.90    8.50
   1   5   1   45.70    4.50
   1   5   1   53.59   10.80
   1   5   1   39.10    5.00
  -2  -5  -1   83.99    8.60
  -2  -5  -1   84.99    8.20
  -2  -5  -1   87.99   40.00
  -2  -5  -1   85.39    8.40
   2   5   1   99.49   15.90
   2   5   1  103.99    8.50
   2   5   1   86.69   11.70
   2   5   1   84.69    8.90
   2   5   1   91.19   10.80
   2   5   1   81.09    7.70
   2   5   1   86.19    8.20
  -3  -5  -1 1220.18  119.99
  -3  -5  -1 1098.89   42.00
  -3  -5  -1 1154.38   40.40
   3   5   1 1113.59   38.80
   3   5   1 1142.69   39.60
   3   5   1 1138.99   44.00
   3   5   1 1122.09   50.59
   3   5   1 1143.09   39.40
  -4  -5  -1  800.72   34.50
  -4  -5  -1  776.62   36.30
  -4  -5  -1  873.21  102.49
   4   5   1  802.52   37.80
   4   5   1  799.82   33.20
   4   5   1  804.92   43.10
   4   5   1  789.72   33.30
   4   5   1  807.72   33.80
   7  -6  -1   46.30    8.00
   7  -6  -1   33.40    7.40
   7  -6  -1   50.49   11.20
  -7   6   1   46.40    9.40
  -7   6   1   49.30    8.20
  -7   6   1   39.60    9.40
  -7   6   1   42.80    9.00
  -7   6   1   37.30    9.20
  -7   6   1   53.09   11.10
   6  -6  -1    4.80    2.90
   6  -6  -1    5.60    4.00
   6  -6  -1    2.70    2.40
  -6   6   1    6.20    3.60
  -6   6   1   13.30    5.80
  -6   6   1    5.20    3.30
  -6   6   1    7.60    4.10
  -6   6   1    1.90    2.70
  -6   6   1    2.90    4.10
   5  -6  -1  556.44   22.00
   5  -6  -1  539.35   22.10
   5  -6  -1  537.75   30.40
  -5   6   1  537.95   25.80
  -5   6   1  557.84   25.90
  -5   6   1  521.75   27.60
  -5   6   1  518.95   21.30
  -5   6   1  568.64   30.40
  -5   6   1  541.45   21.90
   4  -6  -1  318.87   13.60
   4  -6  -1  319.07   15.00
   4  -6  -1  282.47   21.00
   4  -6  -1  286.77   17.60
  -4   6   1  299.67   15.60
  -4   6   1  318.07   20.80
  -4   6   1  289.77   14.70
  -4   6   1  316.17   17.60
  -4   6   1  306.77   15.90
  -4   6   1  322.17   13.10
  -4   6   1  286.27   18.60
   3  -6  -1  277.77   19.60
  -3   6   1  302.37   15.00
  -3   6   1  294.47   11.00
  -3   6   1  300.07   22.60
  -3   6   1  299.17   18.70
  -3   6   1  271.97   11.70
  -3   6   1  314.37   19.00
   2  -6  -1 1134.19  140.39
   2  -6  -1 1489.15   50.69
  -2   6   1 1398.46  136.89
  -2   6   1 1458.55   49.60
  -2   6   1 1566.44   47.30
   1  -6  -1 1088.69  135.79
  -1   6   1 1306.07   41.80
  -1   6   1 1344.77   48.90
  -1   6   1 1402.06  123.59
  -1   6   1 1361.66   48.60
   0  -6  -1  513.15   89.89
   0   6   1  550.64   28.40
   0   6   1  539.95   29.60
   0   6   1  524.65   23.70
  -1  -6  -1  -12.70   13.10
  -1  -6  -1    2.10    1.90
   1   6   1    5.40    3.50
   1   6   1    9.10    5.00
   1   6   1    2.00    3.50
   1   6   1    3.40    1.80
   1   6   1    9.40    2.30
   1   6   1    6.80    2.10
   1   6   1    4.70    2.10
  -2  -6  -1  123.69   45.40
  -2  -6  -1  160.48   10.60
  -2  -6  -1  158.58   10.70
   2   6   1  151.28   16.30
   2   6   1  150.38   11.50
   2   6   1  144.69   10.10
   2   6   1  139.29    9.90
   2   6   1  153.68   10.20
  -3  -6  -1  632.44   26.60
  -3  -6  -1  605.74   27.40
  -3  -6  -1  596.44   89.49
   3   6   1  568.74   28.00
   3   6   1  540.25   24.50
   3   6   1  595.84   36.40
   3   6   1  604.04   25.50
   3   6   1  609.84   25.60
  -4  -6  -1   29.60   27.30
  -4  -6  -1   34.20    8.00
   4   6   1   33.80    9.80
   4   6   1   26.80    7.90
   4   6   1   39.90    7.40
   4   6   1   35.60    6.70
   7  -7  -1    8.30    3.90
   7  -7  -1   -0.20    5.50
  -7   7   1   13.10    4.30
  -7   7   1   33.20   10.00
  -7   7   1    7.00    3.40
  -7   7   1   15.40    6.10
   6  -7  -1   13.40    3.80
   6  -7  -1   11.00    3.60
   6  -7  -1   21.40    7.10
  -6   7   1   13.40    4.00
  -6   7   1   10.20    4.90
  -6   7   1   15.50    4.10
  -6   7   1   13.80    5.40
  -6   7   1   16.10    4.60
  -6   7   1   14.10    5.60
   5  -7  -1 1530.05   42.30
   5  -7  -1 1486.35   57.29
  -5   7   1 1513.25   42.30
  -5   7   1 1519.95   46.50
  -5   7   1 1509.85   49.60
  -5   7   1 1558.74   80.39
  -5   7   1 1510.55   40.90
   4  -7  -1   12.40    2.50
   4  -7  -1   13.90    5.60
  -4   7   1   31.50    6.40
  -4   7   1   17.10    3.80
  -4   7   1    9.60    2.90
  -4   7   1   15.50    4.80
  -4   7   1   16.10    3.60
   3  -7  -1 1075.59   43.90
  -3   7   1 1186.18   42.70
  -3   7   1 1129.99   36.10
  -3   7   1 1099.79   42.50
  -3   7   1 1201.88   47.50
   2  -7  -1  115.09   56.59
   2  -7  -1  138.09   13.30
  -2   7   1  131.59   12.60
  -2   7   1  154.58   12.70
  -2   7   1  142.79   13.40
  -1   7   1  153.38   11.90
  -1   7   1  161.08   14.90
  -1   7   1  152.48   14.50
   0  -7  -1  115.59   55.79
   0   7   1   90.59   12.20
   0   7   1  103.09   10.10
  -1  -7  -1 1253.57  145.29
   1   7   1 1342.07   54.39
  -2  -7  -1  456.95   16.80
  -2  -7  -1  456.35   86.69
  -2  -7  -1  433.16   18.50
   2   7   1  476.05   20.10
   2   7   1  481.15   25.90
   2   7   1  511.25   18.80
   2   7   1  470.95   31.20
   2   7   1  501.55   18.90
  -3  -7  -1   16.60   21.60
   3   7   1    0.00    2.60
   3   7   1   -0.90    2.40
   3   7   1   -3.50    2.70
   6  -8  -1  407.96   27.40
  -6   8   1  377.86   19.40
  -6   8   1  395.76   16.30
  -6   8   1  354.76   22.60
  -6   8   1  366.16   16.80
  -6   8   1  394.06   18.00
  -6   8   1  398.16   26.40
   5  -8  -1    2.90    2.90
   5  -8  -1   16.00    5.80
   5  -8  -1    6.70    2.30
  -5   8   1    3.00    2.40
  -5   8   1    5.90    2.40
  -5   8   1    0.20    2.60
  -5   8   1    9.10    3.90
   4  -8  -1  225.78   18.60
  -4   8   1  238.28   13.10
  -4   8   1  170.58   20.70
   3  -8  -1    9.60    4.10
  -3   8   1    0.80    3.00
  -3   8   1    4.90    3.10
   2  -8  -1  461.85   95.29
  -2   8   1  439.26   24.30
  -2   8   1  403.76   22.20
   1  -8  -1   -0.60   23.70
  -1   8   1   -2.10    3.10
   0  -8  -1  687.53  116.59
   0   8   1  877.61   33.30
   0   8   1  889.51   40.90
  -1  -8  -1   39.70   33.20
   1   8   1   32.60    9.00
   1   8   1   30.70    6.50
   5  -9  -1   10.70    7.10
  -5   9   1    7.10    3.30
  -5   9   1   13.30    6.60
   4  -9  -1  805.42   37.60
  -4   9   1  785.72   29.30
  -4   9   1  800.02   36.40
  -4   9   1  810.62   27.10
  -3   9   1  602.74   29.70
  -3   9   1  621.04   27.60
  -2   9   1  570.84   27.50
  -2   9   1  522.55   27.40
  -1   9   1  151.88   15.60
  -1   9   1  146.49   12.80
   0  -9  -1   79.09   58.49
   0   9   1  127.29   14.80
   0   9   1   98.59   10.10
   0  10  -2    0.90    3.20
   0  10  -2    1.40    4.30
   0 -10   2   10.20   30.50
  -1  10  -2   -2.80    3.90
  -1  10  -2    3.80    3.30
  -2  10  -2  453.55   26.80
  -2  10  -2  451.05   16.20
  -3  10  -2  173.68   17.00
  -4  10  -2   50.49   10.10
  -4  10  -2   55.39    5.80
  -4  10  -2   52.59    5.00
   4 -10   2   69.69   11.10
   2   9  -2  406.26   18.80
   2   9  -2  395.96   17.40
   2   9  -2  361.16   15.80
   2   9  -2  378.46   25.40
   2   9  -2  374.96   16.90
  -2  -9   2  378.36   83.79
   1   9  -2  434.26   25.20
   1   9  -2  408.96   24.30
   1   9  -2  406.06   22.00
  -1  -9   2  329.67   81.69
  -1  -9   2  381.36   13.80
   0   9  -2   10.40    4.40
   0   9  -2   -0.70    2.70
   0   9  -2    3.60    3.20
   0  -9   2   -6.80   19.80
  -1   9  -2   35.10    5.90
  -1   9  -2   22.10    5.70
  -1   9  -2   35.80    8.10
   1  -9   2   26.00   36.20
  -2   9  -2 1111.99   29.60
  -2   9  -2 1066.39   35.00
  -2   9  -2 1102.19   44.40
   2  -9   2  948.31  144.49
  -3   9  -2   17.60    3.90
  -3   9  -2   25.10    3.90
  -3   9  -2   25.80    7.90
   3  -9   2   23.60    6.00
  -4   9  -2  501.45   22.70
  -4   9  -2  501.55   17.90
  -4   9  -2  448.16   29.00
  -4   9  -2  520.45   21.10
  -4   9  -2  500.55   17.90
   4  -9   2  471.05   18.20
   4  -9   2  482.85   25.40
   4  -9   2  502.65   19.00
  -5   9  -2  172.88   13.10
  -5   9  -2  154.78   13.40
  -5   9  -2  171.78   11.20
  -5   9  -2  171.18   17.30
  -5   9  -2  183.68   11.40
   5  -9   2  141.39   11.40
   5  -9   2  180.58   11.70
  -6   9  -2   87.39   11.40
   3   8  -2   54.99    7.10
   3   8  -2   39.20    6.30
   3   8  -2   40.10    8.60
   3   8  -2   31.20    8.90
   3   8  -2   39.50    8.10
  -3  -8   2   38.60    6.90
   2   8  -2   27.80    5.10
   2   8  -2   26.30    5.00
   2   8  -2   22.30    6.20
   2   8  -2   16.00    3.80
   2   8  -2   28.60    7.40
  -2  -8   2   23.80    4.10
  -2  -8   2    2.20   18.90
  -2  -8   2   16.10    4.10
   1   8  -2   -2.60    4.20
   1   8  -2    6.20    2.50
   1   8  -2    0.20    1.50
   1   8  -2    4.20    1.90
   1   8  -2    1.40    1.80
   1   8  -2   -3.10    2.70
  -1  -8   2   -0.40    1.80
  -1  -8   2    2.00    2.30
  -1  -8   2    0.00    1.60
  -1  -8   2    2.30   17.70
   0   8  -2 2212.68   53.59
   0   8  -2 2141.89   60.39
   0   8  -2 2180.28   53.29
   0   8  -2 2235.68   63.59
   0  -8   2 2019.10  200.88
   0  -8   2 2131.29   50.79
  -1   8  -2  377.06   14.20
  -1   8  -2  361.06   22.20
  -1   8  -2  362.76   17.50
  -1   8  -2  364.96   17.40
  -1   8  -2  367.36   13.20
   1  -8   2  334.47   84.49
  -2   8  -2    9.10    4.10
  -2   8  -2    4.10    2.00
  -2   8  -2    8.10    1.90
  -2   8  -2   -0.20    1.80
   2  -8   2   -0.40   14.30
   2  -8   2    3.10    1.50
   2  -8   2    0.50    1.60
   2  -8   2   -3.00    1.90
  -3   8  -2   96.19    6.80
  -3   8  -2   98.19   12.00
  -3   8  -2   91.99    7.50
  -3   8  -2   80.99    8.50
  -3   8  -2   99.59    6.80
   3  -8   2   92.39    7.00
   3  -8   2  107.69   10.40
   3  -8   2  103.19    7.80
   3  -8   2   99.19    7.30
  -4   8  -2   24.70    5.80
  -4   8  -2   25.50    4.60
  -4   8  -2   10.20    5.20
  -4   8  -2   13.20    3.50
  -4   8  -2   22.20    5.90
   4  -8   2   24.60    5.80
   4  -8   2   32.50    5.50
   4  -8   2   26.20    5.00
  -5   8  -2  554.04   28.40
  -5   8  -2  490.55   26.50
  -5   8  -2  510.85   22.50
  -5   8  -2  502.75   30.90
  -5   8  -2  469.35   22.70
   5  -8   2  496.25   23.60
   5  -8   2  486.95   27.20
   5  -8   2  518.65   23.20
  -6   8  -2   35.20    6.40
  -6   8  -2   32.90    8.40
  -6   8  -2   21.60    8.40
  -6   8  -2   29.50    6.60
  -6   8  -2   42.10    8.30
   6  -8   2   49.90    8.60
   6  -8   2   41.20    8.70
   6  -8   2   34.20    8.00
   4   7  -2   97.39   10.20
   4   7  -2   84.89   13.20
   4   7  -2  114.09   20.30
   4   7  -2   99.09   13.00
   4   7  -2   89.79   14.60
  -4  -7   2   51.19   36.50
  -4  -7   2   65.09   15.70
   3   7  -2  893.91   33.90
   3   7  -2  909.71   33.30
   3   7  -2  896.61   41.80
   3   7  -2  841.42   36.70
   3   7  -2  885.61   32.60
  -3  -7   2  837.02   32.60
  -3  -7   2  856.31  112.39
  -3  -7   2  832.52   32.20
   2   7  -2   29.50    6.00
   2   7  -2   12.00    3.70
   2   7  -2   15.00    5.50
   2   7  -2   19.10    4.40
   2   7  -2   11.70    3.40
  -2  -7   2   22.40   24.20
  -2  -7   2   16.90    4.20
  -2  -7   2   13.70    3.90
   1   7  -2  857.51   28.80
   1   7  -2  814.12   26.30
   1   7  -2  843.62   35.40
   1   7  -2  833.42   29.90
   1   7  -2  834.92   27.10
   1   7  -2  814.72   31.20
  -1  -7   2  774.92   25.30
  -1  -7   2  832.42   26.50
  -1  -7   2  820.12   44.80
   0   7  -2   42.30    8.20
   0   7  -2   48.00    4.50
   0   7  -2   32.50    6.60
   0   7  -2   37.70    3.90
   0   7  -2   33.40    5.30
   0   7  -2   39.60    6.90
   0   7  -2   44.00    4.70
   0  -7   2   30.50    7.30
   0  -7   2   41.40    4.20
   0  -7   2   35.60    4.00
   0  -7   2   43.60    4.00
   0  -7   2   33.50    4.30
  -1   7  -2   74.49    5.80
  -1   7  -2   69.89    6.60
  -1   7  -2   67.89    8.80
  -1   7  -2   65.89    6.10
  -1   7  -2   60.59    6.10
  -1   7  -2   65.69    4.70
  -1   7  -2   70.49    5.20
   1  -7   2   52.29    5.30
   1  -7   2   51.59   32.70
   1  -7   2   66.29    4.70
   1  -7   2   68.39    5.70
   1  -7   2   69.19    4.90
  -2   7  -2   32.90    3.80
  -2   7  -2   38.10    3.90
  -2   7  -2   35.70    2.50
  -2   7  -2   42.50    5.50
  -2   7  -2   43.80    4.60
  -2   7  -2   33.60    7.60
   2  -7   2   27.80   23.80
   2  -7   2   49.50    8.20
   2  -7   2   42.40    4.80
   2  -7   2   39.30    4.30
   2  -7   2   34.70    5.20
  -3   7  -2 2835.62   72.29
  -3   7  -2 2764.82   68.69
  -3   7  -2 2775.82   69.19
  -3   7  -2 2731.53   82.79
  -3   7  -2 2780.12   76.49
   3  -7   2 2744.03   71.99
   3  -7   2 2798.32   70.29
   3  -7   2 2838.12   70.99
   3  -7   2 2775.72   76.19
  -4   7  -2  369.86   22.40
  -4   7  -2  350.26   20.90
  -4   7  -2  319.07   17.30
  -4   7  -2  310.67   16.70
   4  -7   2  334.97   20.40
   4  -7   2  354.66   18.30
   4  -7   2  335.87   18.90
  -5   7  -2  684.13   34.30
  -5   7  -2  625.34   35.10
  -5   7  -2  635.64   33.80
  -5   7  -2  710.93   28.70
  -5   7  -2  676.53   31.40
   5  -7   2  659.33   28.80
   5  -7   2  630.54   30.60
  -6   7  -2  150.18   17.00
  -6   7  -2  148.49   13.50
  -6   7  -2  149.59   17.40
  -6   7  -2  175.88   14.00
  -6   7  -2  146.39   16.50
   6  -7   2  154.98   15.10
   6  -7   2  135.39   13.00
   6  -7   2  171.68   15.00
  -7   7  -2   10.30    6.20
  -7   7  -2    2.40    4.10
   7  -7   2    2.40    4.80
   7  -7   2   13.60    5.80
   7  -7   2   20.90    7.30
   5   6  -2  651.43   31.40
   5   6  -2  647.04   31.90
  -5  -6   2  802.12  124.39
  -5  -6   2  652.13   31.50
  -5  -6   2  484.65   34.30
   4   6  -2  904.01   35.30
   4   6  -2  849.12   41.80
   4   6  -2  762.82   33.60
   4   6  -2  785.22   38.60
   4   6  -2  813.52   33.80
  -4  -6   2  842.12  104.29
  -4  -6   2  783.02   34.80
  -4  -6   2  847.32   34.70
   3   6  -2  174.08   12.60
   3   6  -2  158.38   14.50
   3   6  -2  161.98   13.00
  -3  -6   2  164.28   13.20
  -3  -6   2  185.88   58.29
  -3  -6   2  174.48   13.20
   2   6  -2  496.95   21.40
   2   6  -2  539.75   28.00
   2   6  -2  516.65   22.60
   2   6  -2  506.85   21.30
   2   6  -2  472.15   22.60
   2   6  -2  476.85   23.90
  -2  -6   2  490.95   21.20
  -2  -6   2  426.86   26.60
  -2  -6   2  476.85   20.80
  -2  -6   2  528.25   81.09
  -2  -6   2  474.15   21.10
   1   6  -2  340.17   15.30
   1   6  -2  336.97   16.40
   1   6  -2  343.47   15.50
   1   6  -2  327.77   17.10
   1   6  -2  349.87   17.50
   1   6  -2  362.66   20.70
  -1  -6   2  319.57   14.70
  -1  -6   2  342.57   14.90
  -1  -6   2  340.67   21.30
  -1  -6   2  352.96   15.10
  -1  -6   2  335.37   15.30
  -1  -6   2  335.67   67.59
   0   6  -2  297.97   54.29
   0   6  -2  232.88   16.20
   0   6  -2  220.78   12.50
   0   6  -2  231.88   10.80
   0   6  -2  205.68   12.20
   0   6  -2  229.28   11.40
   0   6  -2  212.88   13.70
   0   6  -2  235.18   12.00
   0  -6   2  244.48   10.50
   0  -6   2  232.88   10.40
   0  -6   2  246.18   16.00
   0  -6   2  233.78   11.40
   0  -6   2  217.08   68.69
  -1   6  -2  754.02   31.20
  -1   6  -2  772.02   23.80
  -1   6  -2  718.03   23.20
  -1   6  -2  753.42   23.80
  -1   6  -2  749.42   26.40
  -1   6  -2  755.02   24.60
  -1   6  -2  667.23   22.60
   1  -6   2  767.42   25.40
   1  -6   2  734.03   22.50
   1  -6   2  684.83  104.09
   1  -6   2  765.52   23.00
   1  -6   2  747.93   25.20
  -2   6  -2 1531.95   51.69
  -2   6  -2 1538.45  154.78
  -2   6  -2 1552.94   47.60
  -2   6  -2 1566.94   41.60
  -2   6  -2 1552.34   43.10
  -2   6  -2 1470.25   41.90
   2  -6   2 1582.54   44.30
   2  -6   2 1608.14   48.50
   2  -6   2 1524.25   45.60
   2  -6   2 1456.35   41.90
   2  -6   2 1582.74   45.90
  -3   6  -2  112.69   10.40
  -3   6  -2  118.39    9.30
  -3   6  -2  122.69   11.50
  -3   6  -2   96.49   11.30
  -3   6  -2  141.29   51.19
  -3   6  -2   97.79    8.60
   3  -6   2  112.69    9.70
   3  -6   2  100.19   10.50
   3  -6   2  120.99   10.00
   3  -6   2  122.59   11.50
   3  -6   2  120.39   10.70
   3  -6   2  106.89   10.50
  -4   6  -2  297.07   20.80
  -4   6  -2  297.97   21.80
  -4   6  -2  277.17   20.30
  -4   6  -2  272.07   16.60
  -4   6  -2  266.77   16.20
   4  -6   2  248.58   19.90
   4  -6   2  266.27   17.10
   4  -6   2  282.57   17.90
  -5   6  -2  386.76   21.60
  -5   6  -2  425.46   27.10
  -5   6  -2  416.36   27.20
   5  -6   2  329.57   26.70
   5  -6   2  400.96   23.50
   5  -6   2  425.16   23.90
  -6   6  -2  939.61   44.80
  -6   6  -2  944.11   38.40
  -6   6  -2  989.80   45.90
  -6   6  -2  878.41   41.20
  -6   6  -2  931.91   30.60
   6  -6   2  955.80   40.60
   6  -6   2  923.81   38.50
   6  -6   2  952.30   40.40
  -7   6  -2   59.29   11.80
  -7   6  -2   59.49   12.20
  -7   6  -2   67.19   15.10
  -7   6  -2   56.39    8.60
  -7   6  -2   56.79   10.50
   7  -6   2   35.00    8.70
   7  -6   2   53.39   11.20
   7  -6   2   50.39    6.50
   7  -6   2   73.29   11.50
   6   5  -2  216.08   17.50
   6   5  -2  215.18   21.10
   5   5  -2  827.62   41.90
   5   5  -2  877.21   36.60
   5   5  -2  825.32   41.50
   5   5  -2  872.91   37.10
   5   5  -2  811.62   36.20
  -5  -5   2  807.92   38.50
  -5  -5   2  826.52   36.50
   4   5  -2  344.27   24.00
   4   5  -2  330.97   19.90
   4   5  -2  331.57   20.30
   4   5  -2  340.77   20.60
   4   5  -2  391.96   26.20
  -4  -5   2  362.96   22.70
  -4  -5   2  371.46   21.40
   3   5  -2 1272.37   42.80
   3   5  -2 1252.37   49.80
   3   5  -2 1290.37   48.30
   3   5  -2 1267.97   43.30
  -3  -5   2 1461.85  127.79
  -3  -5   2 1293.07   43.50
   2   5  -2  606.54   25.50
   2   5  -2  672.03   31.10
   2   5  -2  674.93   25.80
   2   5  -2  685.43   25.70
   2   5  -2  657.23   29.00
  -2  -5   2  650.83   25.20
  -2  -5   2  679.43   26.00
  -2  -5   2  628.74   25.70
  -2  -5   2  676.83   32.10
  -2  -5   2  673.83   25.80
  -2  -5   2  711.63   86.79
   1   5  -2 1017.80   33.00
   1   5  -2 1057.59   32.70
   1   5  -2  981.00   40.00
   1   5  -2 1067.49   33.90
   1   5  -2 1103.49   32.60
   1   5  -2 1130.29   35.60
  -1  -5   2 1065.39  110.59
  -1  -5   2 1080.49   31.70
  -1  -5   2 1075.29   32.20
  -1  -5   2 1062.39   31.60
  -1  -5   2 1084.09   39.70
  -1  -5   2 1049.99   32.40
   0   5  -2  368.26   16.30
   0   5  -2  377.06   56.49
   0   5  -2  335.97   14.80
   0   5  -2  350.56   16.30
   0   5  -2  336.57   14.60
   0   5  -2  351.66   13.90
   0  -5   2  317.57   62.29
   0  -5   2  354.36   13.80
   0  -5   2  365.06   14.70
   0  -5   2  351.36   17.60
   0  -5   2  330.77   13.40
   0  -5   2  327.77   14.30
  -1   5  -2  298.97   12.50
  -1   5  -2  279.97   12.60
  -1   5  -2  268.47   12.70
  -1   5  -2  294.17   11.90
  -1   5  -2  281.57   16.60
  -1   5  -2  280.37   10.70
  -1   5  -2  272.77   14.50
  -1   5  -2  276.87   52.59
   1  -5   2  259.97   12.20
   1  -5   2  269.67   12.20
   1  -5   2  270.17   12.90
   1  -5   2  276.77   12.70
   1  -5   2  229.48   55.59
  -2   5  -2  246.08   16.60
  -2   5  -2  262.47   14.70
  -2   5  -2  259.17   13.20
  -2   5  -2  239.48   13.10
  -2   5  -2  262.37   16.20
  -2   5  -2  203.28   51.49
   2  -5   2  280.57   15.70
   2  -5   2  227.48   15.50
   2  -5   2  266.07   15.70
   2  -5   2  263.67   13.80
   2  -5   2  251.27   13.80
   2  -5   2  255.97   14.40
  -3   5  -2  537.35   27.20
  -3   5  -2  501.45   22.40
  -3   5  -2  519.85   22.60
  -3   5  -2  475.85   84.19
  -3   5  -2  510.95   26.60
  -3   5  -2  542.05   27.90
   3  -5   2  551.84   27.10
   3  -5   2  510.35   22.80
   3  -5   2  556.24   23.90
   3  -5   2  525.75   23.90
   3  -5   2  407.26   32.00
   3  -5   2  511.75   25.40
  -4   5  -2  978.10   27.00
  -4   5  -2  942.01   38.40
  -4   5  -2  976.70   42.10
  -4   5  -2  971.20   35.90
  -4   5  -2  774.22  116.09
  -4   5  -2  965.40   42.40
   4  -5   2  965.90   37.50
   4  -5   2  941.11   41.80
   4  -5   2  905.11   39.50
   4  -5   2  991.60   37.40
   4  -5   2  981.60   39.20
   4  -5   2  935.71   35.40
  -5   5  -2  711.53   32.20
  -5   5  -2  757.22   27.20
  -5   5  -2  751.32   41.40
  -5   5  -2  750.72   35.90
  -5   5  -2  751.62   38.00
  -5   5  -2  786.92   39.50
   5  -5   2  768.72   24.70
   5  -5   2  814.72   34.80
   5  -5   2  755.92   33.30
   5  -5   2  757.72   35.60
  -6   5  -2   78.99   13.50
  -6   5  -2   90.19   10.90
  -6   5  -2   96.29   10.10
  -6   5  -2   93.59   15.60
  -6   5  -2   78.49   13.90
  -6   5  -2  111.79   14.40
   6  -5   2   97.49   11.30
   6  -5   2  112.39   12.10
   6  -5   2   91.49    8.30
   6  -5   2  100.69   12.50
  -7   5  -2  397.16   29.10
  -7   5  -2  367.26   29.10
  -7   5  -2  395.96   24.60
  -7   5  -2  397.46   23.10
  -7   5  -2  396.86   28.50
   7  -5   2  392.46   25.80
   7  -5   2  373.36   19.90
   7  -5   2  428.26   26.40
   7  -5   2  389.06   24.60
   6   4  -2  196.48   16.60
   6   4  -2  215.68   17.40
   6   4  -2  191.98   18.60
   6   4  -2  139.59   18.20
  -6  -4   2  150.48   17.10
  -6  -4   2  151.38   18.10
   5   4  -2   14.20    6.00
   5   4  -2   19.60    5.60
   5   4  -2   10.70    4.90
   5   4  -2    8.60    4.60
   5   4  -2    5.40    2.90
  -5  -4   2    7.70    3.80
  -5  -4   2   10.40    5.50
   4   4  -2  131.39   12.00
   4   4  -2  150.08   13.00
   4   4  -2  141.09   12.50
   4   4  -2  130.39   14.20
   4   4  -2  120.69   14.50
  -4  -4   2  140.09   13.80
  -4  -4   2  130.29   12.30
   3   4  -2 1623.54   49.80
   3   4  -2 1567.24   55.79
   3   4  -2 1561.54   54.99
   3   4  -2 1601.24   50.09
   3   4  -2 1616.44   55.89
   3   4  -2 1598.94   49.80
  -3  -4   2 1555.44   48.90
  -3  -4   2 1614.24   49.99
  -3  -4   2 1671.43   51.29
  -3  -4   2 1584.34   56.49
  -3  -4   2 1634.74   52.69
   2   4  -2 1518.45   43.60
   2   4  -2 1388.66   48.10
   2   4  -2 1454.45   42.90
   2   4  -2 1409.26   43.40
   2   4  -2 1347.37   46.10
  -2  -4   2 1577.54  119.79
  -2  -4   2 1386.56   42.50
  -2  -4   2 1394.26   41.60
  -2  -4   2 1419.76   42.80
  -2  -4   2 1420.66   49.10
   1   4  -2 1521.05   41.80
   1   4  -2 1472.45   41.10
   1   4  -2 1481.15   43.70
   1   4  -2 1452.75   42.10
   1   4  -2 1500.65   45.80
  -1  -4   2 1576.54   42.10
  -1  -4   2 1617.44  121.59
  -1  -4   2 1461.15   40.10
  -1  -4   2 1440.36   40.10
  -1  -4   2 1460.45   46.20
  -1  -4   2 1522.55   41.50
   0   4  -2 9317.17  200.18
   0   4  -2 8937.51  197.28
   0   4  -2 9218.18  197.38
   0   4  -2 9158.58  196.18
   0   4  -2 9999.00  322.47
   0   4  -2 9228.28  198.38
   0  -4   2 9165.18  197.58
   0  -4   2 9323.77  196.88
   0  -4   2 9105.39  199.08
   0  -4   2 8939.71  349.27
   0  -4   2 9199.58  196.18
   0  -4   2 9203.38  196.88
  -1   4  -2   13.40    1.50
  -1   4  -2   14.40    3.20
  -1   4  -2    8.90    2.70
  -1   4  -2   11.90    2.70
  -1   4  -2   12.60   13.40
  -1   4  -2    9.80    3.10
  -1   4  -2    8.70    2.60
   1  -4   2   11.40    2.90
   1  -4   2   15.80    3.20
   1  -4   2   11.70    3.50
   1  -4   2   12.40    2.90
   1  -4   2   11.00    1.90
   1  -4   2    8.70    9.60
   1  -4   2   13.60    3.00
  -2   4  -2   41.40    5.30
  -2   4  -2   40.00    7.10
  -2   4  -2   37.90    7.40
  -2   4  -2   54.39    9.00
  -2   4  -2   41.30   22.70
  -2   4  -2   41.30    6.70
   2  -4   2   51.49    6.40
   2  -4   2   45.60    5.10
   2  -4   2   42.20    7.60
   2  -4   2   45.50    5.70
   2  -4   2   39.10    6.60
   2  -4   2   39.50    7.50
  -3   4  -2   17.10    5.30
  -3   4  -2    5.70   17.40
  -3   4  -2   15.90    5.30
  -3   4  -2   13.40    3.90
  -3   4  -2   17.60    4.80
  -3   4  -2   12.40    2.70
   3  -4   2   16.40    2.10
   3  -4   2   10.30    4.40
   3  -4   2   18.50    4.60
   3  -4   2    9.70    3.60
   3  -4   2   22.00    5.70
   3  -4   2   17.40    5.30
   3  -4   2   17.30    5.20
  -4   4  -2  827.52   39.70
  -4   4  -2  775.82   37.20
  -4   4  -2  785.72   37.10
  -4   4  -2  795.12   32.90
  -4   4  -2  849.61   36.30
  -4   4  -2  812.62   28.50
   4  -4   2  838.22   36.60
   4  -4   2  857.31   37.10
   4  -4   2  862.01   37.70
   4  -4   2  831.72   26.50
   4  -4   2  803.42   39.20
   4  -4   2  818.52   34.30
  -5   4  -2   39.10   10.00
  -5   4  -2   39.50    9.00
  -5   4  -2   27.50    7.30
  -5   4  -2   21.20    5.80
  -5   4  -2   19.30    5.00
  -5   4  -2   13.50    5.80
   5  -4   2   24.80    6.40
   5  -4   2   14.70    5.50
   5  -4   2   23.00    4.90
  -6   4  -2  784.42   41.80
  -6   4  -2  820.02   41.40
  -6   4  -2  850.81   44.20
  -6   4  -2  846.92   37.80
  -6   4  -2  832.22   35.20
   6  -4   2  881.41   33.20
   6  -4   2  814.72   37.50
   6  -4   2  883.61   40.70
  -7   4  -2  236.28   22.80
  -7   4  -2  229.48   19.20
  -7   4  -2  243.98   21.60
  -7   4  -2  277.27   24.50
   7  -4   2  242.78   16.90
   7  -4   2  276.87   20.70
   7  -4   2  249.58   21.00
   7  -4   2  219.48   19.00
   7   3  -2   32.20    9.40
   7   3  -2   31.80    8.00
   7   3  -2   28.00    8.90
  -7  -3   2   17.50    7.00
  -7  -3   2   32.60    9.60
   6   3  -2   21.30    7.60
   6   3  -2   24.40    6.30
   6   3  -2   20.80    5.80
   6   3  -2   18.60    6.60
  -6  -3   2   31.80    7.50
  -6  -3   2   33.40    8.90
   5   3  -2   -5.80    2.70
   5   3  -2    0.10    2.20
   5   3  -2   10.90    4.70
   5   3  -2    0.90    2.80
   5   3  -2    2.60    2.80
  -5  -3   2    4.10    4.20
  -5  -3   2   -0.20    2.50
   4   3  -2 2456.35   77.29
   4   3  -2 2446.66   76.49
   4   3  -2 2529.45   79.49
   4   3  -2 2470.25   71.29
   4   3  -2 2571.74   72.29
   4   3  -2 2526.55   71.69
  -4  -3   2 2539.55   76.39
  -4  -3   2 2369.96   72.89
  -4  -3   2 2405.76   77.49
  -4  -3   2 2353.06   70.39
  -4  -3   2 2537.55   72.19
   3   3  -2  247.68   15.60
   3   3  -2  293.37   19.30
   3   3  -2  251.37   18.20
   3   3  -2  272.97   16.40
   3   3  -2  275.57   16.20
   3   3  -2  281.37   19.30
  -3  -3   2  255.67   15.70
  -3  -3   2  265.87   16.20
  -3  -3   2  272.67   19.10
  -3  -3   2  277.07   16.60
  -3  -3   2  245.28   17.00
   2   3  -2 3325.07   86.49
   2   3  -2 3311.67   82.39
   2   3  -2 3422.16   82.09
   2   3  -2 3325.77   87.49
   2   3  -2 3225.48   88.79
   2   3  -2 3289.27   82.19
  -2  -3   2 3324.67   80.79
  -2  -3   2 3161.68   80.89
  -2  -3   2 3381.06   82.29
  -2  -3   2 3256.57   87.19
  -2  -3   2 3413.86   84.69
   1   3  -2  591.44   22.50
   1   3  -2  596.14   21.00
   1   3  -2  614.34   23.60
   1   3  -2  618.34   22.20
   1   3  -2  634.64   21.70
  -1  -3   2  596.74   21.20
  -1  -3   2  593.64   20.70
  -1  -3   2  593.64   20.70
  -1  -3   2  623.34   23.90
   0   3  -2 1401.26   36.40
   0   3  -2 1397.16   37.80
   0   3  -2 1416.56   39.70
   0   3  -2 1378.26   36.90
   0   3  -2 1602.44   96.69
   0   3  -2 1397.76   37.50
   0  -3   2 1392.26   36.70
   0  -3   2 1398.96   37.20
   0  -3   2 1386.26   37.30
   0  -3   2 1393.96   38.10
   0  -3   2 1363.46  101.99
  -1   3  -2  126.19    9.70
  -1   3  -2  113.79    7.90
  -1   3  -2   88.89   30.30
  -1   3  -2  116.39    8.50
  -1   3  -2  124.19    8.30
   1  -3   2  109.79    8.00
   1  -3   2  128.09   11.30
   1  -3   2  112.59    6.10
   1  -3   2  117.89    3.90
   1  -3   2  101.59   35.30
   1  -3   2  115.89   10.70
  -2   3  -2 1714.93   53.89
  -2   3  -2 1718.03   48.50
  -2   3  -2 1712.43   51.69
  -2   3  -2 1624.74   53.89
   2  -3   2 1705.73   52.89
   2  -3   2 1724.63   53.09
   2  -3   2 1672.13   39.20
   2  -3   2 1683.33   48.80
   2  -3   2 1637.84   49.99
   2  -3   2 1672.03   50.59
  -3   3  -2 4062.59  102.89
  -3   3  -2 4038.90  107.59
  -3   3  -2 4126.79  111.39
  -3   3  -2 3965.30  108.59
  -3   3  -2 4363.46   98.39
  -3   3  -2 4135.79  106.49
   3  -3   2 4080.59  107.19
   3  -3   2 4255.87  106.19
   3  -3   2 4229.98   95.09
   3  -3   2 4127.69  110.79
   3  -3   2 4018.50  103.69
   3  -3   2 4191.28  109.39
  -4   3  -2   40.20    7.60
  -4   3  -2   40.80    7.00
  -4   3  -2   43.80   10.10
  -4   3  -2   58.09   10.60
  -4   3  -2   54.59   11.40
  -4   3  -2   37.80    8.60
   4  -3   2   42.50    7.90
   4  -3   2   40.30    8.80
   4  -3   2   57.09   10.60
   4  -3   2   31.40    9.30
   4  -3   2   44.00    6.00
   4  -3   2   39.90    8.20
  -5   3  -2   12.30    5.80
  -5   3  -2   15.50    5.10
  -5   3  -2    7.40    5.20
  -5   3  -2    8.10    4.00
  -5   3  -2   13.40    6.20
  -5   3  -2    3.40    3.90
   5  -3   2    9.60    4.90
   5  -3   2    9.70    5.50
   5  -3   2    7.00    3.20
   5  -3   2    4.90    3.10
  -6   3  -2   10.20    9.00
  -6   3  -2    4.00    3.20
  -6   3  -2    4.90    3.10
  -6   3  -2   -0.20    4.40
  -6   3  -2    1.40    2.40
   6  -3   2   -1.70    2.80
   6  -3   2   -1.80    2.50
   6  -3   2    3.90    3.30
  -7   3  -2  171.88   19.80
  -7   3  -2  230.38   19.10
  -7   3  -2  211.88   20.50
   7  -3   2  203.58   16.40
   7  -3   2  198.88   19.00
   7  -3   2  187.18   17.60
   7   2  -2    6.60    5.00
   7   2  -2   -0.60    2.50
   7   2  -2   20.40    6.90
   7   2  -2   11.00    7.20
  -7  -2   2    7.20    4.90
  -7  -2   2    3.60    6.70
   6   2  -2  650.53   32.30
   6   2  -2  698.33   36.20
   6   2  -2  682.63   33.50
   6   2  -2  659.23   39.10
  -6  -2   2  687.43   37.20
  -6  -2   2  648.84   32.70
   5   2  -2 2514.55   79.19
   5   2  -2 2492.75   74.59
   5   2  -2 2486.45   73.49
   5   2  -2 2454.15   74.09
   5   2  -2 2528.55   83.69
  -5  -2   2 2492.05   79.99
  -5  -2   2 2552.04   74.99
  -5  -2   2 2453.85   78.09
   4   2  -2   95.39    9.90
   4   2  -2   55.79   10.10
   4   2  -2   67.89   11.10
   4   2  -2   58.39   10.40
   4   2  -2   82.29    9.10
   4   2  -2  104.79   10.40
  -4  -2   2   87.29   10.10
  -4  -2   2   78.89    9.10
  -4  -2   2   82.39    9.90
  -4  -2   2   50.69    9.80
  -4  -2   2   78.99   10.50
   3   2  -2  338.87   21.60
   3   2  -2  371.66   19.00
   3   2  -2  377.96   21.60
   3   2  -2  371.96   21.10
   3   2  -2  372.26   19.00
   3   2  -2  352.76   18.80
  -3  -2   2  371.86   21.10
  -3  -2   2  390.46   22.00
  -3  -2   2  376.36   19.30
  -3  -2   2  365.26   18.80
  -3  -2   2  343.67   18.90
   2   2  -2 1303.17   38.70
   2   2  -2 1234.68   38.10
   2   2  -2 1274.57   38.10
   2   2  -2 1295.37   42.20
   2   2  -2 1321.47   43.00
   2   2  -2 1316.47   41.80
  -2  -2   2 1244.88   37.50
  -2  -2   2 1269.57   38.10
  -2  -2   2 1301.27   41.60
  -2  -2   2 1308.37   38.60
  -2  -2   2 1197.38   39.80
   1   2  -2 2220.88   55.39
   1   2  -2 2299.67   56.69
   1   2  -2 2290.07   57.49
   1   2  -2 2246.88   57.39
   1   2  -2 2224.38   55.69
  -1  -2   2 2185.78   54.89
  -1  -2   2 2252.97   56.29
  -1  -2   2 2204.78   55.19
  -1  -2   2 2310.27   55.79
  -1  -2   2 2276.67   57.59
   0   2  -2   96.49    6.70
   0   2  -2   87.09    5.30
   0   2  -2   93.39   18.20
   0   2  -2   86.19    6.10
   0   2  -2   94.39    6.40
   0   2  -2   84.69    6.90
   0  -2   2   87.99    5.40
   0  -2   2   91.59   20.40
   0  -2   2   91.39    6.40
   0  -2   2   90.59    6.20
   0  -2   2   85.29    6.60
   0  -2   2   89.99    6.50
  -1   2  -2 9540.75  201.68
   1  -2   2 9522.45  200.28
   1  -2   2 8896.61  201.48
   1  -2   2 9580.74  194.48
   1  -2   2 9229.08  198.48
   1  -2   2 8335.77  197.18
  -2   2  -2    6.70    2.80
  -2   2  -2    0.20    1.10
  -2   2  -2    4.00    2.00
  -2   2  -2    3.70    1.90
  -2   2  -2   10.50    3.70
  -2   2  -2    4.40    3.00
   2  -2   2    6.60    3.30
   2  -2   2    1.20    1.20
   2  -2   2    1.20    1.40
   2  -2   2   10.50    3.50
   2  -2   2    2.80    1.80
   2  -2   2    1.20    1.70
  -3   2  -2   39.20    7.90
  -3   2  -2   32.30    6.40
  -3   2  -2   27.60    6.20
  -3   2  -2   24.20    6.00
  -3   2  -2   41.40    8.30
  -3   2  -2   31.40    7.20
   3  -2   2   42.80    9.40
   3  -2   2   48.90    9.30
   3  -2   2   39.60    8.60
   3  -2   2   38.60    7.50
   3  -2   2   39.80    7.60
   3  -2   2   24.90    5.40
  -4   2  -2  584.04   27.90
  -4   2  -2  570.64   31.70
  -4   2  -2  546.95   29.30
  -4   2  -2  589.04   28.10
  -4   2  -2  593.44   33.80
  -4   2  -2  574.94   30.20
   4  -2   2  579.54   28.60
   4  -2   2  590.34   33.90
   4  -2   2  590.44   31.60
   4  -2   2  595.84   33.30
   4  -2   2  585.64   29.30
   4  -2   2  600.64   26.70
  -5   2  -2  867.31   41.30
  -5   2  -2  958.20   44.80
  -5   2  -2  896.71   38.90
  -5   2  -2  969.40   46.60
  -5   2  -2  902.61   41.60
  -5   2  -2  958.40   42.40
   5  -2   2  927.51   40.20
   5  -2   2  991.50   43.20
   5  -2   2  954.30   37.70
   5  -2   2  874.01   48.30
  -6   2  -2  436.66   28.30
  -6   2  -2  398.76   30.10
  -6   2  -2  429.66   26.20
   6  -2   2  417.76   25.10
   6  -2   2  416.96   26.10
   6  -2   2  454.35   28.60
  -7   2  -2  228.48   23.70
  -7   2  -2  260.57   22.00
  -7   2  -2  239.18   20.10
   7  -2   2  209.38   18.10
   7  -2   2  237.88   20.30
   7  -2   2  243.78   21.40
   7   1  -2  567.84   30.60
   7   1  -2  641.94   33.00
   7   1  -2  562.74   33.40
  -7  -1   2  586.34   36.80
  -7  -1   2  594.64   35.60
  -7  -1   2  592.74   31.90
   6   1  -2   22.70    7.50
   6   1  -2   21.70    6.20
   6   1  -2   24.50    7.80
   6   1  -2   26.70    7.60
  -6  -1   2   31.60    8.60
  -6  -1   2   30.60    9.00
  -6  -1   2   32.20    7.60
   5   1  -2   15.30    4.70
   5   1  -2   13.00    5.10
   5   1  -2    8.70    4.10
   5   1  -2   24.40    7.20
   5   1  -2   12.10    4.80
  -5  -1   2    9.40    3.90
  -5  -1   2   15.70    5.80
  -5  -1   2   15.40    4.30
  -5  -1   2   18.20    5.70
  -5  -1   2   13.90    5.00
  -5  -1   2   20.60    5.70
   4   1  -2  724.53   30.10
   4   1  -2  708.93   30.00
   4   1  -2  712.73   32.00
   4   1  -2  708.13   33.10
   4   1  -2  746.83   36.00
   4   1  -2  707.33   30.20
  -4  -1   2  708.63   32.70
  -4  -1   2  719.73   32.00
  -4  -1   2  685.33   29.90
  -4  -1   2  721.43   33.80
  -4  -1   2  688.53   34.60
  -4  -1   2  750.92   31.10
   3   1  -2 4053.29   97.29
   3   1  -2 3733.73   96.89
   3   1  -2 4023.40  104.79
   3   1  -2 4016.10   97.89
   3   1  -2 3861.41  100.99
  -3  -1   2 4012.50  102.39
  -3  -1   2 4015.60  101.79
  -3  -1   2 3984.10   97.59
  -3  -1   2 3984.60   97.39
  -3  -1   2 3975.40   98.69
  -3  -1   2 3809.72  106.59
   2   1  -2 4836.52  115.09
   2   1  -2 5041.60  112.09
   2   1  -2 5047.19  117.09
   2   1  -2 4996.80  112.49
   2   1  -2 4697.23  114.39
  -2  -1   2 4757.22  111.89
  -2  -1   2 5053.79  115.49
  -2  -1   2 4916.61  111.69
  -2  -1   2 4784.42  111.79
  -2  -1   2 4835.72  116.69
  -2  -1   2 4835.42  114.79
   1   1  -2 1487.85   39.50
   1   1  -2 1464.05   40.60
   1   1  -2 1574.44   41.10
   1   1  -2 1605.14   38.10
   1   1  -2 1554.34   39.80
  -1  -1   2 1448.85   39.20
  -1  -1   2 1552.64   39.80
  -1  -1   2 1554.04   41.10
  -1  -1   2 1607.24   37.40
  -1  -1   2 1473.15   39.80
   0   1  -2  418.16   15.40
   0   1  -2  473.15   14.20
   0   1  -2  441.66   17.30
   0   1  -2  445.56   15.90
   0   1  -2  509.25   27.10
   0  -1   2  466.15   16.50
   0  -1   2  436.06   14.10
   0  -1   2  435.86   15.50
   0  -1   2  431.16   16.90
   0  -1   2  401.86   28.30
   0  -1   2  418.96   15.60
  -1   1  -2 1125.59   32.60
  -1   1  -2 1114.79   36.50
  -1   1  -2 1057.59   35.80
   1  -1   2 1027.00   32.50
   1  -1   2 1046.90   33.30
   1  -1   2 1153.28   35.00
   1  -1   2 1127.39   36.00
   1  -1   2 1095.49   35.80
  -2   1  -2  128.79   10.90
  -2   1  -2  151.48   12.60
  -2   1  -2  130.39   10.90
  -2   1  -2  148.99   13.30
  -2   1  -2  146.89   11.40
   2  -1   2  120.09   10.80
   2  -1   2  134.09   12.20
   2  -1   2  126.99   11.90
   2  -1   2  138.99   10.60
  -3   1  -2   49.60    9.10
  -3   1  -2   44.10    8.20
  -3   1  -2   55.49   11.00
  -3   1  -2   45.30    7.90
  -3   1  -2   38.00    7.50
  -3   1  -2   65.99   11.50
   3  -1   2   40.30    7.50
   3  -1   2   42.50    7.80
   3  -1   2   41.10    7.30
   3  -1   2   54.29    9.50
   3  -1   2   50.59   12.80
   3  -1   2   63.79   11.40
  -4   1  -2 3362.46   97.89
  -4   1  -2 2922.51  121.69
  -4   1  -2 3478.05  102.79
  -4   1  -2 3311.67   93.69
  -4   1  -2 3315.47   90.99
  -4   1  -2 3417.36   94.49
   4  -1   2 3034.90  107.79
   4  -1   2 3257.57   91.09
   4  -1   2 3432.56   97.29
   4  -1   2 3333.57   92.69
   4  -1   2 3276.77   91.59
   4  -1   2 3465.65  101.09
  -5   1  -2   15.50    7.70
  -5   1  -2   10.30    5.10
  -5   1  -2    9.50    4.60
  -5   1  -2    3.70    5.40
  -5   1  -2   20.50    6.90
   5  -1   2    9.30    4.70
   5  -1   2    3.00    4.20
   5  -1   2   13.00    4.80
   5  -1   2   11.00    5.20
  -6   1  -2   33.10    9.60
  -6   1  -2    4.40    5.10
  -6   1  -2   21.30    7.20
   6  -1   2    6.80    5.90
   6  -1   2   26.20    6.40
   6  -1   2   10.20    6.00
   6  -1   2   12.00    5.20
  -7   1  -2  839.02   40.10
  -7   1  -2  885.81   43.50
  -7   1  -2  739.63   51.99
   7  -1   2  820.92   40.20
   7  -1   2  866.61   42.40
   7  -1   2  828.42   40.10
   8   0  -2  163.28   16.70
   8   0  -2  146.49   16.10
   8   0  -2  168.18   21.00
   8   0  -2  154.68   21.00
  -8   0   2  152.38   17.90
  -8   0   2  193.18   20.70
   7   0  -2 1445.26   53.69
   7   0  -2 1437.36   53.99
   7   0  -2 1490.85   56.49
  -7   0   2 1443.86   59.89
  -7   0   2 1497.85   62.19
  -7   0   2 1459.45   54.59
   6   0  -2   15.30    6.80
   6   0  -2   45.40    8.90
   6   0  -2   43.60    9.20
   6   0  -2   31.80    7.40
  -6   0   2   28.10    7.20
  -6   0   2   25.30    6.40
  -6   0   2   32.70    8.80
  -6   0   2   29.70    9.10
   5   0  -2  112.59   13.50
   5   0  -2  123.69   14.80
   5   0  -2  124.89   12.10
   5   0  -2  146.59   12.90
   5   0  -2  112.49   11.40
   5   0  -2  135.39   13.00
  -5   0   2  108.69   13.10
  -5   0   2  128.29   14.30
  -5   0   2  130.29   13.80
  -5   0   2  116.09   12.30
  -5   0   2  134.49   12.50
   4   0  -2  251.67   17.10
   4   0  -2  289.67   17.20
   4   0  -2  242.48   16.10
   4   0  -2  250.57   15.80
   4   0  -2  244.38   19.20
   4   0  -2  240.88   18.00
  -4   0   2  239.28   16.10
  -4   0   2  265.57   17.70
  -4   0   2  271.47   16.60
  -4   0   2  265.07   19.20
  -4   0   2  234.08   16.80
  -4   0   2  265.67   19.00
   3   0  -2  158.38   11.20
   3   0  -2  162.58   11.60
   3   0  -2  181.18   13.30
   3   0  -2  170.18   12.40
   3   0  -2  147.99   10.60
   3   0  -2  164.48   11.70
  -3   0   2  151.98   12.60
  -3   0   2  148.69   11.50
  -3   0   2  151.98   11.10
  -3   0   2  163.38   12.20
  -3   0   2  177.28   13.50
  -3   0   2  150.08   11.00
   2   0  -2  728.73   24.70
   2   0  -2  759.82   27.60
   2   0  -2  721.73   24.30
   2   0  -2  742.33   25.50
   2   0  -2  753.32   25.90
   2   0  -2  710.03   25.70
   2   0  -2  741.93   24.30
  -2   0   2  707.93   24.10
  -2   0   2  747.03   26.50
  -2   0   2  734.53   24.60
  -2   0   2  753.52   26.40
  -2   0   2  733.23   26.10
  -2   0   2  728.73   24.30
   1   0  -2 5034.70  110.09
   1   0  -2 5142.59  111.39
   1   0  -2 5003.80  108.09
   1   0  -2 5151.58  110.49
   1   0  -2 5126.29  113.19
   1   0  -2 4901.51  111.19
  -1   0   2 4744.83  111.79
  -1   0   2 5007.70  109.89
  -1   0   2 5151.88  110.29
  -1   0   2 4851.51  110.39
  -1   0   2 5245.78  111.29
  -1   0   2 5142.39  112.79
   0   0  -2 1732.53   44.70
   0   0  -2 1725.83   38.00
   0   0  -2 1654.03   42.30
   0   0  -2 1693.93   42.70
   0   0  -2 1604.94   41.50
   0   0   2 1682.63   37.30
   0   0   2 1704.03   43.70
   0   0   2 1785.32   44.90
   0   0   2 1624.14   43.90
   0   0   2 1630.74   42.30
   0   0   2 1749.43   42.60
  -1   0  -2 3559.84   81.59
  -1   0  -2 3479.55   87.99
  -1   0  -2 3451.65   87.99
  -1   0  -2 3565.94   83.59
  -1   0  -2 3458.35   84.19
   1   0   2 3411.76   88.29
   1   0   2 3489.45   85.79
   1   0   2 3404.36   86.89
   1   0   2 3380.56   81.49
   1   0   2 3590.74   87.89
   1   0   2 3506.05   83.29
  -2   0  -2 4124.29  101.09
  -2   0  -2 4028.00  105.39
  -2   0  -2 4000.60   98.59
  -2   0  -2 4013.50  104.29
  -2   0  -2 3882.61  102.19
  -2   0  -2 3895.11   98.09
   2   0   2 3936.01   97.99
   2   0   2 4001.50  102.59
   2   0   2 4276.17  105.49
   2   0   2 4027.20  104.19
   2   0   2 3886.31  100.29
  -3   0  -2   56.79   10.60
  -3   0  -2   73.09    9.20
  -3   0  -2   68.89    9.30
  -3   0  -2   71.89    9.60
  -3   0  -2   81.69   13.60
  -3   0  -2   71.19    9.30
   3   0   2   58.79   10.10
   3   0   2   87.19   10.50
   3   0   2   80.99    9.10
   3   0   2   66.79    8.90
   3   0   2   76.99    9.40
   3   0   2   84.69   10.90
  -4   0  -2  851.41   38.10
  -4   0  -2  830.92   41.60
  -4   0  -2  886.51   38.20
  -4   0  -2  874.91   36.50
  -4   0  -2  788.62   39.00
  -4   0  -2  916.31   60.49
   4   0   2  900.81   39.20
   4   0   2  886.51   39.00
   4   0   2  850.61   37.00
   4   0   2  820.02   40.90
   4   0   2  888.91   39.70
   4   0   2  891.41   37.00
  -5   0  -2 1243.18   47.60
  -5   0  -2 1216.08   49.00
  -5   0  -2 1206.98   54.09
   5   0   2 1217.38   49.20
   5   0   2 1153.48   48.80
   5   0   2 1224.38   53.89
   5   0   2 1081.89   49.20
   5   0   2 1191.78   47.30
  -6   0  -2  311.97   23.90
  -6   0  -2  351.16   23.80
  -6   0  -2  303.97   26.80
   6   0   2  314.07   22.40
   6   0   2  366.76   25.40
   6   0   2  372.96   25.70
   6   0   2  307.07   26.50
  -7   0  -2  207.78   24.50
  -7   0  -2  293.77   22.30
  -7   0  -2  261.57   25.30
   7   0   2  309.27   22.50
   7   0   2  260.77   22.00
   7   0   2  306.77   23.70
   8  -1  -2  104.19   13.40
   8  -1  -2   96.99   12.20
   8  -1  -2  130.59   15.60
   8  -1  -2  112.79   14.10
  -8   1   2  110.69   21.20
  -8   1   2  103.69   17.00
   7  -1  -2  297.57   20.70
   7  -1  -2  267.27   20.30
   7  -1  -2  279.77   21.10
   7  -1  -2  261.27   19.90
  -7   1   2  266.57   23.70
  -7   1   2  303.77   24.30
  -7   1   2  292.77   21.00
  -7   1   2  252.47   40.80
   6  -1  -2   51.89    9.50
   6  -1  -2   52.59    9.50
   6  -1  -2   57.99   10.50
   6  -1  -2   35.60    8.90
   6  -1  -2   54.69   12.40
  -6   1   2   50.39   10.70
  -6   1   2   47.10    9.90
  -6   1   2   59.09   10.40
  -6   1   2   48.20    9.90
  -6   1   2   31.80    7.30
   5  -1  -2  353.36   25.20
   5  -1  -2  351.06   21.10
   5  -1  -2  357.96   23.30
   5  -1  -2  376.46   21.60
   5  -1  -2  366.56   21.10
   5  -1  -2  325.77   19.80
   5  -1  -2  328.17   20.90
  -5   1   2  395.26   24.50
  -5   1   2  353.06   21.30
  -5   1   2  339.07   20.60
  -5   1   2  397.36   25.00
  -5   1   2  338.47   23.30
  -5   1   2  342.77   21.20
   4  -1  -2 3048.29   82.79
   4  -1  -2 3138.99   88.99
   4  -1  -2 3236.68   84.19
   4  -1  -2 3234.68   83.09
   4  -1  -2 3192.08   85.69
   4  -1  -2 3162.78   91.99
   4  -1  -2 3177.78   84.49
  -4   1   2 3193.48   89.39
  -4   1   2 3221.68   83.59
  -4   1   2 3278.07   85.69
  -4   1   2 3182.18   87.19
  -4   1   2 3151.18   84.49
  -4   1   2 3357.26   90.19
   3  -1  -2 1148.09   39.50
   3  -1  -2 1108.19   36.20
   3  -1  -2 1172.28   41.70
   3  -1  -2 1189.88   35.90
   3  -1  -2 1213.58   37.90
   3  -1  -2 1141.49   36.10
   3  -1  -2 1187.08   39.40
  -3   1   2 1190.98   39.90
  -3   1   2 1084.69   35.60
  -3   1   2 1138.69   39.40
  -3   1   2 1121.29   36.30
  -3   1   2 1155.58   37.90
  -3   1   2 1157.88   37.70
   2  -1  -2 3779.42   84.79
   2  -1  -2 3617.34   88.19
   2  -1  -2 3739.43   87.19
   2  -1  -2 3666.43   84.09
   2  -1  -2 3438.96   85.39
   2  -1  -2 3556.54   89.39
   2  -1  -2 3687.23   83.59
  -2   1   2 3578.34   84.59
  -2   1   2 3694.83   84.19
  -2   1   2 3719.43   86.39
  -2   1   2 3654.53   86.59
  -2   1   2 3678.43   83.99
   1  -1  -2  852.31   23.10
   1  -1  -2  855.01   23.40
   1  -1  -2  840.42   24.10
   1  -1  -2  859.81   20.60
   1  -1  -2  881.31   29.10
   1  -1  -2  851.41   24.10
  -1   1   2  837.62   23.10
  -1   1   2  873.41   29.30
  -1   1   2  698.73   61.09
  -1   1   2  728.03   25.70
  -1   1   2  849.22   21.30
  -1   1   2  858.31   23.20
  -1   1   2  875.31   23.70
   0  -1  -2  198.78   10.80
   0  -1  -2  187.58    9.20
   0  -1  -2  207.98    9.40
   0  -1  -2  201.68    9.70
   0  -1  -2  189.28   26.50
   0   1   2  206.68   11.30
   0   1   2  256.77   26.80
   0   1   2  193.08    7.30
   0   1   2  196.28    9.50
  -1  -1  -2 2178.48   54.69
  -1  -1  -2 2161.48   55.99
  -1  -1  -2 2131.39   56.79
  -1  -1  -2 1886.71   63.19
   1   1   2 2245.78   60.69
   1   1   2 2217.78   56.09
   1   1   2 2148.98   59.19
   1   1   2 2120.79   64.39
   1   1   2 2091.69   54.59
   1   1   2 2163.28   57.89
  -2  -1  -2 5937.91  149.69
  -2  -1  -2 5711.83  146.19
  -2  -1  -2 6096.29  143.79
  -2  -1  -2 5999.00  139.89
  -2  -1  -2 6054.29  139.79
  -2  -1  -2 6026.50  141.49
   2   1   2 6001.40  147.89
   2   1   2 5948.41  138.99
   2   1   2 6066.29  145.89
   2   1   2 6051.79  144.69
   2   1   2 5781.32  140.79
   2   1   2 6087.59  140.59
  -3  -1  -2   -1.70    2.00
  -3  -1  -2    0.40    1.60
  -3  -1  -2    0.90    2.60
  -3  -1  -2   -0.10    2.30
  -3  -1  -2    3.00    3.20
  -3  -1  -2    2.00    2.40
   3   1   2    0.90    1.70
   3   1   2    8.30    3.80
   3   1   2    2.70    2.60
   3   1   2    5.00    2.10
   3   1   2    0.30    1.50
   3   1   2   -1.20    2.10
  -4  -1  -2   40.20    8.60
  -4  -1  -2   56.59   10.10
  -4  -1  -2   41.70   13.20
  -4  -1  -2   31.60    8.60
   4   1   2   56.79   11.10
   4   1   2   42.50    8.80
   4   1   2   39.60    9.40
   4   1   2   44.70    9.20
   4   1   2   33.60    7.40
   4   1   2   50.69   10.20
  -5  -1  -2   31.20    8.70
  -5  -1  -2   23.90    6.70
  -5  -1  -2   15.60    6.20
   5   1   2   16.20    5.90
   5   1   2   31.70    8.90
   5   1   2   14.20    6.10
   5   1   2   28.20    8.00
   5   1   2   26.80    7.90
  -6  -1  -2    8.50    6.50
  -6  -1  -2   13.30    5.20
  -6  -1  -2    1.80    4.10
   6   1   2    9.90    5.70
   6   1   2    3.40    4.50
   6   1   2    7.60    8.60
   6   1   2    8.90    4.30
   8  -2  -2   28.70    7.30
   8  -2  -2   13.70    6.50
   8  -2  -2   35.50    8.40
  -8   2   2   34.50    9.50
   7  -2  -2   28.80    6.60
   7  -2  -2   30.60    7.00
   7  -2  -2   26.20    7.80
   7  -2  -2   35.90    8.10
  -7   2   2   27.70    7.80
  -7   2   2   28.80    8.30
  -7   2   2   40.00    9.50
  -7   2   2   47.60    9.80
   6  -2  -2 3004.10   85.29
   6  -2  -2 3021.10   84.69
   6  -2  -2 2927.81   84.79
  -6   2   2 3126.69  108.39
  -6   2   2 3001.10   86.69
  -6   2   2 3047.09   93.09
  -6   2   2 2998.40   92.49
  -6   2   2 3016.00   88.99
  -6   2   2 3078.19   93.49
   5  -2  -2   54.19   10.50
   5  -2  -2   39.10    8.60
   5  -2  -2   34.70    6.80
   5  -2  -2   58.79    9.30
   5  -2  -2   57.29   11.90
   5  -2  -2   49.10    8.30
   5  -2  -2   55.49    9.00
  -5   2   2   53.29   10.00
  -5   2   2   40.70    7.60
  -5   2   2   36.80    7.40
  -5   2   2   49.10    8.40
  -5   2   2   58.19   11.50
  -5   2   2   44.20    7.90
   4  -2  -2   19.60    4.50
   4  -2  -2    7.20    3.50
   4  -2  -2   16.20    4.20
   4  -2  -2   11.10    4.80
   4  -2  -2   18.20    5.80
   4  -2  -2   17.60    4.80
   4  -2  -2   24.20    6.50
  -4   2   2   23.90    6.20
  -4   2   2   20.90    5.70
  -4   2   2   20.10    4.70
  -4   2   2   12.20    4.20
  -4   2   2   18.70    4.90
  -4   2   2   11.00    3.50
   3  -2  -2  604.74   22.80
   3  -2  -2  591.74   23.60
   3  -2  -2  613.24   26.90
   3  -2  -2  594.34   21.90
   3  -2  -2  584.14   24.90
   3  -2  -2  579.74   22.10
  -3   2   2  554.74   23.30
  -3   2   2  574.74   29.50
  -3   2   2  615.64   25.60
  -3   2   2  587.54   22.10
  -3   2   2  576.64   23.60
  -3   2   2  620.44   26.00
  -3   2   2  623.84   23.20
   2  -2  -2  300.37   12.10
   2  -2  -2  305.17   12.50
   2  -2  -2  299.17   13.40
   2  -2  -2  288.77   12.30
   2  -2  -2  327.77   15.00
  -2   2   2  310.17   12.20
  -2   2   2  277.87   14.40
  -2   2   2  286.87   16.40
  -2   2   2  335.67   14.90
  -2   2   2  310.07   12.50
  -2   2   2  310.77   13.50
  -2   2   2  311.17   13.00
   1  -2  -2 2259.77   51.09
   1  -2  -2 2309.57   50.19
   1  -2  -2 2195.78   51.49
   1  -2  -2 2198.48   61.39
   1  -2  -2 1852.11  126.09
  -1   2   2 2206.88   50.89
  -1   2   2 2265.67   50.69
  -1   2   2 2233.78   49.99
  -1   2   2 2356.06   50.49
  -1   2   2 1974.20  121.69
  -1   2   2 2272.17   50.79
   0  -2  -2 7059.49  149.19
   0  -2  -2 7078.59  148.79
   0  -2  -2 6907.31  250.87
   0  -2  -2 6594.84  152.18
   0   2   2 7276.27  161.98
   0   2   2 6937.51  152.58
   0   2   2 6769.32  150.98
   0   2   2 7079.59  149.88
   0   2   2 6922.61  149.19
   0   2   2 7027.20  151.38
   0   2   2 7115.29  168.28
  -1  -2  -2 2116.09   60.19
  -1  -2  -2 2386.76  122.89
  -1  -2  -2 2097.29   55.89
  -1  -2  -2 2069.09   56.09
   1   2   2 2013.40   58.09
   1   2   2 2129.69   55.89
   1   2   2 2033.30   56.29
   1   2   2 2123.09   67.29
   1   2   2 2192.58   59.39
   1   2   2 2142.59   55.69
  -2  -2  -2   55.19    7.20
  -2  -2  -2   83.89    8.60
  -2  -2  -2   49.60   10.90
  -2  -2  -2   56.59   10.80
  -2  -2  -2   74.99    8.50
   2   2   2   64.49    8.50
   2   2   2   66.79    7.40
   2   2   2   79.09    8.40
   2   2   2   61.09    7.50
   2   2   2   91.99   11.10
   2   2   2   58.79    7.90
  -3  -2  -2   39.60    7.70
  -3  -2  -2   46.50    9.40
  -3  -2  -2   41.00    8.80
  -3  -2  -2   25.80    7.20
  -3  -2  -2   41.00    8.20
  -3  -2  -2   46.20    8.40
   3   2   2   39.40    7.60
   3   2   2   35.20    6.70
   3   2   2   47.30    9.60
   3   2   2   29.80    6.70
   3   2   2   35.80    8.80
   3   2   2   38.60    8.20
  -4  -2  -2  370.36   23.90
  -4  -2  -2  368.06   26.10
  -4  -2  -2  363.16   22.30
   4   2   2  380.86   36.80
   4   2   2  328.87   21.30
   4   2   2  333.37   24.70
   4   2   2  335.27   24.70
  -5  -2  -2 1764.42   67.69
  -5  -2  -2 1793.12   60.89
   5   2   2 1752.82   62.29
   5   2   2 1636.34   65.89
   5   2   2 1754.22   60.29
   5   2   2 1796.52   60.69
   5   2   2 1751.42   66.89
  -6  -2  -2   60.09   12.50
  -6  -2  -2   75.79   12.10
   6   2   2   86.99   11.40
   6   2   2   76.09   12.90
   8  -3  -2  491.95   26.80
   8  -3  -2  530.65   28.30
   8  -3  -2  484.05   27.80
  -8   3   2  472.65   33.60
  -8   3   2  513.75   32.40
  -8   3   2  516.95   32.60
  -8   3   2  379.16   34.70
   7  -3  -2    0.20    2.90
   7  -3  -2    7.20    3.40
   7  -3  -2    2.80    3.60
   7  -3  -2    0.60    3.10
  -7   3   2   -2.30    2.90
  -7   3   2    0.90    5.10
  -7   3   2    2.20    3.40
  -7   3   2   -2.20    2.30
   6  -3  -2    6.80    3.80
   6  -3  -2    7.80    3.90
   6  -3  -2    2.90    4.60
   6  -3  -2    5.10    2.80
  -6   3   2    5.20    3.60
  -6   3   2   -0.30    3.90
  -6   3   2    8.00    4.20
  -6   3   2   16.30    5.70
  -6   3   2    6.30    4.10
   5  -3  -2  248.08   16.70
   5  -3  -2  273.97   16.70
   5  -3  -2  272.57   16.30
   5  -3  -2  235.78   19.70
   5  -3  -2  282.87   20.30
   5  -3  -2  256.17   16.20
   5  -3  -2  254.37   19.20
  -5   3   2  281.17   20.10
  -5   3   2  280.07   19.70
  -5   3   2  249.68   16.40
  -5   3   2  243.98   16.10
  -5   3   2  289.37   19.90
  -5   3   2  262.77   18.20
   4  -3  -2  367.86   22.40
   4  -3  -2  415.66   18.60
   4  -3  -2  401.56   18.80
   4  -3  -2  376.36   21.10
   4  -3  -2  381.86   19.00
   4  -3  -2  359.56   22.50
  -4   3   2  393.16   19.90
  -4   3   2  354.76   21.30
  -4   3   2  394.66   21.50
  -4   3   2  408.06   19.90
  -4   3   2  374.36   20.90
  -4   3   2  383.86   18.30
   3  -3  -2 6850.01  161.78
   3  -3  -2 6536.25  152.88
   3  -3  -2 6779.42  149.19
   3  -3  -2 6895.31  147.79
   3  -3  -2 6630.34  147.99
   3  -3  -2 6746.83  155.88
  -3   3   2 6731.63  157.48
  -3   3   2 6491.55  155.18
  -3   3   2 6892.51  150.08
  -3   3   2 6644.54  151.98
  -3   3   2 6939.01  152.88
  -3   3   2 6793.92  152.08
   2  -3  -2   11.10    2.30
   2  -3  -2   11.00    4.60
   2  -3  -2   13.60    2.50
   2  -3  -2   19.70    3.50
   2  -3  -2   10.60    2.40
  -2   3   2   20.10    4.10
  -2   3   2   21.00    5.30
  -2   3   2   17.10    2.90
  -2   3   2   15.60    2.90
  -2   3   2   13.60   16.10
  -2   3   2   17.70    2.30
  -2   3   2   17.70    3.00
   1  -3  -2   84.39   33.90
   1  -3  -2  110.59   10.60
  -1   3   2   99.59   33.30
  -1   3   2   86.69    6.20
  -1   3   2  109.39    4.90
  -1   3   2  106.29    5.80
  -1   3   2  104.09    5.10
  -1   3   2  115.29   11.00
   0  -3  -2 1370.56  113.39
   0  -3  -2 1262.07   36.10
   0  -3  -2 1526.35   35.50
   0  -3  -2 1413.76   35.50
   0  -3  -2 1465.85   38.30
   0   3   2 1454.55   42.90
   0   3   2 1448.26   48.30
   0   3   2 1459.75   37.50
   0   3   2 1290.97   54.49
   0   3   2 1453.95   36.80
  -1  -3  -2  111.09    9.80
  -1  -3  -2  128.29    9.10
  -1  -3  -2  131.89   33.40
  -1  -3  -2  134.39   10.50
  -1  -3  -2  138.49    9.40
   1   3   2  121.99   11.60
   1   3   2  122.99   10.00
   1   3   2  122.29   13.40
   1   3   2  146.39    9.70
   1   3   2  131.59    9.80
   1   3   2  105.09    9.10
   1   3   2  125.89    9.20
  -2  -3  -2   10.70    5.10
  -2  -3  -2   27.20   18.20
  -2  -3  -2   13.80    5.10
  -2  -3  -2   14.60    3.90
  -2  -3  -2   16.10    4.60
  -2  -3  -2   22.70    5.30
   2   3   2   19.20    4.60
   2   3   2   21.00    5.80
   2   3   2   14.20    5.70
   2   3   2   15.70    4.60
   2   3   2   12.10    4.30
  -3  -3  -2 1994.10   61.69
  -3  -3  -2 2086.59   81.99
   3   3   2 2063.89   72.79
   3   3   2 2077.49   62.29
   3   3   2 2129.19   61.99
   3   3   2 2112.49   63.69
   3   3   2 2091.29   67.69
   3   3   2 1901.81   68.79
  -4  -3  -2  203.58   18.70
  -4  -3  -2  196.98   16.20
   4   3   2  195.08   16.20
   4   3   2  194.88   15.80
   4   3   2  184.28   15.30
   4   3   2  200.38   19.70
   4   3   2  205.78   18.70
  -5  -3  -2   38.60    8.80
  -5  -3  -2   40.20   11.10
   5   3   2   37.60    9.30
   5   3   2   40.90   10.10
   5   3   2   44.30    9.50
   5   3   2   49.60    9.30
   5   3   2   39.40    8.40
   8  -4  -2  283.07   19.00
   8  -4  -2  250.07   21.50
   8  -4  -2  281.97   19.50
   8  -4  -2  253.37   19.40
  -8   4   2  302.17   23.90
  -8   4   2  263.07   22.30
  -8   4   2  267.87   19.30
   7  -4  -2  261.37   21.00
   7  -4  -2  274.27   18.80
   7  -4  -2  261.17   18.10
   7  -4  -2  265.27   17.70
  -7   4   2  232.68   19.90
  -7   4   2  291.17   19.20
  -7   4   2  270.27   21.60
  -7   4   2  259.57   20.60
  -7   4   2  209.18   20.70
   6  -4  -2   34.10    8.60
   6  -4  -2   53.59    7.30
   6  -4  -2   56.19    7.30
   6  -4  -2   33.00    7.00
  -6   4   2   49.00   11.10
  -6   4   2   43.90    9.60
  -6   4   2   36.30    6.80
  -6   4   2   49.60    9.10
  -6   4   2   40.20    8.40
   5  -4  -2 1573.54   48.90
   5  -4  -2 1526.95   55.49
   5  -4  -2 1481.15   52.19
   5  -4  -2 1577.44   49.99
   5  -4  -2 1477.35   45.90
  -5   4   2 1520.95   47.10
  -5   4   2 1538.95   48.00
  -5   4   2 1538.45   52.49
  -5   4   2 1536.25   54.69
  -5   4   2 1507.65   50.79
  -5   4   2 1505.15   53.79
   4  -4  -2   55.59    6.10
   4  -4  -2   51.99    6.00
   4  -4  -2   65.79   11.90
   4  -4  -2   69.49    8.60
   4  -4  -2   61.39    7.10
   4  -4  -2   55.09    7.20
  -4   4   2   27.70   30.60
  -4   4   2   57.79    7.00
  -4   4   2   72.29    8.00
  -4   4   2   53.59    6.60
  -4   4   2   39.40    7.30
  -4   4   2   67.89    8.00
  -4   4   2   56.79    5.90
  -4   4   2   59.49   10.00
   3  -4  -2  557.14   23.00
   3  -4  -2  571.74   19.90
   3  -4  -2  584.54   19.30
   3  -4  -2  557.94   28.80
   3  -4  -2  591.54   22.90
  -3   4   2  460.45   80.69
  -3   4   2  575.24   20.80
  -3   4   2  524.85   25.10
  -3   4   2  544.85   24.60
  -3   4   2  537.35   26.50
  -3   4   2  572.44   23.40
  -3   4   2  570.64   22.10
  -3   4   2  568.74   20.50
   2  -4  -2 3813.92  102.29
  -2   4   2 3539.35  214.58
  -2   4   2 3973.00   83.09
  -2   4   2 3942.81   92.89
  -2   4   2 3883.51  101.99
  -2   4   2 3906.21   84.99
   1  -4  -2  942.81  108.59
   1  -4  -2 1090.69   40.20
  -1   4   2 1005.10   40.50
  -1   4   2 1078.69   44.10
  -1   4   2 1043.90   31.30
  -1   4   2 1184.48  103.29
   0  -4  -2 1087.69  112.99
   0  -4  -2 1189.08   30.40
   0  -4  -2 1157.08   29.70
   0   4   2 1200.18   29.90
   0   4   2 1167.18   29.50
   0   4   2 1139.79   29.90
   0   4   2 1129.49   46.80
   0   4   2 1219.18   45.00
   0   4   2 1200.28   30.90
  -1  -4  -2   55.19    5.90
  -1  -4  -2   50.59   27.10
  -1  -4  -2   49.40    6.00
  -1  -4  -2   43.60    5.90
   1   4   2   44.90    5.20
   1   4   2   54.59   11.20
   1   4   2   46.10    7.60
   1   4   2   47.30    6.10
   1   4   2   61.29    5.90
   1   4   2   48.20    5.60
  -2  -4  -2  271.47   51.29
  -2  -4  -2  258.37   15.70
  -2  -4  -2  243.98   15.00
  -2  -4  -2  239.98   16.50
   2   4   2  226.98   16.10
   2   4   2  264.97   15.20
   2   4   2  237.48   16.30
   2   4   2  274.87   15.40
   2   4   2  243.98   21.20
   2   4   2  226.58   14.80
  -3  -4  -2  382.36   23.40
  -3  -4  -2  418.66   64.69
  -3  -4  -2  338.97   20.10
   3   4   2  384.96   23.30
   3   4   2  370.56   20.80
   3   4   2  294.77   22.70
   3   4   2  327.07   25.60
   3   4   2  343.57   21.30
   3   4   2  332.57   28.80
  -4  -4  -2   11.80   14.90
  -4  -4  -2    9.90    4.80
   4   4   2   18.30    5.50
   4   4   2   25.00    6.80
   4   4   2    6.50    5.60
   4   4   2   14.10    5.60
   4   4   2   13.30    4.50
  -5  -4  -2  119.79   14.10
  -5  -4  -2  100.69   35.10
   5   4   2   89.99   11.40
   5   4   2  112.49   14.60
   5   4   2  112.99   12.20
   8  -5  -2  244.48   21.40
   8  -5  -2  235.98   17.50
   8  -5  -2  251.57   20.00
  -8   5   2  222.08   19.50
  -8   5   2  227.48   17.20
   7  -5  -2    6.20    3.50
   7  -5  -2    9.50    4.60
   7  -5  -2   11.70    4.80
  -7   5   2    1.50    5.90
  -7   5   2   12.20    5.10
  -7   5   2   10.30    6.50
  -7   5   2    8.30    6.00
  -7   5   2   12.00    4.70
  -7   5   2    8.00    3.40
   6  -5  -2   71.49   12.00
   6  -5  -2   69.79    7.90
   6  -5  -2   55.29   11.40
  -6   5   2   49.10    9.80
  -6   5   2   59.69   10.80
  -6   5   2   82.29   10.40
  -6   5   2   67.49    8.70
  -6   5   2   63.89    7.80
   5  -5  -2 1535.15   45.90
   5  -5  -2 1546.75   57.59
   5  -5  -2 1594.54   45.80
   5  -5  -2 1525.15   51.49
  -5   5   2 1497.75   53.09
  -5   5   2 1633.14   55.89
  -5   5   2 1515.65   45.00
  -5   5   2 1512.45   53.29
  -5   5   2 1590.94   50.69
  -5   5   2 1500.55   46.90
   4  -5  -2   72.39   13.10
   4  -5  -2   61.09    5.90
   4  -5  -2   73.19    8.70
   4  -5  -2   62.79    5.80
   4  -5  -2   65.99    6.60
   4  -5  -2   62.99    7.50
  -4   5   2   60.09    7.50
  -4   5   2   42.10    5.80
  -4   5   2   17.50   24.90
  -4   5   2   65.49    8.40
  -4   5   2   62.79    7.20
  -4   5   2   59.49    7.20
  -4   5   2   64.89    5.70
  -4   5   2   60.69   10.50
   3  -5  -2   34.80    8.10
   3  -5  -2   57.69    4.20
   3  -5  -2   55.59    4.40
   3  -5  -2   46.70    3.70
   3  -5  -2   56.99    5.70
   3  -5  -2   46.10    5.90
  -3   5   2   58.29    9.00
  -3   5   2   56.59    5.00
  -3   5   2   50.99    5.70
  -3   5   2   52.29   11.20
  -3   5   2   22.60   23.00
  -3   5   2   41.20    6.90
  -3   5   2   45.60    4.10
   2  -5  -2  887.51   37.00
  -2   5   2  773.72   37.20
  -2   5   2  849.91   30.00
  -2   5   2  824.92   36.10
  -2   5   2  824.42   99.39
   1  -5  -2  267.57   60.69
  -1   5   2  318.67   56.59
  -1   5   2  281.77   21.40
  -1   5   2  308.17   15.00
  -1   5   2  295.97   20.80
   0  -5  -2  152.08   55.89
   0   5   2  153.48   15.00
   0   5   2  159.58   16.20
  -1  -5  -2 2151.68   53.49
  -1  -5  -2 2139.19   52.59
  -1  -5  -2 2138.79   53.99
  -1  -5  -2 1956.00   63.99
  -1  -5  -2 2148.89  169.88
   1   5   2 2012.70   61.69
   1   5   2 2044.10   52.59
   1   5   2 2085.39   72.69
   1   5   2 2126.59   53.19
   1   5   2 2217.38   82.19
   1   5   2 2128.09   61.29
   1   5   2 2174.78   55.89
  -2  -5  -2  719.93   93.19
  -2  -5  -2  685.23   27.30
  -2  -5  -2  739.13   29.40
   2   5   2  700.13   26.50
   2   5   2  692.63   26.60
   2   5   2  712.13   26.90
   2   5   2  678.33   30.50
   2   5   2  759.02   40.00
   2   5   2  742.03   30.10
  -3  -5  -2   35.20    6.90
  -3  -5  -2   40.50    7.90
   3   5   2   34.70    7.50
   3   5   2   35.80    6.40
   3   5   2   29.80    6.20
   3   5   2   33.00    6.60
   3   5   2   27.50   10.00
  -4  -5  -2   34.00   27.20
  -4  -5  -2   55.89    9.60
   4   5   2   52.69   14.30
   4   5   2   60.09    7.70
   4   5   2   44.10    9.30
   7  -6  -2  765.62   30.90
   7  -6  -2  759.92   39.80
  -7   6   2  733.83   31.00
  -7   6   2  754.12   36.10
  -7   6   2  768.82   30.70
  -7   6   2  747.63   34.90
  -7   6   2  766.12   38.10
  -7   6   2  737.73   38.50
   6  -6  -2  631.64   35.10
   6  -6  -2  634.34   26.00
   6  -6  -2  677.33   26.50
  -6   6   2  651.23   27.10
  -6   6   2  704.33   30.70
  -6   6   2  671.03   26.00
  -6   6   2  627.94   30.40
  -6   6   2  632.64   33.10
  -6   6   2  638.24   32.80
   5  -6  -2    6.50    5.00
   5  -6  -2    8.30    2.60
   5  -6  -2    9.80    3.00
  -5   6   2    8.80    3.70
  -5   6   2    8.00    4.70
  -5   6   2    9.40    4.50
  -5   6   2    8.80    3.70
  -5   6   2    6.60    2.60
  -5   6   2    3.30    3.20
   4  -6  -2    3.70    3.30
   4  -6  -2    3.50    1.80
   4  -6  -2    3.00    1.90
   4  -6  -2    5.80    1.90
   4  -6  -2    0.70    2.20
  -4   6   2    3.20    1.50
  -4   6   2    3.00    2.10
  -4   6   2    7.00    3.10
  -4   6   2   -1.10    1.90
  -4   6   2    6.30    2.00
  -4   6   2   11.10    3.90
   3  -6  -2   47.70    9.90
  -3   6   2   52.29    8.60
  -3   6   2   41.10    9.20
  -3   6   2   47.50    8.50
   2  -6  -2 1623.74   56.39
  -2   6   2 1676.63   49.80
  -2   6   2 1579.14   56.79
  -2   6   2 1657.43   58.79
   1  -6  -2  906.11  122.89
  -1   6   2 1110.99   46.40
  -1   6   2 1178.18   36.60
  -1   6   2 1099.19   45.20
   0  -6  -2  827.32  115.79
   0   6   2  958.40   44.00
   0   6   2  981.40   33.10
  -1  -6  -2   34.30    4.20
  -1  -6  -2   27.70    4.10
   1   6   2   26.50    4.30
   1   6   2   25.20    3.40
   1   6   2   27.40    3.80
   1   6   2   43.70    7.70
   1   6   2   36.00    9.50
   1   6   2   27.70    3.30
  -2  -6  -2  267.77   14.30
  -2  -6  -2  276.97   61.69
  -2  -6  -2  233.18   20.70
   2   6   2  273.27   23.80
   2   6   2  263.77   13.90
   2   6   2  244.68   16.10
   2   6   2  281.97   14.20
  -3  -6  -2    1.00    3.50
  -3  -6  -2    7.90   21.20
   3   6   2    5.80    4.10
   3   6   2    8.10    5.20
   3   6   2    7.20    3.40
   3   6   2    5.60    2.70
   3   6   2    6.90    2.90
   7  -7  -2    3.40    3.60
   7  -7  -2   -4.00    5.70
  -7   7   2    1.00    3.40
  -7   7   2    7.60    5.80
  -7   7   2   16.60    5.10
  -7   7   2   -1.60    2.80
   6  -7  -2   -4.00    4.40
   6  -7  -2    5.80    2.60
   6  -7  -2    8.00    3.40
  -6   7   2   -5.70    3.20
  -6   7   2   -2.60    3.90
  -6   7   2   -7.60    2.80
  -6   7   2    1.80    2.20
  -6   7   2   10.00    3.00
  -6   7   2   11.80    4.10
   5  -7  -2   56.39   11.60
   5  -7  -2   77.89    6.50
   5  -7  -2   67.39    5.90
  -5   7   2   68.29    8.20
  -5   7   2   80.39   12.50
  -5   7   2   92.69    7.40
  -5   7   2   72.99    5.50
   4  -7  -2 1582.44   58.69
  -4   7   2 1591.84   53.29
  -4   7   2 1478.65   46.30
  -4   7   2 1562.84   54.99
   3  -7  -2  210.08   18.10
  -3   7   2  229.48   16.00
  -3   7   2  217.98   17.60
  -2   7   2    6.00    3.10
  -2   7   2    0.40    3.70
   1  -7  -2   -1.30   25.80
  -1   7   2   21.10    5.10
  -1   7   2   21.40    7.00
   0  -7  -2   -0.10   15.50
   0   7   2    4.50    3.40
   0   7   2   -2.90    1.70
   0   7   2    1.20    3.10
  -1  -7  -2  180.48   64.29
   1   7   2  234.28   21.50
  -2  -7  -2  612.04  100.39
   2   7   2  645.74   37.80
   2   7   2  675.63   22.20
   2   7   2  651.73   21.80
   2   7   2  681.63   23.80
   2   7   2  659.03   22.10
   6  -8  -2   41.80   10.50
  -6   8   2   48.20    9.50
  -6   8   2   45.70    4.80
  -6   8   2   46.40    8.60
  -6   8   2   43.40    5.90
  -6   8   2   42.80    5.00
   5  -8  -2  503.45   30.70
  -5   8   2  507.05   25.50
  -5   8   2  475.75   16.60
  -5   8   2  500.45   27.60
  -5   8   2  475.15   21.30
   4  -8  -2   20.10    7.20
  -4   8   2    6.50    5.40
  -4   8   2   17.50    5.80
  -4   8   2   20.60    6.90
   3  -8  -2   65.69   12.30
  -3   8   2   62.29   11.50
  -3   8   2   60.59   10.00
  -2   8   2  406.56   21.60
  -2   8   2  388.26   25.30
   1  -8  -2  832.72  132.09
  -1   8   2 1197.38   48.30
  -1   8   2 1090.39   38.00
   0  -8  -2    1.90   25.60
   0   8   2   21.40    5.20
   0   8   2    8.20    5.80
  -1  -8  -2  262.87   81.29
   1   8   2  274.67   23.10
   1   8   2  268.47   16.80
   4  -9  -2   38.90    9.90
  -4   9   2   33.90    8.30
  -4   9   2   49.40    9.00
  -3   9   2  220.38   17.40
  -3   9   2  197.58   16.60
  -2   9   2  153.58   24.30
  -2   9   2  143.39   15.20
   0  10  -3  872.61   33.10
   0  10  -3  853.21   38.10
   0 -10   3  721.83  155.88
  -1  10  -3  359.16   24.00
  -1  10  -3  402.06   22.40
   1 -10   3  310.97  101.89
  -2  10  -3   26.90    7.50
  -3  10  -3   21.20    3.50
  -3  10  -3   26.90    4.80
  -3  10  -3    8.40    4.50
  -4  10  -3    4.50    2.60
  -4  10  -3    2.50    2.30
  -4  10  -3    8.10    3.70
  -4  10  -3    4.50    2.20
  -4  10  -3   -0.20    4.20
   4 -10   3    1.90    4.40
   2   9  -3  320.07   17.20
   2   9  -3  278.67   20.70
   2   9  -3  294.67   15.10
   2   9  -3  309.07   17.90
   2   9  -3  299.17   15.60
   1   9  -3  449.86   17.30
   1   9  -3  463.45   24.80
   1   9  -3  436.56   19.90
   1   9  -3  505.85   27.80
   1   9  -3  468.35   20.00
   1   9  -3  457.65   18.00
  -1  -9   3  464.05   95.09
  -1  -9   3  423.26   17.40
   0   9  -3    8.30    3.80
   0   9  -3    6.10    2.60
   0   9  -3    2.90    3.60
   0   9  -3    8.20    2.20
   0   9  -3    8.50    2.60
   0  -9   3    3.40    2.90
   0  -9   3    8.80    2.30
   0  -9   3   27.80   25.10
  -1   9  -3  169.78   10.30
  -1   9  -3  157.08   10.20
  -1   9  -3  168.18   15.40
  -1   9  -3  155.18    9.30
   1  -9   3  150.78    8.90
   1  -9   3  187.78   74.59
   1  -9   3  153.28    7.90
  -2   9  -3   66.59    6.30
  -2   9  -3   68.09    5.40
  -2   9  -3   50.79    6.40
  -2   9  -3   61.39    5.00
  -2   9  -3   55.29   10.30
   2  -9   3   62.49    6.00
   2  -9   3   55.69    6.20
   2  -9   3   62.89    5.50
   2  -9   3   62.39   42.80
  -3   9  -3 1112.59   39.00
  -3   9  -3 1103.69   32.70
  -3   9  -3 1163.98   48.10
  -3   9  -3 1095.49   32.60
  -3   9  -3 1120.29   34.70
   3  -9   3 1116.99   37.60
   3  -9   3 1183.28   37.70
   3  -9   3 1091.89   35.10
  -4   9  -3  224.38   20.00
  -4   9  -3  200.38   13.50
  -4   9  -3  228.28   16.50
  -4   9  -3  225.58   12.90
  -4   9  -3  208.18   12.40
   4  -9   3  204.88   13.80
   4  -9   3  231.48   16.10
   4  -9   3  215.08   13.40
  -5   9  -3   56.79   11.60
  -5   9  -3   41.70    8.70
  -5   9  -3   63.69    7.10
  -5   9  -3   59.19    7.70
  -5   9  -3   52.99    9.20
   5  -9   3   48.40    8.00
   5  -9   3   49.90    9.00
   5  -9   3   61.69   11.20
   3   8  -3    6.60    3.60
   3   8  -3   14.70    4.30
   3   8  -3    4.70    3.80
   3   8  -3   18.20    6.60
   3   8  -3   25.70    7.40
   3   8  -3    7.30    5.50
  -3  -8   3   13.10    4.30
  -3  -8   3   -0.40   18.40
   2   8  -3  285.07   16.90
   2   8  -3  267.27   17.30
   2   8  -3  283.97   17.50
   2   8  -3  292.37   16.00
   2   8  -3  270.27   15.10
  -2  -8   3  299.37   15.00
  -2  -8   3  287.97   15.70
  -2  -8   3  244.38   76.69
   1   8  -3    3.80    2.50
   1   8  -3    2.00    2.40
   1   8  -3    2.30    2.20
   1   8  -3   -0.50    2.00
   1   8  -3    4.20    3.20
  -1  -8   3    6.50   18.80
  -1  -8   3    5.80    2.20
  -1  -8   3   -6.90    3.60
  -1  -8   3    0.20    1.80
   0   8  -3  775.22   25.50
   0   8  -3  765.02   26.90
   0   8  -3  785.42   27.30
   0   8  -3  723.53   33.90
   0   8  -3  788.02   29.80
   0  -8   3  803.62   24.60
   0  -8   3  683.63  114.19
   0  -8   3  748.33   32.60
   0  -8   3  743.03   26.30
   0  -8   3  765.02   26.50
  -1   8  -3  636.54   21.90
  -1   8  -3  649.43   23.20
  -1   8  -3  676.03   40.60
  -1   8  -3  655.23   21.20
  -1   8  -3  626.54   25.00
  -1   8  -3  655.53   22.00
   1  -8   3  637.64   23.10
   1  -8   3  472.05   99.59
   1  -8   3  657.23   23.90
   1  -8   3  621.44   20.60
  -2   8  -3 1983.00   50.79
  -2   8  -3 2062.09   65.29
  -2   8  -3 2049.79   52.09
  -2   8  -3 2041.20   52.99
  -2   8  -3 1709.33   77.59
   2  -8   3 1950.60   50.89
   2  -8   3 1686.93  185.68
   2  -8   3 2112.49   62.79
  -3   8  -3   59.89    7.20
  -3   8  -3   72.79    7.10
  -3   8  -3   72.69   13.00
  -3   8  -3   77.59    7.30
  -3   8  -3   64.99    8.30
   3  -8   3   75.09    8.70
   3  -8   3   76.69    8.20
   3  -8   3   70.39    7.90
  -4   8  -3  150.78   11.50
  -4   8  -3  134.99   15.40
  -4   8  -3  156.48   11.50
  -4   8  -3  150.98   14.60
  -4   8  -3  168.68   13.50
   4  -8   3  160.28   13.20
   4  -8   3  140.09   12.80
   4  -8   3  135.69   11.70
  -5   8  -3  594.24   32.20
  -5   8  -3  573.44   27.00
  -5   8  -3  566.74   33.50
  -5   8  -3  625.44   27.10
  -5   8  -3  580.94   30.20
   5  -8   3  591.54   28.80
   5  -8   3  593.54   27.70
   5  -8   3  612.24   29.60
  -6   8  -3  434.76   27.30
  -6   8  -3  399.56   26.90
  -6   8  -3  518.15   45.90
  -6   8  -3  449.26   24.00
   6  -8   3  424.16   25.30
   6  -8   3  442.26   24.70
   6  -8   3  459.55   26.50
   4   7  -3  220.38   16.10
   4   7  -3  197.38   18.80
   4   7  -3  209.08   16.30
   4   7  -3  208.48   21.90
   4   7  -3  203.08   15.70
  -4  -7   3  240.48   17.00
  -4  -7   3  155.78   55.49
  -4  -7   3  218.38   16.70
   3   7  -3  294.47   21.60
   3   7  -3  277.37   17.60
   3   7  -3  249.68   16.40
   3   7  -3  255.47   17.00
   3   7  -3  283.27   19.60
  -3  -7   3  250.57   16.20
  -3  -7   3  256.27   59.89
  -3  -7   3  265.07   17.00
   2   7  -3 1891.91   61.09
   2   7  -3 1757.32   52.09
   2   7  -3 1825.92   52.59
   2   7  -3 1821.22   54.49
   2   7  -3 1803.52   56.89
   2   7  -3 1742.13   51.09
  -2  -7   3 1811.22   52.19
  -2  -7   3 1678.53  160.08
  -2  -7   3 1775.52   51.09
   1   7  -3   81.99    7.30
   1   7  -3   99.29    9.40
   1   7  -3   98.49    8.40
   1   7  -3  109.09    9.60
   1   7  -3   88.99    9.80
  -1  -7   3   75.09    7.40
  -1  -7   3   89.69    7.40
  -1  -7   3   86.69    7.80
  -1  -7   3   77.09   10.20
  -1  -7   3   73.89   39.10
   0   7  -3  406.26   20.00
   0   7  -3  447.36   24.60
   0   7  -3  449.46   18.80
   0   7  -3  442.26   19.10
   0   7  -3  456.65   17.90
   0   7  -3  435.66   20.00
   0  -7   3  455.35   18.50
   0  -7   3  440.56   17.40
   0  -7   3  447.16   19.20
   0  -7   3  452.45   22.20
   0  -7   3  448.96   17.60
   0  -7   3  408.36   83.89
  -1   7  -3 1689.53   45.40
  -1   7  -3 1601.24   54.19
  -1   7  -3 1615.74   49.10
  -1   7  -3 1613.44   43.60
  -1   7  -3 1636.44   45.30
  -1   7  -3 1608.04   41.40
  -1   7  -3 1742.13  166.18
   1  -7   3 1665.83   43.80
   1  -7   3 1380.26  159.28
   1  -7   3 1643.94   47.70
   1  -7   3 1616.64   44.10
  -2   7  -3   19.60    4.10
  -2   7  -3   18.00    4.00
  -2   7  -3   17.90    5.90
  -2   7  -3   12.00    3.20
  -2   7  -3   18.00    5.00
   2  -7   3   16.80    4.40
   2  -7   3   11.00    3.30
   2  -7   3   25.40    5.50
  -3   7  -3   83.49    8.00
  -3   7  -3   70.59    7.50
  -3   7  -3   71.09   11.30
  -3   7  -3   72.09   11.80
  -3   7  -3   64.49    7.90
   3  -7   3   82.09    9.30
   3  -7   3   75.79    8.80
   3  -7   3   91.19    9.10
  -4   7  -3  539.95   25.10
  -4   7  -3  561.34   30.60
  -4   7  -3  549.35   31.30
  -4   7  -3  515.85   24.80
  -4   7  -3  537.45   28.10
   4  -7   3  551.04   25.60
   4  -7   3  594.24   27.20
  -5   7  -3  764.12   32.10
  -5   7  -3  755.52   38.90
  -5   7  -3  746.13   38.60
  -5   7  -3  767.92   33.30
  -5   7  -3  791.62   38.60
   5  -7   3  777.12   33.60
   5  -7   3  750.82   35.30
   5  -7   3  779.02   34.10
  -6   7  -3   14.10    5.60
  -6   7  -3   17.80    5.50
  -6   7  -3   28.60    8.30
  -6   7  -3   26.90    6.40
  -6   7  -3   15.90    6.60
   6  -7   3   22.70    6.80
   6  -7   3   13.90    6.00
   6  -7   3   25.60    6.70
   5   6  -3   26.00    7.40
   5   6  -3   25.30    6.20
   5   6  -3   17.90    6.90
   5   6  -3   29.20    7.40
   5   6  -3   36.80   10.60
  -5  -6   3   23.20    6.30
  -5  -6   3   31.00    7.90
  -5  -6   3   41.30   28.10
   4   6  -3  329.27   19.80
   4   6  -3  307.97   22.70
   4   6  -3  308.57   19.00
   4   6  -3  293.17   19.40
   4   6  -3  248.28   20.50
  -4  -6   3  284.77   19.60
  -4  -6   3  356.96   67.19
  -4  -6   3  289.27   19.20
   3   6  -3  190.88   16.60
   3   6  -3  191.68   13.60
   3   6  -3  182.38   16.50
   3   6  -3  169.88   13.90
   3   6  -3  186.18   14.20
  -3  -6   3  199.58   14.70
  -3  -6   3  215.78   52.69
  -3  -6   3  196.68   14.30
   2   6  -3  412.16   19.80
   2   6  -3  398.96   22.00
   2   6  -3  435.76   24.40
   2   6  -3  408.66   20.20
   2   6  -3  411.06   21.10
  -2  -6   3  432.96   25.30
  -2  -6   3  413.06   20.00
  -2  -6   3  408.56   19.00
  -2  -6   3  419.76   71.99
  -2  -6   3  446.16   20.50
   1   6  -3 1865.71   55.69
   1   6  -3 1846.62   50.49
   1   6  -3 1838.32   53.69
   1   6  -3 1810.12   53.49
   1   6  -3 1840.62   51.59
  -1  -6   3 1837.42   57.49
  -1  -6   3 1895.41   49.99
  -1  -6   3 1827.72   50.79
  -1  -6   3 1851.91   50.79
  -1  -6   3 1813.22  159.48
  -1  -6   3 1838.42   49.60
   0   6  -3 1922.71   55.29
   0   6  -3 1950.80   59.79
   0   6  -3 1931.61   52.29
   0   6  -3 1955.30   52.19
   0   6  -3 1894.01   52.19
   0   6  -3 1878.71   50.29
   0  -6   3 1869.11  168.68
   0  -6   3 1752.92   61.79
   0  -6   3 1962.90   53.09
   0  -6   3 1987.50   51.99
   0  -6   3 1914.81   50.09
  -1   6  -3  636.64   82.39
  -1   6  -3  551.64   22.40
  -1   6  -3  609.54   22.70
  -1   6  -3  576.94   17.70
  -1   6  -3  631.64   26.30
  -1   6  -3  603.64   21.90
  -1   6  -3  595.34   27.70
   1  -6   3  600.64   23.80
   1  -6   3  577.44   21.70
   1  -6   3  578.04   26.10
   1  -6   3  609.84   22.60
   1  -6   3  561.84   91.99
   1  -6   3  593.34   19.90
  -2   6  -3  101.79    8.80
  -2   6  -3  103.49   11.10
  -2   6  -3   65.29   35.40
  -2   6  -3  106.99   10.70
  -2   6  -3  115.09    9.80
  -2   6  -3  110.89    9.00
   2  -6   3  120.19   11.00
   2  -6   3  110.89   10.20
   2  -6   3  114.59    8.60
   2  -6   3   97.89    8.80
   2  -6   3  102.19    9.60
  -3   6  -3  395.16   24.00
  -3   6  -3  373.26   19.30
  -3   6  -3  383.16   19.70
  -3   6  -3  356.46   77.39
  -3   6  -3  350.26   22.80
  -3   6  -3  376.56   21.50
   3  -6   3  370.06   22.50
   3  -6   3  397.26   22.80
   3  -6   3  394.36   19.10
   3  -6   3  378.66   20.20
   3  -6   3  407.76   21.60
  -4   6  -3  559.24   30.50
  -4   6  -3  505.55   29.60
  -4   6  -3  528.45   25.70
  -4   6  -3  526.85   30.50
  -4   6  -3  524.45   25.80
   4  -6   3  551.14   27.50
   4  -6   3  569.74   25.60
   4  -6   3  555.34   29.20
  -5   6  -3    3.60    3.50
  -5   6  -3    0.10    2.50
  -5   6  -3    2.20    3.90
  -5   6  -3    5.60    5.10
  -5   6  -3    6.40    4.70
   5  -6   3    6.00    3.70
   5  -6   3    1.80    4.30
   5  -6   3   21.90    6.10
  -6   6  -3  652.73   32.70
  -6   6  -3  620.14   38.40
  -6   6  -3  751.72   40.80
  -6   6  -3  719.53   38.50
  -6   6  -3  699.53   33.00
   6  -6   3  689.33   22.10
   6  -6   3  697.13   35.40
   6  -6   3  739.93   34.50
   6  -6   3  675.73   32.50
  -7   6  -3  192.88   17.10
  -7   6  -3  249.68   21.90
  -7   6  -3  196.98   22.10
   7  -6   3  219.48   18.60
   7  -6   3  199.88   17.40
   7  -6   3  210.28   12.30
   7  -6   3  216.28   19.30
   6   5  -3  177.28   18.90
   6   5  -3  207.48   17.30
   6   5  -3  194.88   18.80
  -6  -5   3  167.18   17.70
  -6  -5   3  181.78   17.10
   5   5  -3   29.10    6.90
   5   5  -3   28.90    8.00
   5   5  -3   15.70    6.00
   5   5  -3   24.70    7.70
   5   5  -3   23.30    6.50
  -5  -5   3   19.70    5.90
  -5  -5   3   30.00    7.70
   4   5  -3 1286.67   45.50
   4   5  -3 1201.98   50.59
   4   5  -3 1358.66   52.59
   4   5  -3 1347.57   46.80
   4   5  -3 1339.67   47.50
  -4  -5   3 1312.07   46.30
  -4  -5   3 1346.97   49.10
   3   5  -3  133.49   13.10
   3   5  -3  118.79   13.20
   3   5  -3  141.39   11.40
   3   5  -3  127.49   11.20
   3   5  -3  127.49   11.60
  -3  -5   3  128.19   11.80
  -3  -5   3  167.68   41.20
  -3  -5   3  127.79   13.40
  -3  -5   3  142.29   11.70
   2   5  -3 1196.58   39.60
   2   5  -3 1268.57   42.10
   2   5  -3 1293.77   44.50
   2   5  -3 1301.37   45.30
   2   5  -3 1185.08   40.00
  -2  -5   3 1260.57   39.50
  -2  -5   3 1295.17   46.20
  -2  -5   3 1240.98   44.40
  -2  -5   3 1268.07   40.70
  -2  -5   3 1346.07  119.39
   1   5  -3  218.78   12.50
   1   5  -3  222.18   13.10
   1   5  -3  207.68   13.80
   1   5  -3  227.08   14.00
  -1  -5   3  219.98   12.70
  -1  -5   3  211.08   12.10
  -1  -5   3  211.28   14.30
  -1  -5   3  207.08   46.80
  -1  -5   3  213.18   12.50
  -1  -5   3  210.68   12.10
   0   5  -3  221.68   11.80
   0   5  -3  264.67   45.80
   0   5  -3  197.88   12.20
   0   5  -3  226.88   11.90
   0   5  -3  206.28   12.20
   0   5  -3  210.98   13.80
   0  -5   3  214.08   12.20
   0  -5   3  228.98   12.50
   0  -5   3  204.98   11.80
   0  -5   3  215.48   12.70
   0  -5   3  210.58   11.70
   0  -5   3  226.88   51.29
  -1   5  -3  440.76   18.20
  -1   5  -3  415.86   21.40
  -1   5  -3  435.16   64.79
  -1   5  -3  423.76   18.70
  -1   5  -3  419.76   21.40
  -1   5  -3  430.56   19.10
   1  -5   3  419.66   19.50
   1  -5   3  438.66   13.70
   1  -5   3  431.66   21.90
   1  -5   3  370.16   68.59
   1  -5   3  399.56   17.90
   1  -5   3  432.56   18.70
  -2   5  -3 3567.54   98.59
  -2   5  -3 3784.72   96.09
  -2   5  -3 3900.11   94.19
  -2   5  -3 3662.93   99.79
  -2   5  -3 3772.42  228.28
  -2   5  -3 3776.22   92.89
   2  -5   3 3753.22   97.79
   2  -5   3 3809.02   98.29
   2  -5   3 3884.41  107.79
   2  -5   3 3922.21   89.19
   2  -5   3 3757.42   93.99
   2  -5   3 3864.01   96.79
  -3   5  -3 2370.16   73.09
  -3   5  -3 2196.38   70.09
  -3   5  -3 1918.51  172.28
  -3   5  -3 2302.67   70.19
  -3   5  -3 2307.37   64.59
  -3   5  -3 2283.37   64.09
   3  -5   3 2259.67   60.69
   3  -5   3 2209.58   69.89
   3  -5   3 2204.88   69.19
   3  -5   3 2089.29   84.09
   3  -5   3 2249.68   66.79
   3  -5   3 2167.68   66.79
  -4   5  -3  231.18   16.60
  -4   5  -3  239.08   20.20
  -4   5  -3  267.57   17.80
  -4   5  -3  244.78   19.80
  -4   5  -3  283.77   22.00
  -4   5  -3  206.08   72.59
   4  -5   3  254.27   21.80
   4  -5   3  287.97   19.50
   4  -5   3  253.37   16.30
   4  -5   3  251.97   19.50
   4  -5   3  272.77   10.50
  -5   5  -3    3.00    2.10
  -5   5  -3    8.20    4.00
  -5   5  -3    6.20    4.30
   5  -5   3    1.00    1.90
   5  -5   3   -3.30    3.10
   5  -5   3    3.30    3.20
   5  -5   3    3.00    3.50
  -6   5  -3   57.59   11.70
  -6   5  -3   57.49   11.70
  -6   5  -3   56.99   10.40
   6  -5   3   74.49   12.40
   6  -5   3   47.20    9.30
   6  -5   3   68.39    7.50
   6  -5   3   77.49   12.70
  -7   5  -3    9.50    6.40
  -7   5  -3   12.50   11.50
  -7   5  -3    8.10    6.50
   7  -5   3   18.90    6.10
   7  -5   3   11.80    6.20
   7  -5   3   27.30    7.60
   7  -5   3    7.80    4.80
   6   4  -3  901.91   39.40
   6   4  -3  886.01   46.40
   6   4  -3  923.41   44.30
   6   4  -3  917.91   40.40
  -6  -4   3 1135.59   58.09
   5   4  -3 1681.33   57.29
   5   4  -3 1743.03   65.39
   5   4  -3 1751.42   57.59
   5   4  -3 1749.43   58.19
   5   4  -3 1712.33   62.99
  -5  -4   3 1681.33   60.79
  -5  -4   3 1710.63   57.49
   4   4  -3  183.08   14.40
   4   4  -3  179.58   16.50
   4   4  -3  178.88   17.30
   4   4  -3  182.68   14.50
   4   4  -3  191.88   15.00
  -4  -4   3  196.48   16.20
  -4  -4   3  199.88   15.10
   3   4  -3  110.09   12.00
   3   4  -3  129.89   11.20
   3   4  -3  114.49   10.60
   3   4  -3  107.59   11.60
   3   4  -3  141.09   14.20
   3   4  -3  123.39   11.30
  -3  -4   3  109.49   10.20
  -3  -4   3  109.19    9.90
  -3  -4   3  112.09   10.40
  -3  -4   3  120.09   11.40
   2   4  -3  276.57   17.30
   2   4  -3  264.67   17.00
   2   4  -3  272.57   15.50
   2   4  -3  251.17   14.70
   2   4  -3  245.38   15.30
  -2  -4   3  240.78   14.00
  -2  -4   3  325.07   51.99
  -2  -4   3  258.97   14.50
  -2  -4   3  242.48   14.40
  -2  -4   3  243.58   15.00
  -2  -4   3  231.68   16.10
   1   4  -3 1421.06   40.60
   1   4  -3 1385.26   41.20
   1   4  -3 1339.97   42.40
   1   4  -3 1386.76   42.30
   1   4  -3 1419.06   42.80
  -1  -4   3 1268.57   46.30
  -1  -4   3 1363.66   40.00
  -1  -4   3 1394.56   40.80
  -1  -4   3 1400.46   40.00
  -1  -4   3 1422.86   43.30
   0   4  -3  665.23   22.10
   0   4  -3  678.33   27.70
   0   4  -3  683.43   27.60
   0   4  -3  700.23   25.20
   0   4  -3  679.53   24.00
   0   4  -3  670.33   24.40
   0   4  -3  798.12   72.69
   0  -4   3  680.43   22.60
   0  -4   3  570.34   27.20
   0  -4   3  694.33   80.89
   0  -4   3  703.83   24.70
   0  -4   3  638.94   24.50
   0  -4   3  691.93   24.20
  -1   4  -3 3124.69  175.28
  -1   4  -3 3461.15   81.09
  -1   4  -3 3267.07   81.69
  -1   4  -3 3459.25   82.39
   1  -4   3 3309.17   84.19
   1  -4   3 3212.68   86.29
   1  -4   3 2701.13  178.08
   1  -4   3 3330.07   80.99
   1  -4   3 3387.06   81.69
   1  -4   3 3412.36   71.29
  -2   4  -3  104.09   10.60
  -2   4  -3  102.89   10.40
  -2   4  -3   75.59   35.30
  -2   4  -3   90.69   10.30
  -2   4  -3   83.39    8.40
  -2   4  -3   89.19    8.60
   2  -4   3   95.79    9.80
   2  -4   3   90.99    4.20
   2  -4   3  110.49   11.10
   2  -4   3  117.39   10.20
   2  -4   3   94.59    4.10
   2  -4   3   83.89    8.90
   2  -4   3   92.39   10.40
  -3   4  -3  885.81   37.00
  -3   4  -3  662.53   94.69
  -3   4  -3  862.41   39.40
  -3   4  -3  823.02   33.00
  -3   4  -3  850.81   33.30
  -3   4  -3  835.82   38.40
   3  -4   3  850.31   37.70
   3  -4   3  835.82   35.30
   3  -4   3  804.92   36.90
   3  -4   3  852.31   35.60
   3  -4   3  847.52   34.10
   3  -4   3  852.31   24.60
  -4   4  -3   22.50    7.00
  -4   4  -3   10.00    3.70
  -4   4  -3   11.70    5.00
  -4   4  -3   15.10    5.20
   4  -4   3   20.50    6.10
   4  -4   3   18.50    6.70
   4  -4   3   18.80    6.10
   4  -4   3    6.50    4.20
   4  -4   3    7.30    2.60
   4  -4   3   13.40    5.80
  -5   4  -3 1202.68   50.89
  -5   4  -3 1145.59   47.90
  -5   4  -3 1147.79   42.80
  -5   4  -3 1168.68   53.29
   5  -4   3 1188.38   47.10
   5  -4   3 1170.68   38.50
   5  -4   3 1097.89   48.40
  -6   4  -3  836.32   55.49
  -6   4  -3  820.72   36.80
  -6   4  -3  825.52   38.10
  -6   4  -3  838.82   45.30
  -6   4  -3  838.32   41.80
   6  -4   3  826.92   32.70
   6  -4   3  824.92   40.80
  -7   4  -3  531.95   36.40
  -7   4  -3  535.15   35.70
  -7   4  -3  552.34   31.80
   7  -4   3  533.55   26.30
   7  -4   3  517.15   32.00
   7  -4   3  549.35   31.50
   7   3  -3  568.24   31.20
   7   3  -3  649.93   54.39
   7   3  -3  587.74   35.10
   7   3  -3  556.44   31.20
  -7  -3   3  572.44   31.50
  -7  -3   3  540.85   33.80
   6   3  -3  201.18   16.60
   6   3  -3  174.38   15.90
   6   3  -3  161.58   19.00
   6   3  -3  141.69   16.40
  -6  -3   3  222.18   19.20
  -6  -3   3  140.79   16.30
   5   3  -3  141.49   16.60
   5   3  -3  139.79   13.90
   5   3  -3  160.38   15.70
   5   3  -3  134.29   14.70
   5   3  -3  142.69   13.50
  -5  -3   3  159.68   14.10
  -5  -3   3  152.88   15.20
   4   3  -3  392.26   25.70
   4   3  -3  412.06   24.90
   4   3  -3  377.66   21.60
   4   3  -3  343.27   20.60
   4   3  -3  365.06   21.00
   4   3  -3  413.36   24.60
  -4  -3   3  401.46   23.90
  -4  -3   3  378.56   21.40
  -4  -3   3  354.76   21.20
  -4  -3   3  354.56   24.00
  -4  -3   3  389.36   21.30
   3   3  -3 1198.08   40.60
   3   3  -3 1184.58   45.10
   3   3  -3 1222.78   44.30
   3   3  -3 1210.18   41.30
   3   3  -3 1212.28   44.90
   3   3  -3 1155.48   40.20
  -3  -3   3 1200.78   40.50
  -3  -3   3 1165.68   39.50
  -3  -3   3 1221.38   45.10
  -3  -3   3 1229.28   41.20
  -3  -3   3 1209.28   43.10
   2   3  -3 3298.17   81.89
   2   3  -3 3314.47   82.19
   2   3  -3 3226.58   85.59
   2   3  -3 3175.48   84.99
  -2  -3   3 3306.37   82.09
  -2  -3   3 3156.58   80.19
  -2  -3   3 3267.37   85.59
  -2  -3   3 3268.47   83.29
  -2  -3   3 3241.48   81.09
   1   3  -3 1084.19   34.40
   1   3  -3 1098.39   34.90
   1   3  -3 1095.49   35.50
   1   3  -3 1142.69   36.40
   1   3  -3 1118.49   34.20
  -1  -3   3 1114.69   34.50
  -1  -3   3 1099.79   33.80
  -1  -3   3 1056.39   34.10
  -1  -3   3 1139.19   35.50
  -1  -3   3 1242.38   87.69
  -1  -3   3 1125.29   34.40
   0   3  -3  149.19   10.10
   0   3  -3  157.88    8.50
   0   3  -3  146.79    9.80
   0   3  -3  158.48   27.20
   0   3  -3  149.69    9.70
   0   3  -3  158.88   11.40
   0   3  -3  143.09   10.00
   0  -3   3  148.89   10.30
   0  -3   3  136.79    9.40
   0  -3   3  144.49    8.50
   0  -3   3  162.08   11.10
   0  -3   3  177.48   34.40
  -1   3  -3  979.70   32.50
  -1   3  -3  961.50   36.20
  -1   3  -3 1077.99   34.60
  -1   3  -3 1044.50   34.00
  -1   3  -3  931.01   83.49
  -1   3  -3 1034.10   34.50
   1  -3   3 1023.50   36.20
   1  -3   3 1098.39   34.00
   1  -3   3 1054.19   33.90
   1  -3   3  988.00   26.60
   1  -3   3  973.00   37.10
   1  -3   3  997.60   33.00
  -2   3  -3  177.28   15.30
  -2   3  -3  176.08   15.00
  -2   3  -3  188.08   14.90
  -2   3  -3  178.48   12.90
  -2   3  -3  183.58   16.30
   2  -3   3  175.18    9.90
   2  -3   3  182.18   13.00
   2  -3   3  211.08   14.20
   2  -3   3  169.28   13.60
   2  -3   3  182.58   14.90
   2  -3   3  165.28   14.30
  -3   3  -3 2304.97   68.49
  -3   3  -3 2116.99   64.29
  -3   3  -3 2292.17   73.79
   3  -3   3 2138.39   70.69
   3  -3   3 2125.39   64.89
   3  -3   3 2194.88   66.99
   3  -3   3 2218.58   68.29
   3  -3   3 2233.08   71.09
   3  -3   3 2140.19   58.19
  -4   3  -3 3262.17   91.99
  -4   3  -3 3281.87   95.09
  -4   3  -3 3281.17  101.39
  -4   3  -3 3273.27   97.69
  -4   3  -3 3355.46   91.09
  -4   3  -3 3321.17   95.99
   4  -3   3 3405.46  101.29
   4  -3   3 3464.75   95.79
   4  -3   3 3220.28   92.29
   4  -3   3 3458.35   99.79
   4  -3   3 3329.47   95.79
  -5   3  -3   72.29   12.10
  -5   3  -3  106.69   12.00
  -5   3  -3  103.89   17.60
  -5   3  -3   90.89   10.90
  -5   3  -3  103.29   12.80
   5  -3   3   95.69   12.60
   5  -3   3   96.19   17.00
   5  -3   3   85.79   11.50
   5  -3   3   79.69    9.50
  -6   3  -3  183.48   20.60
  -6   3  -3  214.58   19.10
  -6   3  -3  243.28   19.20
   6  -3   3  177.68   15.50
   6  -3   3  232.78   20.70
   6  -3   3  182.48   17.20
  -7   3  -3  317.37   27.30
  -7   3  -3  322.67   28.50
  -7   3  -3  332.37   23.60
   7  -3   3  330.47   22.00
   7  -3   3  319.97   23.70
   7  -3   3  343.57   25.30
   7   2  -3  209.18   17.80
   7   2  -3  219.68   20.30
   7   2  -3  207.98   17.90
  -7  -2   3  211.28   21.00
  -7  -2   3  215.18   18.10
   6   2  -3   67.69   13.00
   6   2  -3   58.59   11.10
   6   2  -3   66.09   13.40
   6   2  -3   56.99   10.30
  -6  -2   3   89.39   15.00
  -6  -2   3   53.49    9.80
   5   2  -3   49.90   10.00
   5   2  -3   77.89    9.50
   5   2  -3   66.69    9.20
   5   2  -3   85.19   13.80
   5   2  -3   63.89    8.70
  -5  -2   3   63.69   10.80
  -5  -2   3   73.49    9.40
  -5  -2   3   66.39   11.00
   4   2  -3 3605.54   91.19
   4   2  -3 3271.17   93.79
   4   2  -3 3367.26   98.29
   4   2  -3 3512.35   89.99
   4   2  -3 3480.25   90.59
  -4  -2   3 3456.35   94.39
  -4  -2   3 3309.17   90.69
  -4  -2   3 3300.47   93.39
  -4  -2   3 3362.56   89.39
  -4  -2   3 2848.71  104.49
   3   2  -3  426.46   21.10
   3   2  -3  410.36   21.60
   3   2  -3  436.46   21.10
   3   2  -3  458.75   23.60
   3   2  -3  431.36   24.20
   3   2  -3  412.96   22.80
  -3  -2   3  442.16   21.20
  -3  -2   3  457.35   23.40
  -3  -2   3  454.55   21.50
  -3  -2   3  432.66   22.90
  -3  -2   3  420.86   20.40
   2   2  -3  589.54   24.90
   2   2  -3  581.04   23.70
   2   2  -3  582.04   25.60
   2   2  -3  571.14   22.90
   2   2  -3  604.34   20.80
   2   2  -3  577.64   25.20
   2   2  -3  550.14   22.70
  -2  -2   3  571.74   23.90
  -2  -2   3  578.64   23.00
  -2  -2   3  559.14   24.30
   1   2  -3 5477.85  124.09
   1   2  -3 5390.96  115.79
   1   2  -3 4962.40  120.19
   1   2  -3 5230.08  121.39
   1   2  -3 5232.38  121.69
   1   2  -3 5439.66  122.99
  -1  -2   3 5523.65  121.59
  -1  -2   3 5457.05  121.69
  -1  -2   3 5560.14  122.49
  -1  -2   3 5229.38  121.89
  -1  -2   3 5413.56  122.39
  -1  -2   3 5436.06  114.59
   0   2  -3 1552.94   44.00
   0   2  -3 1495.65   42.50
   0   2  -3 1537.65   41.20
   0   2  -3 1543.95   46.30
   0   2  -3 1743.33   76.29
   0  -2   3 1600.84   38.30
   0  -2   3 1557.04   43.10
   0  -2   3 1566.54   41.00
   0  -2   3 1441.66   82.29
   0  -2   3 1547.05   45.20
   0  -2   3 1561.84   44.40
  -1   2  -3 1628.84  101.79
  -1   2  -3 2082.39   55.39
  -1   2  -3 1969.40   53.79
  -1   2  -3 2081.99   53.99
  -1   2  -3 2024.00   59.19
  -1   2  -3 2121.49   57.19
   1  -2   3 1925.81   51.89
   1  -2   3 1988.10   58.29
   1  -2   3 1951.40   60.49
  -2   2  -3  526.55   27.30
  -2   2  -3  503.45   23.00
  -2   2  -3  498.55   23.50
  -2   2  -3  483.15   26.70
  -2   2  -3  511.65   23.50
   2  -2   3  534.15   25.80
   2  -2   3  525.35   22.50
   2  -2   3  494.95   23.30
   2  -2   3  454.35   29.90
   2  -2   3  494.75   23.00
   2  -2   3  517.15   26.90
  -3   2  -3  108.69   11.60
  -3   2  -3  102.39   10.80
  -3   2  -3  112.79   13.40
  -3   2  -3   89.69   11.00
  -3   2  -3  112.09   11.50
  -3   2  -3  102.79   10.60
   3  -2   3   86.19   11.40
   3  -2   3  119.89   13.40
   3  -2   3  121.79   11.90
   3  -2   3  138.39   13.00
   3  -2   3   82.89    9.70
   3  -2   3  110.19   10.30
  -4   2  -3  358.66   23.40
  -4   2  -3  404.16   23.70
  -4   2  -3  380.76   25.50
  -4   2  -3  414.46   28.40
  -4   2  -3  384.86   23.90
  -4   2  -3  348.97   23.30
   4  -2   3  396.46   22.20
   4  -2   3  371.36   25.50
   4  -2   3  411.96   27.20
   4  -2   3  346.97   22.20
   4  -2   3  365.96   23.60
   4  -2   3  358.96   23.70
  -5   2  -3  318.17   22.50
  -5   2  -3  282.17   23.30
  -5   2  -3  302.27   21.20
  -5   2  -3  284.87   22.10
  -5   2  -3  277.27   24.40
   5  -2   3  282.77   21.50
   5  -2   3  318.77   24.20
   5  -2   3  277.27   24.40
   5  -2   3  295.87   20.10
  -6   2  -3  654.93   39.90
  -6   2  -3  652.13   35.50
  -6   2  -3  623.54   33.10
   6  -2   3  594.84   35.10
   6  -2   3  709.13   36.00
   6  -2   3  645.84   34.40
  -7   2  -3  557.74   31.70
  -7   2  -3  552.94   37.90
   7  -2   3  531.55   30.40
   7  -2   3  555.64   33.60
   7  -2   3  590.54   34.00
   7   1  -3  128.19   13.70
   7   1  -3  127.79   13.70
   7   1  -3  143.59   14.50
   7   1  -3  117.79   14.20
  -7  -1   3  128.79   14.30
  -7  -1   3  122.69   15.70
  -7  -1   3  132.39   15.60
   6   1  -3  179.68   19.90
   6   1  -3  201.98   17.50
   6   1  -3  133.89   24.80
   6   1  -3  209.08   17.00
  -6  -1   3  165.58   16.90
  -6  -1   3  189.08   19.60
  -6  -1   3  190.48   18.20
  -6  -1   3  207.08   17.10
   5   1  -3 2063.39   63.29
   5   1  -3 1899.11   65.79
   5   1  -3 2004.60   65.59
   5   1  -3 2112.09   72.09
   5   1  -3 1994.50   62.99
   5   1  -3 1980.60   61.89
  -5  -1   3 1979.40   66.49
  -5  -1   3 1984.20   65.09
  -5  -1   3 2083.59   68.09
  -5  -1   3 1959.90   62.29
  -5  -1   3 1964.20   62.59
  -5  -1   3 1787.72   67.69
   4   1  -3  684.13   29.70
   4   1  -3  746.03   33.10
   4   1  -3  738.23   36.00
   4   1  -3  764.32   30.70
   4   1  -3  724.13   32.60
   4   1  -3  718.43   30.90
  -4  -1   3  789.42   36.20
  -4  -1   3  757.72   33.40
  -4  -1   3  756.32   32.10
  -4  -1   3  747.33   30.80
  -4  -1   3  737.53   33.60
  -4  -1   3  684.03   29.70
   3   1  -3 2273.17   61.29
   3   1  -3 2276.37   61.79
   3   1  -3 2160.38   63.89
   3   1  -3 2351.06   62.89
   3   1  -3 2233.08   62.09
   3   1  -3 2238.08   64.59
  -3  -1   3 2197.28   64.39
  -3  -1   3 2230.18   61.79
  -3  -1   3 2239.38   64.99
  -3  -1   3 2194.18   66.49
  -3  -1   3 2266.17   61.69
   2   1  -3    3.20    2.20
   2   1  -3   17.10    4.20
   2   1  -3    6.30    2.50
   2   1  -3    9.10    2.90
   2   1  -3    8.10    2.80
   2   1  -3    5.20    2.40
   2   1  -3   10.40    3.10
  -2  -1   3    3.50    2.00
  -2  -1   3    6.10    2.50
  -2  -1   3    6.30    2.10
  -2  -1   3    4.50    1.80
  -2  -1   3    4.80    2.20
   1   1  -3 3323.17   76.99
   1   1  -3 3248.88   77.89
   1   1  -3 3219.58   79.49
   1   1  -3 3145.19   78.29
   1   1  -3 3258.77   77.39
  -1  -1   3 3225.18   78.59
  -1  -1   3 3179.58   77.29
  -1  -1   3 3286.47   78.09
  -1  -1   3 3301.37   77.69
  -1  -1   3 3239.18   78.69
  -1  -1   3 3313.97   76.49
   0   1  -3   64.29    6.10
   0   1  -3   75.59    6.50
   0   1  -3   66.59    6.30
   0   1  -3   75.59    7.60
   0   1  -3   75.49    5.10
   0  -1   3   72.99    6.20
   0  -1   3   66.89    6.70
   0  -1   3   60.79    6.60
   0  -1   3   63.99    6.20
   0  -1   3   59.39    6.00
  -1   1  -3  713.53   30.00
  -1   1  -3  692.53   28.00
  -1   1  -3  703.23   24.80
  -1   1  -3  706.43   26.90
   1  -1   3  706.23   26.70
   1  -1   3  725.93   30.10
   1  -1   3  734.83   29.70
   1  -1   3  723.23   24.40
  -2   1  -3 7208.48  166.48
  -2   1  -3 7375.66  169.78
  -2   1  -3 7317.27  167.98
  -2   1  -3 7342.67  176.38
  -2   1  -3 7105.89  175.38
   2  -1   3 7045.50  166.58
   2  -1   3 7334.97  170.08
   2  -1   3 7398.96  174.48
   2  -1   3 7446.16  175.78
   2  -1   3 7159.58  167.38
  -3   1  -3   80.79    9.60
  -3   1  -3   82.19    9.70
  -3   1  -3   81.89   10.70
  -3   1  -3   79.29   10.40
  -3   1  -3   90.29   14.90
  -3   1  -3   82.49    9.90
   3  -1   3   78.89    9.90
   3  -1   3   83.29   10.60
   3  -1   3   76.59   11.40
   3  -1   3   91.39   11.60
   3  -1   3   82.79    9.80
   3  -1   3   81.19   10.90
  -4   1  -3    3.30    2.80
  -4   1  -3    2.10    6.40
  -4   1  -3    8.70    4.30
  -4   1  -3    6.50    4.20
   4  -1   3    1.20    2.50
   4  -1   3    3.30    3.00
   4  -1   3    3.80    2.60
   4  -1   3   12.50    5.20
   4  -1   3    4.70    3.80
   4  -1   3    4.30    4.00
  -5   1  -3  268.17   19.90
  -5   1  -3  279.77   20.80
  -5   1  -3  250.47   22.90
   5  -1   3  241.18   21.20
   5  -1   3  251.27   20.00
   5  -1   3  237.28   22.80
   5  -1   3  279.27   21.30
  -6   1  -3   31.20    9.10
  -6   1  -3   49.40   11.20
  -6   1  -3   23.80    6.40
   6  -1   3   32.70    8.80
   6  -1   3   32.20    8.50
   6  -1   3   37.30    9.50
   6  -1   3   44.70   12.50
   8   0  -3   12.70    6.40
   8   0  -3   25.90    7.20
   8   0  -3   20.20    7.10
   8   0  -3   13.10    5.90
  -8   0   3   26.00   10.70
  -8   0   3   18.50    7.10
  -8   0   3   12.30    8.80
   7   0  -3  256.27   19.50
   7   0  -3  301.07   21.60
   7   0  -3  289.47   20.70
   7   0  -3  260.67   20.30
  -7   0   3  272.17   24.00
  -7   0   3  217.58   18.80
  -7   0   3  259.27   22.20
   6   0  -3 2245.78   68.99
   6   0  -3 2207.48   75.59
   6   0  -3 2272.97   71.49
   6   0  -3 2190.68   69.19
   6   0  -3 2162.58   78.89
  -6   0   3 2292.17   70.29
  -6   0   3 2190.98   74.59
  -6   0   3 2119.89   73.29
   5   0  -3  399.96   23.50
   5   0  -3  390.76   22.40
   5   0  -3  428.56   23.10
   5   0  -3  431.96   28.00
   5   0  -3  406.76   23.30
   5   0  -3  417.46   23.50
   5   0  -3  411.46   25.30
  -5   0   3  435.86   26.20
  -5   0   3  437.16   25.30
  -5   0   3  415.16   23.20
  -5   0   3  427.96   26.50
  -5   0   3  413.36   23.30
  -5   0   3  427.36   24.60
   4   0  -3  320.27   18.30
   4   0  -3  314.47   19.40
   4   0  -3  291.97   17.90
   4   0  -3  322.87   18.20
   4   0  -3  264.47   20.30
   4   0  -3  317.27   18.60
   4   0  -3  314.67   19.90
  -4   0   3  291.37   17.80
  -4   0   3  318.97   19.50
  -4   0   3  316.87   20.30
  -4   0   3  309.77   20.30
  -4   0   3  307.27   19.70
  -4   0   3  325.37   18.40
   3   0  -3  726.03   29.60
   3   0  -3  760.52   28.60
   3   0  -3  768.62   30.00
   3   0  -3  752.42   32.00
   3   0  -3  793.82   28.40
   3   0  -3  783.32   30.10
   3   0  -3  773.32   28.50
  -3   0   3  767.82   30.50
  -3   0   3  653.33   32.50
  -3   0   3  779.42   28.90
  -3   0   3  803.72   30.80
  -3   0   3  770.22   30.50
  -3   0   3  721.53   30.70
   2   0  -3 3348.76   81.39
   2   0  -3 3165.88   80.39
   2   0  -3 3142.59   77.29
   2   0  -3 3225.88   77.29
   2   0  -3 3111.09   77.89
   2   0  -3 3185.08   76.39
  -2   0   3 3200.38   77.49
  -2   0   3 3184.68   76.99
  -2   0   3 2940.11   82.59
  -2   0   3 3269.57   79.19
  -2   0   3 3296.97   77.89
  -2   0   3 3166.48   76.79
  -2   0   3 3195.58   78.99
   1   0  -3 2783.82   61.99
   1   0  -3 2823.82   67.59
   1   0  -3 2792.72   67.79
   1   0  -3 2815.82   69.69
   1   0  -3 2809.32   68.39
   1   0  -3 2783.02   71.29
  -1   0   3 2805.52   67.69
  -1   0   3 2731.83   71.09
  -1   0   3 2891.01   67.69
  -1   0   3 2797.02   68.89
  -1   0   3 2793.32   67.69
   0   0  -3 8182.88  176.48
   0   0  -3 8220.38  175.78
   0   0  -3 8072.19  174.98
   0   0  -3 7861.81  168.08
   0   0  -3 8319.77  180.18
   0   0   3 8106.79  175.88
   0   0   3 7679.13  166.78
   0   0   3 8388.76  176.28
   0   0   3 7571.94  177.68
   0   0   3 8279.87  179.88
   0   0   3 8013.70  178.58
  -1   0  -3  348.07   15.20
  -1   0  -3  361.76   20.20
  -1   0  -3  347.37   18.60
  -1   0  -3  351.76   16.80
  -1   0  -3  356.76   17.60
   1   0   3  375.46   21.90
   1   0   3  375.86   20.40
   1   0   3  342.87   15.30
   1   0   3  359.96   17.50
   1   0   3  329.07   18.30
   1   0   3  349.57   19.20
  -2   0  -3    0.20    2.00
  -2   0  -3    7.30    2.80
  -2   0  -3    0.90    1.40
  -2   0  -3   13.20    4.30
   2   0   3    5.80    3.00
   2   0   3    2.00    1.40
   2   0   3    0.40    2.10
   2   0   3    5.00    2.80
   2   0   3   17.40    5.20
   2   0   3   -0.40    2.30
  -3   0  -3  293.07   22.60
  -3   0  -3  284.97   20.40
  -3   0  -3  324.97   19.40
  -3   0  -3  316.87   23.30
  -3   0  -3  293.37   19.10
   3   0   3  305.27   21.00
   3   0   3  286.87   18.80
   3   0   3  298.07   20.20
   3   0   3  290.97   21.40
   3   0   3  295.27   21.70
   3   0   3  317.67   19.60
  -4   0  -3  693.03   32.70
  -4   0  -3  632.14   36.80
  -4   0  -3  669.83   35.00
  -4   0  -3  652.13   37.10
  -4   0  -3  725.93   33.30
   4   0   3  685.53   35.90
   4   0   3  687.43   37.10
   4   0   3  703.83   33.80
   4   0   3  656.33   32.90
   4   0   3  714.13   35.50
   4   0   3  685.43   32.90
  -5   0  -3  979.60   46.80
  -5   0  -3  981.60   48.80
  -5   0  -3  946.81   41.50
   5   0   3  906.01   46.20
   5   0   3 1026.10   46.00
   5   0   3 1005.60   45.20
   5   0   3  999.50   43.50
  -6   0  -3   67.49   10.80
  -6   0  -3  105.59   19.10
  -6   0  -3   86.29   13.90
   6   0   3   85.69   17.00
   6   0   3   87.19   11.80
   6   0   3   62.29   12.80
   6   0   3   74.09   13.10
   8  -1  -3  345.97   24.70
   8  -1  -3  332.47   23.00
   8  -1  -3  337.07   23.40
  -8   1   3  369.06   37.30
  -8   1   3  352.36   26.90
  -8   1   3  396.96   32.10
   7  -1  -3   34.70    7.70
   7  -1  -3   37.30    8.20
   7  -1  -3   29.80    7.20
   7  -1  -3   25.30    6.80
  -7   1   3   32.10    9.70
  -7   1   3   16.30    6.80
  -7   1   3   28.80    8.10
  -7   1   3   43.00    8.40
   6  -1  -3    2.20    1.60
   6  -1  -3   -1.00    2.60
   6  -1  -3    0.10    2.50
   6  -1  -3    0.50    2.70
  -6   1   3    2.90    2.80
  -6   1   3    8.10    4.50
  -6   1   3    7.60    4.40
  -6   1   3    2.30    3.20
   5  -1  -3   66.99   11.80
   5  -1  -3   66.29    8.90
   5  -1  -3   62.89   17.40
   5  -1  -3   82.49   10.50
   5  -1  -3   78.59    9.50
   5  -1  -3   72.49    8.70
   5  -1  -3   75.29    9.10
  -5   1   3  105.69   11.50
  -5   1   3   72.19    9.10
  -5   1   3   57.59   10.40
  -5   1   3   82.79   10.50
  -5   1   3   64.19    8.50
   4  -1  -3 1053.89   36.60
   4  -1  -3 1093.79   37.20
   4  -1  -3 1057.79   40.40
   4  -1  -3 1054.69   38.60
   4  -1  -3 1055.19   37.50
   4  -1  -3 1031.90   39.80
   4  -1  -3 1083.19   43.60
  -4   1   3 1085.89   40.60
  -4   1   3 1007.00   38.30
  -4   1   3 1078.09   37.70
  -4   1   3 1030.20   39.70
  -4   1   3 1030.10   36.40
  -4   1   3 1044.50   38.70
   3  -1  -3 6040.40  139.49
   3  -1  -3 5854.21  135.79
   3  -1  -3 5744.33  141.59
   3  -1  -3 6032.30  135.39
   3  -1  -3 6147.79  136.79
  -3   1   3 6094.39  137.89
  -3   1   3 5986.00  138.29
  -3   1   3 5809.22  136.49
  -3   1   3 6020.10  139.89
  -3   1   3 5802.32  135.49
   2  -1  -3  482.45   18.60
   2  -1  -3  505.35   23.60
   2  -1  -3  498.25   20.80
   2  -1  -3  519.15   18.20
   2  -1  -3  508.95   23.10
   2  -1  -3  535.75   19.30
  -2   1   3  470.65   21.20
  -2   1   3  479.25   18.50
  -2   1   3  511.95   19.90
  -2   1   3  500.25   18.80
  -2   1   3  488.05   22.40
  -2   1   3  498.45   18.00
  -2   1   3  479.85   18.80
   1  -1  -3    2.30    1.30
   1  -1  -3    4.60    2.20
   1  -1  -3    2.90    1.50
   1  -1  -3    1.80    1.00
  -1   1   3    2.40    1.10
  -1   1   3    0.90    4.10
  -1   1   3    3.10    2.20
  -1   1   3   -0.30    0.80
  -1   1   3    1.30    1.10
   0  -1  -3  336.47   15.40
   0  -1  -3  338.67   15.00
   0  -1  -3  361.26   15.00
   0  -1  -3  327.67   38.00
   0   1   3  377.16   15.90
   0   1   3  326.67   16.30
   0   1   3  385.56   19.90
   0   1   3  359.86   18.10
  -1  -1  -3    1.40    1.40
  -1  -1  -3   11.60    2.90
  -1  -1  -3    4.50    2.60
  -1  -1  -3    3.60    5.20
  -1  -1  -3   -0.80    1.00
  -1  -1  -3    1.50    1.30
   1   1   3    3.40    2.20
   1   1   3    7.00    3.20
   1   1   3   -0.20    1.40
   1   1   3    0.80    1.70
   1   1   3    1.50    2.40
  -2  -1  -3   85.39    9.50
  -2  -1  -3   78.19    8.20
  -2  -1  -3   88.39    9.30
  -2  -1  -3   76.89   10.00
   2   1   3   84.59   10.10
   2   1   3   72.39    8.40
   2   1   3   87.59    9.30
   2   1   3   80.39   10.30
   2   1   3   69.69   11.90
   2   1   3   67.99    8.50
  -3  -1  -3 4155.68  116.79
  -3  -1  -3 4013.30  110.29
  -3  -1  -3 3891.91  107.69
  -3  -1  -3 4215.48  107.89
  -3  -1  -3 4208.98  120.99
  -3  -1  -3 4267.47  106.99
   3   1   3 4131.19  115.19
   3   1   3 3938.51  108.39
   3   1   3 4112.59  107.09
   3   1   3 4204.68  107.59
   3   1   3 4279.37  114.99
   3   1   3 4141.19  112.79
  -4  -1  -3  574.14   34.10
  -4  -1  -3  485.65   27.10
  -4  -1  -3  521.75   28.10
   4   1   3  509.55   31.20
   4   1   3  489.35   27.70
   4   1   3  514.65   29.20
   4   1   3  527.65   27.90
   4   1   3  524.05   31.10
   4   1   3  519.35   29.80
  -5  -1  -3   22.90    6.80
  -5  -1  -3   30.20    8.10
  -5  -1  -3   18.50    7.10
   5   1   3   26.90    7.40
   5   1   3   31.80    8.70
   5   1   3   15.50    6.20
   5   1   3   10.10    4.90
  -6  -1  -3   99.09   13.50
  -6  -1  -3  145.59   22.60
  -6  -1  -3  100.79   15.80
   6   1   3  113.89   15.30
   6   1   3  104.99   13.10
   6   1   3   90.69   15.00
   8  -2  -3  441.06   26.70
   8  -2  -3  505.15   28.40
   8  -2  -3  461.25   26.90
  -8   2   3  484.85   31.00
  -8   2   3  416.56   35.40
  -8   2   3  415.26   29.70
   7  -2  -3  127.09   14.30
   7  -2  -3  151.88   14.30
   7  -2  -3  167.78   15.10
   7  -2  -3  152.48   14.50
  -7   2   3  132.89   16.20
  -7   2   3  133.29   15.50
  -7   2   3  128.89   13.40
  -7   2   3  163.28   16.80
   6  -2  -3   62.79    8.20
   6  -2  -3   51.89    9.10
   6  -2  -3   47.50    8.90
  -6   2   3   53.79   10.60
  -6   2   3   54.39   10.30
  -6   2   3   56.29   13.40
  -6   2   3   39.20    8.40
  -6   2   3   80.59   13.80
  -6   2   3   88.39   14.30
   5  -2  -3 2295.47   67.69
   5  -2  -3 2500.35   83.89
   5  -2  -3 2287.57   66.59
   5  -2  -3 2324.17   68.29
   5  -2  -3 2278.97   75.89
   5  -2  -3 2407.16   66.99
   5  -2  -3 2315.87   73.29
  -5   2   3 2297.67   68.29
  -5   2   3 2236.98   65.89
  -5   2   3 2327.97   71.99
  -5   2   3 2285.57   70.89
  -5   2   3 2275.17   68.19
  -5   2   3 2341.27   71.89
   4  -2  -3   26.40    5.20
   4  -2  -3   27.60    6.10
   4  -2  -3   34.90    7.60
   4  -2  -3   28.60    7.60
   4  -2  -3   28.10    5.50
   4  -2  -3   34.00    6.50
   4  -2  -3   26.20    5.90
  -4   2   3   17.20    4.60
  -4   2   3   38.30    7.90
  -4   2   3   23.70    5.60
  -4   2   3   24.90    6.50
  -4   2   3   32.90    6.00
  -4   2   3   36.80    6.70
   3  -2  -3   25.60    4.60
   3  -2  -3   25.80    4.90
   3  -2  -3   22.90    5.20
   3  -2  -3   28.10    5.20
   3  -2  -3   16.90    4.80
  -3   2   3   24.90    5.00
  -3   2   3   30.10    4.00
  -3   2   3   29.80    5.90
  -3   2   3   21.80    6.00
  -3   2   3   27.20    5.70
  -3   2   3   14.20    4.00
  -3   2   3   22.90    4.60
   2  -2  -3 1356.16   39.40
   2  -2  -3 1338.67   34.70
   2  -2  -3 1361.16   36.60
   2  -2  -3 1353.06   36.70
   2  -2  -3 1397.46   38.20
  -2   2   3 1363.96   36.60
  -2   2   3 1375.96   36.60
  -2   2   3 1315.37   36.20
  -2   2   3 1342.77   45.90
  -2   2   3 1332.07   37.10
  -2   2   3 1347.47   41.00
   1  -2  -3 1381.36   39.20
   1  -2  -3 1387.16   47.00
   1  -2  -3 1454.55   37.60
   1  -2  -3 1429.36   37.60
   1  -2  -3 1427.86   37.00
  -1   2   3 1455.55   37.40
  -1   2   3 1418.56   37.20
  -1   2   3 1421.36   96.69
  -1   2   3 1435.76   38.30
  -1   2   3 1386.16   37.90
  -1   2   3 1425.56   48.20
   0  -2  -3 3342.47   80.29
   0  -2  -3 3212.38  161.88
   0  -2  -3 3438.96   84.29
   0  -2  -3 3223.78   78.29
   0  -2  -3 3330.47   78.79
   0   2   3 3471.75   82.79
   0   2   3 3333.77   90.69
   0   2   3 3499.95   99.79
   0   2   3 3279.57   81.59
   0   2   3 3344.67   79.49
   0   2   3 3548.24   84.39
   0   2   3 3426.46   75.39
  -1  -2  -3  696.63   27.30
  -1  -2  -3  699.23   29.80
  -1  -2  -3  717.33   67.49
  -1  -2  -3  651.93   24.90
  -1  -2  -3  679.63   26.40
   1   2   3  713.73   31.30
   1   2   3  717.33   29.90
   1   2   3  706.23   27.80
   1   2   3  698.33   24.70
   1   2   3  667.03   34.80
   1   2   3  653.53   28.30
   1   2   3  725.73   26.30
  -2  -2  -3   35.30   17.40
  -2  -2  -3   32.40    6.50
  -2  -2  -3   39.10    9.30
  -2  -2  -3   43.10    8.20
   2   2   3   42.50    8.30
   2   2   3   32.50    6.20
   2   2   3   27.80    7.50
   2   2   3   32.60    7.30
   2   2   3   37.90    7.50
   2   2   3   35.50    6.70
  -3  -2  -3  675.43   32.10
  -3  -2  -3  638.64   34.20
   3   2   3  710.03   33.50
   3   2   3  658.63   30.30
   3   2   3  642.94   33.20
   3   2   3  633.94   30.40
   3   2   3  667.83   30.00
   3   2   3  712.23   37.40
  -4  -2  -3  402.66   24.00
  -4  -2  -3  355.66   26.30
   4   2   3  360.16   26.30
   4   2   3  355.26   25.20
   4   2   3  344.37   22.30
   4   2   3  382.96   23.50
   4   2   3  350.06   23.70
  -5  -2  -3  204.78   18.00
  -5  -2  -3  235.18   22.60
   5   2   3  227.08   19.00
   5   2   3  238.08   21.60
   5   2   3  239.48   18.80
   5   2   3  213.38   20.40
   8  -3  -3  624.44   31.20
   8  -3  -3  650.53   32.00
   8  -3  -3  620.94   32.00
  -8   3   3  627.54   42.30
  -8   3   3  579.44   37.20
  -8   3   3  687.73   37.40
  -8   3   3  678.63   36.90
   7  -3  -3   14.30    5.40
   7  -3  -3   17.60    6.20
   7  -3  -3   13.40    5.10
  -7   3   3    7.80    6.50
  -7   3   3   12.70    6.00
  -7   3   3   11.70    4.90
  -7   3   3   24.70    8.40
  -7   3   3   11.80    4.30
   6  -3  -3    0.40    2.40
   6  -3  -3    0.60    2.40
   6  -3  -3    2.50    2.00
   6  -3  -3   -3.90    2.30
  -6   3   3   -7.70    2.80
  -6   3   3    2.30    4.20
  -6   3   3   -1.90    3.60
  -6   3   3    1.70    3.40
  -6   3   3    3.00    2.70
  -6   3   3    2.40    2.00
   5  -3  -3 1724.53   52.19
   5  -3  -3 1659.53   58.79
   5  -3  -3 1706.43   60.19
   5  -3  -3 1701.43   51.59
   5  -3  -3 1757.62   54.09
  -5   3   3 1702.73   56.99
  -5   3   3 1674.83   51.29
  -5   3   3 1713.83   57.19
  -5   3   3 1718.43   54.49
  -5   3   3 1748.33   56.89
  -5   3   3 1708.23   54.19
   4  -3  -3   70.69    8.30
   4  -3  -3   64.89    7.40
   4  -3  -3   62.39   11.10
   4  -3  -3   66.99    6.90
   4  -3  -3   94.69   10.90
  -4   3   3   67.29    7.10
  -4   3   3   71.99    8.10
  -4   3   3   75.99    8.40
  -4   3   3   91.89    9.60
  -4   3   3   76.19    8.40
  -4   3   3   73.79    7.80
  -4   3   3   73.29    9.20
   3  -3  -3  865.71   28.00
   3  -3  -3  889.21   28.30
   3  -3  -3  923.01   32.90
   3  -3  -3  851.81   27.10
   3  -3  -3  841.22   37.30
  -3   3   3  900.61   33.10
  -3   3   3  847.32   26.90
  -3   3   3  928.11   29.50
  -3   3   3  884.21   36.10
  -3   3   3  872.51   29.50
  -3   3   3  884.41   28.30
  -3   3   3  915.51   31.30
  -3   3   3  657.53   92.59
   2  -3  -3 2392.16   72.49
   2  -3  -3 2444.46   60.49
   2  -3  -3 2396.06   56.99
   2  -3  -3 2461.35   58.99
   2  -3  -3 2515.95   57.49
  -2   3   3 2456.75   57.99
  -2   3   3 2404.56   56.79
  -2   3   3 2148.69  153.58
  -2   3   3 2441.26   57.09
  -2   3   3 2505.25   57.99
  -2   3   3 2462.75   59.79
   1  -3  -3    4.50    1.70
   1  -3  -3    3.90    1.60
   1  -3  -3   11.60   11.50
   1  -3  -3    6.00    2.00
   1  -3  -3    7.00    3.20
   1  -3  -3    3.90    1.90
  -1   3   3    5.90    1.90
  -1   3   3    3.90    1.40
  -1   3   3    2.10    1.20
  -1   3   3    1.20    8.20
  -1   3   3    4.30    1.80
  -1   3   3    5.50    1.60
  -1   3   3    4.30    3.80
   0  -3  -3   10.30   14.90
   0  -3  -3   14.60    2.80
   0  -3  -3    7.80    3.40
   0  -3  -3    7.20    2.80
   0  -3  -3   13.60    2.70
   0   3   3   12.30    2.90
   0   3   3    1.20    3.40
   0   3   3    5.10    3.70
   0   3   3   10.00    3.00
   0   3   3   15.60    3.20
   0   3   3   14.60    3.60
  -1  -3  -3 3026.10   77.69
  -1  -3  -3 3179.68  175.78
  -1  -3  -3 3131.59   78.89
  -1  -3  -3 3092.39   76.19
  -1  -3  -3 3104.79   82.89
   1   3   3 2983.50   88.69
   1   3   3 3200.28   77.39
   1   3   3 3062.49   76.89
   1   3   3 3175.28   81.59
   1   3   3 2897.91   77.99
   1   3   3 3109.59   95.09
   1   3   3 3087.19   80.49
  -2  -3  -3  365.26   19.90
  -2  -3  -3  405.56   57.99
  -2  -3  -3  388.76   23.30
   2   3   3  386.16   20.10
   2   3   3  371.66   20.20
   2   3   3  405.36   22.00
   2   3   3  372.96   19.50
   2   3   3  399.66   27.50
   2   3   3  375.56   21.80
  -3  -3  -3  445.96   24.10
  -3  -3  -3  468.05   64.19
   3   3   3  499.35   31.80
   3   3   3  451.15   26.70
   3   3   3  479.25   26.00
   3   3   3  416.06   23.60
   3   3   3  427.96   25.10
   3   3   3  455.15   23.90
  -4  -3  -3  378.16   60.19
  -4  -3  -3  325.37   21.80
  -4  -3  -3  298.57   23.60
   4   3   3  329.87   26.40
   4   3   3  352.16   22.80
   4   3   3  310.37   20.80
   4   3   3  300.17   23.10
   4   3   3  319.47   20.90
  -5  -3  -3   45.70   12.10
  -5  -3  -3   67.79   12.10
   5   3   3   60.99   10.70
   5   3   3   45.30    8.70
   5   3   3   61.89   13.30
   8  -4  -3   13.70    6.20
   8  -4  -3   27.30    7.80
   8  -4  -3   36.60    7.60
   8  -4  -3   27.30    6.70
  -8   4   3   35.80    7.40
  -8   4   3   19.30    7.40
  -8   4   3   20.50    9.60
   7  -4  -3 2257.67   67.29
   7  -4  -3 2244.48   66.39
   7  -4  -3 2180.58   75.19
  -7   4   3 2151.18   75.99
  -7   4   3 2136.09   65.79
  -7   4   3 2168.28   73.39
  -7   4   3 2208.48   72.49
  -7   4   3 2242.48   72.89
   6  -4  -3  281.97   17.50
   6  -4  -3  253.67   21.00
   6  -4  -3  271.07   21.30
  -6   4   3  286.77   17.40
  -6   4   3  266.67   18.10
  -6   4   3  284.57   19.90
  -6   4   3  331.37   21.80
  -6   4   3  308.57   22.10
  -6   4   3  279.27   19.40
   5  -4  -3   62.89    6.90
   5  -4  -3   47.30   10.20
   5  -4  -3   58.49    7.10
   5  -4  -3   63.89   11.90
  -5   4   3   41.30    7.80
  -5   4   3   62.79    8.40
  -5   4   3   55.89    6.80
  -5   4   3   63.39    8.10
  -5   4   3   53.89    9.40
  -5   4   3   46.50    8.70
   4  -4  -3   55.99    6.00
   4  -4  -3   59.59   11.70
   4  -4  -3   54.89    7.00
   4  -4  -3   54.09    9.10
   4  -4  -3   53.59    5.70
   4  -4  -3   52.79    6.60
  -4   4   3   47.50    8.60
  -4   4   3   50.89    6.50
  -4   4   3   50.09    5.40
  -4   4   3   63.79    8.00
  -4   4   3   52.49    8.60
  -4   4   3   48.00    6.00
  -4   4   3   41.50   30.20
  -4   4   3   60.19    7.30
   3  -4  -3   30.90    4.00
   3  -4  -3   40.00    9.00
   3  -4  -3   47.30    5.10
   3  -4  -3   35.70    4.30
   3  -4  -3   40.30    5.50
  -3   4   3   25.70    7.10
  -3   4   3   36.80    4.70
  -3   4   3   43.20    5.60
  -3   4   3   36.10    4.40
  -3   4   3   40.70    4.30
  -3   4   3   32.50   29.90
  -3   4   3   43.40    7.20
  -3   4   3   39.80    3.80
   2  -4  -3  906.71   38.30
  -2   4   3  889.11   24.40
  -2   4   3  878.51   38.40
  -2   4   3  880.91   24.20
  -2   4   3  830.72   94.89
  -2   4   3  911.41   28.80
   1  -4  -3  374.96   12.30
  -1   4   3  374.16   26.20
  -1   4   3  390.36   24.30
  -1   4   3  372.26   13.80
  -1   4   3  404.66   57.59
  -1   4   3  371.96   14.80
  -1   4   3  354.96   11.70
   0  -4  -3  925.51   26.00
   0  -4  -3  874.71   27.60
   0  -4  -3  907.01   27.00
   0  -4  -3  922.11   24.60
   0  -4  -3  789.02   96.79
   0   4   3  841.32   27.60
   0   4   3  864.21   26.40
   0   4   3  929.81   43.80
   0   4   3  888.61   39.60
   0   4   3  906.31   26.00
   0   4   3  905.71   27.20
   0   4   3  870.51   28.80
  -1  -4  -3  786.52   30.10
  -1  -4  -3  757.02   26.30
  -1  -4  -3  740.83   90.79
  -1  -4  -3  801.42   27.20
  -1  -4  -3  781.52   27.80
   1   4   3  768.32   28.40
   1   4   3  705.83   39.00
   1   4   3  779.72   27.30
   1   4   3  800.02   29.00
   1   4   3  742.63   28.10
   1   4   3  768.92   26.60
  -2  -4  -3   -0.20    2.20
  -2  -4  -3    2.50    3.10
  -2  -4  -3    7.60   15.30
   2   4   3    3.90    3.70
   2   4   3    3.70    2.50
   2   4   3    2.80    2.30
   2   4   3    8.40    3.40
   2   4   3    4.50    2.70
   2   4   3    2.30    3.90
  -3  -4  -3    6.80    4.90
  -3  -4  -3   14.80    5.00
   3   4   3    9.70    3.50
   3   4   3   14.50    9.20
   3   4   3    5.70    3.00
   3   4   3   10.70    4.60
   3   4   3    1.80    5.50
   3   4   3   14.60    4.40
  -4  -4  -3 1589.14  132.99
  -4  -4  -3 1438.06   55.89
  -4  -4  -3 1523.35   52.69
   4   4   3 1525.85   63.19
   4   4   3 1451.85   51.69
   4   4   3 1370.86   49.70
   4   4   3 1408.66   50.29
   4   4   3 1407.26   54.99
   7  -5  -3  128.39   14.30
   7  -5  -3   90.39   10.30
   7  -5  -3   91.79   10.10
  -7   5   3   76.99   12.90
  -7   5   3   94.79    9.80
  -7   5   3  103.79   13.20
  -7   5   3   86.99   14.30
  -7   5   3   84.29   11.20
   6  -5  -3   44.50   10.00
   6  -5  -3   56.29    6.90
   6  -5  -3   51.09    8.10
  -6   5   3   41.90    8.80
  -6   5   3   30.80    8.40
  -6   5   3   50.49    6.70
  -6   5   3   47.30    8.70
  -6   5   3   41.70    7.90
  -6   5   3   50.09    9.70
   5  -5  -3   -1.40    1.80
   5  -5  -3    7.60    2.50
   5  -5  -3   -1.50    4.10
   5  -5  -3    5.00    3.40
  -5   5   3    0.60    1.50
  -5   5   3   20.90    6.30
  -5   5   3   -1.50    2.50
  -5   5   3   -1.60    1.20
  -5   5   3   -4.00    3.00
  -5   5   3    0.70    2.80
   4  -5  -3 4021.20  112.49
   4  -5  -3 4066.49   93.89
   4  -5  -3 3928.01   97.09
   4  -5  -3 3949.20   92.69
  -4   5   3 3903.31   98.49
  -4   5   3 3910.41   93.79
  -4   5   3 4067.09  101.49
  -4   5   3 3996.20   95.29
  -4   5   3 4045.40  102.79
  -4   5   3 4111.29   90.99
   3  -5  -3  282.17   21.20
  -3   5   3  337.17   12.10
  -3   5   3  338.37   14.30
  -3   5   3  337.77   17.70
  -3   5   3  346.27   22.30
  -3   5   3  319.37   66.39
   2  -5  -3  488.85   27.40
  -2   5   3  501.35   28.30
  -2   5   3  463.25   72.49
  -2   5   3  478.45   30.60
  -2   5   3  488.95   20.00
   1  -5  -3  123.19   47.90
  -1   5   3  178.58   40.00
  -1   5   3  138.29   15.30
  -1   5   3  171.18   17.50
  -1   5   3  160.08    9.90
   0  -5  -3  173.18   57.69
   0  -5  -3  169.38    8.40
   0  -5  -3  180.38    8.00
   0   5   3  158.88   10.10
   0   5   3  168.88   18.00
   0   5   3  177.58   11.80
   0   5   3  173.18    8.10
  -1  -5  -3  184.38   11.40
  -1  -5  -3  142.99   52.09
  -1  -5  -3  189.68   10.40
   1   5   3  165.28   10.90
   1   5   3  173.28   17.90
   1   5   3  176.88   12.80
   1   5   3  169.08   10.10
   1   5   3  176.98   11.00
  -2  -5  -3 1176.38   39.60
  -2  -5  -3 1212.38   41.70
   2   5   3 1185.28   38.20
   2   5   3 1280.67   55.79
   2   5   3 1224.98   39.50
   2   5   3 1156.98   41.40
   2   5   3 1223.18   41.50
  -3  -5  -3  296.27   18.80
  -3  -5  -3  305.57   20.20
  -3  -5  -3  239.08   56.69
   3   5   3  294.17   17.60
   3   5   3  286.37   17.70
   3   5   3  332.07   26.10
   3   5   3  289.97   19.10
   3   5   3  276.47   17.10
   7  -6  -3  351.06   26.10
   7  -6  -3  281.87   23.10
   7  -6  -3  352.66   18.90
  -7   6   3  329.07   17.90
  -7   6   3  330.87   27.00
  -7   6   3  326.77   24.20
  -7   6   3  305.47   22.20
   6  -6  -3  588.74   23.90
   6  -6  -3  603.54   24.70
   6  -6  -3  615.14   35.10
  -6   6   3  596.54   26.60
  -6   6   3  635.54   23.90
  -6   6   3  605.84   32.20
  -6   6   3  530.85   25.70
  -6   6   3  595.54   30.50
  -6   6   3  592.84   27.80
   5  -6  -3  215.88   12.10
   5  -6  -3  228.38   20.30
   5  -6  -3  223.88   14.80
  -5   6   3  234.58   16.20
  -5   6   3  212.68   13.70
  -5   6   3  220.98   13.00
  -5   6   3  220.28   11.20
  -5   6   3  243.78   17.40
  -5   6   3  229.88   16.30
   4  -6  -3    6.60    2.10
   4  -6  -3   -3.20    3.60
  -4   6   3   -1.90    2.30
  -4   6   3    8.60    2.10
  -4   6   3    2.10    2.60
  -4   6   3    5.10    4.00
   3  -6  -3  299.47   22.00
  -3   6   3  293.87   23.40
  -3   6   3  325.57   17.60
   2  -6  -3   80.69   13.50
  -2   6   3  114.69   14.20
  -2   6   3  101.49    9.20
   1  -6  -3 1282.07  146.89
  -1   6   3 1634.94   45.20
  -1   6   3 1647.84   62.09
   0  -6  -3   12.00   18.50
   0   6   3   36.30    6.30
   0   6   3   27.60    5.10
   0   6   3   20.30    8.20
  -1  -6  -3  482.45   86.19
  -1  -6  -3  487.75   17.90
   1   6   3  463.35   31.60
   1   6   3  481.25   16.70
   1   6   3  484.95   16.50
   1   6   3  469.05   16.50
   1   6   3  495.15   17.50
  -2  -6  -3   72.29    8.20
  -2  -6  -3   41.20   29.60
   2   6   3   85.09   10.10
   2   6   3   76.09    7.90
   2   6   3   89.49    7.40
   2   6   3  101.89   17.00
   2   6   3   76.89    7.10
   6  -7  -3  325.37   25.70
   6  -7  -3  328.87   15.80
  -6   7   3  335.47   22.10
  -6   7   3  312.37   20.40
  -6   7   3  345.97   14.50
  -6   7   3  313.17   16.40
  -6   7   3  288.37   23.20
  -6   7   3  295.07   17.60
   5  -7  -3   13.50    6.40
   5  -7  -3    5.50    2.20
  -5   7   3   10.10    4.00
  -5   7   3   10.90    5.30
  -5   7   3    3.80    2.10
  -5   7   3    4.20    3.00
   4  -7  -3    7.60    3.40
  -4   7   3    4.20    4.80
  -4   7   3    6.60    3.70
  -4   7   3    2.70    3.80
   3  -7  -3  772.32   37.40
  -3   7   3  785.82   38.30
  -3   7   3  747.83   30.10
  -2   7   3  394.06   26.80
  -2   7   3  399.06   19.50
   1  -7  -3  249.88   80.29
  -1   7   3  251.37   14.40
  -1   7   3  241.78   21.20
   0  -7  -3  461.95   93.59
   0   7   3  559.34   22.40
   0   7   3  498.45   27.70
   0   7   3  581.34   35.10
  -1  -7  -3  295.27   72.89
   1   7   3  362.66   27.70
   1   7   3  373.26   18.30
   5  -8  -3   15.00    7.10
  -5   8   3   10.00    6.80
  -5   8   3   20.10    6.40
  -5   8   3   22.60    7.00
   4  -8  -3   44.20    9.70
  -4   8   3   45.20    9.50
  -4   8   3   60.79   10.00
   3  -8  -3  667.43   34.70
  -3   8   3  718.33   35.70
  -3   8   3  689.53   29.00
  -2   8   3   67.29    8.20
  -2   8   3   99.89   13.60
   1  -8  -3  255.27   85.49
  -1   8   3  344.67   25.30
  -1   8   3  328.07   18.50
  -1   8   3  345.87   17.90
   0  -8  -3  100.39   54.09
   0   8   3  110.59   14.70
   1  10  -4   81.99   16.20
   1  10  -4  104.99    9.60
   1  10  -4  103.69    9.20
   1  10  -4  105.59   13.50
   1  10  -4  114.89    8.70
  -1 -10   4  124.89   55.09
   0  10  -4  168.98   11.70
   0  10  -4  220.68   18.10
   0  10  -4  204.08   12.40
   0  10  -4  200.48   13.00
   0  10  -4  179.58    9.70
   0  10  -4  194.38   10.50
   0 -10   4  182.08   14.40
   0 -10   4  159.18   67.19
  -1  10  -4  738.03   23.10
  -1  10  -4  767.92   26.50
  -1  10  -4  765.82   23.70
  -1  10  -4  777.92   37.60
  -1  10  -4  754.42   22.80
  -1  10  -4  781.12   28.40
   1 -10   4  591.84  115.79
   1 -10   4  758.52   25.60
   1 -10   4  750.92   24.90
  -2  10  -4  202.88   12.00
  -2  10  -4  199.98   13.60
  -2  10  -4  185.98   10.00
  -2  10  -4  197.28   17.80
   2 -10   4  188.88   12.80
   2 -10   4  164.18   10.90
  -3  10  -4   -0.90    3.70
  -3  10  -4    2.10    3.70
  -3  10  -4    4.60    2.30
  -3  10  -4    0.00    2.10
  -3  10  -4   -1.80    2.30
   3 -10   4    6.40    3.90
  -4  10  -4   62.89   12.30
  -4  10  -4   85.29   15.10
  -4  10  -4   62.39    7.20
  -4  10  -4   90.99    8.70
   4 -10   4   77.99   10.60
   2   9  -4  946.31   33.10
   2   9  -4  984.00   35.90
   2   9  -4  926.41   39.00
   2   9  -4  920.21   36.50
   2   9  -4  904.81   31.60
  -2  -9   4  784.12  120.19
  -2  -9   4  837.52   30.60
  -2  -9   4  876.41   31.90
   1   9  -4    3.00    2.70
   1   9  -4   -0.20    2.80
   1   9  -4    4.20    3.00
   1   9  -4   -0.40    2.20
   1   9  -4   -3.40    1.90
   1   9  -4    1.30    2.50
  -1  -9   4   -2.30   19.60
  -1  -9   4    2.30    2.90
  -1  -9   4    2.70    5.50
  -1  -9   4   -1.80    3.00
   0   9  -4   44.90    7.60
   0   9  -4   46.50    6.30
   0   9  -4   41.60    8.60
   0   9  -4   52.69    5.90
   0   9  -4   51.69    6.50
   0   9  -4   44.00    5.40
   0  -9   4   31.20    7.50
   0  -9   4   27.30    5.80
  -1   9  -4  156.88   10.30
  -1   9  -4  166.28   12.40
  -1   9  -4  157.18   11.10
  -1   9  -4  180.28   16.20
  -1   9  -4  178.18    8.80
  -1   9  -4  166.38   10.20
   1  -9   4  163.48   11.80
   1  -9   4  140.59   66.89
  -2   9  -4   24.70    4.20
  -2   9  -4   17.60    4.10
  -2   9  -4   27.60    6.00
  -2   9  -4   30.80    8.50
  -2   9  -4   21.50    4.30
   2  -9   4   19.40    4.60
   2  -9   4   22.10    5.50
  -3   9  -4   -1.90    2.10
  -3   9  -4    9.00    4.70
  -3   9  -4    4.80    2.50
  -3   9  -4    9.00    3.70
  -3   9  -4    0.20    2.30
   3  -9   4   -5.40    2.40
   3  -9   4   -0.50    3.30
  -4   9  -4 1090.79   37.90
  -4   9  -4 1107.49   38.00
  -4   9  -4 1084.69   48.90
  -4   9  -4 1208.08   46.20
  -4   9  -4 1105.89   39.90
   4  -9   4 1069.79   38.40
   4  -9   4 1062.59   40.90
   4  -9   4 1101.69   39.80
  -5   9  -4  212.48   19.40
  -5   9  -4  260.97   33.80
  -5   9  -4  246.88   16.00
   5  -9   4  252.97   18.00
   5  -9   4  216.78   16.90
   4   8  -4  381.96   26.10
   4   8  -4  386.36   23.20
  -4  -8   4  359.86   78.79
  -4  -8   4  374.36   22.50
   3   8  -4  233.88   15.90
   3   8  -4  231.48   18.70
   3   8  -4  218.48   16.30
   3   8  -4  240.18   18.40
   3   8  -4  222.98   14.90
  -3  -8   4  215.28   15.10
  -3  -8   4  195.78   14.20
  -3  -8   4  210.48   69.89
   2   8  -4  242.98   17.90
   2   8  -4  224.48   14.30
   2   8  -4  215.68   15.60
   2   8  -4  216.98   16.20
   2   8  -4  217.48   14.40
  -2  -8   4  228.58   14.10
  -2  -8   4  256.37   66.09
  -2  -8   4  227.58   14.60
   1   8  -4  813.52   32.10
   1   8  -4  800.22   31.40
   1   8  -4  781.42   28.10
   1   8  -4  796.32   32.50
   1   8  -4  784.52   29.60
  -1  -8   4  769.42   28.60
  -1  -8   4  721.03  111.79
  -1  -8   4  784.82   28.80
   0   8  -4  860.71   29.20
   0   8  -4  902.01   38.20
   0   8  -4  868.21   31.50
   0   8  -4  864.11   30.60
   0   8  -4  861.91   34.60
   0   8  -4  889.31   34.10
   0  -8   4  888.61   30.50
   0  -8   4  791.62  119.99
   0  -8   4  876.81   32.10
   0  -8   4  844.42   32.80
  -1   8  -4  410.36   18.00
  -1   8  -4  430.76   24.90
  -1   8  -4  417.96   19.20
  -1   8  -4  398.46   19.00
  -1   8  -4  395.76   22.20
  -1   8  -4  414.46   14.30
   1  -8   4  397.26   20.50
  -2   8  -4  122.99    9.60
  -2   8  -4  104.19    9.30
  -2   8  -4  110.49   12.80
  -2   8  -4   96.89   10.90
  -2   8  -4  100.19    9.10
   2  -8   4  117.99   11.20
   2  -8   4  129.49   11.30
  -3   8  -4  102.19   11.90
  -3   8  -4   84.49    9.20
  -3   8  -4   71.29   11.90
  -3   8  -4   79.99    8.60
  -3   8  -4   69.69    8.70
   3  -8   4   73.79    9.50
   3  -8   4   70.99    9.20
   3  -8   4   99.99    8.80
  -4   8  -4  467.35   28.20
  -4   8  -4  503.55   23.90
  -4   8  -4  460.25   25.10
  -4   8  -4  464.25   29.60
  -4   8  -4  491.15   24.10
   4  -8   4  374.76   27.20
   4  -8   4  488.35   23.40
   4  -8   4  509.65   25.90
  -5   8  -4  145.99   16.00
  -5   8  -4  172.28   14.10
  -5   8  -4  181.38   18.40
  -5   8  -4  154.98   15.20
  -5   8  -4  166.98   14.30
   5  -8   4  192.38   16.10
   5  -8   4  151.38   15.40
   5  -8   4  148.49   14.00
  -6   8  -4  129.09   14.80
  -6   8  -4  144.39   16.60
  -6   8  -4  151.58   16.10
   6  -8   4  151.98   14.70
   6  -8   4  134.69   13.70
   6  -8   4  139.89   14.90
   4   7  -4 1343.47   47.70
   4   7  -4 1385.66   54.19
   4   7  -4 1430.36   49.60
   4   7  -4 1428.16   51.09
   4   7  -4 1496.35   56.39
  -4  -7   4 1401.56  144.29
  -4  -7   4 1396.26   49.30
   3   7  -4   97.49   10.40
   3   7  -4   93.09   11.70
   3   7  -4  100.89   10.60
   3   7  -4   95.69   11.70
   3   7  -4  135.69   12.70
  -3  -7   4   74.59   36.60
  -3  -7   4  108.49   11.00
  -3  -7   4  107.49   10.80
   2   7  -4  426.76   23.80
   2   7  -4  424.46   21.30
   2   7  -4  407.76   22.90
   2   7  -4  393.46   19.80
   2   7  -4  423.16   22.60
  -2  -7   4  418.86   24.60
  -2  -7   4  379.16   72.39
  -2  -7   4  415.26   20.30
  -2  -7   4  397.46   20.30
   1   7  -4  398.16   21.00
   1   7  -4  450.35   22.30
   1   7  -4  409.76   21.90
   1   7  -4  445.76   20.00
   1   7  -4  439.46   20.90
  -1  -7   4  424.56   79.29
  -1  -7   4  415.56   19.80
  -1  -7   4  428.66   22.90
  -1  -7   4  408.86   19.60
  -1  -7   4  434.36   20.20
   0   7  -4  356.96   22.00
   0   7  -4  405.56   19.20
   0   7  -4  375.36   18.70
   0   7  -4  346.17   16.60
   0   7  -4  390.86   21.20
   0   7  -4  390.36   17.80
   0  -7   4  370.36   18.60
   0  -7   4  363.46   17.90
   0  -7   4  293.37   69.49
   0  -7   4  360.56   19.00
   0  -7   4  373.76   17.20
  -1   7  -4    6.80    2.80
  -1   7  -4    6.10    3.30
  -1   7  -4    4.90    2.20
  -1   7  -4    7.60    3.10
  -1   7  -4    2.70    1.20
  -1   7  -4    2.30    2.20
  -1   7  -4   -1.00   11.40
   1  -7   4   11.30   17.30
   1  -7   4    3.60    2.20
   1  -7   4    3.80    1.70
   1  -7   4    1.10    2.10
   1  -7   4    4.70    2.30
  -2   7  -4 1699.13   56.79
  -2   7  -4 1748.93   51.49
  -2   7  -4 1700.23  151.68
  -2   7  -4 1676.63   57.99
  -2   7  -4 1747.93   51.19
  -2   7  -4 1674.73   49.30
   2  -7   4 1595.24   54.59
   2  -7   4 1674.83   53.09
   2  -7   4 1607.64   49.60
  -3   7  -4  725.33   29.50
  -3   7  -4  712.23   29.80
  -3   7  -4  660.63   37.60
  -3   7  -4  774.32   32.20
  -3   7  -4  781.62   38.50
   3  -7   4  735.53   32.20
   3  -7   4  743.93   27.40
   3  -7   4  554.64   48.10
  -4   7  -4   68.79   12.40
  -4   7  -4   81.99    9.60
  -4   7  -4   73.79   12.70
  -4   7  -4   91.39   11.20
  -4   7  -4   73.09    9.00
   4  -7   4   75.79   10.30
   4  -7   4   66.39   11.80
   4  -7   4   70.89    8.70
  -5   7  -4   56.09    9.60
  -5   7  -4   54.59   11.50
  -5   7  -4   79.29    9.90
  -5   7  -4   81.59   14.30
  -5   7  -4   73.89   13.50
   5  -7   4   87.19    9.80
   5  -7   4   53.99    9.70
   5  -7   4   77.69   12.10
  -6   7  -4   43.80    8.70
  -6   7  -4   52.39   11.00
  -6   7  -4   75.69   14.10
  -6   7  -4   32.60    8.40
   6  -7   4   59.39   11.40
   6  -7   4   58.89   10.90
   6  -7   4   67.49   12.40
   5   6  -4  345.77   26.00
   5   6  -4  406.46   27.30
   5   6  -4  395.76   23.80
   5   6  -4  358.06   22.60
   5   6  -4  396.46   24.30
  -5  -6   4  482.95   79.09
  -5  -6   4  373.96   24.30
  -5  -6   4  363.76   23.20
   4   6  -4   21.60    6.80
   4   6  -4   27.80    7.00
   4   6  -4   23.30    6.20
   4   6  -4   31.60    7.70
   4   6  -4   21.60    5.40
  -4  -6   4   40.10    8.20
  -4  -6   4   36.90   25.10
  -4  -6   4   39.50    8.20
   3   6  -4   75.39   12.10
   3   6  -4   80.19    9.10
   3   6  -4   61.59   14.00
   3   6  -4   72.09    9.00
   3   6  -4   84.49   11.30
  -3  -6   4   80.59    9.10
  -3  -6   4   76.09   38.50
  -3  -6   4   82.29    9.20
   2   6  -4   26.80    6.80
   2   6  -4   24.70    5.80
   2   6  -4   20.90    5.60
   2   6  -4   25.30    6.40
   2   6  -4   21.10    5.00
  -2  -6   4   33.70   23.90
  -2  -6   4   16.80    4.40
  -2  -6   4   16.40    6.00
  -2  -6   4   21.50    5.20
   1   6  -4 1822.02   54.49
   1   6  -4 1825.62   56.29
   1   6  -4 1821.82   51.89
   1   6  -4 1875.91   55.39
   1   6  -4 1805.92   53.69
  -1  -6   4 1793.22   52.69
  -1  -6   4 1843.72   51.69
  -1  -6   4 1732.43  153.58
  -1  -6   4 1900.71   53.39
  -1  -6   4 1863.31   51.79
  -1  -6   4 1877.91   56.09
   0   6  -4  746.23   81.99
   0   6  -4  601.24   22.10
   0   6  -4  596.34   24.60
   0   6  -4  560.74   26.60
   0   6  -4  573.54   23.10
   0   6  -4  574.54   24.60
   0   6  -4  580.74   27.80
   0  -6   4  586.14   23.90
   0  -6   4  582.54   23.30
   0  -6   4  504.35   84.59
   0  -6   4  597.34   25.70
   0  -6   4  567.74   22.60
   0  -6   4  618.34   24.50
  -1   6  -4 2876.01   82.99
  -1   6  -4 3085.19   77.39
  -1   6  -4 2965.00   78.99
  -1   6  -4 3173.18  188.28
  -1   6  -4 3038.10   78.39
  -1   6  -4 2973.00   84.39
   1  -6   4 3084.99   68.89
   1  -6   4 3010.30   77.59
   1  -6   4 3054.79   79.99
   1  -6   4 3155.88   79.09
  -2   6  -4    2.00    2.60
  -2   6  -4   12.00   19.50
  -2   6  -4    2.80    1.80
  -2   6  -4    1.10    2.10
  -2   6  -4    0.90    2.30
  -2   6  -4   -0.80    1.40
   2  -6   4    4.50    2.80
   2  -6   4   20.10    5.90
   2  -6   4    1.80    2.50
   2  -6   4    4.10    3.00
  -3   6  -4  193.78   14.00
  -3   6  -4  175.48   60.69
  -3   6  -4  183.58   14.50
  -3   6  -4  173.98   16.60
  -3   6  -4  201.78   16.00
  -3   6  -4  179.38   16.30
   3  -6   4  183.08   12.10
   3  -6   4  185.08   16.50
   3  -6   4  169.28   14.70
  -4   6  -4  104.39   13.80
  -4   6  -4  103.49   21.20
  -4   6  -4  142.29   25.40
  -4   6  -4  116.29   13.30
  -4   6  -4  111.49   11.50
   4  -6   4  119.49   14.10
   4  -6   4  115.19   10.50
   4  -6   4  126.49   13.30
  -5   6  -4 1217.78   52.79
  -5   6  -4 1303.47   48.00
  -5   6  -4 1297.97   55.99
  -5   6  -4 1236.98   48.80
  -5   6  -4 1222.88   51.89
   5  -6   4 1250.67   49.10
   5  -6   4 1254.87   45.10
   5  -6   4 1228.38   31.00
   5  -6   4 1212.38   51.09
  -6   6  -4  122.19   13.60
  -6   6  -4  130.49   17.10
  -6   6  -4  160.38   19.00
  -6   6  -4  140.09   16.80
   6  -6   4  138.59    8.90
   6  -6   4  132.29   13.50
   6  -6   4  119.29   15.70
   6  -6   4  143.69   15.30
   6   5  -4    3.40    5.40
   6   5  -4    5.90    3.60
   6   5  -4    7.90    9.60
  -6  -5   4   -1.10    3.40
  -6  -5   4    0.70    4.70
   5   5  -4   55.29   11.40
   5   5  -4   52.79    9.20
   5   5  -4   48.40    9.80
   5   5  -4   60.39   12.50
   5   5  -4   77.59   10.00
  -5  -5   4   47.70    9.60
  -5  -5   4   62.99   10.60
   4   5  -4    6.90    4.20
   4   5  -4    0.30    2.60
   4   5  -4    2.70    2.00
   4   5  -4   -2.90    2.20
  -4  -5   4   -0.80    2.50
  -4  -5   4    0.40    2.60
   3   5  -4 4835.12  120.19
   3   5  -4 4837.12  126.89
   3   5  -4 4827.72  123.39
   3   5  -4 4802.52  126.89
   3   5  -4 4861.31  121.49
  -3  -5   4 4760.32  126.99
  -3  -5   4 4823.12  122.29
  -3  -5   4 5597.84  261.47
   2   5  -4  888.91   35.80
   2   5  -4  875.61   35.20
   2   5  -4  909.11   36.30
   2   5  -4  904.11   34.60
   2   5  -4  908.41   34.00
  -2  -5   4  919.81   32.80
  -2  -5   4 1055.69  103.29
  -2  -5   4  914.51   33.50
  -2  -5   4  894.81   32.20
  -2  -5   4  947.71   37.10
  -2  -5   4  905.01   33.70
   1   5  -4  782.42   29.30
   1   5  -4  701.73   30.00
   1   5  -4  764.72   30.00
   1   5  -4  746.23   27.80
   1   5  -4  740.13   28.50
  -1  -5   4  724.53   27.30
  -1  -5   4  770.32   28.50
  -1  -5   4  740.73   27.80
  -1  -5   4  743.13   29.30
  -1  -5   4  709.93   87.49
  -1  -5   4  762.72   28.70
   0   5  -4 1032.60   35.60
   0   5  -4 1041.70   35.00
   0   5  -4 1009.70   30.70
   0   5  -4  959.70   36.70
   0   5  -4 1021.20   33.80
   0   5  -4  998.50   38.00
   0   5  -4 1238.38   97.09
   0  -5   4 1007.00   33.90
   0  -5   4 1000.90   34.90
   0  -5   4 1003.60   34.40
   0  -5   4 1030.00   36.10
   0  -5   4  956.00  106.09
   0  -5   4  977.20   31.30
  -1   5  -4   22.50    5.20
  -1   5  -4   20.50    4.70
  -1   5  -4    0.00   10.50
  -1   5  -4   25.90    6.90
  -1   5  -4   19.80    5.30
  -1   5  -4   13.20    3.50
   1  -5   4   18.90    2.90
   1  -5   4   13.70    4.70
   1  -5   4   19.20    4.90
   1  -5   4   18.50    4.50
   1  -5   4   26.10    5.50
   1  -5   4   24.00   18.40
  -2   5  -4  269.87   17.00
  -2   5  -4  251.27   17.10
  -2   5  -4  267.87   18.20
  -2   5  -4  274.47   19.80
  -2   5  -4  248.58   54.59
   2  -5   4  252.77   12.50
   2  -5   4  300.87   19.70
   2  -5   4  295.87   18.80
   2  -5   4  260.27   17.30
   2  -5   4  288.67   19.70
   2  -5   4  305.07   17.90
  -3   5  -4  547.55   26.00
  -3   5  -4  533.95   28.50
  -3   5  -4  529.35   28.70
  -3   5  -4  524.55   26.00
  -3   5  -4  538.05   30.90
  -3   5  -4  472.45   82.69
   3  -5   4  515.75   15.20
   3  -5   4  525.45   29.70
   3  -5   4  565.94   27.70
   3  -5   4  484.95   28.50
   3  -5   4  487.45   25.90
   3  -5   4  484.35   29.40
  -4   5  -4 2264.47   73.69
  -4   5  -4 2308.37   76.39
  -4   5  -4 1853.01  178.28
  -4   5  -4 2279.57   69.29
  -4   5  -4 2373.96   79.19
  -4   5  -4 2169.68   67.89
   4  -5   4 2261.57   55.29
   4  -5   4 2229.18   75.19
   4  -5   4 2230.98   71.29
  -5   5  -4   17.30    6.70
  -5   5  -4   16.60    5.50
  -5   5  -4   13.70    6.00
  -5   5  -4   10.10    5.10
  -5   5  -4   16.50    5.60
   5  -5   4   18.30    4.00
   5  -5   4   16.50    5.80
   5  -5   4   13.30    5.20
  -6   5  -4   24.10    9.70
  -6   5  -4   14.50    7.40
  -6   5  -4   15.50    6.40
  -6   5  -4    8.80    4.90
   6  -5   4   18.30    6.60
   6  -5   4   10.50    4.40
   6  -5   4    5.50    3.60
  -7   5  -4  214.18   23.00
   6   4  -4  108.09   16.40
   6   4  -4  117.29   14.40
   6   4  -4  104.39   12.10
   6   4  -4  134.79   14.00
  -6  -4   4  135.39   15.30
  -6  -4   4  122.19   13.10
   5   4  -4  418.56   24.60
   5   4  -4  397.16   28.40
   5   4  -4  420.96   27.70
   5   4  -4  441.66   25.40
   5   4  -4  424.56   24.70
  -5  -4   4  430.46   24.60
  -5  -4   4  479.85   27.70
   4   4  -4  384.96   22.20
   4   4  -4  401.96   22.80
   4   4  -4  389.06   24.80
   4   4  -4  405.36   23.30
   4   4  -4  393.56   26.10
  -4  -4   4  411.66   22.90
  -4  -4   4  358.56   22.80
   3   4  -4  115.39   11.30
   3   4  -4  115.79   11.00
   3   4  -4  119.89   11.10
   3   4  -4  121.79   13.60
   3   4  -4  134.79   13.20
   3   4  -4  134.09   12.90
  -3  -4   4  121.39   15.50
  -3  -4   4  140.89   12.40
  -3  -4   4  123.29   11.10
  -3  -4   4  128.19   12.10
  -3  -4   4  114.69   10.30
   2   4  -4 1566.14   50.79
   2   4  -4 1515.55   49.60
   2   4  -4 1492.15   49.30
   2   4  -4 1521.35   39.90
   2   4  -4 1526.15   47.10
   2   4  -4 1516.25   48.20
  -2  -4   4 1531.05   46.50
  -2  -4   4 1526.35   47.50
  -2  -4   4 1875.31  126.59
  -2  -4   4 1555.04   50.39
  -2  -4   4 1506.85   48.00
  -2  -4   4 1493.75   46.60
   1   4  -4  258.07   16.40
   1   4  -4  267.07   15.00
   1   4  -4  251.27   15.10
   1   4  -4  279.77   15.20
   1   4  -4  290.47   16.40
  -1  -4   4  244.18   14.70
  -1  -4   4  241.98   14.70
  -1  -4   4  272.07   15.30
  -1  -4   4  275.17   15.00
  -1  -4   4  288.07   15.50
  -1  -4   4  275.97   46.90
   0   4  -4 3557.34  155.68
   0   4  -4 2974.10   78.59
   0   4  -4 3029.60   78.89
   0   4  -4 2976.50   76.89
   0   4  -4 2982.50   72.29
   0   4  -4 3093.69   77.99
   0   4  -4 3063.79   82.79
   0  -4   4 3025.20   79.59
   0  -4   4 3005.00   77.19
   0  -4   4 3006.00   77.49
   0  -4   4 2841.82  169.18
   0  -4   4 2932.21   78.89
   0  -4   4 3004.00   72.89
  -1   4  -4 1235.18   45.60
  -1   4  -4 1244.48   41.30
  -1   4  -4 1233.98   41.50
  -1   4  -4 1213.68   41.60
  -1   4  -4 1224.48   99.89
  -1   4  -4 1317.87   41.10
   1  -4   4 1272.27   44.10
   1  -4   4 1262.67   41.00
   1  -4   4 1327.97   46.90
   1  -4   4 1262.27   41.50
   1  -4   4 1283.07   33.70
  -2   4  -4 3439.16   89.29
  -2   4  -4 3184.98  193.88
  -2   4  -4 3389.56   91.39
  -2   4  -4 3445.16   92.69
  -2   4  -4 3649.44   98.69
  -2   4  -4 3274.37   89.49
   2  -4   4 3496.95   93.39
   2  -4   4 3465.75   95.79
   2  -4   4 3411.46   95.79
   2  -4   4 3339.07   88.89
   2  -4   4 3426.06   90.19
   2  -4   4 3421.26   80.09
  -3   4  -4  665.63   39.90
  -3   4  -4  658.63   31.70
  -3   4  -4  677.83   30.20
  -3   4  -4  737.93   37.20
  -3   4  -4  520.55   82.39
  -3   4  -4  659.63   30.50
   3  -4   4  705.63   31.60
   3  -4   4  634.54   33.80
   3  -4   4  657.53   24.10
   3  -4   4  655.93   34.60
   3  -4   4  747.33   34.10
  -4   4  -4  157.58   16.60
  -4   4  -4   99.19   16.50
  -4   4  -4  118.79   13.40
  -4   4  -4   99.89   11.50
  -4   4  -4  125.19   12.60
   4  -4   4  140.49   14.60
   4  -4   4  130.59   10.30
   4  -4   4  108.89   14.10
   4  -4   4  183.58   31.10
  -5   4  -4  489.95   30.10
  -5   4  -4  508.65   33.90
  -5   4  -4  467.85   32.80
  -5   4  -4  566.94   29.70
   5  -4   4  494.75   23.60
   5  -4   4  497.65   31.10
   5  -4   4  497.15   29.40
  -6   4  -4  572.74   37.40
  -6   4  -4  604.24   34.10
  -6   4  -4  549.65   31.00
   6  -4   4  610.14   35.20
   6  -4   4  585.64   27.60
   6  -4   4  648.94   34.30
  -7   4  -4  402.66   31.80
   7  -4   4  423.36   29.30
   7  -4   4  391.66   23.00
   7   3  -4  214.88   22.10
   7   3  -4  228.78   18.00
   7   3  -4  232.38   19.20
  -7  -3   4  190.78   17.30
  -7  -3   4  212.88   20.30
   6   3  -4  163.18   15.20
   6   3  -4  177.68   16.00
   6   3  -4  167.78   18.50
   6   3  -4  151.48   13.90
   6   3  -4  175.18   17.90
  -6  -3   4  149.69   15.40
  -6  -3   4  158.18   16.30
   5   3  -4  990.60   57.89
   5   3  -4 1121.99   55.59
   5   3  -4 1206.08   45.10
   5   3  -4 1159.58   51.39
   5   3  -4 1196.78   45.50
   5   3  -4 1196.68   42.60
  -5  -3   4 1221.98   45.30
  -5  -3   4 1200.88   47.90
   4   3  -4  502.25   23.20
   4   3  -4  526.85   26.40
   4   3  -4  465.15   24.60
   4   3  -4  486.85   25.20
   4   3  -4  511.75   29.50
   4   3  -4  468.85   26.90
   4   3  -4  490.35   27.70
  -4  -3   4  504.05   25.20
  -4  -3   4  452.55   23.70
  -4  -3   4  463.55   27.40
  -4  -3   4  505.25   25.60
  -4  -3   4  505.55   27.20
   3   3  -4  167.18   14.20
   3   3  -4  183.28   15.20
   3   3  -4  191.58   14.30
   3   3  -4  166.28   13.00
   3   3  -4  160.98   12.80
   3   3  -4  192.08   15.80
   3   3  -4  192.88   12.00
  -3  -3   4  178.48   14.00
  -3  -3   4  164.78   12.50
  -3  -3   4  173.88   13.00
  -3  -3   4  168.18   13.10
  -3  -3   4  179.28   14.60
   2   3  -4 1774.32   51.79
   2   3  -4 1749.92   54.69
   2   3  -4 1726.43   45.90
   2   3  -4 1728.03   52.29
  -2  -3   4 1779.62   51.19
  -2  -3   4 1809.82   52.39
  -2  -3   4 1840.42   53.49
  -2  -3   4 1803.02   54.29
  -2  -3   4 1758.72   51.59
   1   3  -4 2504.35   65.29
   1   3  -4 2590.14   69.19
   1   3  -4 2441.46   64.39
   1   3  -4 2409.76   65.89
   1   3  -4 2552.44   66.99
  -1  -3   4 2445.06   66.29
  -1  -3   4 2508.55   65.29
  -1  -3   4 2497.75   65.29
  -1  -3   4 2040.60   71.99
  -1  -3   4 2419.36   65.39
  -1  -3   4 2762.42  132.69
   0   3  -4 1220.98   38.80
   0   3  -4 1236.98   42.80
   0   3  -4 1255.17   37.70
   0   3  -4 1279.27   38.80
   0   3  -4 1250.07   40.00
   0  -3   4 1231.78   38.90
   0  -3   4 1229.98   39.10
   0  -3   4 1138.89   87.59
   0  -3   4 1205.38   40.30
   0  -3   4 1233.48   41.00
   0  -3   4 1188.68   35.50
  -1   3  -4 2376.36   62.79
  -1   3  -4 2236.68   63.79
  -1   3  -4 2154.98  123.29
  -1   3  -4 2336.37   63.09
  -1   3  -4 2337.67   69.09
   1  -3   4 2257.77   63.69
   1  -3   4 2241.38   67.19
   1  -3   4 2266.57   63.29
   1  -3   4 2183.38   68.89
   1  -3   4 2336.07   61.49
  -2   3  -4 2149.69   63.19
  -2   3  -4 2201.78   66.89
  -2   3  -4 1995.00   78.89
  -2   3  -4 2130.89   63.29
  -2   3  -4 2142.09   62.29
  -2   3  -4 1815.12  159.18
   2  -3   4 2219.58   59.89
   2  -3   4 2272.87   69.19
   2  -3   4 2140.39   63.49
   2  -3   4 2191.98   61.99
   2  -3   4 2103.39   68.49
  -3   3  -4   30.50    8.20
  -3   3  -4   28.30    7.00
  -3   3  -4   15.10    4.80
  -3   3  -4   21.10    5.70
  -3   3  -4   14.20    4.40
   3  -3   4   17.60    4.50
   3  -3   4   25.90    6.50
   3  -3   4   15.60    5.40
   3  -3   4   19.60    6.40
   3  -3   4   32.50    8.60
   3  -3   4   20.90    5.90
  -4   3  -4   79.59   14.40
  -4   3  -4   51.89    9.60
  -4   3  -4   42.60    8.80
  -4   3  -4   74.09   13.60
   4  -3   4   63.29   12.40
   4  -3   4   73.19   14.40
   4  -3   4   77.39   10.40
   4  -3   4   72.69   12.20
   4  -3   4   82.09    9.30
  -5   3  -4  497.45   28.30
  -5   3  -4  438.46   31.70
  -5   3  -4  481.05   28.60
   5  -3   4  483.65   35.50
   5  -3   4  485.65   30.80
   5  -3   4  474.75   25.30
   5  -3   4  452.55   36.80
  -6   3  -4   15.20    6.60
  -6   3  -4   17.10    6.70
  -6   3  -4    9.20    4.50
   6  -3   4   25.00    7.10
   6  -3   4   22.00    7.20
   6  -3   4   15.30    5.60
   7   2  -4  448.56   26.30
   7   2  -4  416.56   27.60
   7   2  -4  485.65   28.10
   7   2  -4  414.16   25.60
  -7  -2   4  408.26   25.90
  -7  -2   4  422.06   28.40
   6   2  -4 1471.95   52.89
   6   2  -4 1403.06   60.19
   6   2  -4 1439.96   51.59
   6   2  -4 1406.16   55.29
  -6  -2   4 1371.06   54.99
  -6  -2   4 1433.96   58.19
   5   2  -4   49.70    8.70
   5   2  -4   49.20    8.80
   5   2  -4   53.09   11.10
   5   2  -4   55.49    9.40
   5   2  -4   63.29   11.30
   5   2  -4   58.99   10.00
  -5  -2   4   86.29   10.50
  -5  -2   4   66.39   10.80
  -5  -2   4   43.90    9.40
   4   2  -4  236.28   16.80
   4   2  -4  277.87   20.70
   4   2  -4  265.97   17.30
   4   2  -4  250.77   16.90
   4   2  -4  273.47   22.20
   4   2  -4  242.88   18.30
   4   2  -4  264.77   16.40
  -4  -2   4  232.28   18.00
  -4  -2   4  253.97   17.40
  -4  -2   4  233.78   16.40
  -4  -2   4  238.68   18.10
  -4  -2   4  280.17   18.00
   3   2  -4  207.58   14.20
   3   2  -4  217.58   13.40
   3   2  -4  192.88   15.80
   3   2  -4  201.28   15.50
   3   2  -4  204.08   14.20
   3   2  -4  208.58   14.80
   3   2  -4  211.38   15.30
  -3  -2   4  220.78   14.60
  -3  -2   4  240.18   15.00
  -3  -2   4  210.38   15.10
  -3  -2   4  220.28   14.20
  -3  -2   4  207.98   15.50
   2   2  -4 2250.37   61.09
   2   2  -4 2224.38   60.49
   2   2  -4 2166.58   62.99
   2   2  -4 2183.88   56.99
   2   2  -4 2168.08   61.99
   2   2  -4 2281.17   62.49
  -2  -2   4 2232.28   62.79
  -2  -2   4 2219.88   60.49
  -2  -2   4 2083.89   59.69
  -2  -2   4 2114.19   59.19
  -2  -2   4 2181.88   61.29
   1   2  -4   44.00    5.80
   1   2  -4   30.30    5.60
   1   2  -4   53.19    5.20
   1   2  -4   47.20    7.40
   1   2  -4   42.50    5.70
  -1  -2   4   59.19    6.90
  -1  -2   4   42.40    6.70
  -1  -2   4   41.10    4.40
  -1  -2   4   41.20    5.50
  -1  -2   4   66.79    6.80
   0   2  -4 7065.49  160.58
   0   2  -4 6886.61  155.68
   0   2  -4 6463.35  153.28
   0   2  -4 6562.34  153.98
   0   2  -4 6841.12  149.49
   0  -2   4 6983.70  155.18
   0  -2   4 6936.01  157.38
   0  -2   4 6837.22  154.48
   0  -2   4 6692.23  157.68
   0  -2   4 6898.91  150.08
  -1   2  -4  634.94   26.50
  -1   2  -4  608.84   23.80
  -1   2  -4  617.04   26.70
   1  -2   4  586.54   28.00
   1  -2   4  589.94   26.70
   1  -2   4  566.74   25.20
  -2   2  -4 1394.56   45.70
  -2   2  -4 1368.96   49.80
  -2   2  -4 1425.46   46.40
  -2   2  -4 1388.06   52.79
  -2   2  -4 1429.66   47.50
   2  -2   4 1325.57   50.49
   2  -2   4 1347.57   44.20
   2  -2   4 1406.56   52.39
   2  -2   4 1387.76   47.10
   2  -2   4 1383.56   47.00
   2  -2   4 1482.45   51.09
  -3   2  -4   69.59   10.80
  -3   2  -4   51.59   10.50
  -3   2  -4   50.89    8.80
  -3   2  -4   70.69   17.80
  -3   2  -4   47.30    8.30
   3  -2   4   93.79   14.10
   3  -2   4   65.19   12.40
   3  -2   4   70.19   10.90
   3  -2   4   73.89   12.80
   3  -2   4   49.30    9.20
   3  -2   4   65.29    8.60
  -4   2  -4  932.61   39.90
  -4   2  -4  977.10   47.20
  -4   2  -4  950.00   40.20
   4  -2   4  909.51   42.00
   4  -2   4  993.60   45.80
   4  -2   4  894.91   39.60
   4  -2   4  974.50   39.70
   4  -2   4  934.51   40.20
   4  -2   4  931.41   45.10
  -5   2  -4 1692.63   60.39
  -5   2  -4 1748.03   60.69
  -5   2  -4 1710.73   69.49
   5  -2   4 1627.14   66.49
   5  -2   4 1694.33   65.79
   5  -2   4 1687.43   59.39
   5  -2   4 1685.33   62.09
  -6   2  -4  154.78   19.40
  -6   2  -4  140.79   15.70
  -6   2  -4  154.38   15.90
   6  -2   4  147.39   15.60
   6  -2   4  145.69   17.10
   6  -2   4  130.59   14.40
   8   1  -4  416.76   27.60
   8   1  -4  355.96   24.90
  -8  -1   4  341.37   26.80
   7   1  -4    0.80    2.90
   7   1  -4    6.60    4.20
   7   1  -4    4.80    3.80
  -7  -1   4    9.90    5.90
   6   1  -4  288.67   21.60
   6   1  -4  260.67   19.40
   6   1  -4  285.67   24.20
   6   1  -4  312.67   23.10
   6   1  -4  294.27   19.80
  -6  -1   4  285.27   22.10
  -6  -1   4  258.27   22.60
  -6  -1   4  264.77   20.90
  -6  -1   4  291.07   24.10
   5   1  -4   33.10    8.00
   5   1  -4   38.20    7.70
   5   1  -4   30.50    6.90
   5   1  -4   24.50    6.20
   5   1  -4   31.40    6.80
   5   1  -4   44.30    9.10
   5   1  -4   45.50   10.10
  -5  -1   4   47.70   10.30
  -5  -1   4   48.40   10.00
  -5  -1   4   42.40    8.10
  -5  -1   4   34.30    7.30
  -5  -1   4   32.00    7.50
   4   1  -4 1649.44   56.49
   4   1  -4 1708.23   60.29
   4   1  -4 1737.33   54.69
   4   1  -4 1698.33   53.99
   4   1  -4 1721.93   56.19
   4   1  -4 1771.32   54.19
   4   1  -4 1754.92   54.79
  -4  -1   4 1736.63   54.89
  -4  -1   4 1698.73   56.79
  -4  -1   4 1794.02   58.09
  -4  -1   4 1797.22   54.19
  -4  -1   4 1661.73   53.39
   3   1  -4 6653.23  152.78
   3   1  -4 6562.54  157.98
   3   1  -4 6548.64  153.18
   3   1  -4 6497.45  155.38
   3   1  -4 6346.67  152.28
   3   1  -4 6627.84  151.98
   3   1  -4 6600.14  152.48
  -3  -1   4 6366.26  151.68
  -3  -1   4 6585.34  154.78
  -3  -1   4 6691.33  156.58
  -3  -1   4 6839.02  151.78
  -3  -1   4 6556.24  151.98
   2   1  -4  392.46   19.80
   2   1  -4  375.06   17.40
   2   1  -4  365.26   18.20
   2   1  -4  392.06   19.40
   2   1  -4  366.86   18.00
   2   1  -4  379.56   19.20
  -2  -1   4  338.87   16.50
  -2  -1   4  400.46   19.10
  -2  -1   4  380.96   18.40
  -2  -1   4  365.46   17.80
  -2  -1   4  345.97   18.40
  -2  -1   4  384.46   19.70
   1   1  -4    2.70    1.50
   1   1  -4    3.30    1.80
   1   1  -4    2.70    1.80
   1   1  -4    3.40    1.80
   1   1  -4    1.20    1.40
  -1  -1   4    3.10    2.00
  -1  -1   4    0.40    0.90
  -1  -1   4    4.90    2.20
  -1  -1   4    4.50    2.00
  -1  -1   4    2.70    1.70
  -1  -1   4    1.80    1.20
   0   1  -4    5.90    2.10
   0   1  -4    3.40    1.90
   0   1  -4    9.20    2.30
   0   1  -4    9.10    3.10
   0  -1   4   12.60    3.30
   0  -1   4   12.10    3.60
   0  -1   4    7.60    2.90
   0  -1   4    8.90    3.10
  -1   1  -4 1235.38   41.10
  -1   1  -4 1109.29   40.20
  -1   1  -4 1260.27   45.50
  -1   1  -4 1192.08   36.40
   1  -1   4 1236.78   35.60
   1  -1   4 1185.68   40.00
   1  -1   4 1182.98   46.30
   1  -1   4 1111.69   55.29
   1  -1   4 1280.97   44.50
  -2   1  -4  264.87   16.70
  -2   1  -4  322.67   22.40
  -2   1  -4  291.07   19.90
  -2   1  -4  307.77   17.30
   2  -1   4  295.87   18.10
   2  -1   4  268.47   20.40
   2  -1   4  309.37   17.10
   2  -1   4  257.17   19.30
   2  -1   4  289.37   19.80
   2  -1   4  280.87   19.50
  -3   1  -4 4049.40  103.49
  -3   1  -4 4049.40  115.19
  -3   1  -4 4063.39  113.49
  -3   1  -4 3935.21  105.19
   3  -1   4 3824.52  107.89
   3  -1   4 3906.41  107.59
   3  -1   4 3927.51  104.79
   3  -1   4 3866.11  103.59
   3  -1   4 3931.91  112.99
   3  -1   4 3855.71  110.99
  -4   1  -4   -3.40    3.20
  -4   1  -4    0.90    4.10
  -4   1  -4    3.00    2.90
   4  -1   4    2.40    2.90
   4  -1   4    0.00    3.40
   4  -1   4    6.00    3.80
   4  -1   4   -1.20    2.90
   4  -1   4   -4.80    2.90
   4  -1   4    1.40    2.60
  -5   1  -4  142.29   17.30
  -5   1  -4  158.08   15.70
   5  -1   4  166.68   17.60
   5  -1   4  158.38   15.60
   5  -1   4  128.09   16.90
   5  -1   4  135.59   15.10
  -6   1  -4   83.09   13.40
  -6   1  -4   90.09   14.30
  -6   1  -4   89.29   17.30
   6  -1   4   99.99   12.40
   6  -1   4   74.79   13.60
   6  -1   4   76.19   13.50
   8   0  -4    3.20    4.80
   8   0  -4    9.90    5.60
   8   0  -4    5.80    5.40
  -8   0   4    3.90    5.50
  -8   0   4    3.60    5.60
   7   0  -4  571.64   31.50
   7   0  -4  598.14   31.10
   7   0  -4  567.14   31.40
   7   0  -4  540.65   29.20
  -7   0   4  571.94   35.20
  -7   0   4  559.14   32.90
  -7   0   4  560.54   29.80
   6   0  -4   76.59   13.10
   6   0  -4   69.49   13.30
   6   0  -4   66.69   10.90
   6   0  -4   60.89   10.30
  -6   0   4   67.19   11.40
  -6   0   4   70.69   11.80
  -6   0   4   54.29    9.90
  -6   0   4   57.89   12.00
   5   0  -4 3363.46   91.49
   5   0  -4 3303.47   93.19
   5   0  -4 3431.96   90.29
   5   0  -4 3335.17   94.79
   5   0  -4 3346.57   90.79
   5   0  -4 3360.46   93.79
  -5   0   4 3444.96   97.89
  -5   0   4 3341.67   90.49
  -5   0   4 3283.47   94.99
  -5   0   4 3314.87   91.29
  -5   0   4 3390.36   94.99
  -5   0   4 3285.37   92.99
   4   0  -4   18.70    4.70
   4   0  -4   21.00    5.60
   4   0  -4   15.50    5.40
   4   0  -4   17.10    5.50
   4   0  -4   22.60    5.60
   4   0  -4   14.00    4.30
   4   0  -4   17.20    5.00
  -4   0   4   16.80    4.80
  -4   0   4   12.40    3.90
  -4   0   4   18.70    5.30
  -4   0   4   17.10    4.70
  -4   0   4   25.20    5.90
  -4   0   4   18.50    4.60
   3   0  -4   53.59    7.10
   3   0  -4   51.79    9.10
   3   0  -4   53.09    6.30
   3   0  -4   46.50    7.10
   3   0  -4   39.00    6.50
   3   0  -4   49.90   10.10
   3   0  -4   47.30    7.90
  -3   0   4   47.20    6.00
  -3   0   4   47.30    7.90
  -3   0   4   56.89    9.00
  -3   0   4   43.00    7.80
  -3   0   4   40.20    7.40
  -3   0   4   38.80    7.20
  -3   0   4   51.39    6.20
   2   0  -4 3410.56   88.19
   2   0  -4 3402.16   79.09
   2   0  -4 3254.77   84.79
   2   0  -4 3274.67   85.39
   2   0  -4 3318.67   82.89
   2   0  -4 3419.96   83.59
  -2   0   4 3369.26   82.99
  -2   0   4 3489.15   86.99
  -2   0   4 3391.06   82.89
  -2   0   4 3457.15   84.29
  -2   0   4 3470.75   84.29
  -2   0   4 3382.46   87.09
   1   0  -4 2558.24   69.59
   1   0  -4 2675.53   67.69
   1   0  -4 2653.03   71.19
   1   0  -4 2710.13   57.19
   1   0  -4 2579.94   66.49
   1   0  -4 2731.53   68.19
   1   0  -4 2646.44   58.19
  -1   0   4 2685.23   66.99
  -1   0   4 2675.53   67.29
  -1   0   4 2611.54   71.59
  -1   0   4 2626.44   67.59
  -1   0   4 2455.95   67.99
   0   0  -4 2894.81   74.59
   0   0  -4 2872.41   73.09
   0   0  -4 2878.31   73.69
   0   0  -4 2908.31   78.59
   0   0  -4 2949.30   65.19
   0   0   4 2962.50   74.79
   0   0   4 2838.62   76.69
   0   0   4 2980.70   78.79
   0   0   4 2937.81   78.39
   0   0   4 2986.50   74.79
   0   0   4 2891.11   63.79
  -1   0  -4  911.71   33.50
  -1   0  -4  885.71   33.50
  -1   0  -4  884.71   31.70
  -1   0  -4  896.11   28.20
  -1   0  -4  880.91   36.90
   1   0   4  891.11   35.80
   1   0   4  879.51   28.00
   1   0   4  841.22   36.00
   1   0   4  935.11   36.10
   1   0   4  902.71   32.90
   1   0   4  900.01   40.40
  -2   0  -4   -0.80    1.60
  -2   0  -4    7.30    4.10
  -2   0  -4   -0.80    2.20
  -2   0  -4    3.10    1.50
  -2   0  -4   -0.70    1.60
   2   0   4   -0.10    1.50
   2   0   4    4.40    3.20
   2   0   4   12.50    4.80
   2   0   4    6.50    2.60
   2   0   4    1.60    2.10
   2   0   4   -4.50    2.10
  -3   0  -4   48.80   10.10
  -3   0  -4   40.60    8.10
  -3   0  -4   69.59   10.30
  -3   0  -4   55.99   12.20
   3   0   4   34.20    9.00
   3   0   4   60.49   11.40
   3   0   4   60.99    7.70
   3   0   4   31.90    8.40
   3   0   4   64.99   12.40
   3   0   4   50.69    8.90
  -4   0  -4   17.30    5.90
  -4   0  -4   31.50    7.60
  -4   0  -4   28.00    9.30
   4   0   4   27.20    8.30
   4   0   4   22.90    6.60
   4   0   4   14.50    5.70
   4   0   4   28.60    8.60
   4   0   4   24.80    7.60
   4   0   4   15.50    6.30
  -5   0  -4  171.48   20.80
  -5   0  -4  220.68   21.40
  -5   0  -4  227.38   18.40
   5   0   4  184.78   18.50
   5   0   4  228.98   19.30
   5   0   4  188.58   18.90
   5   0   4  198.68   21.00
  -6   0  -4 1415.56   55.59
  -6   0  -4 1408.46   63.89
  -6   0  -4 1437.06   55.79
   6   0   4 1477.75   57.19
   6   0   4 1484.65   59.59
   6   0   4 1448.66   58.89
   8  -1  -4  446.56   27.70
   8  -1  -4  501.95   28.80
   8  -1  -4  440.16   26.40
  -8   1   4  455.75   30.20
  -8   1   4  452.45   31.30
   7  -1  -4  292.67   22.20
   7  -1  -4  307.77   21.00
   7  -1  -4  310.47   21.50
  -7   1   4  273.57   22.70
  -7   1   4  293.37   20.40
  -7   1   4  280.57   22.40
  -7   1   4  315.07   24.80
   6  -1  -4  613.64   29.40
   6  -1  -4  618.94   31.10
  -6   1   4  630.64   33.00
  -6   1   4  632.84   33.00
  -6   1   4  588.04   30.30
  -6   1   4  640.34   30.20
  -6   1   4  659.13   33.90
   5  -1  -4  690.83   30.60
   5  -1  -4  636.64   33.00
   5  -1  -4  637.84   34.90
   5  -1  -4  730.53   30.70
   5  -1  -4  683.53   29.30
   5  -1  -4  662.03   31.10
   5  -1  -4  619.24   31.90
  -5   1   4  659.23   32.10
  -5   1   4  714.93   32.90
  -5   1   4  708.13   32.30
  -5   1   4  645.04   31.80
  -5   1   4  706.23   30.70
  -5   1   4  678.13   29.70
   4  -1  -4   72.49    8.10
   4  -1  -4   69.49    8.10
   4  -1  -4   78.09    8.70
   4  -1  -4   68.69    8.50
   4  -1  -4  100.69   10.20
   4  -1  -4   77.19    9.90
   4  -1  -4   84.79   10.40
  -4   1   4   65.29    8.10
  -4   1   4   65.59    7.90
  -4   1   4   65.69    8.50
  -4   1   4   74.39    9.30
  -4   1   4   69.09    8.20
  -4   1   4   79.59    8.40
  -4   1   4   80.79    9.20
   3  -1  -4   67.19    8.70
   3  -1  -4   53.69    7.30
   3  -1  -4   58.39    6.60
   3  -1  -4   53.89    6.70
   3  -1  -4   64.09    7.00
   3  -1  -4   58.19    6.70
  -3   1   4   58.69    6.60
  -3   1   4   53.79    6.80
  -3   1   4   68.89    8.10
  -3   1   4   63.49    6.80
  -3   1   4   62.19    6.80
  -3   1   4   58.99    7.70
  -3   1   4   60.39    6.60
   2  -1  -4 5475.95  125.99
   2  -1  -4 5600.54  123.89
   2  -1  -4 5508.15  136.99
   2  -1  -4 5388.96  122.99
   2  -1  -4 5062.39  132.09
   2  -1  -4 5286.37  116.59
  -2   1   4 5266.47  128.89
  -2   1   4 5420.26  123.89
  -2   1   4 5483.35  124.09
  -2   1   4 5516.75  122.99
  -2   1   4 5368.76  132.09
   1  -1  -4    6.00    2.20
   1  -1  -4    2.60    1.70
   1  -1  -4    3.10    1.50
  -1   1   4    2.10    2.00
  -1   1   4    3.50    1.80
  -1   1   4    4.10    1.90
  -1   1   4    2.50    1.40
  -1   1   4    2.30    1.40
  -1   1   4    5.70    5.60
   0  -1  -4   49.80    5.70
   0  -1  -4   49.60    5.80
   0  -1  -4   51.69    6.20
   0  -1  -4   56.19   18.30
   0   1   4   61.89    7.00
   0   1   4   40.30    7.10
   0   1   4   45.50    8.50
   0   1   4   59.99    6.40
  -1  -1  -4 2823.42   75.99
  -1  -1  -4 2927.51   82.29
  -1  -1  -4 3075.99  130.59
  -1  -1  -4 2897.11   69.19
  -1  -1  -4 2890.41   76.09
  -1  -1  -4 2712.23   73.19
   1   1   4 2639.84   86.39
   1   1   4 2814.52   74.99
   1   1   4 2764.02   68.79
   1   1   4 2857.91   79.19
   1   1   4 2863.81   79.19
   1   1   4 2780.62   81.19
   1   1   4 2891.51   80.89
  -2  -1  -4  690.93   29.20
  -2  -1  -4  758.92   31.80
  -2  -1  -4  702.83   27.70
  -2  -1  -4  731.63   33.00
  -2  -1  -4  744.13   35.90
   2   1   4  719.03   33.70
   2   1   4  738.83   30.70
   2   1   4  726.13   28.50
   2   1   4  750.82   33.30
   2   1   4  709.73   37.40
   2   1   4  733.33   35.40
  -3  -1  -4   52.89   10.50
  -3  -1  -4   56.89   10.00
  -3  -1  -4   68.69   10.40
   3   1   4   69.39   12.70
   3   1   4   56.89   10.40
   3   1   4   51.19    8.90
   3   1   4   71.49   12.80
   3   1   4   61.69   10.20
   3   1   4   64.29   11.30
  -4  -1  -4  614.74   30.60
  -4  -1  -4  610.44   31.40
  -4  -1  -4  672.63   38.20
   4   1   4  615.74   31.30
   4   1   4  662.73   35.40
   4   1   4  635.44   36.90
   4   1   4  617.44   35.50
   4   1   4  614.64   32.30
  -5  -1  -4   11.20    5.60
  -5  -1  -4   -0.50    5.00
  -5  -1  -4    9.30    5.40
   5   1   4   -0.40    6.20
   5   1   4    8.50    5.90
   5   1   4    4.50    4.70
   5   1   4   -0.30    3.10
   8  -2  -4    6.70    5.10
   8  -2  -4    8.00    5.60
   8  -2  -4    2.90    4.30
  -8   2   4   23.50    8.00
  -8   2   4   11.20    5.00
  -8   2   4   11.90    6.90
  -8   2   4   13.60    6.30
   7  -2  -4  864.41   38.60
   7  -2  -4  897.81   42.50
   7  -2  -4  919.31   37.80
   7  -2  -4  887.11   37.90
  -7   2   4  881.81   37.60
  -7   2   4  912.01   42.10
  -7   2   4  904.91   42.60
  -7   2   4  854.51   42.40
   6  -2  -4  692.83   35.50
   6  -2  -4  656.13   31.50
   6  -2  -4  695.43   31.00
   6  -2  -4  634.54   29.10
  -6   2   4  659.63   32.00
  -6   2   4  679.63   36.50
  -6   2   4  723.93   34.60
  -6   2   4  699.03   43.30
  -6   2   4  649.64   29.90
   5  -2  -4  605.84   33.40
   5  -2  -4  687.13   29.20
   5  -2  -4  655.73   33.60
   5  -2  -4  702.93   31.50
   5  -2  -4  699.33   31.20
  -5   2   4  680.43   28.70
  -5   2   4  639.44   30.60
  -5   2   4  696.03   30.00
  -5   2   4  704.13   31.90
  -5   2   4  726.93   32.20
  -5   2   4  671.63   31.30
   4  -2  -4  565.14   23.60
   4  -2  -4  554.34   24.10
   4  -2  -4  577.74   29.20
   4  -2  -4  525.15   28.90
   4  -2  -4  578.94   25.00
   4  -2  -4  573.14   28.60
  -4   2   4  581.84   25.60
  -4   2   4  561.44   24.10
  -4   2   4  557.94   23.40
  -4   2   4  564.04   25.70
  -4   2   4  586.24   27.20
  -4   2   4  506.75   26.40
  -4   2   4  473.95   30.30
   3  -2  -4  848.42   37.20
   3  -2  -4  851.11   29.10
   3  -2  -4  879.91   28.10
   3  -2  -4  867.51   29.60
   3  -2  -4  859.21   32.90
  -3   2   4  871.81   29.10
  -3   2   4  860.91   29.80
  -3   2   4  853.21   35.90
  -3   2   4  867.81   33.90
  -3   2   4  871.91   29.30
  -3   2   4  824.42   29.90
  -3   2   4  885.01   28.80
   2  -2  -4 1492.85   33.40
   2  -2  -4 1423.76   40.50
   2  -2  -4 1464.75   40.10
   2  -2  -4 1353.76   49.70
   2  -2  -4 1404.96   42.00
   2  -2  -4 1404.76   42.00
  -2   2   4 1262.17  107.09
  -2   2   4 1489.15   41.00
  -2   2   4 1464.25   40.00
  -2   2   4 1434.36   40.60
  -2   2   4 1489.25   40.30
   1  -2  -4 3389.36   94.99
   1  -2  -4 3533.65   84.69
   1  -2  -4 3524.55   87.49
   1  -2  -4 3597.34   83.89
   1  -2  -4 3620.74   84.39
  -1   2   4 3549.84   83.89
  -1   2   4 3687.83  156.98
  -1   2   4 3560.24   85.59
  -1   2   4 3457.35   97.19
  -1   2   4 3652.53   84.79
  -1   2   4 3479.55   86.49
   0  -2  -4  275.87   45.00
   0  -2  -4  325.07   15.20
   0  -2  -4  350.76   18.90
   0  -2  -4  321.47   15.30
   0  -2  -4  335.67   16.50
   0   2   4  341.77   18.60
   0   2   4  311.57   15.70
   0   2   4  325.77   17.10
   0   2   4  289.67   23.60
   0   2   4  320.67   20.80
   0   2   4  330.37   17.60
  -1  -2  -4 1188.68   44.20
  -1  -2  -4 1162.18   38.60
  -1  -2  -4 1148.89   39.00
  -1  -2  -4 1228.28   93.79
  -1  -2  -4 1119.39   37.00
   1   2   4 1171.48   41.30
   1   2   4 1157.08   45.10
   1   2   4 1047.90   50.39
   1   2   4 1163.28   38.30
   1   2   4 1167.68   43.80
   1   2   4 1166.28   51.79
   1   2   4 1160.28   34.70
  -2  -2  -4   14.80    4.30
  -2  -2  -4   13.30    5.80
  -2  -2  -4   12.90   12.30
  -2  -2  -4    7.20    5.00
   2   2   4    9.20    4.70
   2   2   4   18.50    4.40
   2   2   4   14.90    5.40
   2   2   4   11.00    4.20
   2   2   4    5.90    4.60
   2   2   4    6.10    3.80
  -3  -2  -4    8.20    4.70
  -3  -2  -4    8.30    8.00
  -3  -2  -4    0.70    3.10
   3   2   4    4.60    3.60
   3   2   4   -2.60    2.10
   3   2   4    3.90    2.80
   3   2   4   11.60    4.30
   3   2   4   -1.80    2.30
   3   2   4    6.50    4.40
  -4  -2  -4 1313.97   56.29
  -4  -2  -4 1357.26   50.29
   4   2   4 1366.16   53.29
   4   2   4 1358.46   54.89
   4   2   4 1323.87   57.19
   4   2   4 1180.38   58.49
   4   2   4 1407.46   51.59
  -5  -2  -4   27.00    7.50
  -5  -2  -4   30.40   11.50
   5   2   4   23.30    6.60
   5   2   4   32.30    7.30
   5   2   4   10.50    7.20
   8  -3  -4  223.18   19.90
   8  -3  -4  198.48   17.10
   8  -3  -4  216.08   16.70
   8  -3  -4  225.18   17.90
  -8   3   4  229.98   17.70
  -8   3   4  236.08   20.40
  -8   3   4  230.08   20.00
   7  -3  -4   83.29   10.10
   7  -3  -4   56.59   10.50
   7  -3  -4   90.99   16.40
   7  -3  -4   48.70    9.00
  -7   3   4   70.39    9.10
  -7   3   4   64.79   11.50
  -7   3   4   86.49   13.00
  -7   3   4   70.39   12.40
  -7   3   4   76.49   12.80
   6  -3  -4   95.69    9.90
   6  -3  -4  109.09   13.30
   6  -3  -4  106.49   10.80
  -6   3   4  100.19   11.90
  -6   3   4  112.69   12.70
  -6   3   4  102.39   12.40
  -6   3   4  106.59   10.70
  -6   3   4  114.69   12.30
   5  -3  -4  239.28   16.40
   5  -3  -4  241.28   19.80
   5  -3  -4  251.67   15.80
   5  -3  -4  228.38   14.50
  -5   3   4  247.68   16.30
  -5   3   4  254.47   17.70
  -5   3   4  240.58   17.30
  -5   3   4  240.48   15.00
  -5   3   4  252.57   17.10
  -5   3   4  257.77   17.40
   4  -3  -4 3507.95   86.59
   4  -3  -4 3515.15   88.39
   4  -3  -4 3620.44   88.19
   4  -3  -4 3626.14   96.09
   4  -3  -4 3495.65   87.69
   4  -3  -4 3512.35  101.19
  -4   3   4 3305.37   89.59
  -4   3   4 3490.15   88.89
  -4   3   4 3694.53   94.89
  -4   3   4 3621.54   88.39
  -4   3   4 3458.75   85.89
  -4   3   4 3488.45   95.29
  -4   3   4 3456.05   96.19
   3  -3  -4   11.60    3.20
   3  -3  -4    7.40    2.40
   3  -3  -4    6.30    3.80
   3  -3  -4   10.30    2.90
   3  -3  -4    2.80    1.80
  -3   3   4   13.50    3.50
  -3   3   4    4.40    2.20
  -3   3   4   10.80   15.70
  -3   3   4    7.60    2.70
  -3   3   4   10.80    4.50
  -3   3   4    9.20    2.50
  -3   3   4    7.10    2.70
   2  -3  -4  195.78   10.10
   2  -3  -4  180.58   15.70
   2  -3  -4  186.28   11.00
   2  -3  -4  195.38   11.30
  -2   3   4  176.28    9.60
  -2   3   4  189.98   10.00
  -2   3   4  190.28   10.20
  -2   3   4  180.88   10.30
  -2   3   4  176.98   15.90
  -2   3   4  191.58   42.70
  -2   3   4  198.88    8.70
   1  -3  -4  194.08   10.30
   1  -3  -4  200.88   10.40
   1  -3  -4  176.08   15.00
   1  -3  -4  204.68   12.20
   1  -3  -4  124.69   42.40
   1  -3  -4  228.18   17.40
  -1   3   4  195.78   11.60
  -1   3   4  236.48   39.40
  -1   3   4  195.48   12.90
  -1   3   4  214.28   11.30
  -1   3   4  217.28   10.80
   0  -3  -4    6.50    2.50
   0  -3  -4    1.60    2.10
   0  -3  -4    3.00    2.80
   0  -3  -4    9.30    2.40
   0   3   4    5.00    1.90
   0   3   4   10.60    5.60
   0   3   4    3.80    2.80
   0   3   4    5.40    2.20
   0   3   4    2.30    3.20
   0   3   4   12.70    2.90
   0   3   4    4.60    1.90
  -1  -3  -4  364.76   59.19
  -1  -3  -4  366.06   19.00
  -1  -3  -4  393.46   22.40
  -1  -3  -4  371.76   17.80
   1   3   4  410.56   28.30
   1   3   4  370.26   20.10
   1   3   4  355.46   22.20
   1   3   4  396.46   21.80
   1   3   4  398.16   20.30
   1   3   4  372.56   18.20
  -2  -3  -4 2525.15   71.79
  -2  -3  -4 2600.74  159.18
  -2  -3  -4 2551.84   78.19
   2   3   4 2515.15   70.49
   2   3   4 2649.53   76.89
   2   3   4 2514.85   69.39
   2   3   4 2617.94   75.79
   2   3   4 2561.14   87.59
   2   3   4 2466.35   72.19
  -3  -3  -4  552.94   71.09
  -3  -3  -4  545.65   31.30
   3   3   4  573.74   35.30
   3   3   4  519.45   26.20
   3   3   4  505.85   28.30
   3   3   4  511.35   25.70
   3   3   4  532.15   28.80
   3   3   4  496.95   26.60
  -4  -3  -4    0.20   12.70
  -4  -3  -4    6.40    5.20
  -4  -3  -4    6.40    4.70
   4   3   4   13.70    5.00
   4   3   4   14.70    5.40
   4   3   4    0.80    4.30
   4   3   4    3.30    4.90
   4   3   4    5.90    6.40
   8  -4  -4  101.99   12.90
   8  -4  -4   93.99   11.30
   8  -4  -4  121.39   18.10
  -8   4   4   78.89   10.40
  -8   4   4  104.89   15.50
  -8   4   4  109.99   13.20
   7  -4  -4  252.27   21.90
   7  -4  -4  250.77   17.40
   7  -4  -4  241.08   16.60
  -7   4   4  218.68   19.20
  -7   4   4  251.77   19.90
  -7   4   4  249.48   16.80
  -7   4   4  263.07   21.70
  -7   4   4  278.47   20.10
   6  -4  -4  704.73   28.90
   6  -4  -4  694.63   33.50
   6  -4  -4  726.63   38.10
  -6   4   4  652.33   30.80
  -6   4   4  658.23   31.00
  -6   4   4  716.53   32.90
  -6   4   4  677.43   33.60
  -6   4   4  687.53   28.50
   5  -4  -4  432.66   19.90
   5  -4  -4  412.86   33.50
   5  -4  -4  427.76   21.50
   5  -4  -4  429.06   20.40
  -5   4   4  421.76   21.50
  -5   4   4  438.86   23.80
  -5   4   4  445.26   19.70
  -5   4   4  408.66   21.50
  -5   4   4  424.76   23.20
  -5   4   4  430.66   22.70
   4  -4  -4  102.09    8.70
   4  -4  -4  111.49    9.00
   4  -4  -4  116.09   13.70
   4  -4  -4   92.89    7.90
   4  -4  -4   92.99    8.20
  -4   4   4   97.49    8.50
  -4   4   4  103.19    7.80
  -4   4   4   90.39   48.70
  -4   4   4  129.69   12.40
  -4   4   4   96.89    8.60
  -4   4   4  106.29    9.50
   3  -4  -4   49.90    5.30
   3  -4  -4   58.79    6.60
   3  -4  -4   42.50    4.90
   3  -4  -4   28.30    8.60
  -3   4   4   24.60    6.80
  -3   4   4   54.19    5.30
  -3   4   4   45.30    4.60
  -3   4   4   47.10    5.50
  -3   4   4   33.90    7.40
  -3   4   4   49.60    5.40
  -3   4   4   42.90   27.20
  -3   4   4   46.60    5.00
   2  -4  -4  495.25   16.90
   2  -4  -4  488.95   16.20
   2  -4  -4  500.25   28.30
   2  -4  -4  509.95   17.90
  -2   4   4  487.05   17.00
  -2   4   4  478.25   15.90
  -2   4   4  525.85   70.59
  -2   4   4  480.45   18.30
  -2   4   4  460.15   27.90
  -2   4   4  487.75   16.80
   1  -4  -4 4302.27   95.99
   1  -4  -4 4225.68   99.29
   1  -4  -4 4312.57   97.79
   1  -4  -4 4363.96   96.19
  -1   4   4 4272.67   95.19
  -1   4   4 4266.97   96.89
  -1   4   4 4162.98  118.99
  -1   4   4 5036.90  211.08
  -1   4   4 4441.36  127.59
  -1   4   4 4375.56   98.79
  -1   4   4 4270.47  100.99
  -1   4   4 4338.97   95.89
  -1   4   4 4352.76   95.89
   0  -4  -4  295.27   12.70
   0  -4  -4  302.77   15.80
   0  -4  -4  295.57   59.59
   0  -4  -4  302.97   13.50
   0   4   4  308.57   25.10
   0   4   4  330.57   15.00
   0   4   4  297.87   13.80
   0   4   4  295.87   13.30
   0   4   4  289.77   15.60
   0   4   4  282.67   12.10
   0   4   4  302.37   14.60
  -1  -4  -4  298.47   57.79
  -1  -4  -4  296.47   16.30
  -1  -4  -4  285.87   17.70
   1   4   4  269.97   16.00
   1   4   4  285.67   15.10
   1   4   4  314.77   16.40
   1   4   4  274.37   23.70
   1   4   4  287.07   15.10
  -2  -4  -4  246.58   53.59
  -2  -4  -4  254.27   18.80
  -2  -4  -4  251.97   16.60
   2   4   4  260.97   15.90
   2   4   4  284.27   16.70
   2   4   4  274.07   17.90
   2   4   4  271.77   16.80
   2   4   4  298.87   18.40
   2   4   4  258.67   23.20
  -3  -4  -4   23.70   24.50
  -3  -4  -4   23.60    6.60
  -3  -4  -4   28.10    8.00
   3   4   4   25.30    6.20
   3   4   4   30.70    6.70
   3   4   4   19.90    5.30
   3   4   4   12.50    7.10
   3   4   4   31.10    7.00
   7  -5  -4   37.10    6.90
   7  -5  -4   21.90    7.30
  -7   5   4   16.20    6.80
  -7   5   4   51.29   11.10
  -7   5   4   46.40    9.50
  -7   5   4   36.50    7.60
  -7   5   4   26.00    5.60
   6  -5  -4  395.66   19.50
   6  -5  -4  401.06   20.20
   6  -5  -4  346.87   26.30
  -6   5   4  389.76   19.00
  -6   5   4  409.46   23.20
  -6   5   4  378.16   22.00
  -6   5   4  390.46   21.30
  -6   5   4  373.86   23.70
   5  -5  -4   76.49    7.40
   5  -5  -4   75.79    7.70
   5  -5  -4   77.99   14.50
   5  -5  -4   79.79   10.20
  -5   5   4   92.29    9.90
  -5   5   4   91.99    9.70
  -5   5   4   85.29    8.70
  -5   5   4   83.99   10.10
  -5   5   4   90.19    8.40
  -5   5   4   79.59    7.10
   4  -5  -4   17.10    3.40
   4  -5  -4   24.20    4.30
   4  -5  -4   24.90    4.30
   4  -5  -4   25.50    8.30
  -4   5   4   26.60    3.60
  -4   5   4   28.20    6.80
  -4   5   4   26.40    5.40
  -4   5   4   22.30    4.20
  -4   5   4   15.60    5.00
  -4   5   4   26.00    4.00
   3  -5  -4 1965.00   67.99
  -3   5   4 1901.91  160.68
  -3   5   4 2007.10   53.79
  -3   5   4 2062.59   49.00
   2  -5  -4  241.18   19.20
  -2   5   4  239.78   22.20
  -2   5   4  248.48   51.19
  -2   5   4  246.68   12.00
   1  -5  -4    3.10   20.50
  -1   5   4    0.80    4.40
  -1   5   4   -3.20    1.80
  -1   5   4    6.80   12.60
  -1   5   4    2.20    1.50
   0  -5  -4  790.52   23.00
   0  -5  -4  609.44   91.69
   0  -5  -4  767.82   24.00
   0   5   4  780.32   22.50
   0   5   4  753.02   22.80
   0   5   4  750.42   25.50
   0   5   4  762.82   24.10
   0   5   4  772.92   41.60
   0   5   4  776.42   23.50
   0   5   4  731.83   23.80
  -1  -5  -4  103.79   44.60
  -1  -5  -4  113.49    9.70
   1   5   4  118.89    8.80
   1   5   4  112.99   18.50
   1   5   4  116.29    9.80
   1   5   4  140.19   12.80
   1   5   4  119.09   12.50
   1   5   4  109.19    9.00
  -2  -5  -4  684.23   29.10
  -2  -5  -4  639.44   27.10
  -2  -5  -4  602.04   87.19
   2   5   4  695.23   27.80
   2   5   4  670.33   28.40
   2   5   4  652.53   26.00
   2   5   4  659.33   39.70
   2   5   4  662.83   28.20
   2   5   4  657.93   26.30
  -3  -5  -4  112.89   15.30
  -3  -5  -4   79.79   38.80
   3   5   4  119.19   10.80
   3   5   4  114.39   11.90
   3   5   4  102.19   10.30
   3   5   4  105.29   17.90
   7  -6  -4  235.68   15.10
   7  -6  -4  245.38   22.60
  -7   6   4  237.38   18.80
  -7   6   4  224.68   14.00
  -7   6   4  205.08   18.70
  -7   6   4  230.48   16.00
   6  -6  -4  425.06   20.40
   6  -6  -4  430.76   29.30
   6  -6  -4  473.55   20.10
  -6   6   4  435.36   22.50
  -6   6   4  463.35   19.20
  -6   6   4  445.66   24.80
  -6   6   4  506.35   26.60
  -6   6   4  474.85   21.70
   5  -6  -4    9.00    2.90
   5  -6  -4    7.60    3.90
   5  -6  -4   16.00    6.90
   5  -6  -4    2.50    2.30
  -5   6   4    7.20    2.50
  -5   6   4   13.30    3.90
  -5   6   4    9.80    4.40
  -5   6   4    6.40    3.20
  -5   6   4    3.70    1.90
   4  -6  -4   27.90    8.30
  -4   6   4   32.40    5.40
  -4   6   4   29.00    6.00
  -4   6   4   33.70    3.60
   3  -6  -4  735.83   37.00
  -3   6   4  722.53   40.30
  -3   6   4  693.93   27.40
  -2   6   4   24.30    4.40
  -2   6   4   24.80    8.70
   1  -6  -4  165.88   61.59
  -1   6   4  236.48   22.20
  -1   6   4  206.08   11.30
  -1   6   4  217.68   11.80
   0  -6  -4  683.53  106.59
   0   6   4  830.32   28.20
   0   6   4  807.82   43.90
   0   6   4  876.81   28.60
  -1  -6  -4   31.70   30.70
  -1  -6  -4   22.90    4.30
   1   6   4   32.40    4.30
   1   6   4   36.90    6.50
   1   6   4   29.80    3.80
   1   6   4   25.30    3.80
   1   6   4   16.50    8.00
   1   6   4   28.20    4.80
   1   6   4   31.10    3.90
  -2  -6  -4   74.19   34.70
   2   6   4   42.50    8.70
   2   6   4   41.80    6.70
   2   6   4   46.20   12.90
  -6   7   4  118.59    9.80
  -6   7   4  149.49    9.90
  -6   7   4  155.08   13.80
  -6   7   4  147.59   12.70
  -6   7   4  142.79    8.30
   5  -7  -4 1329.77   55.29
  -5   7   4 1250.97   37.60
  -5   7   4 1318.87   34.10
  -5   7   4 1345.27   45.30
   4  -7  -4  447.66   29.30
  -4   7   4  534.35   33.00
  -4   7   4  518.45   23.30
   3  -7  -4   -8.40    3.00
  -3   7   4   -5.90    4.10
  -3   7   4    1.50    2.40
  -2   7   4    5.00    2.70
  -2   7   4    6.90    5.30
   1  -7  -4    8.50   30.30
  -1   7   4    7.50    3.70
  -1   7   4    7.70    3.30
  -1   7   4    5.80    6.80
   0  -7  -4  135.79   58.69
   0   7   4  126.69    9.40
   0   7   4  124.09   16.30
   4  -8  -4   85.19   14.50
  -4   8   4  103.39   12.80
  -4   8   4  106.19   10.50
  -3   8   4    1.80    3.60
  -3   8   4    1.60    5.10
  -2   8   4  740.23   39.70
  -2   8   4  712.23   26.20
   1  10  -5  423.36   21.80
   1  10  -5  429.86   27.00
   1  10  -5  433.86   20.10
  -1 -10   5  354.46   88.19
   0  10  -5  276.57   21.10
   0  10  -5  299.87   15.50
   0  10  -5  268.37   20.90
   0  10  -5  310.27   18.10
   0  10  -5  285.27   15.10
   0  10  -5  278.87   14.60
   0 -10   5  279.57   14.90
   0 -10   5  243.68   84.99
  -1  10  -5  675.23   24.50
  -1  10  -5  686.63   29.40
  -1  10  -5  625.44   33.90
  -1  10  -5  667.73   26.80
  -1  10  -5  627.54   24.50
   1 -10   5  628.14   26.10
   1 -10   5  639.14   27.10
  -2  10  -5   66.09   11.80
  -2  10  -5   75.39    9.20
  -2  10  -5   64.29    7.80
  -2  10  -5   53.09    6.60
  -2  10  -5   65.89    7.10
   2 -10   5   83.09    9.00
   2 -10   5   69.29    9.20
  -3  10  -5   55.19    9.60
  -3  10  -5   36.60    6.30
  -3  10  -5   42.60    6.60
  -3  10  -5   38.30    6.70
  -3  10  -5   41.60   10.30
   3 -10   5   29.20    6.80
  -4  10  -5  121.39   13.80
  -4  10  -5  141.39   14.40
  -4  10  -5  148.89   11.80
  -4  10  -5  122.59   15.40
   4 -10   5  148.29   13.80
   3   9  -5   -2.00    2.10
   3   9  -5   -4.20    4.00
  -3  -9   5   -3.30    4.10
  -3  -9   5   21.10   22.60
   2   9  -5   21.90    5.60
   2   9  -5   36.60    7.30
   2   9  -5   33.40    6.20
   2   9  -5   33.50    7.30
   2   9  -5   39.60    7.90
  -2  -9   5   26.80    6.60
  -2  -9   5   26.10    5.90
  -2  -9   5   12.90   29.80
   1   9  -5  884.71   35.50
   1   9  -5  812.52   33.40
   1   9  -5  837.22   32.70
   1   9  -5  863.21   32.00
   1   9  -5  797.92   37.80
   1   9  -5  792.52   30.00
  -1  -9   5  824.02   30.70
  -1  -9   5  774.22   30.70
  -1  -9   5  842.42  126.09
  -1  -9   5  807.72   35.30
   0   9  -5   17.90    4.00
   0   9  -5    2.90    3.00
   0   9  -5    8.30    3.20
   0   9  -5    1.70    2.00
   0   9  -5    4.70    3.00
   0   9  -5    9.60    3.90
   0  -9   5   50.39   34.90
   0  -9   5   12.50    4.00
   0  -9   5    8.80    3.40
  -1   9  -5   59.79    7.70
  -1   9  -5   55.29    7.20
  -1   9  -5   66.99   10.40
  -1   9  -5   47.00    6.40
  -1   9  -5   50.79   10.20
   1  -9   5   50.79    8.60
   1  -9   5   64.29    8.30
   1  -9   5   35.30   31.70
  -2   9  -5 1813.42   64.09
  -2   9  -5 1752.12   51.89
  -2   9  -5 1836.02   54.29
  -2   9  -5 1803.82   53.39
  -2   9  -5 1833.72   60.19
   2  -9   5 1758.12   56.19
   2  -9   5 1777.52   57.99
  -3   9  -5  134.29   15.00
  -3   9  -5  154.88   12.50
  -3   9  -5  155.28   12.60
  -3   9  -5  144.49   14.70
  -3   9  -5  136.89   11.50
   3  -9   5  150.18   13.60
   3  -9   5  162.98   14.40
  -4   9  -5    9.50    4.40
  -4   9  -5   15.60    5.00
  -4   9  -5    4.80    5.40
  -4   9  -5    7.30    4.50
  -4   9  -5    7.20    3.80
   4  -9   5    7.60    4.60
   4  -9   5   16.90    7.40
  -5   9  -5   40.80    9.00
  -5   9  -5   55.29   11.00
  -5   9  -5   44.60   10.30
   5  -9   5   39.70    8.40
   5  -9   5   38.10    8.40
   4   8  -5   19.40    6.00
   4   8  -5   20.10    6.70
  -4  -8   5   14.50   22.70
  -4  -8   5    5.30    4.70
   3   8  -5   32.70    6.40
   3   8  -5   32.90    7.70
   3   8  -5   18.70    6.30
   3   8  -5   37.00    8.10
  -3  -8   5   25.00    5.80
  -3  -8   5   23.40    5.90
  -3  -8   5   47.60   31.20
   2   8  -5  279.37   19.10
   2   8  -5  258.87   17.00
   2   8  -5  275.87   17.80
   2   8  -5  259.07   18.40
   2   8  -5  281.97   19.20
  -2  -8   5  250.07   79.69
  -2  -8   5  234.08   16.20
  -2  -8   5  278.07   16.60
   1   8  -5  671.03   28.30
   1   8  -5  670.63   30.80
   1   8  -5  664.93   29.30
   1   8  -5  691.53   27.20
   1   8  -5  661.03   27.80
   1   8  -5  663.53   33.00
  -1  -8   5  630.14   29.30
  -1  -8   5  595.04  102.69
  -1  -8   5  630.74   26.80
  -1  -8   5  617.94   27.10
   0   8  -5 1010.40   40.10
   0   8  -5 1021.00   36.50
   0   8  -5 1015.90   41.70
   0   8  -5  997.10   34.60
   0   8  -5  994.50   36.60
   0   8  -5 1026.80   32.50
   0  -8   5 1036.40   38.70
   0  -8   5  880.81  150.98
   0  -8   5  981.80   34.40
   0  -8   5 1057.69   36.30
  -1   8  -5  131.99   12.80
  -1   8  -5  153.98   12.30
  -1   8  -5  157.08   12.10
  -1   8  -5  136.09   11.00
  -1   8  -5  157.38   14.90
   1  -8   5  151.28   12.00
   1  -8   5  142.39    7.90
   1  -8   5  127.69   56.19
  -2   8  -5  517.45   23.40
  -2   8  -5  523.65   28.60
  -2   8  -5  466.35   28.00
   2  -8   5  516.65   27.50
   2  -8   5  518.25   26.20
  -3   8  -5  168.98   12.80
  -3   8  -5  152.38   15.60
  -3   8  -5  166.68   13.80
  -3   8  -5  173.48   17.00
  -3   8  -5  155.08   13.00
   3  -8   5  161.78   14.80
  -4   8  -5   13.40    5.30
  -4   8  -5   31.30    9.00
  -4   8  -5   17.10    5.60
  -4   8  -5   27.40    7.30
  -4   8  -5   21.80    5.40
   4  -8   5   12.70    6.20
   4  -8   5   20.10    5.50
   4  -8   5   18.00    6.90
  -5   8  -5  957.60   39.20
  -5   8  -5  913.81   41.90
  -5   8  -5  878.31   44.70
  -5   8  -5  904.81   44.60
   5  -8   5  961.60   43.40
   5  -8   5  946.41   37.00
   5  -8   5  967.90   41.40
   5   7  -5    6.50    4.20
   5   7  -5    6.80    4.00
  -5  -7   5   12.30    4.80
  -5  -7   5   35.70   22.60
   4   7  -5   14.20    5.00
   4   7  -5   14.00    5.60
   4   7  -5   16.20    5.10
   4   7  -5   16.50    6.40
   4   7  -5   11.70    6.30
  -4  -7   5   18.40    5.90
  -4  -7   5   12.20    4.90
  -4  -7   5   21.70   21.30
   3   7  -5 1318.47   51.29
   3   7  -5 1394.06   48.60
   3   7  -5 1454.25   51.59
   3   7  -5 1397.66   47.50
  -3  -7   5 1442.86  144.29
  -3  -7   5 1448.06   48.50
  -3  -7   5 1445.86   48.40
   2   7  -5  255.57   25.80
   2   7  -5  331.77   18.40
   2   7  -5  276.17   19.10
   2   7  -5  292.27   19.10
   2   7  -5  329.67   20.50
  -2  -7   5  315.07   20.40
  -2  -7   5  195.98   69.09
  -2  -7   5  300.47   17.90
   1   7  -5   73.49    8.10
   1   7  -5   69.69    8.20
   1   7  -5   68.69    8.30
   1   7  -5   72.19    8.70
   1   7  -5   67.09    9.20
  -1  -7   5   76.59    8.60
  -1  -7   5   58.39   34.30
  -1  -7   5   60.59    9.50
   0   7  -5    1.60    1.90
   0   7  -5   -0.60    1.50
   0   7  -5   -0.20    1.80
   0   7  -5    4.70    2.40
   0   7  -5    0.80    1.60
   0   7  -5    6.50    2.80
   0  -7   5   -2.90   13.30
   0  -7   5    0.10    2.10
   0  -7   5   -4.40    2.00
   0  -7   5    4.60    4.80
  -1   7  -5   55.89   10.70
  -1   7  -5   40.80    7.00
  -1   7  -5   54.59    8.50
  -1   7  -5   47.00    9.00
  -1   7  -5   75.19   33.70
  -1   7  -5   55.59    8.50
   1  -7   5   40.50   31.70
   1  -7   5   60.49    4.80
   1  -7   5   59.59    7.40
  -2   7  -5  361.76   20.80
  -2   7  -5  396.66   70.49
  -2   7  -5  350.16   20.20
  -2   7  -5  394.86   20.60
  -2   7  -5  383.96   24.70
  -2   7  -5  419.66   24.90
   2  -7   5  372.26   22.60
   2  -7   5  348.67   23.00
  -3   7  -5 2367.46   73.39
  -3   7  -5 2410.56   71.09
  -3   7  -5 2562.14   81.69
  -3   7  -5 2447.96   73.59
  -3   7  -5 2439.06   78.19
   3  -7   5 2529.35   80.09
   3  -7   5 2497.15   76.19
   3  -7   5 2548.74   64.79
  -4   7  -5  814.82   37.90
  -4   7  -5  837.32   42.70
  -4   7  -5  891.01   41.60
  -4   7  -5  798.92   35.40
  -4   7  -5  793.22   35.40
   4  -7   5  876.51   41.50
   4  -7   5  800.12   37.60
   4  -7   5  867.61   32.00
  -5   7  -5   36.10    8.70
  -5   7  -5   43.00   10.00
  -5   7  -5    7.50    5.60
  -5   7  -5   44.30    8.50
  -5   7  -5   23.20    6.70
   5  -7   5   21.80    6.10
   5  -7   5   34.80    9.10
   5  -7   5   30.70    9.20
  -6   7  -5  184.68   22.00
  -6   7  -5  223.28   18.00
  -6   7  -5  242.88   21.40
   6  -7   5  228.98   17.30
   6  -7   5  230.98   21.00
   6  -7   5  253.37   20.20
   5   6  -5  469.15   27.60
   5   6  -5  440.76   22.30
   5   6  -5  490.65   30.00
   5   6  -5  441.46   30.30
   5   6  -5  438.56   25.70
  -5  -6   5  435.96   25.70
  -5  -6   5  548.05   86.89
  -5  -6   5  415.46   26.10
   4   6  -5  574.84   31.70
   4   6  -5  593.84   33.00
   4   6  -5  588.84   28.40
   4   6  -5  596.54   30.60
   4   6  -5  604.84   29.90
   4   6  -5  578.24   24.10
  -4  -6   5  692.03   93.59
  -4  -6   5  592.34   29.70
  -4  -6   5  572.24   28.60
   3   6  -5   91.09    7.20
   3   6  -5   72.49    9.20
   3   6  -5   82.99   10.40
   3   6  -5   75.99   10.50
   3   6  -5   96.29   10.60
   3   6  -5   81.19   10.30
  -3  -6   5   74.69    9.50
  -3  -6   5  121.49   47.60
  -3  -6   5   71.69    9.40
   2   6  -5  520.45   25.50
   2   6  -5  504.15   23.80
   2   6  -5  480.15   25.90
   2   6  -5  484.95   24.60
   2   6  -5  470.75   25.50
  -2  -6   5  509.15   26.30
  -2  -6   5  522.05   79.19
  -2  -6   5  506.65   24.10
  -2  -6   5  548.45   25.00
   1   6  -5  401.66   20.00
   1   6  -5  367.36   20.60
   1   6  -5  374.86   22.40
   1   6  -5  383.66   19.30
   1   6  -5  405.36   21.20
  -1  -6   5  379.56   19.60
  -1  -6   5  397.56   19.60
  -1  -6   5  417.06   20.70
  -1  -6   5  375.76   20.20
  -1  -6   5  339.27   65.19
  -1  -6   5  371.36   20.10
   0   6  -5 2794.12   83.89
   0   6  -5 3063.19   79.89
   0   6  -5 3083.99   83.29
   0   6  -5 2989.10   80.59
   0   6  -5 3002.40   72.79
   0   6  -5 2989.40   86.69
   0  -6   5 3090.89   79.89
   0  -6   5 3030.60   79.49
   0  -6   5 2974.20   82.09
   0  -6   5 2907.01   77.69
   0  -6   5 2611.44  195.38
  -1   6  -5   26.80    6.00
  -1   6  -5   21.10    5.40
  -1   6  -5   12.40    3.80
  -1   6  -5   18.60    5.40
  -1   6  -5   16.00   15.40
  -1   6  -5   16.60    6.00
   1  -6   5   17.30    5.00
   1  -6   5   16.20   10.40
   1  -6   5   14.40    5.80
   1  -6   5   16.70    2.90
   1  -6   5   21.30    5.30
   1  -6   5   11.50    4.20
  -2   6  -5  462.85   72.89
  -2   6  -5  485.65   28.80
  -2   6  -5  502.95   27.30
  -2   6  -5  501.15   25.40
  -2   6  -5  492.35   24.30
  -2   6  -5  497.75   25.20
   2  -6   5  519.15   27.80
   2  -6   5  512.45   25.60
   2  -6   5  476.85   27.60
   2  -6   5  519.15   27.30
  -3   6  -5   94.99   10.80
  -3   6  -5  113.29   11.10
  -3   6  -5   76.99   39.20
  -3   6  -5   97.39   11.40
  -3   6  -5   98.29   12.90
  -3   6  -5   83.99   13.40
   3  -6   5   89.49   12.30
   3  -6   5  101.79   11.60
   3  -6   5   93.79    8.30
  -4   6  -5    2.50    2.60
  -4   6  -5    4.10    3.10
  -4   6  -5    5.10    3.40
  -4   6  -5    2.90    3.50
  -4   6  -5    2.10    3.60
   4  -6   5    5.70    3.60
   4  -6   5    6.10    4.40
   4  -6   5    2.10    1.20
  -5   6  -5   24.60    7.50
  -5   6  -5   22.60    7.10
  -5   6  -5    9.90    4.40
  -5   6  -5   19.30    7.20
   5  -6   5   21.60    3.70
   5  -6   5   26.40    7.30
   5  -6   5   12.90    5.90
  -6   6  -5  779.62   41.00
  -6   6  -5  757.42   44.50
  -6   6  -5  923.21   55.99
  -6   6  -5  825.72   43.50
   6  -6   5  832.22   40.30
   6  -6   5  830.12   27.50
   6  -6   5  783.12   42.00
   6   5  -5   89.09   10.20
   6   5  -5   52.99   12.00
   6   5  -5   59.79   11.10
   6   5  -5   70.79   13.40
   6   5  -5   84.89   17.00
  -6  -5   5   54.99   10.30
  -6  -5   5   56.19   11.40
   5   5  -5  828.42   33.10
   5   5  -5  882.11   41.70
   5   5  -5  881.21   38.20
   5   5  -5  832.12   42.70
   5   5  -5  867.41   39.10
  -5  -5   5  846.82   38.90
  -5  -5   5  822.32   36.50
   4   5  -5   -1.40    4.40
   4   5  -5    7.50    3.50
   4   5  -5    4.50    3.10
   4   5  -5    1.40    2.00
   4   5  -5   -0.70    1.70
   4   5  -5    1.40    3.40
  -4  -5   5    1.20    2.60
  -4  -5   5    4.50    3.20
   3   5  -5   32.70    7.00
   3   5  -5   34.90    8.40
   3   5  -5   28.80    5.20
   3   5  -5   29.90    6.50
   3   5  -5   23.30    6.80
   3   5  -5   30.30    6.90
  -3  -5   5   28.50    7.50
  -3  -5   5   25.90    5.90
  -3  -5   5   44.00   24.60
  -3  -5   5   29.30    6.90
   2   5  -5  783.12   32.40
   2   5  -5  789.02   33.00
   2   5  -5  821.72   34.50
   2   5  -5  816.52   34.60
   2   5  -5  810.42   31.50
  -2  -5   5  793.22   88.89
  -2  -5   5  800.42   32.10
  -2  -5   5  796.82   31.80
  -2  -5   5  807.52   31.10
  -2  -5   5  810.12   33.60
  -2  -5   5  789.72   31.10
   1   5  -5 1382.46   43.60
   1   5  -5 1314.27   44.90
   1   5  -5 1384.16   48.00
   1   5  -5 1332.67   45.00
   1   5  -5 1280.47   43.90
  -1  -5   5 1339.87   44.40
  -1  -5   5 1357.36   44.10
  -1  -5   5 1323.97   44.10
  -1  -5   5 1337.27   43.80
  -1  -5   5 1407.76   43.60
  -1  -5   5 1272.57  116.49
   0   5  -5   96.09   10.00
   0   5  -5  120.19   11.00
   0   5  -5  114.89   10.50
   0   5  -5  117.49   10.30
   0   5  -5  155.48   31.90
   0   5  -5  110.99   12.00
   0  -5   5   80.49   34.40
   0  -5   5  112.99   10.60
   0  -5   5  127.79    9.10
   0  -5   5  124.69   11.10
   0  -5   5  116.29   10.40
   0  -5   5  136.59   12.30
  -1   5  -5 1925.41   65.09
  -1   5  -5 2174.88  136.39
  -1   5  -5 1990.50   59.69
  -1   5  -5 1949.51   60.39
  -1   5  -5 1954.90   60.19
  -1   5  -5 2055.49   59.29
   1  -5   5 1975.40   62.49
   1  -5   5 2039.30   50.49
   1  -5   5 2016.00   66.19
   1  -5   5 1993.50   60.09
   1  -5   5 1928.01   59.19
  -2   5  -5 1348.67   47.90
  -2   5  -5 1335.37   47.10
  -2   5  -5 1262.37  117.29
  -2   5  -5 1243.18   45.80
  -2   5  -5 1357.06   52.59
  -2   5  -5 1320.37   45.50
   2  -5   5 1322.57   50.39
   2  -5   5 1274.97   46.10
   2  -5   5 1319.57   48.80
   2  -5   5 1324.17   46.10
   2  -5   5 1312.47   36.90
   2  -5   5 1287.67   34.40
   2  -5   5 1313.17   51.09
  -3   5  -5  613.54   30.40
  -3   5  -5  684.83   31.10
  -3   5  -5  732.03   37.90
  -3   5  -5  625.54   32.00
  -3   5  -5  504.35   81.59
  -3   5  -5  691.53   33.50
   3  -5   5  656.43   34.70
   3  -5   5  630.74   32.80
   3  -5   5  698.63   36.60
   3  -5   5  662.03   22.60
   3  -5   5  630.34   31.90
  -4   5  -5   55.59   39.70
  -4   5  -5   34.40   10.10
  -4   5  -5   29.90    8.20
  -4   5  -5   41.00    8.60
  -4   5  -5   54.59    9.70
  -4   5  -5   29.70    7.70
   4  -5   5   37.40   10.20
   4  -5   5   41.10    9.20
   4  -5   5   44.40    5.70
  -5   5  -5  572.84   36.30
  -5   5  -5  523.65   33.30
  -5   5  -5  531.35   30.00
  -5   5  -5  585.04   32.80
   5  -5   5  518.55   31.20
   5  -5   5  556.24   23.10
   5  -5   5  506.85   33.00
  -6   5  -5  287.87   21.10
  -6   5  -5  264.67   22.30
  -6   5  -5  316.37   27.60
   6  -5   5  264.57   23.70
   6  -5   5  259.47   16.10
   6  -5   5  267.17   21.90
   6   4  -5  505.15   30.60
   6   4  -5  510.95   26.30
   6   4  -5  492.75   33.50
   6   4  -5  508.95   29.50
   6   4  -5  506.15   28.70
  -6  -4   5  518.65   28.60
  -6  -4   5  487.85   29.60
   5   4  -5  756.52   40.30
   5   4  -5  726.73   34.00
   5   4  -5  738.93   31.20
   5   4  -5  799.32   38.30
   5   4  -5  760.92   35.70
  -5  -4   5  778.62   36.40
  -5  -4   5  712.23   33.50
   4   4  -5   65.49    7.50
   4   4  -5   56.19    9.90
   4   4  -5   62.19   10.10
   4   4  -5   51.99    9.80
   4   4  -5   57.59   10.30
   4   4  -5   78.09    9.80
  -4  -4   5   74.29    9.80
  -4  -4   5   66.79   10.40
   3   4  -5  742.23   33.50
   3   4  -5  756.82   26.70
   3   4  -5  791.72   33.80
   3   4  -5  745.13   32.20
   3   4  -5  755.42   31.60
   3   4  -5  763.82   35.10
   3   4  -5  808.22   36.80
  -3  -4   5  730.63   32.10
  -3  -4   5  719.33   31.30
  -3  -4   5  694.73   34.50
  -3  -4   5  749.33   31.20
  -3  -4   5  749.62   30.60
   2   4  -5 3288.97   85.29
   2   4  -5 3149.28   85.89
   2   4  -5 3073.59   85.49
   2   4  -5 3147.08   88.19
   2   4  -5 3232.48   88.99
  -2  -4   5 3227.08   84.89
  -2  -4   5 3230.18   87.39
  -2  -4   5 3378.26   86.59
  -2  -4   5 3157.58   83.99
  -2  -4   5 3644.64  179.38
   1   4  -5    4.80    2.50
   1   4  -5    0.60    1.80
   1   4  -5    0.60    1.50
   1   4  -5    2.20    1.70
   1   4  -5    1.40    1.70
  -1  -4   5    7.90    8.40
  -1  -4   5    1.20    2.10
  -1  -4   5    1.30    1.90
  -1  -4   5    1.30    1.90
  -1  -4   5    1.20    1.50
  -1  -4   5    0.80    1.90
   0   4  -5 2060.49   59.79
   0   4  -5 2074.19   58.39
   0   4  -5 2042.50   60.89
   0   4  -5 2120.19   65.59
   0   4  -5 2105.79   59.49
   0  -4   5 2054.19   61.79
   0  -4   5 2109.19   60.09
   0  -4   5 2059.29   59.49
   0  -4   5 2068.99   60.49
   0  -4   5 1731.83  125.69
   0  -4   5 2156.98   63.19
  -1   4  -5 1122.39   45.10
  -1   4  -5 1132.19   39.50
  -1   4  -5 1145.59   40.50
  -1   4  -5 1149.98   39.90
  -1   4  -5 1124.79   40.90
   1  -4   5 1113.89   33.80
   1  -4   5 1060.19   42.40
   1  -4   5 1137.89   45.80
   1  -4   5 1085.29   40.00
   1  -4   5 1174.18   40.80
  -2   4  -5  189.38   14.70
  -2   4  -5  167.18   14.80
  -2   4  -5  165.58   39.70
  -2   4  -5  199.48   15.40
  -2   4  -5  196.78   17.80
  -2   4  -5  200.78   15.50
   2  -4   5  190.98   17.20
   2  -4   5  199.78   16.80
   2  -4   5  211.58   13.50
   2  -4   5  174.48   16.10
   2  -4   5  195.08   14.20
  -3   4  -5    6.10    3.40
  -3   4  -5    8.00    4.70
  -3   4  -5    6.40    3.30
  -3   4  -5   10.10    4.80
  -3   4  -5   -9.30   14.20
  -3   4  -5    7.30    4.20
   3  -4   5    8.50    5.60
   3  -4   5    8.40    4.50
   3  -4   5    6.20    4.00
   3  -4   5   -0.90    2.40
  -4   4  -5 1276.67   51.69
  -4   4  -5 1324.57   57.89
  -4   4  -5 1360.56   51.99
  -4   4  -5 1272.57   48.50
  -4   4  -5 1327.67   54.79
   4  -4   5 1311.27   55.99
   4  -4   5 1266.27   55.29
   4  -4   5 1408.26   53.99
   4  -4   5 1309.97   43.70
  -5   4  -5  200.18   21.00
  -5   4  -5  207.18   18.90
  -5   4  -5  222.08   22.00
  -5   4  -5  223.28   18.70
   5  -4   5  220.28   21.50
   5  -4   5  223.48   19.70
   5  -4   5  224.58   16.10
  -6   4  -5    3.30    5.80
  -6   4  -5    3.90    3.50
  -6   4  -5    7.70    4.70
   6  -4   5    8.20    5.40
   6  -4   5    1.40    3.70
   6  -4   5    2.40    4.80
   7   3  -5  206.58   17.20
   7   3  -5  183.08   17.00
   7   3  -5  186.08   17.40
  -7  -3   5  209.98   20.40
  -7  -3   5  211.78   18.20
   6   3  -5   57.29   11.20
   6   3  -5   66.29   12.20
   6   3  -5   54.49    9.90
   6   3  -5   46.40    9.00
   6   3  -5   52.99   11.10
  -6  -3   5   80.69   12.50
  -6  -3   5   66.39   13.00
   5   3  -5  135.49   14.10
   5   3  -5  137.49   14.10
   5   3  -5  138.09   12.30
   5   3  -5  148.49   16.90
  -5  -3   5  155.88   15.00
  -5  -3   5  154.68   14.40
   4   3  -5 2930.11   89.09
   4   3  -5 2835.12   81.59
   4   3  -5 2948.21   87.69
   4   3  -5 2994.00   84.29
   4   3  -5 2911.11   77.69
   4   3  -5 2818.42   85.09
   4   3  -5 2958.30   85.89
  -4  -3   5 2885.91   80.59
  -4  -3   5 2951.80   81.59
  -4  -3   5 2786.22  101.29
  -4  -3   5 2904.61   83.99
  -4  -3   5 2897.71   85.79
   3   3  -5 1758.42   57.49
   3   3  -5 1820.92   58.49
   3   3  -5 1846.62   60.39
   3   3  -5 1822.72   51.59
   3   3  -5 1834.72   56.19
   3   3  -5 1831.22   56.69
   3   3  -5 1820.62   59.89
  -3  -3   5 1828.62   56.09
  -3  -3   5 1809.32   54.99
  -3  -3   5 1792.92   55.39
  -3  -3   5 1783.62   57.09
  -3  -3   5 1731.23   57.99
   2   3  -5  110.49   11.10
   2   3  -5  121.19   10.90
   2   3  -5  118.19   10.90
   2   3  -5  111.19    8.40
   2   3  -5  135.69   11.20
   2   3  -5  131.59   12.20
  -2  -3   5  107.39    9.90
  -2  -3   5  114.69   10.90
  -2  -3   5  115.49   10.40
  -2  -3   5  111.99   10.50
  -2  -3   5  114.29   10.60
   1   3  -5  780.12   23.90
   1   3  -5  768.42   30.90
   1   3  -5  751.12   30.30
   1   3  -5  747.53   29.30
   1   3  -5  755.12   32.40
  -1  -3   5  799.22   66.29
  -1  -3   5  761.52   30.20
  -1  -3   5  771.82   29.80
  -1  -3   5  710.33   29.90
  -1  -3   5  770.12   23.50
  -1  -3   5  751.72   29.20
  -1  -3   5  718.33   29.10
   0   3  -5   97.89    9.70
   0   3  -5   97.59   10.90
   0   3  -5   93.39    9.20
   0   3  -5  109.29    8.80
   0   3  -5   98.99    9.40
   0  -3   5  100.09   10.40
   0  -3   5   74.09   25.30
   0  -3   5   92.79    7.30
   0  -3   5   88.79    8.90
   0  -3   5  108.39   10.80
   0  -3   5   93.59    9.30
   0  -3   5   94.99    8.40
  -1   3  -5  561.14   29.30
  -1   3  -5  527.35   25.40
  -1   3  -5  523.45   25.50
  -1   3  -5  522.15   24.40
  -1   3  -5  516.35   50.49
  -1   3  -5  566.14   25.20
   1  -3   5  550.14   22.90
   1  -3   5  490.35   26.70
   1  -3   5  488.15   28.50
   1  -3   5  551.14   25.70
   1  -3   5  514.75   25.00
  -2   3  -5  141.29   13.20
  -2   3  -5  180.18   15.40
  -2   3  -5  160.68   13.40
  -2   3  -5  168.68   13.60
  -2   3  -5  186.68   17.20
  -2   3  -5  149.39   33.80
   2  -3   5  162.28   15.20
   2  -3   5  201.68   14.90
   2  -3   5  184.58   13.40
   2  -3   5  148.99   15.20
   2  -3   5  190.18   15.30
   2  -3   5  188.18   16.90
  -3   3  -5 3314.47  101.69
  -3   3  -5 3117.59   89.59
  -3   3  -5 3281.37   96.09
  -3   3  -5 3224.28   90.49
  -3   3  -5 3278.47   91.89
   3  -3   5 3096.49   90.99
   3  -3   5 3288.77  100.29
   3  -3   5 3299.97   98.69
   3  -3   5 3252.37   88.49
   3  -3   5 3230.98   95.49
  -4   3  -5  172.88   16.00
  -4   3  -5  185.68   16.50
  -4   3  -5  158.78   18.20
  -4   3  -5  167.88   17.70
   4  -3   5  195.88   15.60
   4  -3   5  191.38   19.20
   4  -3   5  196.48   18.10
   4  -3   5  154.48   17.80
  -5   3  -5   31.50   10.80
  -5   3  -5   34.40    8.20
  -5   3  -5   32.70    8.00
   5  -3   5   23.20    7.00
   5  -3   5   26.50    7.70
   5  -3   5   39.50    9.20
  -6   3  -5    4.20    4.70
  -6   3  -5   -1.60    4.70
  -6   3  -5    2.10    5.70
   6  -3   5   -1.90    3.80
   6  -3   5   -3.10    3.90
   6  -3   5   -2.80    3.30
   7   2  -5  639.14   33.30
   7   2  -5  598.34   31.80
   7   2  -5  614.74   32.20
   7   2  -5  624.04   35.30
  -7  -2   5  603.64   34.70
  -7  -2   5  633.54   32.50
   6   2  -5   87.59   10.90
   6   2  -5   65.49   12.90
   6   2  -5   79.69   10.60
   6   2  -5  102.09   13.50
  -6  -2   5   72.29   12.00
  -6  -2   5   74.59   12.00
   5   2  -5 1636.74   56.29
   5   2  -5 1617.44   54.09
   5   2  -5 1637.94   55.39
   5   2  -5 1653.23   62.99
   5   2  -5 1567.14   57.89
  -5  -2   5 1635.44   55.09
  -5  -2   5 1603.34   57.59
  -5  -2   5 1661.33   56.89
   4   2  -5    7.70    3.00
   4   2  -5    2.80    2.80
   4   2  -5    5.80    3.80
   4   2  -5    2.90    2.00
   4   2  -5   10.30    4.30
   4   2  -5    1.50    2.20
  -4  -2   5    0.30    2.60
  -4  -2   5   22.90    8.00
  -4  -2   5   -0.50    1.10
  -4  -2   5    1.30    2.50
   3   2  -5  377.96   23.00
   3   2  -5  440.26   23.20
   3   2  -5  415.76   20.70
   3   2  -5  405.36   21.60
   3   2  -5  452.15   22.40
   3   2  -5  414.86   22.80
   3   2  -5  394.26   21.50
  -3  -2   5  386.46   22.60
  -3  -2   5  462.95   23.50
  -3  -2   5  439.26   22.10
  -3  -2   5  432.16   21.60
  -3  -2   5  413.36   21.50
   2   2  -5  174.08   13.80
   2   2  -5  153.88   11.90
   2   2  -5  191.98   12.50
   2   2  -5  167.38   13.20
   2   2  -5  165.98   12.70
   2   2  -5  178.78   13.40
  -2  -2   5  167.58   12.60
  -2  -2   5  176.98   13.00
  -2  -2   5  200.58   14.00
  -2  -2   5  172.28   10.80
  -2  -2   5  179.18   12.80
  -2  -2   5  181.68   12.90
   1   2  -5 5475.95  128.09
   1   2  -5 5397.26  133.09
   1   2  -5 5188.98  128.59
   1   2  -5 5421.16  124.29
   1   2  -5 5572.24  129.99
  -1  -2   5 4984.90  129.39
  -1  -2   5 5370.26  124.49
  -1  -2   5 5981.30  172.18
  -1  -2   5 5455.65  128.59
  -1  -2   5 5348.17  128.49
  -1  -2   5 5445.66  129.39
   0   2  -5 1787.42   48.00
   0   2  -5 1774.02   58.19
   0   2  -5 1777.72   54.29
   0   2  -5 1830.92   53.09
   0   2  -5 1790.32   53.29
   0  -2   5 1764.42   50.89
   0  -2   5 1695.83   55.59
   0  -2   5 1835.02   53.69
   0  -2   5 1821.32   56.59
   0  -2   5 1753.32   53.39
  -1   2  -5 2498.05   75.19
  -1   2  -5 2354.86   67.99
  -1   2  -5 2401.46   63.79
  -1   2  -5 2482.95   69.39
  -1   2  -5 2141.29   96.39
  -1   2  -5 2317.97   66.29
   1  -2   5 2310.57   67.79
   1  -2   5 2341.57   60.99
   1  -2   5 2433.26   73.99
  -2   2  -5  235.38   17.10
  -2   2  -5  260.67   16.40
  -2   2  -5  202.98   16.50
  -2   2  -5  224.18   16.10
  -2   2  -5  211.18   18.90
   2  -2   5  199.58   17.60
   2  -2   5  223.98   18.20
   2  -2   5  210.88   18.50
   2  -2   5  225.58   17.60
   2  -2   5  236.78   14.90
   2  -2   5  231.18   16.70
  -3   2  -5    0.60    3.00
  -3   2  -5   -1.10    2.50
  -3   2  -5    8.80    4.10
  -3   2  -5    6.60    3.00
  -3   2  -5   -0.20    2.20
   3  -2   5    2.60    3.40
   3  -2   5    0.90    2.50
   3  -2   5    2.30    4.30
   3  -2   5    1.00    2.50
   3  -2   5    2.40    2.80
   3  -2   5    2.60    3.10
  -4   2  -5   61.39   12.40
  -4   2  -5   80.79   12.20
  -4   2  -5  104.49   12.30
   4  -2   5  106.09   14.20
   4  -2   5   69.59   17.10
   4  -2   5   89.59   15.40
   4  -2   5  104.59   12.80
  -5   2  -5  435.16   32.70
  -5   2  -5  476.45   27.80
  -5   2  -5  435.16   27.20
   5  -2   5  472.55   31.30
   5  -2   5  495.25   30.70
   5  -2   5  444.26   31.70
   5  -2   5  491.75   28.40
  -6   2  -5  863.01   49.20
  -6   2  -5  876.31   41.00
  -6   2  -5  883.71   41.50
   6  -2   5 1000.30   68.79
   6  -2   5  913.51   42.30
   6  -2   5  869.91   45.20
  -8  -1   5  428.46   29.10
   7   1  -5   60.29   11.40
   7   1  -5   63.99   10.80
   7   1  -5   70.79   12.20
   7   1  -5   69.19   12.40
  -7  -1   5   57.69   10.40
  -7  -1   5   52.89   10.70
   6   1  -5   69.99   11.90
   6   1  -5   55.39   10.10
   6   1  -5   42.50    8.00
  -6  -1   5   68.29   10.80
  -6  -1   5   50.79    9.60
  -6  -1   5   47.30   10.10
   5   1  -5  252.87   19.10
   5   1  -5  255.27   18.00
   5   1  -5  282.67   19.30
   5   1  -5  250.27   18.60
   5   1  -5  253.57   26.00
   5   1  -5  248.78   19.20
  -5  -1   5  246.28   17.60
  -5  -1   5  257.87   19.50
  -5  -1   5  264.87   18.10
  -5  -1   5  250.57   18.60
   4   1  -5  370.26   21.40
   4   1  -5  397.76   22.30
   4   1  -5  372.26   24.20
   4   1  -5  372.06   22.70
   4   1  -5  377.86   21.00
   4   1  -5  403.96   22.50
   4   1  -5  399.96   22.80
  -4  -1   5  375.06   20.90
  -4  -1   5  395.86   21.30
  -4  -1   5  401.66   23.50
  -4  -1   5  393.56   22.60
  -4  -1   5  404.56   21.90
   3   1  -5 1210.58   42.60
   3   1  -5 1253.37   45.60
   3   1  -5 1303.07   42.80
   3   1  -5 1207.08   41.50
   3   1  -5 1291.37   43.80
   3   1  -5 1243.08   44.30
   3   1  -5 1223.28   40.50
  -3  -1   5 1237.08   40.50
  -3  -1   5 1250.77   41.70
  -3  -1   5 1240.08   41.80
  -3  -1   5 1255.17   41.90
  -3  -1   5 1258.97   43.30
  -3  -1   5 1202.18   44.40
   2   1  -5 3862.81   99.09
   2   1  -5 3822.52   99.49
   2   1  -5 3803.32   97.49
   2   1  -5 3957.60   97.49
   2   1  -5 4097.89   97.19
   2   1  -5 3881.41   92.39
  -2  -1   5 3847.01   95.79
  -2  -1   5 3890.31   96.49
  -2  -1   5 3819.82   97.29
  -2  -1   5 3820.02   95.99
  -2  -1   5 3938.61   97.59
  -2  -1   5 3790.52   99.09
   1   1  -5  214.88   14.20
   1   1  -5  215.18   13.70
   1   1  -5  200.68   13.70
   1   1  -5  204.28   13.70
   1   1  -5  220.58   15.50
   1   1  -5  222.88   10.00
  -1  -1   5  213.38   14.50
  -1  -1   5  213.48   13.70
  -1  -1   5  232.58   15.20
  -1  -1   5  238.78   14.80
  -1  -1   5  219.48   14.00
  -1  -1   5  218.08   14.80
   0   1  -5 1404.36   37.50
   0   1  -5 1400.06   43.70
   0   1  -5 1403.76   48.90
   0   1  -5 1422.66   44.40
   0   1  -5 1405.06   45.40
   0  -1   5 1376.46   44.70
   0  -1   5 1418.46   45.80
   0  -1   5 1316.37   44.10
   0  -1   5 1359.26   46.90
   0  -1   5 1364.96   49.10
  -1   1  -5  988.10   36.30
  -1   1  -5 1012.10   37.80
  -1   1  -5 1115.19   44.00
  -1   1  -5 1047.30   33.20
  -1   1  -5 1014.70   38.40
   1  -1   5 1028.60   41.00
   1  -1   5 1009.70   31.40
   1  -1   5  929.91   39.10
   1  -1   5 1030.10   37.90
   1  -1   5 1029.70   45.50
  -2   1  -5  826.82   34.10
  -2   1  -5  883.41   34.00
  -2   1  -5  930.21   42.40
  -2   1  -5  882.81   36.40
  -2   1  -5  808.42   36.20
   2  -1   5  870.61   35.90
   2  -1   5  856.81   39.00
   2  -1   5  848.62   31.60
   2  -1   5  830.22   40.30
   2  -1   5  879.41   40.00
   2  -1   5  877.41   39.00
  -3   1  -5  583.14   32.40
  -3   1  -5  641.14   31.50
  -3   1  -5  595.44   35.70
  -3   1  -5  620.64   28.20
   3  -1   5  676.93   36.90
   3  -1   5  613.84   33.10
   3  -1   5  597.64   32.80
   3  -1   5  674.53   35.30
   3  -1   5  639.54   34.60
   3  -1   5  653.73   29.00
  -4   1  -5 1681.53   56.69
  -4   1  -5 1727.73   60.29
  -4   1  -5 1661.73   67.49
   4  -1   5 1630.84   61.39
   4  -1   5 1667.43   67.69
   4  -1   5 1687.73   64.99
   4  -1   5 1697.23   62.39
  -5   1  -5    8.30    4.70
  -5   1  -5   11.60    4.90
  -5   1  -5    0.90    4.20
   5  -1   5   31.20   13.50
   5  -1   5    3.60    3.70
   5  -1   5   14.70    6.00
   5  -1   5    2.70    5.40
   8   0  -5   53.19   10.20
   8   0  -5   66.89   12.40
  -8   0   5   51.09   10.60
  -8   0   5   80.49   10.80
   7   0  -5 1444.66   56.49
   7   0  -5 1473.65   54.19
   7   0  -5 1471.75   55.79
   7   0  -5 1506.85   53.59
  -7   0   5 1492.25   57.89
  -7   0   5 1491.55   53.69
  -7   0   5 1444.66   57.29
  -7   0   5 1413.46   58.89
   6   0  -5  337.67   29.00
   6   0  -5  369.76   22.70
   6   0  -5  351.46   23.30
   6   0  -5  366.96   22.40
  -6   0   5  350.26   23.90
  -6   0   5  335.37   22.90
  -6   0   5  343.97   21.60
  -6   0   5  360.86   24.90
   5   0  -5  192.08   16.00
   5   0  -5  172.68   15.40
   5   0  -5  181.68   15.90
   5   0  -5  189.38   17.80
   5   0  -5  154.88   13.60
   5   0  -5  168.48   14.40
  -5   0   5  167.28   15.50
  -5   0   5  172.38   14.20
  -5   0   5  183.18   14.50
  -5   0   5  185.98   16.00
  -5   0   5  155.28   14.20
   4   0  -5  517.95   25.20
   4   0  -5  487.95   27.40
   4   0  -5  456.15   26.00
   4   0  -5  521.85   24.50
   4   0  -5  489.05   23.90
   4   0  -5  478.25   25.60
   4   0  -5  479.15   24.00
  -4   0   5  493.15   24.20
  -4   0   5  482.35   23.70
  -4   0   5  489.45   26.30
  -4   0   5  518.25   25.70
  -4   0   5  507.75   24.00
   3   0  -5  709.43   31.60
   3   0  -5  701.03   29.40
   3   0  -5  672.83   28.10
   3   0  -5  719.13   28.30
   3   0  -5  688.63   30.80
  -3   0   5  714.73   28.10
  -3   0   5  706.83   29.00
  -3   0   5  721.13   31.50
  -3   0   5  717.93   28.30
  -3   0   5  665.13   28.90
  -3   0   5  665.03   27.80
   2   0  -5   24.70    5.60
   2   0  -5   23.10    5.30
   2   0  -5   13.80    4.40
   2   0  -5   10.50    3.30
   2   0  -5   12.20    2.70
  -2   0   5   14.30    4.00
  -2   0   5   19.40    4.90
  -2   0   5   12.50    3.50
  -2   0   5    8.00    2.60
  -2   0   5    5.70    2.50
   1   0  -5  129.59   10.40
   1   0  -5  126.39   10.50
   1   0  -5  115.89   11.00
   1   0  -5  104.09    9.10
   1   0  -5  128.09   11.70
  -1   0   5  123.69   11.60
  -1   0   5  138.19   10.50
  -1   0   5  129.99   10.20
  -1   0   5  133.99   10.80
  -1   0   5  125.09   10.80
   0   0  -5  794.82   30.80
   0   0  -5  815.72   34.00
   0   0  -5  791.62   21.50
   0   0  -5  765.32   29.10
   0   0  -5  773.62   29.40
   0   0   5  789.52   30.30
   0   0   5  797.92   33.50
   0   0   5  768.12   33.80
   0   0   5  759.82   30.10
   0   0   5  796.12   32.50
  -1   0  -5 4193.48  106.79
  -1   0  -5 4262.67  107.99
  -1   0  -5 4235.28   97.69
  -1   0  -5 4223.58  105.29
  -1   0  -5 4097.49  113.49
  -1   0  -5 4700.63  144.29
   1   0   5 4259.17  110.59
   1   0   5 4124.49  110.89
   1   0   5 4252.97  114.09
   1   0   5 4175.38  120.19
   1   0   5 4141.89   96.79
   1   0   5 4263.67  107.19
   1   0   5 4242.88  111.69
  -2   0  -5  183.98   12.60
  -2   0  -5  187.88   15.20
  -2   0  -5  197.08   18.30
  -2   0  -5  193.98   14.60
  -2   0  -5  175.78   14.90
   2   0   5  195.68   16.90
   2   0   5  183.18   16.50
   2   0   5  190.48   12.70
   2   0   5  216.28   19.00
   2   0   5  203.68   15.70
   2   0   5  174.08   17.00
  -3   0  -5  336.57   19.70
  -3   0  -5  358.76   26.50
  -3   0  -5  342.67   22.10
   3   0   5  334.07   25.10
   3   0   5  361.56   26.70
   3   0   5  348.07   24.60
   3   0   5  350.56   22.20
   3   0   5  339.77   20.50
   3   0   5  359.76   25.80
  -4   0  -5 1311.27   48.00
  -4   0  -5 1415.06   60.59
  -4   0  -5 1371.86   51.89
   4   0   5 1320.57   53.29
   4   0   5 1444.86   57.89
   4   0   5 1358.16   56.39
   4   0   5 1286.77   54.99
  -5   0  -5    4.80    3.90
  -5   0  -5   -1.70    5.20
  -5   0  -5   -0.60    3.40
   5   0   5    9.40    5.50
   5   0   5    0.00    3.80
   5   0   5    2.90    7.10
   5   0   5   -2.00    3.90
   8  -1  -5   52.59    9.90
   8  -1  -5   52.99    9.90
   8  -1  -5   53.99   11.00
  -8   1   5   87.19   15.30
  -8   1   5   55.69   12.20
  -8   1   5   72.59   11.70
   7  -1  -5  600.54   30.20
   7  -1  -5  567.64   32.80
   7  -1  -5  602.24   31.70
   7  -1  -5  584.34   30.20
  -7   1   5  601.84   34.30
  -7   1   5  591.44   29.80
  -7   1   5  542.35   31.60
  -7   1   5  570.84   33.10
   6  -1  -5  165.88   14.30
   6  -1  -5  160.48   15.60
   6  -1  -5  149.19   13.70
  -6   1   5  167.68   16.10
  -6   1   5  166.68   16.00
  -6   1   5  183.88   15.00
  -6   1   5  173.28   15.10
  -6   1   5  168.68   18.10
   5  -1  -5  466.45   27.80
   5  -1  -5  490.45   26.50
   5  -1  -5  477.55   24.90
   5  -1  -5  475.15   23.90
   5  -1  -5  495.35   25.10
  -5   1   5  466.65   32.40
  -5   1   5  520.55   26.40
  -5   1   5  493.15   26.20
  -5   1   5  479.45   24.30
  -5   1   5  476.95   23.90
  -5   1   5  477.65   25.80
   4  -1  -5 4254.87  107.79
   4  -1  -5 4324.07  107.09
   4  -1  -5 4387.96  106.39
   4  -1  -5 4172.58  104.99
   4  -1  -5 4238.78  114.59
   4  -1  -5 4221.08  113.49
  -4   1   5 4362.96  106.49
  -4   1   5 4437.36  108.19
  -4   1   5 4284.97  105.89
  -4   1   5 4271.77  110.59
  -4   1   5 3858.41  117.99
  -4   1   5 4403.26  112.39
  -4   1   5 4309.17  108.59
   3  -1  -5  211.08   15.20
   3  -1  -5  200.68   13.40
   3  -1  -5  235.38   15.10
   3  -1  -5  239.78   14.50
   3  -1  -5  250.97   12.70
   3  -1  -5  226.38   17.50
  -3   1   5  225.78   14.10
  -3   1   5  236.98   14.70
  -3   1   5  220.98   16.70
  -3   1   5  216.18   16.20
  -3   1   5  210.78   13.60
  -3   1   5  222.68   13.80
   2  -1  -5    3.50    2.20
   2  -1  -5    4.50    2.10
   2  -1  -5    4.20    3.10
   2  -1  -5    3.30    2.30
   2  -1  -5    4.00    2.30
  -2   1   5    2.00   11.20
  -2   1   5    2.90    1.60
  -2   1   5    6.30    2.20
  -2   1   5    7.80    3.10
  -2   1   5    8.40    2.90
  -2   1   5    4.70    4.10
   1  -1  -5  295.07   30.10
   1  -1  -5  356.86   21.20
   1  -1  -5  344.57   17.00
   1  -1  -5  368.46   17.80
   1  -1  -5  317.07   17.10
  -1   1   5  368.16   34.90
  -1   1   5  344.47   17.20
  -1   1   5  316.97   21.10
  -1   1   5  349.87   17.30
  -1   1   5  356.26   18.60
  -1   1   5  351.96   18.60
   0  -1  -5  952.90   32.30
   0  -1  -5  961.30   34.30
   0  -1  -5  960.10   32.70
   0  -1  -5  755.62   61.89
   0   1   5  945.31   33.20
   0   1   5  888.41   38.60
   0   1   5  947.91   35.60
   0   1   5  926.11   35.20
   0   1   5  905.61   38.70
  -1  -1  -5   58.69    5.40
  -1  -1  -5   47.90    7.80
  -1  -1  -5   35.00    7.60
  -1  -1  -5   43.80   17.90
  -1  -1  -5   65.19    8.10
  -1  -1  -5   50.69    8.10
   1   1   5   48.40    8.60
   1   1   5   45.40    8.90
   1   1   5   50.69   10.50
   1   1   5   57.69    9.70
   1   1   5   38.40   10.30
   1   1   5   56.49    5.30
  -2  -1  -5 3135.29  141.09
  -2  -1  -5 2757.62   72.49
  -2  -1  -5 2669.93   85.99
   2   1   5 2667.93   71.89
   2   1   5 2712.23   77.89
   2   1   5 2725.73   82.09
   2   1   5 2762.72   90.29
   2   1   5 2735.93   82.79
   2   1   5 2806.42   86.49
  -3  -1  -5   70.69   13.60
  -3  -1  -5   56.09    9.00
  -3  -1  -5   53.59    9.40
   3   1   5   60.79    9.90
   3   1   5   59.39   12.10
   3   1   5   48.90    9.80
   3   1   5   49.30   10.40
   3   1   5   65.09    9.70
   3   1   5   38.20    8.70
  -4  -1  -5  363.16   23.50
  -4  -1  -5  367.56   22.50
  -4  -1  -5  344.47   27.30
   4   1   5  347.57   25.70
   4   1   5  346.67   24.00
   4   1   5  398.46   32.70
   4   1   5  366.56   23.60
   4   1   5  357.86   26.90
  -5  -1  -5    0.20    4.40
  -5  -1  -5    4.90    4.60
  -5  -1  -5   11.20    6.70
   5   1   5   -1.00    4.40
   5   1   5    4.30    4.10
   5   1   5   -1.40    7.60
   8  -2  -5  431.66   26.40
   8  -2  -5  447.86   25.80
   8  -2  -5  424.26   28.90
   8  -2  -5  396.96   24.90
  -8   2   5  414.56   27.40
  -8   2   5  408.46   28.30
  -8   2   5  434.56   25.20
   7  -2  -5  120.19   13.40
   7  -2  -5  107.99   12.30
   7  -2  -5  114.59   12.30
   7  -2  -5  121.39   14.40
  -7   2   5  141.09   14.80
  -7   2   5  131.09   15.10
  -7   2   5  132.39   12.60
  -7   2   5  126.79   14.30
   6  -2  -5 1665.13   54.59
   6  -2  -5 1588.94   52.69
   6  -2  -5 1569.94   60.79
  -6   2   5 1612.64   56.09
  -6   2   5 1543.95   54.09
  -6   2   5 1636.34   53.09
  -6   2   5 1671.43   57.29
  -6   2   5 1602.74   56.99
   5  -2  -5   87.49    9.80
   5  -2  -5   77.89   12.70
   5  -2  -5   59.69    8.10
   5  -2  -5   72.69   13.60
  -5   2   5   71.69   18.30
  -5   2   5   67.19    9.10
  -5   2   5   67.19    8.10
  -5   2   5   76.49    9.40
  -5   2   5   93.69   10.10
  -5   2   5   68.79    8.50
   4  -2  -5  331.77   18.10
   4  -2  -5  321.17   17.60
   4  -2  -5  335.67   23.30
   4  -2  -5  329.87   18.30
   4  -2  -5  333.77   17.10
   4  -2  -5  358.06   21.70
  -4   2   5  332.07   18.70
  -4   2   5  340.57   17.50
  -4   2   5  350.66   18.00
  -4   2   5  323.77   18.20
  -4   2   5  297.77   20.00
  -4   2   5  349.47   18.20
  -4   2   5  309.57   20.50
   3  -2  -5   22.40    3.50
   3  -2  -5   13.00    5.80
   3  -2  -5    7.70    3.40
   3  -2  -5   16.30    4.20
   3  -2  -5   27.10    5.10
  -3   2   5   23.80    4.70
  -3   2   5   16.20    4.20
  -3   2   5   16.40    4.00
  -3   2   5   18.70    3.60
  -3   2   5   28.90    6.10
  -3   2   5   24.20   20.30
  -3   2   5   14.40    4.90
  -3   2   5   10.80    3.20
   2  -2  -5  705.33   28.00
   2  -2  -5  742.43   26.10
   2  -2  -5  668.53   33.10
   2  -2  -5  716.73   26.50
   2  -2  -5  702.73   29.40
  -2   2   5  713.23   74.19
  -2   2   5  732.83   26.70
  -2   2   5  754.42   26.20
  -2   2   5  713.53   25.80
  -2   2   5  733.83   26.80
   1  -2  -5 4354.46  109.09
   1  -2  -5 4480.15  104.59
   1  -2  -5 4401.36  105.39
  -1   2   5 4298.87  104.99
  -1   2   5 4988.40  173.98
  -1   2   5 4431.26  104.49
  -1   2   5 4370.76  109.29
  -1   2   5 4297.57  125.19
  -1   2   5 4272.97  106.09
   0  -2  -5  119.79   30.70
   0  -2  -5  116.79    9.40
   0  -2  -5  111.49    9.60
   0  -2  -5  121.19   11.40
   0   2   5   92.19   10.30
   0   2   5  105.19    9.90
   0   2   5   81.79   14.90
   0   2   5  109.29   10.40
   0   2   5   98.49    8.90
   0   2   5  110.99   13.00
  -1  -2  -5   16.60    4.40
  -1  -2  -5   10.80    5.00
  -1  -2  -5    1.50    9.60
  -1  -2  -5   17.60    4.70
   1   2   5   12.80    4.00
   1   2   5    8.70    4.30
   1   2   5   22.80    5.70
   1   2   5   17.30    4.60
   1   2   5   15.00    3.40
   1   2   5   12.90    6.80
  -2  -2  -5  102.79   33.30
  -2  -2  -5   98.79   18.90
  -2  -2  -5  107.39   11.20
   2   2   5  110.29   17.00
   2   2   5  127.29   15.90
   2   2   5  106.99    9.50
   2   2   5   95.89   11.70
   2   2   5   81.29    9.80
   2   2   5  102.69   12.50
  -3  -2  -5   42.20    8.60
  -3  -2  -5   22.30    7.60
  -3  -2  -5   45.80   21.60
   3   2   5   31.10    7.60
   3   2   5   40.50    7.40
   3   2   5   31.10    8.90
   3   2   5   29.40    8.00
   3   2   5   37.50    7.30
   3   2   5   54.59   10.70
  -4  -2  -5   15.90   16.60
  -4  -2  -5    8.10    5.10
  -4  -2  -5    6.60    6.70
   4   2   5   23.70    7.30
   4   2   5   26.90    8.00
   4   2   5   13.70    5.70
   4   2   5   14.30    6.60
   4   2   5   17.30    6.20
   8  -3  -5   19.10    8.30
   8  -3  -5   15.70    7.90
   8  -3  -5   20.20    7.70
  -8   3   5    8.20    4.50
  -8   3   5   10.80    5.60
  -8   3   5    8.60    5.30
   7  -3  -5  146.19   13.40
   7  -3  -5  139.09   13.60
   7  -3  -5  135.29   15.70
  -7   3   5  136.09   14.80
  -7   3   5  129.99   13.60
  -7   3   5  145.09   13.30
  -7   3   5  141.59   15.80
  -7   3   5  141.79   14.50
   6  -3  -5   49.00   11.00
   6  -3  -5   62.09    8.20
   6  -3  -5   50.39    9.80
   6  -3  -5   62.59    8.30
  -6   3   5   65.19    8.20
  -6   3   5   63.79    8.60
  -6   3   5   76.99   11.50
  -6   3   5   76.29    9.80
  -6   3   5   51.49    9.50
   5  -3  -5  147.99   12.00
   5  -3  -5  158.48   11.80
   5  -3  -5  137.69   15.10
   5  -3  -5  153.58   17.80
  -5   3   5  149.79   11.50
  -5   3   5  152.78   13.00
  -5   3   5  144.59   12.70
  -5   3   5  149.59   12.60
  -5   3   5  173.08   15.10
   4  -3  -5   23.00    6.90
   4  -3  -5   43.60    6.30
   4  -3  -5   30.10    5.50
   4  -3  -5   38.10    6.80
   4  -3  -5   26.30    5.90
  -4   3   5   29.10    5.80
  -4   3   5   44.10    5.70
  -4   3   5   40.80    7.00
  -4   3   5   39.80   46.30
  -4   3   5   39.70    7.10
  -4   3   5   30.00    5.80
  -4   3   5   41.50    7.80
   3  -3  -5 3538.05   84.79
   3  -3  -5 3540.25   88.99
   3  -3  -5 3412.76   93.19
   3  -3  -5 3250.67   98.89
   3  -3  -5 3565.74   87.09
   3  -3  -5 3499.45   76.69
  -3   3   5 3556.34   83.79
  -3   3   5 3494.55  105.69
  -3   3   5 3495.45   83.69
  -3   3   5 3484.95   78.69
  -3   3   5 3191.28  201.18
  -3   3   5 3531.75   94.79
  -3   3   5 3388.56   84.39
  -3   3   5 3482.65   84.89
   2  -3  -5  114.29    8.80
   2  -3  -5  105.29    8.20
   2  -3  -5   88.99    8.50
   2  -3  -5   96.29    7.50
   2  -3  -5   92.19   11.80
  -2   3   5   87.29    7.40
  -2   3   5  100.59    7.90
  -2   3   5  104.59   12.70
  -2   3   5  107.29    7.80
  -2   3   5   92.09   31.70
  -2   3   5  101.99    8.60
   1  -3  -5  102.89    8.10
   1  -3  -5   98.59    9.10
   1  -3  -5  107.59    8.50
   1  -3  -5  107.49    8.30
  -1   3   5   99.39    8.00
  -1   3   5  134.79   27.10
  -1   3   5  112.59    8.80
  -1   3   5  112.19    9.30
   0  -3  -5  495.45   24.80
   0  -3  -5  474.95   68.89
   0  -3  -5  508.15   22.30
   0  -3  -5  512.95   20.80
   0   3   5  499.55   20.90
   0   3   5  475.05   22.00
   0   3   5  504.55   33.60
   0   3   5  518.35   25.50
   0   3   5  531.45   23.90
  -1  -3  -5  572.54   28.80
  -1  -3  -5  563.74   25.40
  -1  -3  -5  582.74   75.09
   1   3   5  572.74   35.80
   1   3   5  542.15   24.00
   1   3   5  551.74   26.40
   1   3   5  561.84   20.40
   1   3   5  574.94   28.60
   1   3   5  589.54   26.80
  -2  -3  -5  581.44   74.39
  -2  -3  -5  638.54   28.80
  -2  -3  -5  600.34   31.90
   2   3   5  642.94   28.90
   2   3   5  637.54   31.50
   2   3   5  594.64   37.30
   2   3   5  618.24   25.10
   2   3   5  629.54   30.30
   2   3   5  622.84   29.10
  -3  -3  -5  396.36   23.60
  -3  -3  -5  400.86   62.39
  -3  -3  -5  412.46   27.00
   3   3   5  420.56   25.60
   3   3   5  377.56   21.40
   3   3   5  373.66   28.90
   3   3   5  426.96   24.20
   3   3   5  384.66   24.40
   3   3   5  374.56   22.10
   7  -4  -5  380.76   22.10
   7  -4  -5  445.56   23.20
   7  -4  -5  434.96   29.50
  -7   4   5  409.66   26.50
  -7   4   5  430.86   25.10
  -7   4   5  433.86   24.60
  -7   4   5  410.06   24.50
  -7   4   5  397.26   21.90
   6  -4  -5 1193.88   51.99
   6  -4  -5 1120.09   39.30
   6  -4  -5 1047.30   40.20
   6  -4  -5 1083.79   40.80
  -6   4   5 1081.29   43.70
  -6   4   5 1181.38   39.30
  -6   4   5 1150.48   41.60
  -6   4   5 1171.58   42.80
  -6   4   5 1170.58   42.30
   5  -4  -5  695.03   27.00
   5  -4  -5  674.03   27.70
   5  -4  -5  731.43   38.20
   5  -4  -5  686.83   27.00
  -5   4   5  715.33   26.60
  -5   4   5  663.43   27.80
  -5   4   5  657.53   29.40
  -5   4   5  684.73   28.30
  -5   4   5  689.23   28.00
   4  -4  -5    8.10    2.10
   4  -4  -5    0.20    4.10
   4  -4  -5    5.90    2.10
   4  -4  -5    9.90    3.40
   4  -4  -5    3.70    2.40
  -4   4   5    1.20    2.20
  -4   4   5    1.30    1.90
  -4   4   5    8.60    3.10
  -4   4   5    4.40   18.70
  -4   4   5    7.00    2.70
  -4   4   5    4.70    3.40
   3  -4  -5 1001.70   33.20
   3  -4  -5  990.80   44.10
   3  -4  -5  974.60   37.40
  -3   4   5 1006.10   29.90
  -3   4   5  987.60   31.00
  -3   4   5  940.61   26.90
  -3   4   5  885.11  128.39
  -3   4   5 1001.90   30.00
  -3   4   5  984.10   31.10
   2  -4  -5  289.47   21.70
   2  -4  -5  310.97   15.10
   2  -4  -5  300.67   13.80
   2  -4  -5  285.67   12.70
  -2   4   5  313.07   13.00
  -2   4   5  301.87   15.90
  -2   4   5  375.86   56.39
  -2   4   5  300.27   13.30
   1  -4  -5  115.79    9.50
   1  -4  -5  117.89    8.40
   1  -4  -5  113.29    8.40
  -1   4   5  101.19   17.30
  -1   4   5  119.19    9.70
  -1   4   5  105.09    7.70
  -1   4   5  104.89    7.50
  -1   4   5  114.09    8.90
   0  -4  -5 1446.26  133.19
   0  -4  -5 1704.53   51.29
   0  -4  -5 1666.43   47.90
   0  -4  -5 1781.62   52.39
   0   4   5 1739.13   49.50
   0   4   5 1694.23   46.40
   0   4   5 1733.53   52.29
   0   4   5 1797.72   71.09
   0   4   5 1692.53   48.20
  -1  -4  -5  132.29   11.10
  -1  -4  -5  103.99   38.60
   1   4   5  133.59   12.00
   1   4   5  128.39    8.80
   1   4   5  122.99   10.30
   1   4   5  117.79   13.10
   1   4   5  121.79    9.80
   1   4   5  122.79   16.20
  -2  -4  -5   15.20    5.40
  -2  -4  -5   11.80    5.70
  -2  -4  -5    7.20   17.60
   2   4   5   15.00    4.70
   2   4   5   14.80    4.30
   2   4   5   18.30    7.60
   2   4   5   19.00    5.30
   2   4   5   19.50    4.70
   2   4   5   13.80    4.90
  -3  -4  -5  263.17   58.99
   3   4   5  351.76   28.20
   3   4   5  379.46   22.60
   3   4   5  365.16   21.30
   3   4   5  302.07   23.90
   7  -5  -5   25.40    9.40
   7  -5  -5   17.10    5.10
  -7   5   5   20.70    6.20
  -7   5   5   27.20    5.70
  -7   5   5   10.20    3.90
   6  -5  -5   90.39    9.40
   6  -5  -5   96.49    9.30
   6  -5  -5  105.99   17.40
  -6   5   5   84.99   10.60
  -6   5   5  108.69    9.30
  -6   5   5  107.79   10.00
  -6   5   5  126.89   12.90
  -6   5   5   75.19    9.90
   5  -5  -5 1039.30   33.60
   5  -5  -5 1047.60   47.70
   5  -5  -5 1032.40   33.70
  -5   5   5 1113.39   39.20
  -5   5   5 1107.69   33.30
  -5   5   5 1051.99   36.70
  -5   5   5 1047.40   35.60
  -5   5   5 1049.40   34.80
   4  -5  -5   76.29    7.10
   4  -5  -5   75.59    6.50
   4  -5  -5   71.69   13.50
   4  -5  -5   86.89    7.60
  -4   5   5   74.79    7.60
  -4   5   5   69.89    6.50
  -4   5   5   69.29    6.30
  -4   5   5   81.89    6.40
  -4   5   5   97.59    7.70
   3  -5  -5  301.87   12.10
   3  -5  -5  307.27   12.70
   3  -5  -5  289.17   22.50
  -3   5   5  291.47   15.20
  -3   5   5  311.77   13.50
  -3   5   5  312.97   12.60
  -2   5   5  326.97   54.89
  -2   5   5  351.96   14.30
  -2   5   5  320.47   12.00
   1  -5  -5   43.40    4.70
   1  -5  -5   52.29    5.50
  -1   5   5   44.00   11.00
  -1   5   5   49.10    4.20
   0  -5  -5  745.73   26.60
   0  -5  -5  758.22   25.50
   0  -5  -5  597.04   89.89
   0   5   5  767.32   24.60
   0   5   5  799.22   43.90
   0   5   5  767.82   26.30
   0   5   5  754.82   23.50
   0   5   5  781.62   24.90
  -1  -5  -5  526.35   22.60
  -1  -5  -5  430.76   76.59
   1   5   5  533.15   22.40
   1   5   5  498.95   20.80
   1   5   5  501.35   21.50
   1   5   5  516.35   20.30
   1   5   5  532.35   35.30
   1   5   5  507.95   20.70
  -2  -5  -5  388.26   76.39
   2   5   5  470.85   21.30
   2   5   5  457.55   22.70
   2   5   5  455.25   33.60
   6  -6  -5  341.57   17.70
   6  -6  -5  391.86   32.30
  -6   6   5  357.36   17.60
  -6   6   5  328.17   21.20
  -6   6   5  352.26   20.00
  -6   6   5  365.16   16.20
   5  -6  -5  209.68   19.90
   5  -6  -5  204.78   11.50
   5  -6  -5  221.08   11.10
  -5   6   5  183.98   11.40
  -5   6   5  221.58   14.40
  -5   6   5  216.98   13.90
  -5   6   5  230.68   11.90
  -5   6   5  225.58   10.40
   4  -6  -5    0.10    5.00
  -4   6   5    7.30    1.90
  -4   6   5   12.20    5.20
   3  -6  -5   84.59   14.70
  -3   6   5   66.29    5.80
  -3   6   5   52.09   12.70
  -2   6   5 2094.89   77.99
  -1   6   5    5.60    5.50
   0  -6  -5   13.00   28.10
   0   6   5   -1.40    5.20
   5  -7  -5   59.89   12.90
  -5   7   5   72.69    8.50
   4  -7  -5  559.54   33.50
  -4   7   5  556.74   21.80
  -4   7   5  626.74   36.90
  -3   7   5  220.68   20.90
  -2   7   5   10.40    6.80
  -1   7   5   37.60   10.70
   1  10  -6  338.37   21.40
   1  10  -6  304.47   19.90
   1  10  -6  296.07   21.90
   1  10  -6  314.47   18.00
   1  10  -6  316.27   18.40
  -1 -10   6  312.47   18.30
   0  10  -6  368.66   20.70
   0  10  -6  327.37   15.50
   0  10  -6  374.46   30.50
   0  10  -6  328.87   18.30
   0  10  -6  322.97   20.90
   0  10  -6  336.57   18.20
   0 -10   6  306.17   77.69
   0 -10   6  345.37   18.70
  -1  10  -6  342.37   18.20
  -1  10  -6  360.96   22.80
  -1  10  -6  370.36   25.40
  -1  10  -6  394.86   20.00
  -1  10  -6  357.66   20.40
   1 -10   6  357.26   21.70
   1 -10   6  306.57   97.39
   1 -10   6  354.96   21.10
  -2  10  -6  196.98   14.00
  -2  10  -6  189.28   16.30
  -2  10  -6  205.78   20.30
  -2  10  -6  202.08   14.00
  -2  10  -6  195.98   14.50
   2 -10   6  209.28   16.20
   2 -10   6  191.28   20.90
  -3  10  -6    5.50    4.10
  -3  10  -6    2.90    3.10
  -3  10  -6    4.60    3.10
  -3  10  -6    4.80    4.60
   3 -10   6    1.20    4.40
   3   9  -6 1773.02   60.29
   3   9  -6 1707.83   59.19
  -3  -9   6 1757.92   55.99
  -3  -9   6 1529.05  168.38
   2   9  -6    2.80    4.00
   2   9  -6   13.40    4.30
   2   9  -6    4.90    3.50
   2   9  -6    4.20    3.60
  -2  -9   6    4.90   21.60
  -2  -9   6    8.90    4.00
  -2  -9   6    9.90    4.30
   1   9  -6    2.20    2.90
   1   9  -6    0.60    2.90
   1   9  -6    2.00    2.80
   1   9  -6    2.30    3.60
   1   9  -6    2.90    2.90
   1   9  -6    3.50    3.10
  -1  -9   6    3.40    4.80
  -1  -9   6    2.60    3.40
  -1  -9   6   -2.00   14.40
  -1  -9   6    2.60    3.30
   0   9  -6   -1.90    2.60
   0   9  -6   -0.80    2.50
   0   9  -6   -2.60    2.50
   0   9  -6    1.10    1.80
   0   9  -6    4.90    3.00
   0  -9   6   16.40   25.50
   0  -9   6    0.50    2.90
   0  -9   6    4.30    3.90
   0  -9   6    2.20    3.40
  -1   9  -6   17.10    5.70
  -1   9  -6   16.30    6.60
  -1   9  -6   22.00    5.30
  -1   9  -6   24.80    6.10
  -1   9  -6   15.40    4.80
   1  -9   6   10.10   25.00
  -2   9  -6   26.40    5.80
  -2   9  -6   43.50    8.70
  -2   9  -6   48.50    8.40
  -2   9  -6   26.20    7.40
   2  -9   6   54.39    9.80
   2  -9   6   36.30    7.70
  -3   9  -6  622.04   29.30
  -3   9  -6  587.14   28.00
  -3   9  -6  680.83   36.20
  -3   9  -6  644.54   29.40
  -3   9  -6  613.44   34.30
   3  -9   6  631.74   32.00
  -4   9  -6  405.16   23.00
  -4   9  -6  383.76   22.50
  -4   9  -6  374.66   23.30
  -4   9  -6  459.45   39.10
  -4   9  -6  353.86   30.90
   4  -9   6  386.46   24.90
   4  -9   6  371.16   25.80
   4   8  -6  114.59   13.20
   4   8  -6  116.29   13.10
   4   8  -6  112.09   13.90
  -4  -8   6  133.19   13.50
  -4  -8   6  105.19   48.20
   3   8  -6   58.59   10.10
   3   8  -6   38.20    7.80
   3   8  -6   38.30    8.80
   3   8  -6   69.19    9.40
   3   8  -6   55.79    9.60
  -3  -8   6   39.80    7.60
  -3  -8   6   36.10   25.30
  -3  -8   6   34.50    8.80
   2   8  -6  169.78   13.40
   2   8  -6  194.88   15.00
   2   8  -6  196.88   15.30
   2   8  -6  170.38   15.60
   2   8  -6  176.18   15.70
  -2  -8   6  186.28   14.60
  -2  -8   6  155.88   58.59
   1   8  -6   73.59    8.50
   1   8  -6   54.29    9.70
   1   8  -6   55.89    7.40
   1   8  -6   60.19    9.50
   1   8  -6   67.39    8.90
   1   8  -6   49.00    9.50
  -1  -8   6   93.49   10.10
  -1  -8   6   30.20   27.00
  -1  -8   6   74.99    9.50
   0   8  -6 1961.70   65.59
   0   8  -6 1917.21   57.59
   0   8  -6 2051.39   61.29
   0   8  -6 1942.41   64.59
   0   8  -6 1980.10   60.49
   0  -8   6 1978.10   54.69
   0  -8   6 1835.42  190.98
   0  -8   6 2003.80   59.49
  -1   8  -6    7.40    3.60
  -1   8  -6    3.30    3.00
  -1   8  -6    5.50    3.00
  -1   8  -6    1.20    2.60
  -1   8  -6    9.60    4.00
   1  -8   6   -0.20    1.60
   1  -8   6    4.60   15.00
   1  -8   6    4.80    3.40
   1  -8   6    4.20    3.10
  -2   8  -6  337.97   24.30
  -2   8  -6  366.16   24.60
  -2   8  -6  350.46   20.30
  -2   8  -6  379.56   22.00
  -2   8  -6  397.86   22.10
   2  -8   6  351.66   23.80
   2  -8   6  384.56   25.10
  -3   8  -6  102.59   11.40
  -3   8  -6  104.79   11.20
  -3   8  -6  103.99   11.60
  -3   8  -6  128.39   15.30
  -3   8  -6  103.09   12.90
   3  -8   6  119.49   14.90
   3  -8   6  116.29   13.30
  -4   8  -6   12.60    4.10
  -4   8  -6   17.40    7.00
  -4   8  -6    2.90    4.80
  -4   8  -6   10.80    5.70
   4  -8   6    9.60    4.90
   4  -8   6    2.40    3.40
   4  -8   6    9.90    5.30
  -5   8  -6   83.49   20.00
  -5   8  -6   65.99   12.60
  -5   8  -6   63.89   14.60
   5  -8   6   86.19   10.20
   5  -8   6   97.89   16.50
   5  -8   6   75.89   13.40
   5   7  -6  312.47   17.00
   5   7  -6  301.07   21.70
   5   7  -6  282.97   26.90
   5   7  -6  294.57   21.80
  -5  -7   6  278.87   21.50
  -5  -7   6  278.07   64.99
  -5  -7   6  285.07   21.70
   4   7  -6   53.49   10.70
   4   7  -6   39.80    9.80
   4   7  -6   65.09    8.80
   4   7  -6   52.99   10.00
   4   7  -6   24.30    7.40
  -4  -7   6   44.90   28.10
  -4  -7   6   37.40    7.70
  -4  -7   6   41.60    8.50
   3   7  -6   59.79    9.90
   3   7  -6   46.70    8.30
   3   7  -6   54.39   10.30
   3   7  -6   65.99   11.70
  -3  -7   6   47.80    8.40
  -3  -7   6   57.89   10.00
  -3  -7   6   96.59   42.20
   2   7  -6 2043.70   65.79
   2   7  -6 1997.00   61.49
   2   7  -6 2221.18   68.69
   2   7  -6 2128.19   64.39
   2   7  -6 2082.89   63.19
  -2  -7   6 2087.79   62.79
  -2  -7   6 1875.81  172.68
  -2  -7   6 2055.09   62.39
  -2  -7   6 1993.90   64.19
   1   7  -6  230.08   22.80
   1   7  -6  260.47   16.80
   1   7  -6  289.67   16.50
   1   7  -6  270.47   18.40
   1   7  -6  292.77   18.70
  -1  -7   6  283.67   63.69
  -1  -7   6  267.47   18.20
  -1  -7   6  277.27   18.10
  -1  -7   6  261.67   16.80
   0   7  -6  109.79   11.40
   0   7  -6   89.39    9.60
   0   7  -6  100.39   12.10
   0   7  -6   92.19   10.40
   0   7  -6  116.59   11.80
   0  -7   6  110.69    9.30
   0  -7   6  110.19   46.30
   0  -7   6   92.49   10.10
   0  -7   6   92.39   11.00
  -1   7  -6  680.63   30.00
  -1   7  -6  823.32   86.79
  -1   7  -6  752.22   36.50
  -1   7  -6  715.93   32.00
  -1   7  -6  694.23   33.30
  -1   7  -6  720.13   31.20
   1  -7   6  697.73   32.50
   1  -7   6  777.12   37.70
   1  -7   6  529.65   89.69
   1  -7   6  721.73   22.40
  -2   7  -6  368.06   63.69
  -2   7  -6  433.86   24.90
  -2   7  -6  408.36   26.00
  -2   7  -6  425.36   28.20
  -2   7  -6  382.16   22.10
  -2   7  -6  418.56   23.40
   2  -7   6  375.16   25.50
   2  -7   6  372.86   24.00
  -3   7  -6  347.57   22.60
  -3   7  -6  351.96   26.10
  -3   7  -6  314.87   20.60
  -3   7  -6  341.57   21.80
  -3   7  -6  323.57   23.30
   3  -7   6  317.37   22.90
   3  -7   6  325.57   24.60
  -4   7  -6   44.10    8.70
  -4   7  -6   39.10    8.60
  -4   7  -6   29.20    8.90
  -4   7  -6   48.40   10.00
  -4   7  -6   49.10    8.60
   4  -7   6   41.90    9.20
   4  -7   6   33.10    9.40
   4  -7   6   53.69    7.00
  -5   7  -6  220.58   22.20
  -5   7  -6  202.18   17.50
  -5   7  -6  176.08   19.00
  -5   7  -6  211.28   19.40
   5  -7   6  175.08   23.40
   5  -7   6  208.58   20.50
   5   6  -6  352.96   19.10
   5   6  -6  373.16   25.50
   5   6  -6  381.76   28.00
   5   6  -6  367.96   24.20
   5   6  -6  360.16   23.50
  -5  -6   6  468.45   79.49
  -5  -6   6  341.67   23.40
  -5  -6   6  359.86   23.60
   4   6  -6   33.60    7.50
   4   6  -6   40.00    6.80
   4   6  -6   38.30    8.80
   4   6  -6   33.30    7.80
   4   6  -6   31.00    7.20
   4   6  -6   58.09   11.70
  -4  -6   6   28.90    6.70
  -4  -6   6   24.30   19.70
  -4  -6   6   29.00    7.50
   3   6  -6   30.90    7.40
   3   6  -6   19.40    6.20
   3   6  -6   29.60    7.40
   3   6  -6   24.20    6.10
   3   6  -6   15.10    6.60
  -3  -6   6   36.80    7.60
  -3  -6   6   28.40   20.90
  -3  -6   6   26.40    6.70
   2   6  -6  779.32   32.40
   2   6  -6  758.72   33.40
   2   6  -6  781.62   32.70
   2   6  -6  803.52   35.60
   2   6  -6  828.12   36.80
  -2  -6   6  764.82   40.20
  -2  -6   6  855.51   33.80
  -2  -6   6  818.32   97.59
  -2  -6   6  783.42   33.10
   1   6  -6  163.38   14.10
   1   6  -6  178.58   14.30
   1   6  -6  177.28   13.50
   1   6  -6  175.38   15.50
   1   6  -6  169.98   14.40
   1   6  -6  184.58   12.90
  -1  -6   6  179.28   13.90
  -1  -6   6  169.58   14.00
  -1  -6   6  174.88   55.69
  -1  -6   6  170.58   13.10
   0   6  -6  317.87   19.70
   0   6  -6  284.87   21.20
   0   6  -6  300.67   19.20
   0   6  -6  268.67   17.30
   0   6  -6  334.77   19.70
   0  -6   6  333.07   23.70
   0  -6   6  281.17   59.89
   0  -6   6  323.57   16.30
   0  -6   6  254.47   22.40
   0  -6   6  317.37   20.60
   0  -6   6  314.47   19.50
  -1   6  -6 1299.67   44.60
  -1   6  -6 1235.48   50.59
  -1   6  -6 1432.66  109.09
  -1   6  -6 1205.18   45.80
  -1   6  -6 1220.98   45.50
  -1   6  -6 1278.87   45.10
   1  -6   6 1322.27   52.39
   1  -6   6 1309.87   45.70
   1  -6   6 1260.27   35.90
   1  -6   6 1169.68   49.50
  -2   6  -6  564.34   29.40
  -2   6  -6  603.44   33.80
  -2   6  -6  555.94   28.50
  -2   6  -6  573.54   27.70
  -2   6  -6  541.75   74.49
  -2   6  -6  575.04   28.70
   2  -6   6  595.94   32.90
   2  -6   6  552.54   30.20
   2  -6   6  554.54   18.50
   2  -6   6  571.84   20.30
  -3   6  -6  185.98   15.90
  -3   6  -6  157.88   16.00
  -3   6  -6  160.38   15.60
  -3   6  -6  165.68   57.99
  -3   6  -6  201.48   19.40
   3  -6   6  164.78   16.80
   3  -6   6  165.58    8.70
   3  -6   6  167.28    8.50
   3  -6   6  181.98   18.30
  -4   6  -6 1200.68   47.40
  -4   6  -6 1207.88   50.19
  -4   6  -6 1226.78   55.79
  -4   6  -6 1182.68   49.70
   4  -6   6 1252.17   51.49
   4  -6   6 1188.68   33.80
   4  -6   6 1177.88   53.09
  -5   6  -6  240.88   19.60
  -5   6  -6  210.38   27.20
  -5   6  -6  296.57   25.90
  -5   6  -6  256.07   21.30
   5  -6   6  258.07   21.30
   5  -6   6  254.07   23.20
   5  -6   6  227.58   13.90
  -6   6  -6    2.80    6.20
   6   5  -6   66.79   11.60
   6   5  -6   85.69   19.10
   6   5  -6   62.69   13.00
   6   5  -6   81.99   13.60
   6   5  -6   56.79   10.00
  -6  -5   6   74.09   13.10
  -6  -5   6   65.39   11.80
   5   5  -6   36.60    7.60
   5   5  -6   39.30    8.40
   5   5  -6   45.60   10.00
   5   5  -6   49.30   10.40
   5   5  -6   43.70    9.40
  -5  -5   6   41.60    8.90
  -5  -5   6   29.90    6.70
   4   5  -6 1892.61   53.89
   4   5  -6 1933.21   72.89
   4   5  -6 1801.42   66.19
   4   5  -6 1883.11   68.49
   4   5  -6 1942.81   62.69
   4   5  -6 1841.82   60.49
  -4  -5   6 1845.12   61.69
  -4  -5   6 1860.61   60.79
   3   5  -6  947.11   40.00
   3   5  -6  983.00   41.60
   3   5  -6 1009.60   39.10
   3   5  -6 1061.89   40.70
  -3  -5   6  993.00   41.70
  -3  -5   6  961.90   38.90
  -3  -5   6 1132.89  107.59
  -3  -5   6 1006.60   39.20
   2   5  -6   84.69   10.50
   2   5  -6  105.99   11.80
   2   5  -6  101.99   11.10
   2   5  -6  104.99   10.40
   2   5  -6   93.29    9.80
  -2  -5   6   93.39   34.80
  -2  -5   6  102.29   10.30
  -2  -5   6   96.79   10.30
  -2  -5   6  100.49   11.10
  -2  -5   6   97.59   10.20
  -2  -5   6  117.29   11.20
   1   5  -6  644.64   29.10
   1   5  -6  607.94   28.80
   1   5  -6  618.44   31.10
   1   5  -6  623.14   25.90
   1   5  -6  621.74   27.50
  -1  -5   6  646.74   28.80
  -1  -5   6  594.74   27.50
  -1  -5   6  580.04   26.00
  -1  -5   6  617.84   27.50
  -1  -5   6  581.64   76.89
  -1  -5   6  588.24   28.00
   0   5  -6   45.00    7.70
   0   5  -6   59.09    7.80
   0   5  -6   60.59    7.90
   0   5  -6   56.19    9.70
   0   5  -6   62.09   11.20
   0  -5   6   58.69    9.40
   0  -5   6   61.39   13.30
   0  -5   6   65.89    8.60
   0  -5   6   62.69   11.30
   0  -5   6   66.89   38.50
   0  -5   6   68.59    7.20
  -1   5  -6 1159.38   43.40
  -1   5  -6 1192.48   90.79
  -1   5  -6 1145.59   41.60
  -1   5  -6 1128.79   41.60
  -1   5  -6 1076.49   41.40
  -1   5  -6 1189.18   48.50
   1  -5   6 1060.09   44.10
   1  -5   6 1191.08   42.90
   1  -5   6 1098.39   37.30
   1  -5   6 1093.49   41.80
   1  -5   6 1140.49   48.30
  -2   5  -6 1421.66  115.79
  -2   5  -6 1448.46   57.49
  -2   5  -6 1436.06   51.39
  -2   5  -6 1425.56   51.09
  -2   5  -6 1537.15   50.89
  -2   5  -6 1455.65   51.09
   2  -5   6 1443.96   53.99
   2  -5   6 1391.36   54.29
   2  -5   6 1447.66   56.49
   2  -5   6 1329.77   47.90
   2  -5   6 1416.46   44.40
  -3   5  -6  905.81   45.50
  -3   5  -6  860.41   39.50
  -3   5  -6  894.01   39.50
  -3   5  -6  830.32   98.39
  -3   5  -6  828.92   39.30
  -3   5  -6  941.41   38.80
   3  -5   6  902.61   42.20
   3  -5   6  965.00   45.70
   3  -5   6  956.20   32.60
  -4   5  -6  188.08   18.80
  -4   5  -6  171.48   54.59
  -4   5  -6  233.98   22.80
  -4   5  -6  253.57   19.60
  -4   5  -6  239.58   19.20
   4  -5   6  228.58   21.60
   4  -5   6  223.78   14.30
   4  -5   6  211.98   19.50
  -5   5  -6  261.77   24.70
  -5   5  -6  261.07   21.20
  -5   5  -6  215.58   27.00
  -5   5  -6  240.88   19.40
   5  -5   6  238.58   21.70
   5  -5   6  240.18   22.90
   5  -5   6  263.47   16.20
  -6   5  -6    3.60    8.10
  -6   5  -6   -4.00    3.60
  -6   5  -6    1.10    6.40
   6  -5   6   -3.10    4.70
   6  -5   6    7.50    4.80
   6  -5   6    6.40    5.50
   6   4  -6  110.09   13.30
   6   4  -6   95.39   15.30
   6   4  -6  115.19   13.70
   6   4  -6  116.19   12.70
   6   4  -6  110.29   18.50
  -6  -4   6  116.99   14.20
  -6  -4   6  120.49   13.10
   5   4  -6 1404.96   47.30
   5   4  -6 1470.15   58.79
   5   4  -6 1432.86   54.69
   5   4  -6 1435.76   52.09
   5   4  -6 1188.88   58.99
  -5  -4   6 1326.17   49.99
  -5  -4   6 1437.26   53.19
   4   4  -6   14.10    5.90
   4   4  -6   39.80    9.00
   4   4  -6   19.80    5.60
   4   4  -6   19.10    5.40
   4   4  -6   13.60    5.60
   4   4  -6   29.30    7.30
  -4  -4   6   27.30    8.10
  -4  -4   6   25.20    6.50
   3   4  -6   37.60    8.00
   3   4  -6   26.30    6.50
   3   4  -6   21.90    6.10
   3   4  -6   26.90    5.80
   3   4  -6   26.40    7.30
   3   4  -6   31.10    6.70
   3   4  -6   39.60    6.60
  -3  -4   6   30.70    7.10
  -3  -4   6   25.40    7.60
  -3  -4   6   15.40    4.70
  -3  -4   6   18.20    4.60
  -3  -4   6   23.60    5.40
   2   4  -6  539.05   26.10
   2   4  -6  563.44   29.10
   2   4  -6  595.54   27.00
   2   4  -6  592.44   28.00
   2   4  -6  579.94   28.60
  -2  -4   6  602.64   66.49
  -2  -4   6  551.54   26.50
  -2  -4   6  594.94   27.00
  -2  -4   6  537.85   25.70
  -2  -4   6  585.84   27.40
  -2  -4   6  554.94   26.60
   1   4  -6 3450.55   90.29
   1   4  -6 3482.95   96.39
   1   4  -6 3242.28   98.29
   1   4  -6 3557.74   88.99
   1   4  -6 3470.95   92.59
  -1  -4   6 3328.37   89.79
  -1  -4   6 3481.65  172.98
  -1  -4   6 3398.86   91.49
  -1  -4   6 3488.85   90.89
  -1  -4   6 3332.27   88.69
  -1  -4   6 3481.25   92.09
   0   4  -6  403.26   20.20
   0   4  -6  409.46   21.60
   0   4  -6  436.36   26.20
   0   4  -6  415.66   22.90
   0   4  -6  403.26   21.90
   0  -4   6  403.56   23.90
   0  -4   6  434.06   23.00
   0  -4   6  395.26   23.30
   0  -4   6  390.46   21.70
   0  -4   6  428.46   20.10
  -1   4  -6  143.19   12.90
  -1   4  -6  151.28   12.40
  -1   4  -6  154.58   13.20
  -1   4  -6  148.59   13.50
  -1   4  -6  158.58   15.90
  -1   4  -6  135.89   26.20
   1  -4   6  127.29   13.60
   1  -4   6  154.98   16.20
   1  -4   6  160.18   13.80
   1  -4   6  157.38   14.90
   1  -4   6  161.08   11.30
  -2   4  -6    9.60   13.40
  -2   4  -6    2.10    2.60
  -2   4  -6    2.80    2.50
  -2   4  -6    6.60    3.90
  -2   4  -6    8.40    4.00
  -2   4  -6    3.40    2.70
   2  -4   6    4.30    2.70
   2  -4   6    6.00    4.20
   2  -4   6    2.40    2.90
   2  -4   6    4.10    3.30
   2  -4   6   -0.60    2.70
   2  -4   6   -1.50    2.80
  -3   4  -6  179.78   18.90
  -3   4  -6  178.98   52.29
  -3   4  -6  196.18   16.60
  -3   4  -6  173.68   15.40
  -3   4  -6  172.78   16.30
  -3   4  -6  170.48   15.10
   3  -4   6  174.08   17.10
   3  -4   6  172.48   14.10
   3  -4   6  197.18   18.90
   3  -4   6  175.08   18.60
   3  -4   6  182.48   14.40
  -4   4  -6  297.77   25.80
  -4   4  -6  262.77   20.00
  -4   4  -6  254.87   21.90
   4  -4   6  236.78   22.20
   4  -4   6  289.47   18.70
   4  -4   6  238.88   24.40
  -5   4  -6  776.22   44.50
  -5   4  -6  803.22   38.70
  -5   4  -6  712.13   36.50
   5  -4   6  778.92   42.70
   5  -4   6  741.63   33.50
   5  -4   6  691.73   38.30
  -6   4  -6  892.01   41.90
  -6   4  -6  846.32   48.60
  -6   4  -6  885.91   44.70
   6  -4   6  795.92   44.70
   6  -4   6 1012.60   57.39
   6  -4   6  864.41   37.30
   7   3  -6   89.59   11.10
   7   3  -6   89.09   11.50
   7   3  -6   90.59   15.30
   7   3  -6  102.69   13.10
  -7  -3   6   67.99   11.60
  -7  -3   6   68.99   13.80
   6   3  -6  533.05   29.10
   6   3  -6  493.05   33.60
   6   3  -6  524.05   31.10
   6   3  -6  531.05   29.80
  -6  -3   6  530.25   30.40
  -6  -3   6  538.75   29.30
   5   3  -6    8.40    3.40
   5   3  -6   -0.60    1.80
   5   3  -6    3.30    3.50
   5   3  -6   10.90    4.10
   5   3  -6    3.70    5.60
  -5  -3   6    4.90    3.40
  -5  -3   6    3.60    2.30
   4   3  -6  284.37   19.40
   4   3  -6  314.77   18.10
   4   3  -6  270.77   19.60
   4   3  -6  265.17   19.60
   4   3  -6  270.87   18.80
   4   3  -6  280.57   20.10
   4   3  -6  283.87   21.60
  -4  -3   6  274.47   19.40
  -4  -3   6  271.37   18.50
  -4  -3   6  251.17   25.60
   3   3  -6 1218.88   44.50
   3   3  -6 1195.88   43.40
   3   3  -6 1261.87   47.70
   3   3  -6 1192.08   40.00
   3   3  -6 1290.37   47.50
   3   3  -6 1171.58   45.00
   3   3  -6 1274.57   46.60
  -3  -3   6 1324.47   59.89
  -3  -3   6 1273.47   44.60
  -3  -3   6 1264.17   46.40
  -3  -3   6 1256.37   43.50
  -3  -3   6 1217.78   43.60
   2   3  -6 3784.12  101.79
   2   3  -6 3703.83   99.89
   2   3  -6 3822.12   98.89
   2   3  -6 3757.42   96.89
   2   3  -6 3866.51   91.69
  -2  -3   6 3733.93   97.69
  -2  -3   6 3777.32   99.19
  -2  -3   6 3715.33   96.99
  -2  -3   6 3722.83   88.89
  -2  -3   6 3683.63   97.79
  -2  -3   6 3719.83   96.39
   1   3  -6   20.90    7.30
   1   3  -6   23.50    6.00
   1   3  -6   27.00    5.80
   1   3  -6   13.20    4.20
   1   3  -6   21.00    4.90
  -1  -3   6   24.60    5.90
  -1  -3   6   21.10    5.50
  -1  -3   6   17.80    5.20
  -1  -3   6   21.10    5.20
  -1  -3   6   19.10   11.90
  -1  -3   6   20.30    4.50
  -1  -3   6   15.40    4.60
   0   3  -6   97.19    9.80
   0   3  -6   95.99   10.30
   0   3  -6   95.19    9.70
   0   3  -6   91.29    8.40
   0   3  -6   85.19   11.30
   0  -3   6   81.09    9.40
   0  -3   6   95.69   10.00
   0  -3   6   96.69   10.70
   0  -3   6  116.19   12.30
   0  -3   6  107.49    9.90
  -1   3  -6  436.36   23.00
  -1   3  -6  439.36   21.30
  -1   3  -6  446.46   24.50
  -1   3  -6  420.66   37.10
  -1   3  -6  440.36   27.10
  -1   3  -6  440.76   23.50
   1  -3   6  417.56   19.80
   1  -3   6  407.86   23.40
   1  -3   6  420.36   20.60
   1  -3   6  404.66   25.00
   1  -3   6  461.95   29.10
  -2   3  -6 2698.23   74.79
  -2   3  -6 2284.17  132.69
  -2   3  -6 2603.24   77.69
  -2   3  -6 2522.65   75.19
  -2   3  -6 2658.93   78.69
  -2   3  -6 2693.23   85.89
   2  -3   6 2641.94   77.69
   2  -3   6 2635.84   84.69
   2  -3   6 2659.03   78.49
   2  -3   6 2661.23   71.19
   2  -3   6 2538.55   81.99
   2  -3   6 2526.85   80.79
  -3   3  -6   -5.90    2.20
  -3   3  -6    0.30    3.30
  -3   3  -6   -4.60    2.40
  -3   3  -6    2.70    3.10
   3  -3   6    5.80    3.70
   3  -3   6    1.10    3.10
   3  -3   6    2.10    2.70
   3  -3   6    7.10    3.20
   3  -3   6    1.60    3.80
  -4   3  -6  637.44   32.50
  -4   3  -6  653.53   33.90
  -4   3  -6  639.54   38.90
   4  -3   6  643.44   35.70
   4  -3   6  660.23   38.30
   4  -3   6  694.03   33.30
  -5   3  -6  103.69   18.00
  -5   3  -6   55.59   11.00
  -5   3  -6   88.09   14.20
   5  -3   6   69.09   11.90
   5  -3   6   95.49   17.70
   5  -3   6   91.69   15.40
   7   2  -6  173.18   17.00
   7   2  -6  192.38   17.60
   7   2  -6  172.88   16.50
   7   2  -6  155.88   15.50
  -7  -2   6  192.18   18.10
  -7  -2   6  160.68   15.80
   6   2  -6 1360.66   50.19
   6   2  -6 1341.07   52.89
   6   2  -6 1307.17   50.89
  -6  -2   6 1277.57   49.10
  -6  -2   6 1344.77   52.39
   5   2  -6  185.38   18.20
   5   2  -6  205.18   16.30
   5   2  -6  201.18   16.90
   5   2  -6  205.28   16.30
  -5  -2   6  169.58   15.00
  -5  -2   6  192.18   21.10
  -5  -2   6  167.18   15.80
   4   2  -6  383.66   25.10
   4   2  -6  388.96   22.40
   4   2  -6  378.46   22.30
   4   2  -6  358.26   23.00
   4   2  -6  368.46   22.70
   4   2  -6  386.16   22.30
   4   2  -6  372.26   21.70
  -4  -2   6  411.16   22.30
  -4  -2   6  393.16   22.40
  -4  -2   6  391.06   22.10
  -4  -2   6  402.96   24.40
  -4  -2   6  399.16   23.50
   3   2  -6 1308.67   45.30
   3   2  -6 1278.57   48.00
   3   2  -6 1283.47   47.20
   3   2  -6 1271.07   43.30
   3   2  -6 1298.47   44.70
   3   2  -6 1321.57   44.20
   3   2  -6 1315.87   46.60
  -3  -2   6 1307.77   44.80
  -3  -2   6 1255.37   44.20
  -3  -2   6 1271.07   43.70
  -3  -2   6 1234.38   44.90
  -3  -2   6 1295.97   41.10
   2   2  -6   82.19    8.80
   2   2  -6   64.29    7.60
   2   2  -6   48.90    8.40
   2   2  -6   63.79    8.10
   2   2  -6   53.89    9.40
  -2  -2   6   77.59    9.30
  -2  -2   6   72.59    8.50
  -2  -2   6   61.39    7.70
  -2  -2   6   59.69    9.70
  -2  -2   6   59.29    7.20
   1   2  -6  374.76   20.70
   1   2  -6  390.96   20.60
   1   2  -6  394.86   23.50
   1   2  -6  421.66   22.20
   1   2  -6  389.36   16.40
  -1  -2   6  370.86   19.50
  -1  -2   6  383.86   21.50
  -1  -2   6  407.36   21.30
  -1  -2   6  411.16   21.70
  -1  -2   6  374.36   20.50
  -1  -2   6  416.36   22.70
   0   2  -6 1308.67   49.50
   0   2  -6 1308.27   44.00
   0   2  -6 1301.87   44.30
   0   2  -6 1280.37   45.40
   0   2  -6 1297.87   38.60
   0  -2   6 1267.27   44.70
   0  -2   6 1263.27   47.10
   0  -2   6 1395.76   49.60
   0  -2   6 1283.47   44.70
   0  -2   6 1329.77   43.90
  -1   2  -6 2168.38   71.59
  -1   2  -6 2249.27   66.89
  -1   2  -6 2312.77   61.39
  -1   2  -6 2255.07   67.99
  -1   2  -6 2267.87   74.09
   1  -2   6 2275.47   58.69
   1  -2   6 2206.68   64.99
   1  -2   6 2116.29   69.29
   1  -2   6 2187.28   66.69
   1  -2   6 2072.99   69.49
  -2   2  -6  358.96   25.80
  -2   2  -6  348.87   19.60
  -2   2  -6  313.47   20.10
  -2   2  -6  347.27   22.10
   2  -2   6  334.07   24.00
   2  -2   6  353.46   22.90
   2  -2   6  345.97   23.90
   2  -2   6  328.27   18.00
   2  -2   6  360.86   24.40
   2  -2   6  351.16   25.30
  -3   2  -6  255.07   19.40
  -3   2  -6  260.97   18.00
  -3   2  -6  282.47   24.10
   3  -2   6  312.37   22.20
   3  -2   6  266.07   21.50
   3  -2   6  274.57   17.70
   3  -2   6  267.27   23.40
   3  -2   6  283.77   20.50
   3  -2   6  277.37   22.80
  -4   2  -6  395.46   26.40
  -4   2  -6  372.56   22.80
  -4   2  -6  369.26   29.10
   4  -2   6  376.06   25.50
   4  -2   6  400.56   31.80
   4  -2   6  369.26   26.40
   4  -2   6  368.66   28.70
  -5   2  -6  130.89   14.10
  -5   2  -6   98.19   16.90
  -5   2  -6  127.99   14.10
   5  -2   6  156.68   16.20
   5  -2   6  142.79   21.70
   5  -2   6  143.29   15.60
   7   1  -6  198.18   17.50
   7   1  -6  190.88   17.50
   7   1  -6  177.18   16.30
   7   1  -6  204.88   18.10
  -7  -1   6  174.68   15.60
  -7  -1   6  194.18   17.70
   6   1  -6  220.18   18.60
   6   1  -6  222.58   18.60
   6   1  -6  234.68   18.50
   6   1  -6  243.18   18.90
  -6  -1   6  227.68   19.00
  -6  -1   6  256.97   20.10
  -6  -1   6  249.78   18.60
   5   1  -6 1638.34   61.99
   5   1  -6 1620.64   56.89
   5   1  -6 1654.43   58.29
   5   1  -6 1613.74   54.79
   5   1  -6 1606.94   55.99
   5   1  -6 1576.54   54.69
  -5  -1   6 1631.24   54.49
  -5  -1   6 1563.34   53.69
  -5  -1   6 1657.73   55.59
  -5  -1   6 1714.93   57.79
   4   1  -6 1529.75   51.89
   4   1  -6 1444.86   48.20
   4   1  -6 1575.84   66.99
   4   1  -6 1524.25   52.19
   4   1  -6 1494.35   50.19
   4   1  -6 1524.65   50.69
   4   1  -6 1466.15   52.49
  -4  -1   6 1486.15   49.10
  -4  -1   6 1485.75   49.80
  -4  -1   6 1532.25   51.89
  -4  -1   6 1383.66   52.39
  -4  -1   6 1430.26   49.60
   3   1  -6  104.69   10.50
   3   1  -6   99.19   10.80
   3   1  -6  130.29   12.30
   3   1  -6   99.69    9.10
   3   1  -6  123.99   12.40
  -3  -1   6  109.49   10.40
  -3  -1   6   95.09    9.80
  -3  -1   6  117.99   11.00
  -3  -1   6  109.09   10.40
   2   1  -6   75.29    8.90
   2   1  -6   75.49    6.60
   2   1  -6   70.09   11.70
   2   1  -6   61.79    8.00
   2   1  -6   65.89    8.90
   2   1  -6   79.19    8.40
  -2  -1   6   69.79    7.90
  -2  -1   6   82.39    9.10
  -2  -1   6   73.99    8.40
  -2  -1   6   94.69   10.00
  -2  -1   6   65.79    8.00
  -2  -1   6   72.89    8.70
   1   1  -6 1348.57   48.50
   1   1  -6 1329.17   43.90
   1   1  -6 1361.86   34.90
   1   1  -6 1370.46   45.40
   1   1  -6 1322.07   44.50
  -1  -1   6 1320.47   46.20
  -1  -1   6 1347.27   45.80
  -1  -1   6 1311.07   46.00
  -1  -1   6 1282.37   43.70
  -1  -1   6 1318.57   44.00
   0   1  -6  843.52   25.80
   0   1  -6  783.22   31.50
   0   1  -6  867.01   37.80
   0   1  -6  805.62   32.10
   0  -1   6  837.62   33.30
   0  -1   6  838.62   37.00
   0  -1   6  810.52   34.30
   0  -1   6  793.22   34.80
   0  -1   6  779.42   32.40
  -1   1  -6   10.00    3.20
  -1   1  -6    2.10    1.90
  -1   1  -6   13.10    3.70
  -1   1  -6    8.70    3.80
   1  -1   6    5.70    3.10
   1  -1   6    1.80    3.00
   1  -1   6    4.40    3.00
   1  -1   6   11.70    4.50
   1  -1   6    2.40    2.50
   1  -1   6    5.40    3.40
   1  -1   6    2.20    3.10
  -2   1  -6 1181.58   45.70
  -2   1  -6 1266.07   40.50
  -2   1  -6 1206.98   46.00
  -2   1  -6 1166.98   51.09
   2  -1   6 1174.48   38.60
   2  -1   6 1204.68   45.50
   2  -1   6 1197.78   51.69
   2  -1   6 1180.08   48.90
   2  -1   6 1261.37   52.19
   2  -1   6 1253.17   50.39
  -3   1  -6  922.51   40.10
  -3   1  -6  949.60   35.90
  -3   1  -6  929.71   46.90
   3  -1   6  886.41   39.40
   3  -1   6  887.21   43.40
   3  -1   6  910.91   42.90
   3  -1   6  957.60   42.10
   3  -1   6  897.41   43.40
   3  -1   6  953.70   46.20
  -4   1  -6  294.97   19.40
  -4   1  -6  277.37   25.10
  -4   1  -6  261.87   25.70
   4  -1   6  255.37   23.00
   4  -1   6  311.67   23.90
   4  -1   6  302.27   25.20
   4  -1   6  233.28   20.40
  -5   1  -6   22.40    7.70
  -5   1  -6   43.30    9.40
   5  -1   6   49.90   10.70
   5  -1   6   37.30    9.60
   5  -1   6   30.10   11.80
   5  -1   6   41.90   10.70
   8   0  -6  411.56   27.30
   8   0  -6  382.16   28.00
   8   0  -6  466.55   30.40
   8   0  -6  397.46   25.40
  -8   0   6  407.06   27.50
  -8   0   6  438.26   26.10
   7   0  -6   19.00    5.70
   7   0  -6   14.50    6.50
   7   0  -6   18.70    6.40
  -7   0   6   23.50    8.10
  -7   0   6   19.00    5.90
  -7   0   6    7.80    4.60
   6   0  -6  284.37   20.30
   6   0  -6  296.27   19.90
   6   0  -6  329.37   22.50
   6   0  -6  283.97   21.50
  -6   0   6  299.47   30.30
  -6   0   6  272.47   20.60
  -6   0   6  290.97   19.80
   5   0  -6  377.86   23.60
   5   0  -6  379.36   24.60
   5   0  -6  377.76   22.70
   5   0  -6  370.56   21.70
  -5   0   6  371.06   21.70
  -5   0   6  397.06   23.40
  -5   0   6  342.27   21.50
  -5   0   6  360.96   21.50
   4   0  -6  637.84   28.70
   4   0  -6  640.34   29.90
   4   0  -6  615.74   26.50
   4   0  -6  675.23   29.30
   4   0  -6  668.83   32.70
   4   0  -6  565.44   30.40
  -4   0   6  634.84   29.30
  -4   0   6  610.84   28.30
  -4   0   6  612.14   27.80
  -4   0   6  616.84   30.80
  -4   0   6  646.74   29.50
  -4   0   6  655.13   28.20
   3   0  -6  181.88   18.40
   3   0  -6  173.48   13.30
   3   0  -6  165.08   10.60
   3   0  -6  183.58   14.50
   3   0  -6  175.98   13.30
   3   0  -6  181.58   15.50
  -3   0   6  179.68   15.40
  -3   0   6  177.08   14.70
  -3   0   6  187.78   13.80
  -3   0   6  188.88   13.90
  -3   0   6  168.48   12.90
  -3   0   6  190.48   13.60
   2   0  -6 2242.28   52.99
   2   0  -6 2179.68   64.09
   2   0  -6 2199.88   68.39
   2   0  -6 2272.37   65.89
   2   0  -6 2291.17   63.89
   2   0  -6 2327.37   68.19
  -2   0   6 2314.67   63.99
  -2   0   6 2306.47   64.19
  -2   0   6 2197.48   68.69
  -2   0   6 2277.97   68.79
  -2   0   6 2316.27   65.69
  -2   0   6 2283.27   64.69
   1   0  -6 3938.11   97.39
   1   0  -6 3748.62  102.69
   1   0  -6 3894.21   98.39
   1   0  -6 3921.51   98.99
  -1   0   6 3888.61  104.79
  -1   0   6 3958.40  101.19
  -1   0   6 3903.31   98.09
  -1   0   6 3771.52   97.59
  -1   0   6 3927.01  100.99
   0   0  -6 1262.87   47.30
   0   0  -6 1128.59   40.30
   0   0  -6 1274.17   42.30
   0   0  -6 1261.37   43.40
   0   0   6 1242.78   47.00
   0   0   6 1289.57   43.20
   0   0   6 1207.48   48.10
   0   0   6 1188.08   44.40
  -1   0  -6   86.79   10.10
  -1   0  -6   93.49   14.80
  -1   0  -6   91.69    7.00
  -1   0  -6   81.99    8.80
  -1   0  -6   83.69    9.30
   1   0   6   56.69   10.50
   1   0   6   77.49   14.60
   1   0   6   82.39    9.80
   1   0   6   76.69    6.10
   1   0   6   67.79   11.60
   1   0   6   80.29   11.00
   1   0   6   89.29   11.10
  -2   0  -6   30.20   13.70
  -2   0  -6   15.50    5.00
  -2   0  -6   28.70    8.40
   2   0   6   29.90    6.50
   2   0   6   23.50    7.00
   2   0   6   28.50    5.20
   2   0   6   33.80    8.60
   2   0   6   35.00    9.30
   2   0   6   15.60    6.10
  -3   0  -6   37.40   10.20
  -3   0  -6   31.40    7.50
  -3   0  -6   43.50    7.30
   3   0   6   42.90    9.90
   3   0   6   36.10    9.40
   3   0   6   34.90    7.00
   3   0   6   25.00    8.40
   3   0   6   42.70    9.90
  -4   0  -6   99.19   11.50
  -4   0  -6  120.39   13.70
  -4   0  -6  124.29   20.30
   4   0   6   85.69   14.70
   4   0   6  104.19   13.80
   4   0   6   87.99   14.60
   4   0   6   86.39   14.20
   8  -1  -6    5.00    5.00
   8  -1  -6   -3.30    4.90
   8  -1  -6    3.10    4.30
  -8   1   6    4.00    3.20
  -8   1   6    5.30    5.10
  -8   1   6    1.90    3.90
   7  -1  -6    5.10    3.50
   7  -1  -6    0.00    4.30
   7  -1  -6    1.90    3.50
   7  -1  -6    4.40    3.30
  -7   1   6   -3.50    2.20
  -7   1   6    4.00    3.70
  -7   1   6   -5.30    4.50
  -7   1   6    2.90    3.50
   6  -1  -6   -0.70    3.90
   6  -1  -6    1.10    2.60
   6  -1  -6    2.30    3.00
  -6   1   6    6.10    2.90
  -6   1   6    8.50    4.60
  -6   1   6    0.40    2.50
  -6   1   6    3.40    4.00
   5  -1  -6  558.04   28.00
   5  -1  -6  589.24   32.20
   5  -1  -6  553.94   26.70
   5  -1  -6  578.94   26.90
  -5   1   6  562.64   27.80
  -5   1   6  584.84   27.30
  -5   1   6  619.24   28.30
  -5   1   6  598.34   27.70
  -5   1   6  582.64   28.60
   4  -1  -6  207.18   18.30
   4  -1  -6  238.88   16.60
   4  -1  -6  212.78   14.50
   4  -1  -6  228.58   13.70
  -4   1   6  229.78   18.00
  -4   1   6  200.18   14.70
  -4   1   6  254.27   18.00
  -4   1   6  202.88   14.50
  -4   1   6  226.38   15.00
  -4   1   6  207.68   15.20
   3  -1  -6 3700.63   95.89
   3  -1  -6 3590.04   94.19
   3  -1  -6 3485.55  100.09
   3  -1  -6 3614.34   81.89
   3  -1  -6 3657.43   91.89
   3  -1  -6 3595.04   91.09
  -3   1   6 3465.05   98.19
  -3   1   6 3634.84   91.79
  -3   1   6 3481.05   91.09
  -3   1   6 3546.75   90.39
  -3   1   6 3572.34   91.49
  -3   1   6 3587.84   98.39
   2  -1  -6    8.90    3.20
   2  -1  -6    8.70    2.90
   2  -1  -6   12.50    4.70
   2  -1  -6    9.40    4.40
   2  -1  -6    6.80    3.00
  -2   1   6   13.50    3.90
  -2   1   6   11.10    4.20
  -2   1   6   10.70    3.70
  -2   1   6    7.40    3.40
  -2   1   6   12.90   11.60
  -2   1   6    7.00    5.60
   1  -1  -6  832.42   30.70
   1  -1  -6  791.52   43.00
   1  -1  -6  820.02   31.80
   1  -1  -6  847.52   31.50
  -1   1   6  795.72   33.50
  -1   1   6  873.21   31.70
  -1   1   6  820.52   31.40
  -1   1   6  817.72   32.60
  -1   1   6  791.82   37.30
   0  -1  -6   35.50    6.20
   0  -1  -6   39.50    8.00
   0  -1  -6   44.20    7.30
   0  -1  -6   51.89    8.50
   0   1   6   42.60    7.90
   0   1   6   52.69   10.10
   0   1   6   33.20    8.60
   0   1   6   40.00    7.20
  -1  -1  -6  910.61   41.10
  -1  -1  -6  913.61   36.60
  -1  -1  -6  829.92   66.99
   1   1   6  960.70   40.10
   1   1   6  920.61   38.60
   1   1   6  982.00   42.60
   1   1   6  914.01   26.20
   1   1   6  935.91   46.90
   1   1   6  910.51   35.80
  -2  -1  -6 1344.67   54.39
  -2  -1  -6 1327.17   90.89
  -2  -1  -6 1375.86   43.90
  -2  -1  -6 1255.47   47.00
   2   1   6 1239.38   49.80
   2   1   6 1378.36   54.69
   2   1   6 1255.77   39.10
   2   1   6 1253.17   49.60
   2   1   6 1338.77   57.49
   2   1   6 1211.28   45.70
  -3  -1  -6  653.03   37.20
  -3  -1  -6  728.53   69.19
  -3  -1  -6  634.04   32.00
  -3  -1  -6  599.14   27.20
   3   1   6  639.44   32.70
   3   1   6  640.54   33.60
   3   1   6  674.53   36.80
   3   1   6  606.84   33.80
   3   1   6  624.44   37.50
  -4  -1  -6   97.49   11.70
  -4  -1  -6   97.89   13.00
  -4  -1  -6   93.79   31.90
   4   1   6  113.39   15.20
   4   1   6   91.89   15.40
   4   1   6   93.39   12.60
   4   1   6   99.79   15.90
  -8   2   6  124.99   14.70
   7  -2  -6  580.34   29.00
   7  -2  -6  566.74   34.10
   7  -2  -6  548.35   29.10
  -7   2   6  566.74   30.70
  -7   2   6  613.84   29.20
  -7   2   6  572.34   30.80
  -7   2   6  541.75   31.50
   6  -2  -6  792.32   34.50
   6  -2  -6  780.52   33.20
   6  -2  -6  742.73   39.10
   6  -2  -6  761.92   33.10
  -6   2   6  789.12   33.00
  -6   2   6  761.32   33.60
  -6   2   6  772.72   34.30
  -6   2   6  769.72   34.60
  -6   2   6  748.23   35.00
   5  -2  -6   65.49    8.90
   5  -2  -6   79.29    8.70
   5  -2  -6   72.79   14.20
   5  -2  -6   60.09    8.20
  -5   2   6   65.59   12.30
  -5   2   6   75.59    8.70
  -5   2   6   61.29    9.90
  -5   2   6   67.59   10.60
  -5   2   6   68.19    8.70
   4  -2  -6   25.70    5.20
   4  -2  -6   18.20    7.30
   4  -2  -6   15.50    5.10
   4  -2  -6   18.00    3.80
  -4   2   6   18.90    4.50
  -4   2   6   15.30    4.60
  -4   2   6   13.40    6.80
  -4   2   6   17.30    4.90
   3  -2  -6   73.79    8.40
   3  -2  -6   52.59   10.50
   3  -2  -6   52.09    7.00
   3  -2  -6   65.29    7.30
  -3   2   6   55.49   29.40
  -3   2   6   57.99    7.00
  -3   2   6   66.49    7.50
  -3   2   6   60.79    7.10
  -3   2   6   57.99   10.30
  -3   2   6   78.99    7.80
   2  -2  -6   -1.10    2.90
   2  -2  -6    6.10    3.10
   2  -2  -6    3.30    2.70
   2  -2  -6    0.40    2.20
   2  -2  -6    5.20    2.90
  -2   2   6   16.30   13.40
  -2   2   6    4.60    2.10
  -2   2   6    3.40    2.20
  -2   2   6   -0.40    3.80
  -2   2   6   10.10    2.80
  -2   2   6    4.40    2.10
   1  -2  -6  888.91   31.00
   1  -2  -6  821.22   31.10
   1  -2  -6  795.52   33.40
  -1   2   6  836.62   30.50
  -1   2   6  845.02   35.40
  -1   2   6  847.62   32.10
   0  -2  -6 2880.31   78.69
   0  -2  -6 2821.42   83.79
   0   2   6 3071.99  101.19
   0   2   6 2907.91   77.59
   0   2   6 2948.00   82.59
   0   2   6 3025.70   85.39
   0   2   6 2982.70   80.79
  -1  -2  -6  187.48   38.40
  -1  -2  -6  221.08   15.80
  -1  -2  -6  185.98   17.40
   1   2   6  212.48    9.50
   1   2   6  234.08   17.00
   1   2   6  211.48   14.90
   1   2   6  228.78   18.70
   1   2   6  212.38   18.20
   1   2   6  242.08   23.10
  -2  -2  -6   27.90    7.30
  -2  -2  -6   22.70   19.40
   2   2   6   31.50    5.50
   2   2   6   42.60    8.20
   2   2   6   30.60    7.90
   2   2   6   23.60    8.10
   2   2   6   20.70    6.00
   2   2   6   26.90   10.20
  -3  -2  -6  508.05   32.20
  -3  -2  -6  525.45   28.40
  -3  -2  -6  579.34   67.89
   3   2   6  487.65   27.30
   3   2   6  555.74   25.10
   3   2   6  616.94   32.70
   3   2   6  571.54   30.20
   3   2   6  522.45   31.00
   3   2   6  525.85   35.00
   7  -3  -6   -2.00    4.20
   7  -3  -6    5.50    3.50
   7  -3  -6    9.60    4.30
  -7   3   6    6.10    5.10
  -7   3   6    3.00    2.40
  -7   3   6   -0.30    2.40
  -7   3   6   -8.30    4.80
  -7   3   6    7.00    4.20
   6  -3  -6    6.40    5.00
   6  -3  -6   -0.90    3.40
   6  -3  -6   -2.80    2.20
   6  -3  -6    3.50    3.30
  -6   3   6    4.10    4.00
  -6   3   6   -2.50    3.00
  -6   3   6   -0.50    3.40
  -6   3   6   -0.40    2.30
  -6   3   6   10.40    3.60
   5  -3  -6 1392.56   44.50
   5  -3  -6 1388.26   56.09
   5  -3  -6 1302.67   41.00
  -5   3   6 1364.96   45.30
  -5   3   6 1360.66   44.90
  -5   3   6 1339.27   43.20
  -5   3   6 1345.77   42.80
  -5   3   6 1297.47   45.90
   4  -3  -6  581.44   19.40
   4  -3  -6  619.14   25.10
   4  -3  -6  581.34   33.30
   4  -3  -6  602.54   26.40
  -4   3   6  597.54   25.60
  -4   3   6  626.84   25.20
  -4   3   6  608.64   24.40
  -4   3   6  503.35   81.59
  -4   3   6  591.64   21.40
  -4   3   6  562.04   24.50
   3  -3  -6  336.17   16.50
   3  -3  -6  308.47   16.30
   3  -3  -6  322.37   17.90
   3  -3  -6  294.47   22.50
  -3   3   6  342.57   58.29
  -3   3   6  295.87   16.10
  -3   3   6  359.16   17.60
  -3   3   6  315.27   16.00
  -3   3   6  321.77   16.10
   2  -3  -6  478.25   23.10
   2  -3  -6  508.45   29.40
   2  -3  -6  515.45   21.90
   2  -3  -6  529.15   21.30
  -2   3   6  529.15   60.49
  -2   3   6  542.55   24.30
  -2   3   6  503.95   21.60
  -2   3   6  566.04   22.30
  -2   3   6  537.45   21.30
   1  -3  -6  157.28   10.90
   1  -3  -6  164.48   13.00
   1  -3  -6  158.78   11.50
  -1   3   6  144.09   10.60
  -1   3   6  150.58   11.00
  -1   3   6  159.48   12.20
  -1   3   6  120.49   20.20
  -1   3   6  172.68   13.50
   0  -3  -6   30.00    6.80
   0  -3  -6   25.60   18.90
   0  -3  -6   36.10    7.00
   0   3   6   28.20    5.50
   0   3   6   38.60    6.90
   0   3   6   41.30   10.90
   0   3   6   33.60    6.60
   0   3   6   27.50    6.40
  -1  -3  -6  346.17   19.90
  -1  -3  -6  350.06   22.50
  -1  -3  -6  271.87   51.79
   1   3   6  387.56   29.40
   1   3   6  327.47   20.40
   1   3   6  345.57   20.10
   1   3   6  331.97   18.50
   1   3   6  350.76   22.60
  -2  -3  -6  227.88   16.80
  -2  -3  -6  209.18   49.10
  -2  -3  -6  282.47   21.10
   2   3   6  267.07   18.30
   2   3   6  210.08   17.20
   2   3   6  246.68   13.60
   2   3   6  270.67   19.90
   2   3   6  242.48   24.10
   2   3   6  238.98   16.50
  -3  -3  -6  770.62   34.40
  -3  -3  -6  755.62   86.89
   3   3   6  721.23   35.60
   3   3   6  744.23   43.00
   7  -4  -6  276.47   25.20
   7  -4  -6  285.67   18.20
  -7   4   6  295.27   18.10
  -7   4   6  261.07   25.90
  -7   4   6  308.77   20.20
  -7   4   6  303.17   20.10
   6  -4  -6  145.69   12.30
   6  -4  -6  139.09   16.30
   6  -4  -6  117.19   11.10
   6  -4  -6  133.49   11.10
  -6   4   6  113.09   11.40
  -6   4   6  110.89   11.50
  -6   4   6  126.09   11.40
  -6   4   6  130.19   11.00
   5  -4  -6  315.87   17.30
   5  -4  -6  334.07   18.60
   5  -4  -6  313.57   14.70
   5  -4  -6  367.76   26.20
  -5   4   6  335.27   16.80
  -5   4   6  327.37   17.70
  -5   4   6  307.07   17.30
  -5   4   6  323.07   16.80
  -5   4   6  324.37   18.80
   4  -4  -6   10.60    3.80
   4  -4  -6   25.20    8.20
   4  -4  -6   14.20    3.80
  -4   4   6   13.40    3.10
  -4   4   6   11.90    3.70
  -4   4   6    4.10   23.40
  -4   4   6   16.20    4.20
  -4   4   6   10.80    4.00
  -4   4   6   15.70    3.60
   3  -4  -6  121.39   10.10
   3  -4  -6  144.99   16.10
  -3   4   6  127.29    8.90
  -3   4   6  141.99    9.70
  -3   4   6  141.99   10.50
  -3   4   6  104.09   40.50
  -3   4   6  149.69    9.70
   2  -4  -6 1133.99   37.00
   2  -4  -6 1096.89   33.50
  -2   4   6 1159.88   37.10
  -2   4   6 1213.78   36.90
  -2   4   6 1285.57   99.39
  -2   4   6 1098.19   34.00
   1  -4  -6   26.20    5.30
  -1   4   6   11.40    8.10
  -1   4   6   16.80    4.50
  -1   4   6   21.30    4.60
  -1   4   6   15.50    3.50
  -1   4   6   15.90    3.60
   0  -4  -6    7.30   20.20
   0  -4  -6    0.70    2.50
   0  -4  -6   -0.90    3.20
   0   4   6    1.80    3.30
   0   4   6    7.30    2.70
   0   4   6    2.60    1.90
   0   4   6   -4.30    2.20
   0   4   6   -2.70    4.30
  -1  -4  -6  290.87   60.59
  -1  -4  -6  299.07   19.60
  -1  -4  -6  297.17   17.70
   1   4   6  320.97   18.30
   1   4   6  356.36   20.40
   1   4   6  317.87   17.30
   1   4   6  332.97   18.50
   1   4   6  311.37   27.80
  -2  -4  -6   41.80   27.20
  -2  -4  -6   23.00    6.70
   2   4   6   11.50    4.30
   2   4   6   10.90    5.00
   2   4   6    4.60    4.00
   2   4   6   22.20    8.30
   6  -5  -6  107.59   16.10
   6  -5  -6  112.89   18.10
   6  -5  -6  110.79   10.30
   6  -5  -6  100.49    9.70
  -6   5   6   99.39   11.60
  -6   5   6  112.39    9.10
  -6   5   6   86.89   10.40
  -6   5   6  121.19   10.30
  -6   5   6  104.69   10.30
   5  -5  -6  441.56   20.20
   5  -5  -6  427.26   19.10
   5  -5  -6  472.35   31.00
  -5   5   6  413.46   18.30
  -5   5   6  445.56   18.50
  -5   5   6  441.56   21.90
  -5   5   6  400.16   19.20
  -5   5   6  439.16   19.40
   4  -5  -6 1264.17   37.10
   4  -5  -6 1262.27   38.80
   4  -5  -6 1306.27   54.99
  -4   5   6 1279.27   37.40
  -4   5   6 1396.76   37.20
  -4   5   6 1399.76   39.70
   3  -5  -6  287.97   17.20
   3  -5  -6  302.27   13.20
   3  -5  -6  346.77   25.10
   3  -5  -6  299.97   13.10
  -3   5   6  312.87   12.50
  -3   5   6  327.57   16.30
  -3   5   6  345.07   14.10
  -3   5   6  308.87   13.80
   2  -5  -6   62.99    5.60
  -2   5   6   58.09    5.10
  -2   5   6   69.79   13.70
  -2   5   6   50.29   26.20
  -2   5   6   72.99    6.90
   1  -5  -6    5.20    2.90
  -1   5   6   10.00    2.70
  -1   5   6    5.90    2.90
  -1   5   6   10.60    7.30
  -1   5   6    5.90    2.40
  -1   5   6   14.00    3.10
   0  -5  -6  238.88   13.20
   0  -5  -6  218.48   13.10
   0  -5  -6  192.88   58.09
   0   5   6  231.38   13.50
   0   5   6  197.98   11.40
   0   5   6  232.68   12.30
   0   5   6  268.77   24.90
   0   5   6  219.28   11.50
  -1  -5  -6  421.76   81.99
   1   5   6  533.75   36.10
   1   5   6  574.54   22.70
   1   5   6  524.85   22.40
  -5   6   6   -0.20    3.10
  -5   6   6    4.40    3.30
  -5   6   6    7.10    2.50
  -5   6   6    4.50    4.40
   4  -6  -6    8.90    5.30
  -3   6   6   -9.10    3.30
  -2   6   6    6.10    5.90
  -1   6   6  985.80   51.19
   1  10  -7  278.17   18.50
   1  10  -7  308.67   17.00
   1  10  -7  288.47   21.70
   1  10  -7  287.87   21.00
  -1 -10   7  192.88   24.00
  -1 -10   7  213.28   78.69
   0  10  -7  924.31   42.00
   0  10  -7  915.31   37.60
   0  10  -7  956.70   36.80
   0  10  -7  987.30   42.10
   0 -10   7  749.82  123.49
   0 -10   7  958.20   36.60
  -1  10  -7   42.60    7.70
  -1  10  -7   36.00   10.40
  -1  10  -7   42.90    8.30
  -1  10  -7   68.89   13.70
   1 -10   7   13.30   37.80
   1 -10   7   55.29    9.30
  -2  10  -7   59.29   12.30
  -2  10  -7   40.40    7.80
  -2  10  -7   40.20    9.30
  -2  10  -7   55.89    9.90
   2 -10   7   56.79   10.50
  -3  10  -7   16.40    5.40
  -3  10  -7   11.60    6.20
   3   9  -7   11.10    5.00
   3   9  -7   11.90    5.10
  -3  -9   7   -6.20   24.50
   2   9  -7  811.22   37.40
   2   9  -7  803.32   40.80
   2   9  -7  844.42   40.80
   2   9  -7  873.01   35.10
   2   9  -7  846.52   35.80
  -2  -9   7  829.62   34.60
  -2  -9   7  745.03  115.89
   1   9  -7  128.49   12.70
   1   9  -7  151.78   15.20
   1   9  -7  137.69   11.50
   1   9  -7  134.69   13.00
   1   9  -7  123.19   12.80
   1   9  -7  130.29   14.00
  -1  -9   7  153.08   13.60
  -1  -9   7  145.69   12.70
  -1  -9   7  145.89   61.89
   0   9  -7    9.80    4.50
   0   9  -7   -1.10    2.90
   0   9  -7    7.90    4.00
   0   9  -7    2.80    3.20
   0  -9   7   -5.40   22.00
   0  -9   7    8.40    3.90
   0  -9   7   -1.80    3.40
  -1   9  -7  225.58   17.00
  -1   9  -7  215.68   16.20
  -1   9  -7  245.98   19.90
  -1   9  -7  198.98   15.40
  -1   9  -7  255.87   20.40
   1  -9   7  151.88   58.79
  -2   9  -7  297.07   23.50
  -2   9  -7  278.47   19.50
  -2   9  -7  293.67   19.10
  -2   9  -7  315.07   20.40
  -2   9  -7  363.46   24.80
   2  -9   7  312.47   23.00
   2  -9   7  305.17   22.20
  -3   9  -7  681.43   36.30
  -3   9  -7  586.04   29.40
  -3   9  -7  688.63   37.90
  -3   9  -7  621.64   30.80
  -3   9  -7  659.63   32.20
   3  -9   7  618.54   35.60
   3  -9   7  671.13   34.80
  -4   9  -7  337.57   25.30
  -4   9  -7  335.57   26.50
  -4   9  -7  333.47   21.80
   4  -9   7  312.47   23.80
   4  -9   7  280.57   29.10
   4   8  -7   42.90    9.60
   4   8  -7   39.70    8.20
   4   8  -7   44.00    9.30
  -4  -8   7   46.00    9.30
   3   8  -7   46.30    9.60
   3   8  -7   25.60    7.30
   3   8  -7   36.90    8.20
   3   8  -7   34.40    9.20
   3   8  -7   42.00    8.70
  -3  -8   7   36.30    7.80
  -3  -8   7   27.90    6.10
  -3  -8   7   60.39   31.90
   2   8  -7  534.15   29.00
   2   8  -7  520.95   25.80
   2   8  -7  531.55   30.00
   2   8  -7  513.15   27.10
   2   8  -7  500.75   26.10
  -2  -8   7  500.15   26.10
  -2  -8   7  480.95   86.89
  -2  -8   7  503.25   26.40
   1   8  -7    1.80    3.20
   1   8  -7    9.30    4.00
   1   8  -7    6.10    3.50
   1   8  -7    0.70    3.10
   1   8  -7    3.50    2.50
   1   8  -7    3.90    3.20
  -1  -8   7   13.40   23.00
  -1  -8   7    6.50    4.40
  -1  -8   7    7.20    4.90
  -1  -8   7   11.40    4.10
   0   8  -7  684.13   29.60
   0   8  -7  643.34   30.50
   0   8  -7  637.34   30.80
   0   8  -7  655.73   34.40
   0   8  -7  634.84   31.80
   0  -8   7  547.95   95.49
   0  -8   7  649.74   33.20
   0  -8   7  637.34   29.90
   0  -8   7  647.64   25.40
  -1   8  -7 1413.46   53.79
  -1   8  -7 1493.25   57.59
  -1   8  -7 1419.66   50.49
  -1   8  -7 1472.25   49.50
  -1   8  -7 1450.85   51.69
   1  -8   7 1445.76   58.79
   1  -8   7 1415.86   37.70
   1  -8   7 1502.45   51.59
  -2   8  -7    7.80    4.20
  -2   8  -7    6.20    3.80
  -2   8  -7   -3.30    2.80
  -2   8  -7    6.70    3.90
  -2   8  -7    3.20    4.50
   2  -8   7   -2.10    4.00
   2  -8   7    7.70    4.10
  -3   8  -7    8.30    4.30
  -3   8  -7   14.50    5.90
  -3   8  -7   15.60    5.60
  -3   8  -7   10.70    4.40
  -3   8  -7    6.60    4.70
   3  -8   7   23.70    8.40
   3  -8   7    5.60    4.50
  -4   8  -7  393.26   24.50
  -4   8  -7  395.36   27.00
  -4   8  -7  397.06   29.80
  -4   8  -7  374.96   25.00
   4  -8   7  369.46   18.50
   4  -8   7  357.36   27.50
   4  -8   7  342.37   25.50
   5   7  -7    5.30    3.20
   5   7  -7   -0.50    3.30
   5   7  -7    1.70    4.10
  -5  -7   7    5.00    5.30
  -5  -7   7    3.90   17.50
   4   7  -7 1536.35   60.09
   4   7  -7 1603.54   57.99
   4   7  -7 1624.74   56.89
   4   7  -7 1583.34   59.09
  -4  -7   7 1594.64   55.79
  -4  -7   7 1546.25  149.59
  -4  -7   7 1511.55   54.49
   3   7  -7  171.68   15.40
   3   7  -7  185.78   17.20
   3   7  -7  166.48   14.50
   3   7  -7  165.68   16.40
   3   7  -7  176.38   15.10
  -3  -7   7  195.18   15.70
  -3  -7   7  152.98   14.20
  -3  -7   7  186.28   47.30
   2   7  -7   37.30    7.40
   2   7  -7   32.30    7.30
   2   7  -7   23.90    6.50
   2   7  -7   41.40   10.00
   2   7  -7   39.60    8.70
  -2  -7   7   39.80   28.10
  -2  -7   7   38.20    8.00
  -2  -7   7   38.20    7.30
  -2  -7   7   39.60    8.00
   1   7  -7    5.70    2.90
   1   7  -7   19.70    5.60
   1   7  -7   22.40    6.50
   1   7  -7   15.10    6.30
   1   7  -7   15.90    4.50
   1   7  -7   13.50    4.70
  -1  -7   7   16.40   20.20
  -1  -7   7   11.30    4.20
  -1  -7   7   10.50    4.30
   0   7  -7   42.60    9.00
   0   7  -7   50.39    8.50
   0   7  -7   37.10    8.50
   0   7  -7   32.30    7.10
   0   7  -7   44.10    8.40
   0  -7   7   36.60    8.50
   0  -7   7   48.30    8.50
   0  -7   7   32.30   25.10
   0  -7   7   48.40    7.10
  -1   7  -7  347.47   22.60
  -1   7  -7  365.16   21.80
  -1   7  -7  454.55   60.69
  -1   7  -7  358.46   25.60
  -1   7  -7  344.37   21.60
  -1   7  -7  384.26   23.30
   1  -7   7  358.36   26.40
   1  -7   7  323.27   17.40
   1  -7   7  355.96   21.90
  -2   7  -7  396.76   24.20
  -2   7  -7  361.56   23.10
  -2   7  -7  348.17   23.70
  -2   7  -7  407.76   62.79
  -2   7  -7  410.86   28.10
  -2   7  -7  376.06   24.00
   2  -7   7  352.16   13.10
   2  -7   7  395.06   27.60
   2  -7   7  378.26   25.20
   2  -7   7  361.66   14.30
  -3   7  -7  651.13   34.90
  -3   7  -7  599.14   31.10
  -3   7  -7  645.24   93.59
  -3   7  -7  631.64   32.70
  -3   7  -7  678.43   39.00
  -3   7  -7  643.14   32.40
   3  -7   7  664.43   24.30
   3  -7   7  665.33   36.10
   3  -7   7  637.84   37.50
  -4   7  -7  506.45   35.20
  -4   7  -7  544.95   30.10
  -4   7  -7  545.25   31.00
  -4   7  -7  590.54   33.10
   4  -7   7  596.24   53.29
   4  -7   7  550.54   35.30
  -5   7  -7    3.00    3.80
  -5   7  -7   -3.30    4.20
   5  -7   7   -9.30    5.40
   5  -7   7    8.90    5.50
   5   6  -7  129.09   14.60
   5   6  -7   94.39   15.40
   5   6  -7  141.29   11.60
   5   6  -7  110.79   13.80
   5   6  -7  149.99   15.10
  -5  -6   7  111.79   13.10
  -5  -6   7  153.58   14.90
  -5  -6   7  136.79   48.10
   4   6  -7  264.77   21.60
   4   6  -7  281.47   21.60
   4   6  -7  285.67   21.00
   4   6  -7  263.97   19.70
  -4  -6   7  269.87   58.69
  -4  -6   7  252.17   19.00
  -4  -6   7  274.97   19.80
   3   6  -7   35.80    8.00
   3   6  -7   40.60    8.60
   3   6  -7   37.80    7.80
   3   6  -7   28.40    7.50
   3   6  -7   29.10    7.70
  -3  -6   7   39.40    7.80
  -3  -6   7   33.40    7.00
  -3  -6   7   42.80   25.90
   2   6  -7    4.50    3.70
   2   6  -7    3.10    2.60
   2   6  -7   10.40    4.60
   2   6  -7    4.70    3.60
  -2  -6   7    0.80    2.00
  -2  -6   7   -1.30    3.20
  -2  -6   7    5.40   11.80
  -2  -6   7   -0.10    2.00
   1   6  -7 3870.91  104.59
   1   6  -7 3930.71  105.09
   1   6  -7 3957.00  110.29
   1   6  -7 3890.21  101.79
   1   6  -7 3951.60  103.59
  -1  -6   7 3927.01  103.19
  -1  -6   7 3885.31  104.89
  -1  -6   7 3905.11  100.09
  -1  -6   7 3788.62  222.48
   0   6  -7   65.09   12.70
   0   6  -7   65.89    8.40
   0   6  -7   53.19   10.00
   0   6  -7   34.00    8.70
   0   6  -7   33.70    7.40
   0  -6   7   49.80    6.10
   0  -6   7   54.09   10.70
   0  -6   7   40.00    7.70
   0  -6   7   36.20   25.00
  -1   6  -7  364.16   23.10
  -1   6  -7  326.87   21.20
  -1   6  -7  371.06   22.30
  -1   6  -7  437.66   54.09
  -1   6  -7  362.86   21.80
  -1   6  -7  398.66   27.20
   1  -6   7  371.76   26.90
   1  -6   7  373.66   17.40
   1  -6   7  381.16   23.00
  -2   6  -7   24.30    7.00
  -2   6  -7   24.80    6.80
  -2   6  -7   14.90    4.80
  -2   6  -7   24.90   19.30
  -2   6  -7   29.80    8.90
  -2   6  -7   16.10    5.20
   2  -6   7   31.00    4.70
   2  -6   7   23.30    5.40
   2  -6   7   15.80    6.70
   2  -6   7   25.20    7.20
  -3   6  -7    1.60    3.60
  -3   6  -7   -1.90   15.00
  -3   6  -7   -1.50    2.90
  -3   6  -7    8.30    4.10
  -3   6  -7    1.10    3.20
   3  -6   7    4.70    2.50
   3  -6   7    2.30    3.50
   3  -6   7    2.60    4.20
   3  -6   7   -1.40    2.10
  -4   6  -7    9.00    5.70
  -4   6  -7    5.00    3.30
  -4   6  -7    2.50    4.50
  -4   6  -7   -8.50    3.70
  -4   6  -7   -8.80   28.10
   4  -6   7   13.80    6.90
   4  -6   7   -4.00    3.60
   4  -6   7    2.10    3.70
  -5   6  -7  498.75   31.40
  -5   6  -7  478.15   40.40
  -5   6  -7  573.64   38.00
   5  -6   7  539.15   35.70
   5  -6   7  573.74   33.60
   5  -6   7  510.65   22.10
   6   5  -7    5.80    3.80
   6   5  -7    7.80    4.70
   6   5  -7    4.80    5.50
   6   5  -7   -5.80    5.20
  -6  -5   7    2.90    5.20
  -6  -5   7   -0.10    4.40
   5   5  -7   60.99   12.00
   5   5  -7   61.09   11.10
   5   5  -7   68.39   12.40
   5   5  -7   65.89   12.00
   5   5  -7   65.39   10.00
  -5  -5   7   83.69   10.50
  -5  -5   7   70.99   12.30
   4   5  -7  424.66   20.40
   4   5  -7  427.06   28.00
   4   5  -7  456.35   26.50
   4   5  -7  403.16   24.70
   4   5  -7  439.56   27.50
  -4  -5   7  406.36   24.40
  -4  -5   7  423.26   25.00
   3   5  -7 1326.27   51.69
   3   5  -7 1320.37   51.79
   3   5  -7 1415.76   69.99
   3   5  -7 1299.47   48.30
   3   5  -7 1303.17   47.80
  -3  -5   7 1333.27   48.50
  -3  -5   7 1297.27   47.60
  -3  -5   7 1480.75  121.39
   2   5  -7  849.02   34.30
   2   5  -7  839.92   36.40
   2   5  -7  796.82   34.20
   2   5  -7  845.82   37.20
   2   5  -7  854.41   39.00
  -2  -5   7  836.32   35.30
  -2  -5   7  839.52   35.60
  -2  -5   7  858.81   89.19
  -2  -5   7  860.81   35.70
  -2  -5   7  855.21   35.40
   1   5  -7   53.59   10.70
   1   5  -7   24.50    6.00
   1   5  -7   46.50    9.20
   1   5  -7   26.90    6.10
   1   5  -7   31.90    7.10
  -1  -5   7   31.10    6.70
  -1  -5   7   31.30    7.20
  -1  -5   7   31.30    7.20
  -1  -5   7   36.00    8.20
  -1  -5   7   10.30   13.10
   0   5  -7  635.94   30.90
   0   5  -7  646.74   29.80
   0   5  -7  624.14   28.00
   0   5  -7  663.93   34.90
   0   5  -7  670.93   30.70
   0  -5   7  520.35   68.39
   0  -5   7  601.84   26.00
   0  -5   7  664.23   33.40
   0  -5   7  595.94   30.90
   0  -5   7  709.53   31.20
  -1   5  -7  204.48   18.90
  -1   5  -7  176.48   14.70
  -1   5  -7  217.68   33.40
  -1   5  -7  180.58   24.60
  -1   5  -7  198.68   15.80
  -1   5  -7  200.68   16.60
   1  -5   7  182.08   12.60
   1  -5   7  171.78   16.40
   1  -5   7  211.28   16.80
   1  -5   7  179.38   18.80
  -2   5  -7 1528.75   53.39
  -2   5  -7 1497.45   53.79
  -2   5  -7 1558.54   55.39
  -2   5  -7 1465.65   52.49
  -2   5  -7 1522.05   61.29
  -2   5  -7 1435.16  104.89
   2  -5   7 1519.05   45.70
   2  -5   7 1443.46   49.50
   2  -5   7 1491.85   59.99
   2  -5   7 1523.05   57.99
   2  -5   7 1466.75   59.79
  -3   5  -7    0.20    4.00
  -3   5  -7    4.40    4.80
  -3   5  -7    1.70    2.60
  -3   5  -7    4.40    3.50
  -3   5  -7   -5.70   16.20
   3  -5   7    2.60    2.90
   3  -5   7    3.30    4.80
   3  -5   7    2.00    3.60
  -4   5  -7  670.23   93.89
  -4   5  -7  711.03   39.10
  -4   5  -7  760.62   36.80
  -4   5  -7  790.52   37.70
  -4   5  -7  765.72   44.10
   4  -5   7  843.92   42.00
   4  -5   7  713.03   41.70
   4  -5   7  776.22   31.90
  -5   5  -7    8.70    3.70
  -5   5  -7    3.20    6.20
  -5   5  -7    3.60    4.50
   5  -5   7    5.80    4.50
   5  -5   7    3.70    5.70
   5  -5   7    1.00    5.00
   6   4  -7  850.51   40.40
   6   4  -7  895.61   40.20
   6   4  -7  931.41   42.70
   6   4  -7  898.11   42.40
  -6  -4   7  910.31   41.70
  -6  -4   7  867.51   39.40
   5   4  -7    0.90    3.10
   5   4  -7   -2.30    4.80
   5   4  -7    6.40    4.00
   5   4  -7    6.90    3.80
   5   4  -7   19.70    5.90
  -5  -4   7    9.70    4.10
   4   4  -7   98.49   10.00
   4   4  -7  111.99   14.00
   4   4  -7  103.49   12.70
   4   4  -7   79.99   15.60
   4   4  -7   97.19   20.90
  -4  -4   7  104.99   11.70
  -4  -4   7   96.29   11.30
   3   4  -7  420.96   25.60
   3   4  -7  411.86   23.20
   3   4  -7  396.86   23.70
   3   4  -7  379.46   19.00
   3   4  -7  418.36   25.90
   3   4  -7  410.26   23.90
   3   4  -7  384.66   24.90
  -3  -4   7  403.86   23.50
  -3  -4   7  414.66   24.40
  -3  -4   7  411.56   23.40
  -3  -4   7  427.56   23.40
   2   4  -7  197.28   11.70
   2   4  -7  193.48   19.40
   2   4  -7  234.18   18.70
   2   4  -7  214.18   16.60
   2   4  -7  221.88   17.10
  -2  -4   7  219.08   16.40
  -2  -4   7  228.08   17.50
  -2  -4   7  209.28   15.90
  -2  -4   7  193.18   14.90
  -2  -4   7  218.28   73.89
   1   4  -7   12.40    3.80
   1   4  -7   14.00    5.60
   1   4  -7   12.80    4.50
   1   4  -7    8.30    4.10
   1   4  -7   16.30    4.70
  -1  -4   7   13.50    3.40
  -1  -4   7   12.60    4.00
  -1  -4   7    4.10    3.40
  -1  -4   7   21.60   15.20
  -1  -4   7   13.70    4.60
  -1  -4   7    3.60    3.10
   0   4  -7 2527.05   76.79
   0   4  -7 2706.53   83.89
   0   4  -7 2645.04   75.59
   0   4  -7 2638.44   71.49
   0   4  -7 2531.65   75.29
   0  -4   7 2687.63   81.49
   0  -4   7 2596.84   75.99
   0  -4   7 2596.14   72.29
   0  -4   7 2564.44   75.69
   0  -4   7 2571.74   78.99
  -1   4  -7 1678.13   55.89
  -1   4  -7 1638.44   57.19
  -1   4  -7 1659.13   53.09
  -1   4  -7 1662.33   56.29
  -1   4  -7 1629.94   62.39
  -1   4  -7 1904.11   85.79
   1  -4   7 1707.93   65.59
   1  -4   7 1576.54   56.09
   1  -4   7 1630.24   59.79
   1  -4   7 1700.83   57.39
   1  -4   7 1697.23   50.59
   1  -4   7 1633.04   51.69
  -2   4  -7  182.18   18.80
  -2   4  -7  195.28   16.80
  -2   4  -7  184.58   16.30
  -2   4  -7  187.08   15.40
  -2   4  -7  201.28   34.60
   2  -4   7  206.98   19.40
   2  -4   7  178.98   14.00
   2  -4   7  180.98   15.60
   2  -4   7  179.38   17.90
   2  -4   7  196.08   18.00
  -3   4  -7  298.97   20.40
  -3   4  -7  253.27   48.40
  -3   4  -7  298.07   21.80
  -3   4  -7  303.27   25.40
  -3   4  -7  270.87   21.20
   3  -4   7  269.17   23.10
   3  -4   7  282.67   20.00
   3  -4   7  300.97   25.30
  -4   4  -7  597.74   32.70
  -4   4  -7  578.74   82.39
  -4   4  -7  682.03   41.20
  -4   4  -7  719.63   34.40
   4  -4   7  645.24   36.80
   4  -4   7  626.64   38.30
   4  -4   7  650.83   31.50
  -5   4  -7   83.09   13.70
  -5   4  -7   76.99   15.30
  -5   4  -7   65.49   12.30
   5  -4   7   59.29   12.80
   5  -4   7   84.19   15.60
   5  -4   7   82.89   10.60
   7   3  -7  286.77   22.70
   7   3  -7  271.97   22.10
   7   3  -7  305.67   21.40
   7   3  -7  274.67   23.20
  -7  -3   7  330.47   22.70
  -7  -3   7  284.17   22.70
   6   3  -7   93.89   12.00
   6   3  -7  106.79   12.80
   6   3  -7   74.29   12.10
   6   3  -7   82.49   13.70
  -6  -3   7   81.99   13.70
  -6  -3   7  114.59   13.10
   5   3  -7  441.66   25.80
   5   3  -7  409.26   23.40
   5   3  -7  424.16   26.50
   5   3  -7  412.46   28.80
   5   3  -7  440.56   26.90
  -5  -3   7  426.16   25.90
  -5  -3   7  445.86   25.50
   4   3  -7  889.41   38.00
   4   3  -7  874.61   34.90
   4   3  -7  892.91   41.80
   4   3  -7  931.01   40.60
   4   3  -7  888.31   39.40
   4   3  -7  872.71   37.90
  -4  -3   7  836.22   36.50
  -4  -3   7  906.81   38.30
  -4  -3   7  915.11   37.90
   3   3  -7  927.71   37.30
   3   3  -7  873.81   39.30
   3   3  -7  861.21   37.20
   3   3  -7  873.51   37.20
   3   3  -7  925.71   34.30
   3   3  -7  890.61   36.60
   3   3  -7  911.61   39.90
  -3  -3   7  859.01   35.50
  -3  -3   7  889.81   38.50
  -3  -3   7  898.61   36.70
  -3  -3   7  930.41   37.70
  -3  -3   7  880.61   36.40
   2   3  -7    6.00    3.30
   2   3  -7    6.60    3.30
   2   3  -7   17.70    5.00
   2   3  -7    6.00    3.20
   2   3  -7    6.90    3.40
  -2  -3   7   10.50    4.30
  -2  -3   7    8.00    3.90
  -2  -3   7   12.20    9.90
  -2  -3   7   10.10    3.50
  -2  -3   7    9.20    3.80
   1   3  -7  618.24   29.50
   1   3  -7  611.64   23.50
   1   3  -7  575.04   28.10
   1   3  -7  574.84   31.10
  -1  -3   7  614.24   28.30
  -1  -3   7  573.64   28.80
  -1  -3   7  511.15   46.60
  -1  -3   7  588.64   29.50
  -1  -3   7  587.94   27.90
  -1  -3   7  576.54   24.50
  -1  -3   7  597.44   28.20
   0   3  -7 1293.77   40.50
   0   3  -7 1307.67   51.69
   0   3  -7 1344.37   47.90
   0   3  -7 1190.68   43.90
   0   3  -7 1248.68   45.10
   0  -3   7 1310.77   49.10
   0  -3   7 1293.37   46.60
   0  -3   7 1316.17   43.10
   0  -3   7 1220.58   49.40
   0  -3   7 1229.28   47.00
   0  -3   7 1263.77   44.70
  -1   3  -7  497.25   30.70
  -1   3  -7  504.65   26.60
  -1   3  -7  477.35   25.50
  -1   3  -7  573.04   28.90
  -1   3  -7  514.15   24.00
   1  -3   7  529.75   30.00
   1  -3   7  489.05   24.40
   1  -3   7  499.35   26.90
  -2   3  -7 1277.37   48.70
  -2   3  -7 1173.28   75.19
  -2   3  -7 1264.27   48.40
  -2   3  -7 1279.57   54.89
  -2   3  -7 1289.27   44.50
   2  -3   7 1254.57   51.79
   2  -3   7 1262.67   52.29
   2  -3   7 1294.77   50.69
   2  -3   7 1212.38   53.59
   2  -3   7 1226.68   41.10
  -3   3  -7  445.26   24.80
  -3   3  -7  387.16   54.79
  -3   3  -7  427.76   34.00
  -3   3  -7  483.75   32.90
   3  -3   7  484.15   32.80
   3  -3   7  487.05   30.60
   3  -3   7  474.05   28.20
   3  -3   7  505.05   32.20
   3  -3   7  476.25   23.80
  -4   3  -7  451.45   25.60
  -4   3  -7  415.56   26.90
   4  -3   7  428.56   29.20
   4  -3   7  450.85   32.10
  -5   3  -7  166.38   32.50
  -5   3  -7  128.69   15.40
  -5   3  -7  137.79   14.00
   5  -3   7  130.89   15.00
   5  -3   7  134.59   17.80
   7   2  -7   12.70    5.50
   7   2  -7    8.40    4.70
   7   2  -7    4.50    4.40
   7   2  -7    3.60    4.30
  -7  -2   7    2.80    4.00
  -7  -2   7    1.50    3.90
   6   2  -7  663.13   33.40
   6   2  -7  740.53   36.10
   6   2  -7  747.03   37.30
   6   2  -7  701.23   34.50
  -6  -2   7  690.13   34.90
  -6  -2   7  701.23   33.90
   5   2  -7  350.36   22.50
   5   2  -7  341.57   23.00
   5   2  -7  324.67   23.20
   5   2  -7  367.36   22.70
  -5  -2   7  349.77   22.70
  -5  -2   7  313.87   21.00
  -5  -2   7  342.87   25.00
   4   2  -7  512.65   30.10
   4   2  -7  551.94   28.00
   4   2  -7  558.04   28.00
   4   2  -7  567.64   29.70
   4   2  -7  562.04   26.70
   4   2  -7  528.95   28.90
  -4  -2   7  528.15   27.80
  -4  -2   7  546.95   27.50
  -4  -2   7  569.84   28.00
  -4  -2   7  481.85   25.90
   3   2  -7   58.99    9.90
   3   2  -7   53.79    8.40
   3   2  -7   56.99    9.30
   3   2  -7   84.89   13.60
   3   2  -7   44.50   11.40
   3   2  -7   72.59    8.70
  -3  -2   7   56.59    9.20
  -3  -2   7   49.40    8.70
  -3  -2   7   67.09    8.60
  -3  -2   7   49.60    9.90
  -3  -2   7   66.19    8.50
  -3  -2   7   66.29   10.90
   2   2  -7 2363.06   67.69
   2   2  -7 2371.36   68.89
   2   2  -7 2406.06   71.69
   2   2  -7 2288.27   73.29
   2   2  -7 2409.66   70.69
  -2  -2   7 2419.56   67.29
  -2  -2   7 2330.47   71.29
  -2  -2   7 2434.26   70.69
  -2  -2   7 2308.57   68.79
  -2  -2   7 2380.46   70.79
  -2  -2   7 2305.57   68.79
   1   2  -7  810.62   34.80
   1   2  -7  873.91   27.50
   1   2  -7  843.92   34.00
   1   2  -7  782.42   33.70
   1   2  -7  831.12   38.10
  -1  -2   7  842.52   36.00
  -1  -2   7  821.82   34.10
  -1  -2   7  866.41   36.00
  -1  -2   7  789.82   33.60
  -1  -2   7  874.21   34.40
  -1  -2   7  804.62   35.50
   0   2  -7   99.39   10.30
   0   2  -7   78.79    9.90
   0   2  -7   89.69    9.60
   0   2  -7   82.99    7.50
   0   2  -7  104.39   12.70
   0  -2   7   87.29    9.80
   0  -2   7   83.89   10.30
   0  -2   7   93.19   11.10
   0  -2   7   78.49    9.80
   0  -2   7   96.89   15.30
  -1   2  -7   76.99   13.10
  -1   2  -7   72.09   11.80
  -1   2  -7  104.79    8.90
  -1   2  -7   86.29    9.90
   1  -2   7  100.89   11.50
   1  -2   7   85.79   11.30
   1  -2   7   87.99   11.60
   1  -2   7   60.49   12.20
   1  -2   7  103.99    8.30
  -2   2  -7  376.06   23.60
  -2   2  -7  334.47   18.80
  -2   2  -7  354.26   26.40
   2  -2   7  329.47   26.40
   2  -2   7  315.27   25.30
   2  -2   7  325.37   24.80
   2  -2   7  359.96   25.00
   2  -2   7  323.57   21.80
   2  -2   7  332.67   17.40
  -3   2  -7  387.06   25.10
  -3   2  -7  420.26   31.10
  -3   2  -7  380.66   21.60
   3  -2   7  419.96   30.30
   3  -2   7  431.36   28.30
   3  -2   7  414.96   27.60
   3  -2   7  370.06   27.50
   3  -2   7  376.76   20.70
  -4   2  -7  264.07   21.30
  -4   2  -7  327.37   27.50
   4  -2   7  281.67   23.10
   4  -2   7  321.67   24.10
   4  -2   7  291.07   25.40
   4  -2   7  266.77   24.50
  -5   2  -7  893.81   49.50
   5  -2   7  860.61   46.00
   5  -2   7  809.12   41.70
   7   1  -7   32.60    9.20
   7   1  -7   26.20    7.30
   7   1  -7   35.00    8.60
   7   1  -7   35.40    8.80
  -7  -1   7   42.90    8.50
  -7  -1   7   30.30    8.50
   6   1  -7   15.60    6.00
   6   1  -7   27.60    7.60
   6   1  -7   16.60    6.30
   6   1  -7   24.10    6.80
  -6  -1   7   21.70    6.60
  -6  -1   7   23.40    5.70
  -6  -1   7   23.30    6.00
   5   1  -7  647.74   31.00
   5   1  -7  694.63   33.60
   5   1  -7  652.23   33.10
   5   1  -7  598.74   29.00
   5   1  -7  646.54   32.20
  -5  -1   7  650.83   30.80
  -5  -1   7  647.54   31.40
  -5  -1   7  622.24   30.20
  -5  -1   7  633.54   31.60
   4   1  -7   18.40    5.20
   4   1  -7    4.70    3.40
   4   1  -7    7.60    3.60
   4   1  -7   19.40    6.10
   4   1  -7   21.00    5.10
  -4  -1   7    5.60    3.40
  -4  -1   7   11.60    4.50
  -4  -1   7    2.60    2.80
  -4  -1   7   11.40    4.30
  -4  -1   7   11.00    4.00
   3   1  -7 2735.23   78.49
   3   1  -7 2926.81   83.49
   3   1  -7 2852.31   79.99
   3   1  -7 2926.11   84.09
   3   1  -7 2810.22   71.99
   3   1  -7 2846.62   81.99
  -3  -1   7 2842.12   78.59
  -3  -1   7 2809.62   79.39
  -3  -1   7 2720.23   78.69
  -3  -1   7 2872.21   79.99
  -3  -1   7 2842.02   78.79
  -3  -1   7 2777.92   83.49
   2   1  -7  154.38   14.30
   2   1  -7  175.98   14.30
   2   1  -7  179.18   10.00
   2   1  -7  156.58   13.50
   2   1  -7  174.08    9.10
   2   1  -7  167.28   14.30
   2   1  -7  181.28   14.20
  -2  -1   7  159.48   13.20
  -2  -1   7  168.98   14.60
  -2  -1   7  173.68   15.30
  -2  -1   7  177.78   14.10
  -2  -1   7  158.78   13.70
  -2  -1   7  164.88   13.30
   1   1  -7   41.90    8.60
   1   1  -7   60.89    8.20
   1   1  -7   72.69    5.50
   1   1  -7   69.19    8.40
   1   1  -7   65.79    8.80
  -1  -1   7   78.69    9.70
  -1  -1   7   71.49    8.70
  -1  -1   7   72.79    9.40
  -1  -1   7   62.39    8.40
  -1  -1   7   77.89   10.00
   0   1  -7  168.48   13.60
   0   1  -7  196.68   10.10
   0   1  -7  187.98   17.00
   0   1  -7  187.18   14.30
   0   1  -7  166.28   14.30
   0  -1   7  201.48   18.10
   0  -1   7  205.78   15.40
   0  -1   7  167.18   15.10
   0  -1   7  190.38   15.20
  -1   1  -7 1702.23   57.49
  -1   1  -7 1656.03   46.30
  -1   1  -7 1620.14   61.89
   1  -1   7 1725.33   67.49
   1  -1   7 1658.23   56.29
   1  -1   7 1663.43   44.40
   1  -1   7 1644.14   61.79
   1  -1   7 1655.83   59.69
   1  -1   7 1755.72   59.19
  -2   1  -7   81.19   10.60
  -2   1  -7   56.49   11.00
  -2   1  -7   88.69    8.40
   2  -1   7   80.39   14.70
   2  -1   7   68.89   13.80
   2  -1   7   94.59   12.20
   2  -1   7  103.89   13.10
   2  -1   7   91.29    8.10
   2  -1   7   69.89   10.70
  -3   1  -7  660.33   27.90
  -3   1  -7  666.73   33.30
  -3   1  -7  604.94   39.00
   3  -1   7  627.24   37.30
   3  -1   7  573.14   26.00
   3  -1   7  603.64   34.70
   3  -1   7  589.24   34.90
   3  -1   7  618.74   35.90
  -4   1  -7    1.50    3.80
  -4   1  -7    0.80    4.20
  -4   1  -7   -1.70    5.80
   4  -1   7   -0.70    3.80
   4  -1   7   -6.40    4.50
   4  -1   7   -2.40    4.80
   4  -1   7    0.10    4.50
   7   0  -7 1134.49   47.70
   7   0  -7 1139.89   49.80
   7   0  -7 1138.79   45.70
   7   0  -7 1096.19   46.30
  -7   0   7 1085.69   47.30
  -7   0   7 1140.19   45.20
  -7   0   7 1138.99   47.50
   6   0  -7  999.90   43.00
   6   0  -7 1023.10   45.90
   6   0  -7 1060.09   42.00
  -6   0   7 1063.49   41.90
  -6   0   7 1055.89   43.60
  -6   0   7 1092.19   44.20
   5   0  -7 1070.69   41.90
   5   0  -7 1046.20   39.40
   5   0  -7 1160.98   44.50
   5   0  -7 1052.69   45.70
  -5   0   7 1101.39   41.80
  -5   0   7 1052.89   42.00
  -5   0   7 1088.99   41.30
  -5   0   7 1104.59   44.40
   4   0  -7  135.09   13.90
   4   0  -7  149.69   11.30
   4   0  -7  134.99   12.50
   4   0  -7  146.99   13.60
  -4   0   7  138.69   12.70
  -4   0   7  144.89   12.80
  -4   0   7  142.49   12.70
  -4   0   7  140.19   12.40
   3   0  -7   39.80    7.40
   3   0  -7   54.89    5.50
   3   0  -7   67.19    9.00
   3   0  -7   41.10    7.70
   3   0  -7   47.30   10.10
  -3   0   7   50.69    8.90
  -3   0   7   57.79    7.50
  -3   0   7   55.79    8.60
  -3   0   7   65.39    8.10
  -3   0   7   53.59    9.90
   2   0  -7   48.20    8.30
   2   0  -7   60.19   10.80
   2   0  -7   44.00    7.40
   2   0  -7   50.09   10.00
   2   0  -7   49.20    8.30
  -2   0   7   58.39    9.30
  -2   0   7   50.29   10.30
  -2   0   7   49.30    9.40
  -2   0   7   61.69    9.30
  -2   0   7   51.99   15.50
  -2   0   7   48.10    8.10
  -2   0   7   69.09    8.30
   1   0  -7  590.54   26.80
   1   0  -7  631.04   28.00
   1   0  -7  613.64   28.40
   1   0  -7  617.94   30.80
  -1   0   7  635.14   30.50
  -1   0   7  599.14   31.50
  -1   0   7  626.74   27.70
  -1   0   7  570.04   28.20
  -1   0   7  568.24   27.10
   0   0  -7 1994.10   62.29
   0   0  -7 1943.41   66.89
   0   0   7 2015.20   64.59
   0   0   7 2081.39   74.09
   0   0   7 2068.89   71.29
   0   0   7 1922.61   60.49
  -1   0  -7   14.00    6.70
  -1   0  -7   12.70    4.80
  -1   0  -7   11.20    2.80
   1   0   7    7.00    5.70
   1   0   7   14.80    2.80
   1   0   7   12.30    4.70
   1   0   7    4.40    3.20
   1   0   7    8.40    4.70
  -2   0  -7  112.69   12.10
  -2   0  -7   91.79   16.00
  -2   0  -7   96.49   21.10
  -2   0  -7   85.29    9.10
   2   0   7   68.59   11.20
   2   0   7  108.69   13.30
   2   0   7  110.29   14.00
   2   0   7   76.79   14.20
   2   0   7   90.59    8.00
  -3   0  -7   51.19   10.70
  -3   0  -7  110.79   18.60
  -3   0  -7   74.89   22.80
  -3   0  -7   75.49    8.90
   3   0   7   79.69   13.40
   3   0   7   59.09   13.10
   3   0   7   67.09    8.60
   3   0   7   69.89   13.40
   3   0   7   46.00   10.70
  -4   0  -7  338.77   25.10
  -4   0  -7  321.27   28.40
  -4   0  -7  362.06   24.50
  -4   0  -7  383.66   48.80
   4   0   7  345.07   27.40
   4   0   7  379.56   26.10
   7  -1  -7  113.59   17.90
   7  -1  -7   99.39   12.50
  -7   1   7   74.89   12.60
  -7   1   7   93.09   12.80
  -7   1   7  106.89   11.90
   6  -1  -7  318.27   24.20
   6  -1  -7  297.47   19.90
   6  -1  -7  286.17   20.10
   6  -1  -7  289.47   24.10
  -6   1   7  270.07   19.80
  -6   1   7  294.17   20.50
  -6   1   7  316.27   20.00
  -6   1   7  277.07   19.40
   5  -1  -7  348.47   25.20
   5  -1  -7  377.06   22.70
   5  -1  -7  378.26   19.60
   5  -1  -7  408.46   22.30
  -5   1   7  361.36   21.70
  -5   1   7  351.66   21.70
  -5   1   7  369.06   21.10
  -5   1   7  348.57   21.00
   4  -1  -7  633.94   33.30
   4  -1  -7  644.54   28.60
   4  -1  -7  602.74   22.80
   4  -1  -7  681.73   30.90
  -4   1   7  627.34   28.50
  -4   1   7  601.54   27.10
  -4   1   7  594.74   27.30
  -4   1   7  619.14   28.50
   3  -1  -7  588.44   26.40
   3  -1  -7  562.44   30.50
   3  -1  -7  527.35   27.00
  -3   1   7  512.75   24.30
  -3   1   7  474.05   62.09
  -3   1   7  555.14   25.70
  -3   1   7  553.74   24.90
  -3   1   7  520.35   25.00
   2  -1  -7 1081.89   42.20
   2  -1  -7 1130.99   39.90
   2  -1  -7 1017.40   44.00
  -2   1   7 1168.58   40.70
  -2   1   7 1091.19   38.70
  -2   1   7 1092.79   38.80
  -2   1   7 1114.09   40.60
  -2   1   7 1093.19   67.59
   1  -1  -7    5.70    3.90
   1  -1  -7    3.70    2.70
  -1   1   7    6.60    3.30
  -1   1   7    0.40    1.70
  -1   1   7    4.70    2.70
  -1   1   7    3.50    3.20
   0  -1  -7   71.59   11.60
   0  -1  -7   56.69    9.50
   0   1   7   70.79    8.50
   0   1   7   66.29    9.10
   0   1   7   56.49   10.30
  -1  -1  -7  406.06   26.70
  -1  -1  -7  406.76   23.60
   1   1   7  428.86   23.40
   1   1   7  436.56   27.90
   1   1   7  429.96   25.40
   1   1   7  465.25   27.20
   1   1   7  441.66   32.00
  -2  -1  -7  707.23   33.30
  -2  -1  -7  664.73   37.30
  -2  -1  -7  630.04   61.39
   2   1   7  738.73   36.10
   2   1   7  675.03   32.00
   2   1   7  684.33   23.80
   2   1   7  739.93   41.70
   2   1   7  698.03   35.10
   2   1   7  730.23   38.50
  -3  -1  -7  727.23   35.10
  -3  -1  -7  723.63   40.20
  -3  -1  -7  674.83   67.79
   3   1   7  738.93   39.60
   3   1   7  668.63   33.60
   3   1   7  653.63   32.20
   3   1   7  696.43   36.80
   3   1   7  749.23   37.10
   3   1   7  727.73   42.10
   7  -2  -7  182.98   15.80
   7  -2  -7  161.38   17.90
   7  -2  -7  156.48   15.40
  -7   2   7  155.98   14.00
  -7   2   7  149.59   14.40
  -7   2   7  139.19   14.80
   6  -2  -7  453.55   23.40
   6  -2  -7  507.05   31.90
   6  -2  -7  480.65   25.20
   6  -2  -7  476.85   25.90
  -6   2   7  451.55   23.80
  -6   2   7  476.45   25.50
  -6   2   7  405.16   24.10
  -6   2   7  447.66   25.80
   5  -2  -7  855.81   30.30
   5  -2  -7  931.31   43.70
   5  -2  -7  911.01   35.20
   5  -2  -7  849.02   36.00
  -5   2   7  859.81   33.70
  -5   2   7  852.81   35.00
  -5   2   7  851.61   34.60
  -5   2   7  823.42   33.60
   4  -2  -7  381.96   26.40
   4  -2  -7  362.96   33.50
   4  -2  -7  402.46   21.20
   4  -2  -7  410.86   14.50
  -4   2   7  419.36   21.30
  -4   2   7  401.56   20.40
  -4   2   7  315.87   62.59
  -4   2   7  408.46   21.50
   3  -2  -7  496.45   23.30
   3  -2  -7  481.05   24.70
  -3   2   7  433.76   60.79
  -3   2   7  495.05   22.30
  -3   2   7  492.25   24.10
  -3   2   7  451.85   22.10
  -3   2   7  487.75   22.50
   2  -2  -7 1540.95   51.59
   2  -2  -7 1561.44   48.80
  -2   2   7 1567.74   47.50
  -2   2   7 1696.03   92.19
  -2   2   7 1497.25   48.30
  -2   2   7 1356.06   66.79
  -2   2   7 1557.94   48.40
   1  -2  -7   31.90    7.50
   1  -2  -7   43.00    7.40
  -1   2   7   44.20    7.00
  -1   2   7   44.00    7.70
  -1   2   7   30.60    8.00
  -1   2   7   39.10    7.20
   0  -2  -7   31.10    6.80
   0  -2  -7   15.00    5.90
   0   2   7   33.60    8.00
   0   2   7   35.60    8.10
   0   2   7   34.00    7.60
   0   2   7   22.90    9.60
  -1  -2  -7  467.35   28.30
  -1  -2  -7  452.95   24.50
  -1  -2  -7  361.26   50.29
   1   2   7  459.95   28.40
   1   2   7  465.85   23.50
   1   2   7  435.26   32.40
   1   2   7  490.75   27.00
   1   2   7  437.06   24.70
  -2  -2  -7    1.90    4.20
  -2  -2  -7   10.60   16.90
   2   2   7   -1.00    4.40
   2   2   7    4.50    4.20
   2   2   7    0.20    2.50
   2   2   7    4.40    3.90
   2   2   7    1.60    4.10
   2   2   7    7.90    2.60
  -3  -2  -7   17.70   19.30
   3   2   7   13.40    7.40
   3   2   7    7.20    5.10
   7  -3  -7   37.00    8.20
   7  -3  -7   27.60    7.90
   7  -3  -7   32.00    9.20
  -7   3   7   30.10    7.20
  -7   3   7   40.60    7.80
   6  -3  -7  343.37   19.30
   6  -3  -7  360.86   26.60
   6  -3  -7  348.67   20.30
   6  -3  -7  331.17   20.60
  -6   3   7  324.57   19.00
  -6   3   7  343.47   20.90
  -6   3   7  341.17   19.10
  -6   3   7  318.27   19.70
  -6   3   7  285.07   20.10
   5  -3  -7   -5.60    2.30
   5  -3  -7    0.60    2.40
   5  -3  -7    5.00    4.70
   5  -3  -7    2.60    3.00
  -5   3   7    2.60    1.90
  -5   3   7    4.90    2.70
  -5   3   7   -1.00    2.80
  -5   3   7   -4.90    1.80
   4  -3  -7 1085.09   39.80
   4  -3  -7 1116.49   38.20
   4  -3  -7 1158.98   49.60
  -4   3   7 1061.79   36.40
  -4   3   7 1101.19   37.90
  -4   3   7 1102.39   38.10
  -4   3   7  941.21  108.89
  -4   3   7 1102.79   37.20
   3  -3  -7  275.37   17.50
   3  -3  -7  270.37   15.80
   3  -3  -7  308.27   22.90
  -3   3   7  262.07   15.30
  -3   3   7  296.97   17.10
  -3   3   7  279.27   15.90
  -3   3   7  335.17   52.49
  -3   3   7  263.87   15.20
   2  -3  -7  461.55   21.40
   2  -3  -7  423.86   22.50
  -2   3   7  468.05   24.50
  -2   3   7  501.15   52.29
  -2   3   7  450.35   21.00
  -2   3   7  443.06   20.10
   1  -3  -7    8.00    4.20
   1  -3  -7    2.00    2.80
  -1   3   7    5.10    2.70
  -1   3   7    4.90    6.00
  -1   3   7   -0.20    4.90
  -1   3   7    4.70    3.10
  -1   3   7    2.50    2.60
   0  -3  -7  126.29   11.50
   0  -3  -7  153.28   14.30
   0   3   7  120.39   12.90
   0   3   7  121.59   11.40
   0   3   7  124.49   20.60
   0   3   7  132.79   10.70
   0   3   7  156.28   13.30
  -1  -3  -7 1248.48   44.00
  -1  -3  -7 1164.88   47.70
  -1  -3  -7 1037.90   97.89
   1   3   7 1370.56   47.40
   1   3   7 1283.77   59.59
   1   3   7 1325.87   49.80
   1   3   7 1260.57   44.80
  -2  -3  -7  100.69   12.40
  -2  -3  -7   68.79   36.90
   2   3   7  102.99   11.40
   2   3   7  130.09   14.30
   2   3   7  150.18   18.80
   6  -4  -7   15.40    5.70
   6  -4  -7   22.70    7.00
   6  -4  -7   22.30    5.70
  -6   4   7   18.60    4.90
  -6   4   7   25.00    5.40
  -6   4   7   22.20    6.20
  -6   4   7   15.10    4.90
  -6   4   7    6.00    5.20
   5  -4  -7    8.50    4.10
   5  -4  -7    9.10    3.80
   5  -4  -7    7.00    3.90
  -5   4   7    3.60    2.40
  -5   4   7    7.50    3.10
  -5   4   7    0.10    2.50
   4  -4  -7   34.50    5.90
   4  -4  -7   21.10    7.40
  -4   4   7   28.00    5.50
  -4   4   7   27.80    5.20
  -4   4   7   28.40    5.80
  -4   4   7   26.20    5.20
   3  -4  -7  346.97   24.90
   3  -4  -7  302.27   17.10
   3  -4  -7  337.97   16.60
  -3   4   7  330.57   16.40
  -3   4   7  306.87   14.90
  -3   4   7  330.07   18.20
  -3   4   7  330.67   52.39
   2  -4  -7   -1.00    2.80
  -2   4   7    3.50    4.40
  -2   4   7    3.10    2.20
   1  -4  -7 2214.78   60.69
   1  -4  -7 2182.08   63.99
  -1   4   7 2184.18   58.29
  -1   4   7 2339.17   66.79
  -1   4   7 2241.88   62.59
  -1   4   7 2204.28   59.89
  -1   4   7 2319.87   87.09
   0  -4  -7    1.10    4.60
   0   4   7   10.50    4.00
   0   4   7    8.90    4.70
   0   4   7    2.20    2.60
   0   4   7    9.80    3.20
   0   4   7   15.00    7.30
  -1  -4  -7   -5.40   23.60
   1   4   7   17.10    5.00
   1   4   7   24.10    8.50
   1   4   7   24.00    5.30
   1   4   7   23.00    6.10
   5  -5  -7  501.15   40.50
  -5   5   7  519.15   20.40
  -5   5   7  464.05   21.00
  -5   5   7  508.95   21.70
  -5   5   7  493.55   24.60
   4  -5  -7  265.47   22.70
   4  -5  -7  295.57   15.80
   4  -5  -7  304.97   14.50
  -4   5   7  304.47   16.10
  -4   5   7  258.07   14.50
  -4   5   7  288.27   13.90
   3  -5  -7  258.07   12.60
   3  -5  -7  240.08   13.00
  -3   5   7  252.17   25.40
  -3   5   7  264.67   13.60
  -3   5   7  236.98   11.20
  -3   5   7  248.18   12.40
   2  -5  -7    8.50    3.30
  -2   5   7   14.30    3.70
  -2   5   7    8.00    7.70
  -2   5   7    9.10    2.40
  -2   5   7    8.50    2.90
  -2   5   7    2.70    2.10
  -1   5   7   28.80    8.50
  -1   5   7   22.80    4.50
  -1   5   7   22.30    4.00
  -1   5   7   19.20    3.30
  -1   5   7   19.60    4.80
   0  10  -8    8.70    5.60
   0  10  -8   10.00    5.50
   0  10  -8   10.40    6.00
   0 -10   8   37.20   31.10
   0 -10   8   12.20    5.00
  -1  10  -8  944.31   44.90
  -1  10  -8  985.70   44.60
  -1  10  -8  871.11   47.00
   1 -10   8 1000.10   42.60
   2   9  -8  259.67   17.60
   2   9  -8  233.98   22.90
   2   9  -8  253.57   21.70
   2   9  -8  277.27   22.00
  -2  -9   8  206.78   69.49
  -2  -9   8  234.48   18.10
  -2  -9   8  248.78   19.00
   1   9  -8  474.65   27.40
   1   9  -8  507.25   28.20
   1   9  -8  550.54   28.40
   1   9  -8  468.85   27.70
   1   9  -8  531.95   31.40
  -1  -9   8  534.85   27.50
  -1  -9   8  407.96   80.79
  -1  -9   8  513.65   28.60
  -1  -9   8  459.55   24.50
   0   9  -8   25.50    6.30
   0   9  -8   17.40    6.30
   0   9  -8   34.30    7.50
   0   9  -8   28.10    7.20
   0   9  -8   21.80    6.80
   0  -9   8   28.20    7.40
   0  -9   8   19.60    6.10
   0  -9   8   19.20    5.40
  -1   9  -8  119.19   12.80
  -1   9  -8   98.09   12.90
  -1   9  -8  106.59   13.80
  -1   9  -8   92.79   19.20
  -1   9  -8  108.29   12.10
   1  -9   8   97.49    6.10
  -2   9  -8  604.84   33.30
  -2   9  -8  593.84   35.40
  -2   9  -8  561.54   29.00
  -2   9  -8  596.84   30.90
  -2   9  -8  560.64   29.40
   2  -9   8  545.65   33.30
   2  -9   8  538.25   31.80
  -3   9  -8  303.77   25.40
  -3   9  -8  290.77   21.10
  -3   9  -8  323.57   24.20
   3  -9   8  316.47   26.10
   3  -9   8  295.57   23.70
   3   8  -8   -0.70    3.40
   3   8  -8    5.70    3.40
   3   8  -8    4.10    3.70
  -3  -8   8    5.20    3.80
  -3  -8   8   -0.30   21.40
  -3  -8   8    5.70    4.30
   2   8  -8  137.59   14.30
   2   8  -8  132.89   13.50
   2   8  -8  115.29   13.80
   2   8  -8  135.39   12.90
   2   8  -8  128.19   11.90
   2   8  -8  138.09   14.80
  -2  -8   8  154.98   57.09
  -2  -8   8  130.09   13.30
  -2  -8   8  120.39   12.70
   1   8  -8 1086.09   48.40
   1   8  -8 1150.68   45.60
   1   8  -8 1139.09   43.10
   1   8  -8 1173.98   45.60
   1   8  -8 1147.79   45.40
  -1  -8   8 1186.48   41.90
  -1  -8   8  955.80  146.89
  -1  -8   8 1169.98   46.80
  -1  -8   8 1135.29   43.70
   0   8  -8   23.80    6.20
   0   8  -8    9.90    4.10
   0   8  -8   11.00    5.30
   0   8  -8   14.20    5.20
   0   8  -8   25.50    6.90
   0  -8   8   22.90    5.90
   0  -8   8   22.90    7.90
   0  -8   8   14.00    4.30
   0  -8   8   13.60   23.90
  -1   8  -8   27.70    7.00
  -1   8  -8   40.00    7.20
  -1   8  -8   20.10    6.40
  -1   8  -8   21.10    6.90
   1  -8   8   24.30    8.60
   1  -8   8   36.50    6.70
   1  -8   8   23.80    6.20
  -2   8  -8   57.29   10.90
  -2   8  -8   91.79   11.30
  -2   8  -8   95.29   12.10
  -2   8  -8   72.09   11.20
  -2   8  -8   89.69   15.60
   2  -8   8  114.49   15.20
   2  -8   8   75.19   13.20
  -3   8  -8   53.99   10.70
  -3   8  -8   33.00    8.20
  -3   8  -8   56.89   10.60
  -3   8  -8   63.69   13.40
   3  -8   8   60.39   13.50
   3  -8   8   59.99   12.30
  -4   8  -8   75.09   20.10
  -4   8  -8   47.10   10.20
  -4   8  -8   49.50    9.70
   4  -8   8   32.10   10.70
   4  -8   8   44.50    7.80
   4  -8   8   57.19   12.10
   4   7  -8  246.08   20.50
   4   7  -8  186.88   19.50
   4   7  -8  230.98   19.10
   4   7  -8  225.78   18.80
  -4  -7   8  211.78   18.90
  -4  -7   8  215.08   65.29
   3   7  -8 1267.87   48.90
   3   7  -8 1318.27   48.00
   3   7  -8 1279.67   51.59
   3   7  -8 1242.78   51.89
  -3  -7   8 1230.08   47.10
  -3  -7   8 1190.28  126.39
  -3  -7   8 1190.38   47.00
   2   7  -8  524.65   30.90
   2   7  -8  496.05   25.10
   2   7  -8  486.65   27.80
   2   7  -8  493.15   28.20
   2   7  -8  485.35   26.30
   2   7  -8  474.95   27.00
  -2  -7   8  521.25   27.90
  -2  -7   8  458.55   25.80
  -2  -7   8  492.35   80.99
   1   7  -8  223.98   17.90
   1   7  -8  198.18   16.50
   1   7  -8  255.57   20.90
   1   7  -8  238.48   18.60
   1   7  -8  219.28   17.10
  -1  -7   8  233.88   17.10
  -1  -7   8  208.98   17.70
  -1  -7   8  202.78   64.79
  -1  -7   8  205.48   16.80
   0   7  -8    9.30    4.60
   0   7  -8   21.00    6.80
   0   7  -8   15.20    5.60
   0   7  -8    3.20    3.50
   0   7  -8   25.40    6.80
   0  -7   8   15.00    5.10
   0  -7   8   13.80    4.20
   0  -7   8   14.90    5.40
   0  -7   8   15.30   18.90
  -1   7  -8  201.08   17.50
  -1   7  -8  226.28   18.00
  -1   7  -8  223.88   20.60
  -1   7  -8  207.88   17.30
  -1   7  -8  246.48   18.40
   1  -7   8  198.88   17.00
   1  -7   8  254.37   22.80
   1  -7   8  218.48   12.80
  -2   7  -8 1567.04   56.99
  -2   7  -8 1597.14   64.59
  -2   7  -8 1614.44  116.39
  -2   7  -8 1556.34   57.19
  -2   7  -8 1558.74   56.29
   2  -7   8 1473.65   59.19
   2  -7   8 1501.55   42.30
   2  -7   8 1559.44   46.00
   2  -7   8 1670.33   64.99
  -3   7  -8  176.68   44.90
  -3   7  -8  154.78   15.90
  -3   7  -8   92.19   13.60
  -3   7  -8  131.69   17.10
  -3   7  -8  154.68   16.20
   3  -7   8  154.58   17.10
   3  -7   8  134.99   21.10
   3  -7   8  140.19    9.20
  -4   7  -8  261.87   21.20
  -4   7  -8  209.68   22.80
  -4   7  -8  194.68   19.10
  -4   7  -8  229.68   23.40
   4  -7   8  194.48   10.60
   4  -7   8  206.88   22.10
   4  -7   8  232.68   21.80
   5   6  -8   -0.80    3.50
   5   6  -8    7.30    4.20
   5   6  -8   25.10   12.40
   5   6  -8    4.40    3.90
   5   6  -8    5.50    5.10
  -5  -6   8    4.10    4.20
   4   6  -8  114.69   13.20
   4   6  -8  110.49   12.90
   4   6  -8  115.69   14.50
   4   6  -8  108.59   14.30
  -4  -6   8  106.29   12.50
  -4  -6   8  108.59   39.80
   3   6  -8   70.99   12.70
   3   6  -8   76.09   12.10
   3   6  -8   86.99   11.50
  -3  -6   8   84.59   10.70
  -3  -6   8   50.59   27.50
  -3  -6   8   57.99   10.30
   2   6  -8    1.90    3.20
   2   6  -8    3.00    4.00
   2   6  -8   -4.90    3.90
   2   6  -8   -1.00    1.70
  -2  -6   8    1.40   13.20
  -2  -6   8   14.10    5.20
  -2  -6   8    2.90    3.70
   1   6  -8    3.80    3.60
   1   6  -8    2.60    2.90
   1   6  -8    2.20    3.20
   1   6  -8    8.40    3.80
   1   6  -8    3.10    3.10
  -1  -6   8   -5.00    2.40
  -1  -6   8   11.00   15.90
  -1  -6   8    5.20    4.20
   0   6  -8 1797.12   61.19
   0   6  -8 1922.51   67.89
   0   6  -8 1825.42   58.39
   0   6  -8 1749.82   59.59
   0   6  -8 1772.22   58.79
   0  -6   8 1414.06  123.89
   0  -6   8 1821.82   60.29
   0  -6   8 1802.92   53.99
  -1   6  -8  353.36   26.40
  -1   6  -8  380.56   23.00
  -1   6  -8  313.47   21.30
  -1   6  -8  383.26   24.50
  -1   6  -8  325.37   21.80
   1  -6   8  336.87   18.00
   1  -6   8  383.06   28.50
  -2   6  -8    5.90    4.50
  -2   6  -8    0.10    2.90
  -2   6  -8    1.20   12.10
  -2   6  -8   -0.90    3.70
  -2   6  -8    8.30    4.10
   2  -6   8    1.90    4.20
   2  -6   8    4.60    3.10
   2  -6   8   -0.20    2.60
   2  -6   8    0.90    3.60
  -3   6  -8  330.97   22.70
  -3   6  -8  297.17   22.70
  -3   6  -8  319.77   22.90
  -3   6  -8  314.47   54.79
  -3   6  -8  315.47   27.00
   3  -6   8  315.07   18.10
   3  -6   8  305.27   26.70
   3  -6   8  297.97   16.40
   3  -6   8  307.77   24.90
  -4   6  -8   53.69   10.50
  -4   6  -8   34.60   31.10
  -4   6  -8   50.49    9.20
  -4   6  -8   75.29   15.90
   4  -6   8   59.29    9.10
   4  -6   8   47.10   10.70
   4  -6   8   55.59   11.90
   6   5  -8   44.20    9.10
   6   5  -8   42.20   10.60
   6   5  -8   38.20    9.70
  -6  -5   8   36.20    7.80
  -6  -5   8   43.60    8.60
   5   5  -8 1179.58   48.70
   5   5  -8 1137.99   46.80
   5   5  -8 1145.09   49.70
   5   5  -8 1148.19   52.59
   5   5  -8 1091.59   40.00
  -5  -5   8 1133.29   45.80
  -5  -5   8 1120.09   46.40
   4   5  -8  304.77   17.20
   4   5  -8  303.07   21.70
   4   5  -8  272.87   21.70
   4   5  -8  249.48   22.00
   4   5  -8  295.17   21.10
  -4  -5   8  358.66   58.89
  -4  -5   8  287.37   20.20
   3   5  -8  911.91   42.50
   3   5  -8  963.50   40.80
   3   5  -8  926.21   42.10
   3   5  -8  911.11   38.60
  -3  -5   8  892.31   38.80
  -3  -5   8  923.41   39.40
  -3  -5   8 1036.90   97.49
   2   5  -8   64.39   12.80
   2   5  -8   44.00    8.60
   2   5  -8   64.99   11.40
   2   5  -8   71.39   11.50
  -2  -5   8   79.79    9.80
  -2  -5   8   53.39   25.00
  -2  -5   8   70.69    9.20
  -2  -5   8   60.49   10.10
   1   5  -8  403.96   27.00
   1   5  -8  425.26   23.90
   1   5  -8  388.46   24.00
   1   5  -8  393.66   21.20
   1   5  -8  419.56   25.00
  -1  -5   8  449.86   24.90
  -1  -5   8  396.96   24.30
  -1  -5   8  428.36   24.50
  -1  -5   8  313.67   51.59
  -1  -5   8  422.16   25.50
   0   5  -8  210.88   17.30
   0   5  -8  199.98   16.20
   0   5  -8  204.48   19.00
   0   5  -8  181.28   14.30
   0  -5   8  222.98   18.40
   0  -5   8  197.88   16.60
   0  -5   8  192.08   14.40
   0  -5   8  169.58   17.00
  -1   5  -8   10.90    4.40
  -1   5  -8   26.80    7.50
  -1   5  -8   36.10    7.60
   1  -5   8   23.30    7.70
   1  -5   8   21.80    5.60
   1  -5   8   20.60    5.50
  -2   5  -8  295.77   20.30
  -2   5  -8  311.87   39.70
  -2   5  -8  316.97   22.70
  -2   5  -8  307.57   21.70
  -2   5  -8  266.17   24.10
   2  -5   8  312.17   24.90
   2  -5   8  314.87   25.10
   2  -5   8  317.17   18.60
   2  -5   8  320.47   21.00
   2  -5   8  318.47   18.80
  -3   5  -8 1084.19   46.30
  -3   5  -8 1103.69   44.40
  -3   5  -8 1010.50   87.39
   3  -5   8  975.90   47.70
   3  -5   8 1113.89   53.29
   3  -5   8 1131.39   42.70
  -4   5  -8   38.60    9.80
  -4   5  -8   42.60   11.60
  -4   5  -8   26.50   30.40
  -4   5  -8   32.60    8.10
   4  -5   8   22.20    8.30
   4  -5   8   28.80    9.20
   4  -5   8   25.70    7.70
   6   4  -8    9.60    6.10
   6   4  -8   19.70    7.10
   6   4  -8    4.30    5.00
   6   4  -8   27.80    8.40
  -6  -4   8   21.60    5.90
  -6  -4   8   20.50    7.30
   5   4  -8  916.71   42.00
   5   4  -8  938.81   43.30
   5   4  -8  778.92   55.69
   5   4  -8  920.11   36.80
   5   4  -8  927.91   41.10
  -5  -4   8  953.70   40.60
  -5  -4   8  925.31   40.90
   4   4  -8  249.88   16.50
   4   4  -8  268.17   20.10
   4   4  -8  286.47   21.70
   4   4  -8  264.37   19.80
   4   4  -8  273.47   22.40
  -4  -4   8  267.37   19.50
   3   4  -8  512.15   24.30
   3   4  -8  498.95   27.80
   3   4  -8  512.35   30.10
   3   4  -8  518.35   28.10
   3   4  -8  481.35   28.90
  -3  -4   8  530.55   28.10
  -3  -4   8  604.44   67.39
  -3  -4   8  483.95   26.70
  -3  -4   8  485.95   26.80
   2   4  -8 2014.50   66.09
   2   4  -8 1998.80   68.79
   2   4  -8 2083.79   70.59
   2   4  -8 2062.09   66.99
  -2  -4   8 2086.69   65.99
  -2  -4   8 2009.60   65.19
  -2  -4   8 2047.30  121.39
  -2  -4   8 2033.00   64.59
  -2  -4   8 2088.09   65.99
  -2  -4   8 2021.40   54.19
   1   4  -8  789.52   35.20
   1   4  -8  824.92   36.50
   1   4  -8  883.71   38.10
   1   4  -8  907.81   42.10
   1   4  -8  869.01   31.80
  -1  -4   8  888.31   30.40
  -1  -4   8  807.42   37.90
  -1  -4   8  886.31   36.30
  -1  -4   8  877.21   36.90
  -1  -4   8  715.33   65.29
  -1  -4   8  860.61   38.60
   0   4  -8   88.09   11.00
   0   4  -8   51.09   10.90
   0   4  -8   44.60    7.70
   0   4  -8   65.79   11.00
   0  -4   8   53.09    8.80
   0  -4   8   92.59   14.90
   0  -4   8   55.09   10.30
  -1   4  -8  100.49   12.30
  -1   4  -8  112.79   14.60
  -1   4  -8   93.39   10.40
  -1   4  -8  107.29   12.50
   1  -4   8  113.59   15.40
   1  -4   8  119.79   11.30
   1  -4   8   79.29   12.70
  -2   4  -8  215.88   21.30
  -2   4  -8  196.78   15.80
  -2   4  -8  218.78   26.20
  -2   4  -8  204.38   17.80
  -2   4  -8  193.38   17.20
   2  -4   8  213.08   20.60
   2  -4   8  190.68   17.40
   2  -4   8  198.08   19.40
   2  -4   8  183.98   18.60
   2  -4   8  172.98   15.00
   2  -4   8  194.08   14.30
  -3   4  -8   65.69   11.00
  -3   4  -8   47.00   21.10
  -3   4  -8   63.59   14.00
  -3   4  -8   74.59   12.50
   3  -4   8   54.39   11.50
   3  -4   8   52.69   12.20
   3  -4   8   53.09   10.10
  -4   4  -8  445.46   33.80
  -4   4  -8  475.05   27.30
  -4   4  -8  461.15   29.00
  -4   4  -8  370.46   65.29
   4  -4   8  493.65   27.70
   4  -4   8  448.36   32.60
   4  -4   8  540.25   33.50
  -7  -3   8    2.40    5.20
   6   3  -8    3.00    3.50
   6   3  -8    5.90    4.40
   6   3  -8    8.30    4.60
   6   3  -8    3.90    3.30
  -6  -3   8    1.60    2.50
  -6  -3   8    5.50    4.40
   5   3  -8 1112.79   46.90
   5   3  -8 1057.69   45.50
   5   3  -8 1033.60   43.50
   5   3  -8 1007.70   41.10
  -5  -3   8 1030.80   42.80
  -5  -3   8 1040.00   43.80
   4   3  -8 1493.85   50.49
   4   3  -8 1531.85   54.09
   4   3  -8 1471.85   57.49
   4   3  -8 1527.35   56.69
   4   3  -8 1486.75   51.39
  -4  -3   8 1303.37   67.39
  -4  -3   8 1493.45   53.09
  -4  -3   8 1543.65   54.29
   3   3  -8  935.51   42.30
   3   3  -8 1020.20   43.10
   3   3  -8  944.11   39.90
   3   3  -8  947.71   36.10
   3   3  -8  913.31   36.90
  -3  -3   8  968.10   39.30
  -3  -3   8  964.30   39.50
  -3  -3   8  968.90   34.10
  -3  -3   8  920.41   39.10
   2   3  -8  211.18   18.20
   2   3  -8  182.58   13.30
   2   3  -8  195.98   12.50
   2   3  -8  172.08   15.40
   2   3  -8  243.68   25.80
  -2  -3   8  173.08   15.10
  -2  -3   8  193.88   16.00
  -2  -3   8  202.08   29.90
  -2  -3   8  163.38   14.30
  -2  -3   8  179.48   15.30
  -2  -3   8  188.18   13.30
   1   3  -8  434.56   25.50
   1   3  -8  458.45   29.10
   1   3  -8  474.15   29.00
   1   3  -8  447.96   19.90
  -1  -3   8  441.46   24.70
  -1  -3   8  448.96   24.80
  -1  -3   8  436.66   26.10
  -1  -3   8  454.15   25.20
  -1  -3   8  441.96   22.50
  -1  -3   8  410.46   25.50
   0   3  -8   96.79    9.20
   0   3  -8   89.89   10.30
   0   3  -8  102.99   13.30
   0   3  -8   83.89   11.00
   0  -3   8   90.09   11.20
   0  -3   8  106.09   12.50
   0  -3   8   77.69   10.20
   0  -3   8  100.69   11.70
   0  -3   8  103.89   10.70
   0  -3   8   91.79   15.60
  -1   3  -8 1305.57   48.20
  -1   3  -8 1270.27   55.09
  -1   3  -8 1260.07   42.30
  -1   3  -8 1255.27   49.40
   1  -3   8 1271.57   51.79
   1  -3   8 1261.97   51.69
   1  -3   8 1311.77   47.20
  -2   3  -8  266.77   23.40
  -2   3  -8  300.47   18.50
  -2   3  -8  306.87   22.00
   2  -3   8  312.37   24.30
   2  -3   8  294.17   16.80
   2  -3   8  251.37   23.20
   2  -3   8  293.97   23.40
   2  -3   8  270.17   22.20
  -3   3  -8  196.18   32.90
  -3   3  -8  229.88   23.20
  -3   3  -8  179.08   15.30
  -3   3  -8  195.88   18.10
   3  -3   8  180.98   18.00
   3  -3   8  202.98   19.20
   3  -3   8  227.98   20.80
   3  -3   8  221.88   22.20
  -4   3  -8  127.89   14.60
  -4   3  -8  127.59   21.10
  -4   3  -8  155.38   14.40
   4  -3   8   97.09   15.90
   4  -3   8  161.18   19.10
   4  -3   8  137.59   16.00
   7   2  -8  945.91   43.00
   7   2  -8 1002.70   44.40
   7   2  -8  947.21   42.30
   7   2  -8  959.20   44.50
  -7  -2   8  777.42   52.49
  -7  -2   8  945.21   43.20
   6   2  -8  197.78   17.10
   6   2  -8  184.88   17.80
   6   2  -8  207.48   18.90
   6   2  -8  208.78   17.70
  -6  -2   8  138.79   14.90
  -6  -2   8  183.38   16.10
   5   2  -8   97.09   11.90
   5   2  -8   97.39   12.60
  -5  -2   8   95.19   13.90
  -5  -2   8  104.19   11.40
  -5  -2   8   94.99   11.70
   4   2  -8    4.60    3.70
   4   2  -8    7.40    3.80
   4   2  -8    4.00    3.40
   4   2  -8    5.70    2.90
  -4  -2   8    5.00    3.90
  -4  -2   8    3.50    2.40
  -4  -2   8    1.10    3.40
  -4  -2   8    6.90    3.70
   3   2  -8    2.20    2.50
   3   2  -8    1.80    2.60
   3   2  -8   27.70    7.00
   3   2  -8    5.90    2.90
   3   2  -8   -0.90    3.30
  -3  -2   8    3.20    2.60
  -3  -2   8    3.10    2.50
  -3  -2   8    0.90    1.60
  -3  -2   8    4.70    2.90
  -3  -2   8    2.90    3.50
   2   2  -8  309.37   20.90
   2   2  -8  320.27   22.80
   2   2  -8  326.17   16.60
   2   2  -8  322.87   14.90
   2   2  -8  345.17   21.90
   2   2  -8  360.76   20.60
  -2  -2   8  320.27   19.80
  -2  -2   8  299.07   20.40
  -2  -2   8  332.57   20.60
  -2  -2   8  321.27   21.10
   1   2  -8 2141.79   71.99
   1   2  -8 2114.69   54.39
   1   2  -8 2151.88   65.99
   1   2  -8 2124.19   66.59
  -1  -2   8 2106.09   67.79
  -1  -2   8 2005.80   77.79
  -1  -2   8 2098.39   68.99
  -1  -2   8 2072.49   65.09
  -1  -2   8 2075.09   65.49
  -1  -2   8 2142.39   71.49
   0   2  -8 2295.17   60.19
   0   2  -8 2319.37   77.89
   0   2  -8 2393.86   72.59
   0  -2   8 2342.97   74.59
   0  -2   8 2264.87   70.99
   0  -2   8 2374.96   79.39
   0  -2   8 2240.28   70.89
   0  -2   8 2360.96   71.49
  -1   2  -8  102.39   12.40
  -1   2  -8   90.89    8.90
  -1   2  -8   93.79   17.30
   1  -2   8  106.39   13.50
   1  -2   8  113.19   13.10
   1  -2   8   76.69   14.30
   1  -2   8  118.59   14.10
   1  -2   8  114.99   14.30
  -2   2  -8  341.77   26.90
  -2   2  -8  290.07   21.50
  -2   2  -8  320.17   17.90
   2  -2   8  301.67   16.10
   2  -2   8  329.37   24.70
   2  -2   8  346.47   27.10
   2  -2   8  288.47   24.10
   2  -2   8  317.57   24.40
  -3   2  -8  100.19   13.00
  -3   2  -8  106.79   10.80
  -3   2  -8   93.99   17.00
   3  -2   8   87.29   14.80
   3  -2   8   90.19   11.70
   3  -2   8   87.89   14.20
   3  -2   8   91.79   15.70
   3  -2   8  100.19   19.30
  -4   2  -8  255.97   17.90
  -4   2  -8  297.37   26.70
  -4   2  -8  270.47   21.90
   4  -2   8  240.78   23.40
   4  -2   8  261.57   23.30
   4  -2   8  264.17   23.10
   7   1  -8   18.80    6.70
   7   1  -8   18.80    6.40
   7   1  -8    5.40    6.20
   7   1  -8   11.70    5.70
  -7  -1   8    8.90    7.50
  -7  -1   8   12.80    5.80
   6   1  -8  234.68   18.70
   6   1  -8  243.28   20.30
   6   1  -8  242.08   19.60
  -6  -1   8  216.58   18.20
  -6  -1   8  203.38   18.10
  -6  -1   8  246.48   18.50
   5   1  -8  326.37   26.50
   5   1  -8  289.77   18.60
   5   1  -8  320.47   22.30
   5   1  -8  317.57   20.60
  -5  -1   8  330.97   21.80
  -5  -1   8  301.57   20.30
  -5  -1   8  312.07   21.10
   4   1  -8 1821.22   61.39
   4   1  -8 1865.51   60.09
   4   1  -8 1747.53   61.69
   4   1  -8 1728.13   52.29
  -4  -1   8 1721.63   57.49
  -4  -1   8 1810.12   59.09
  -4  -1   8 1866.01   59.99
  -4  -1   8 1877.21   59.29
   3   1  -8   16.40    5.50
   3   1  -8   16.00    6.10
   3   1  -8   13.40    5.00
   3   1  -8   11.90    3.30
  -3  -1   8   15.20    5.40
  -3  -1   8   20.80    6.00
  -3  -1   8   13.70    4.80
  -3  -1   8   10.90    4.50
  -3  -1   8   12.20    4.10
   2   1  -8 1120.49   43.50
   2   1  -8 1211.18   44.80
   2   1  -8 1170.18   30.90
   2   1  -8 1142.69   46.90
   2   1  -8 1127.39   31.50
  -2  -1   8 1158.28   42.70
  -2  -1   8 1150.28   44.30
  -2  -1   8 1163.68   45.30
  -2  -1   8 1150.58   42.60
   1   1  -8  273.47   20.90
   1   1  -8  240.88   18.20
  -1  -1   8  264.87   20.00
  -1  -1   8  277.17   18.50
  -1  -1   8  264.77   19.40
  -1  -1   8  269.57   20.20
  -1  -1   8  284.17   18.80
   0   1  -8   25.00    3.90
   0   1  -8   28.40    7.80
   0   1  -8   27.50    6.80
   0  -1   8   17.20    6.10
   0  -1   8   26.90    6.50
  -1   1  -8    8.50    4.30
  -1   1  -8    8.70    4.90
  -1   1  -8   11.90    3.30
   1  -1   8   12.70    5.40
   1  -1   8    7.80    4.60
   1  -1   8    6.00    4.50
   1  -1   8    4.20    2.90
   1  -1   8   12.70    6.00
  -2   1  -8  778.92   36.70
  -2   1  -8  784.82   28.50
  -2   1  -8  734.63   41.20
   2  -1   8  733.53   26.20
   2  -1   8  799.52   39.60
   2  -1   8  784.12   42.40
   2  -1   8  821.52   43.30
   2  -1   8  814.92   40.60
  -3   1  -8  917.11   34.20
  -3   1  -8  878.61   47.60
  -3   1  -8  965.80   42.30
   3  -1   8  877.51   32.40
   3  -1   8  930.41   47.00
   3  -1   8  905.21   44.60
   3  -1   8 1006.80   46.50
   3  -1   8  990.20   49.20
   7   0  -8   42.90   10.60
   7   0  -8   63.09   10.90
   7   0  -8   46.10    9.60
  -7   0   8   64.39   11.40
  -7   0   8   75.09   12.00
  -7   0   8   54.49   11.50
   6   0  -8  457.35   26.00
   6   0  -8  434.86   26.70
   6   0  -8  408.36   27.80
  -6   0   8  420.76   24.20
  -6   0   8  407.86   25.50
  -6   0   8  408.26   25.10
   5   0  -8  449.26   22.30
   5   0  -8  431.16   26.20
   5   0  -8  450.15   25.00
   5   0  -8  461.45   28.20
  -5   0   8  453.35   24.90
  -5   0   8  447.06   24.50
  -5   0   8  475.65   25.80
  -5   0   8  444.86   25.10
   4   0  -8   14.60    5.00
   4   0  -8    4.10    2.80
   4   0  -8    6.40    3.80
   4   0  -8   12.60    5.10
  -4   0   8    7.10    3.60
  -4   0   8    4.30    3.70
  -4   0   8   11.10    4.40
  -4   0   8   15.40    4.90
   3   0  -8  849.72   35.20
   3   0  -8  801.22   36.80
   3   0  -8  846.52   22.20
   3   0  -8  828.82   38.10
  -3   0   8  881.61   35.70
  -3   0   8  821.32   34.80
  -3   0   8  800.32   33.40
  -3   0   8  654.03   68.89
   2   0  -8  520.35   28.50
   2   0  -8  557.94   27.20
   2   0  -8  515.45   28.80
  -2   0   8  496.85   26.40
  -2   0   8  508.05   25.40
  -2   0   8  536.65   27.50
  -2   0   8  536.55   26.20
   1   0  -8  265.27   18.10
   1   0  -8  239.68   19.30
  -1   0   8  251.27   17.50
  -1   0   8  245.48   18.10
  -1   0   8  270.27   30.10
   0   0  -8   10.00    4.30
   0   0  -8   -5.30    2.80
   0   0   8    3.00    3.50
   0   0   8    3.30    3.90
   0   0   8    7.30    4.20
  -1   0  -8 1378.06   50.49
  -1   0  -8 1378.56   56.79
   1   0   8 1420.66   54.89
   1   0   8 1461.35   57.89
   1   0   8 1384.06   61.39
   1   0   8 1357.96   52.59
   1   0   8 1277.67   48.60
  -2   0  -8  227.78   22.30
  -2   0  -8  207.18   17.80
   2   0   8  210.88   19.30
   2   0   8  232.58   11.50
   2   0   8  199.98   21.20
   2   0   8  213.38   20.50
   2   0   8  203.18   17.20
  -3   0  -8    5.30    6.30
  -3   0  -8    4.80    4.00
  -3   0  -8    5.20    3.80
   3   0   8    6.90    6.60
   3   0   8    2.50    4.00
   7  -1  -8  181.98   19.50
   7  -1  -8  182.88   16.30
   7  -1  -8  171.28   16.30
  -7   1   8  188.48   15.60
  -7   1   8  184.38   17.20
   6  -1  -8  435.56   26.40
   6  -1  -8  492.45   26.30
   6  -1  -8  498.15   31.00
   6  -1  -8  476.75   23.80
  -6   1   8  456.35   26.50
  -6   1   8  479.35   26.10
  -6   1   8  467.45   25.10
  -6   1   8  426.66   25.00
   5  -1  -8   -0.30    3.10
   5  -1  -8   12.20    3.70
   5  -1  -8    9.20    4.60
   5  -1  -8    7.20    3.70
  -5   1   8   11.80    4.20
  -5   1   8    6.10    3.70
  -5   1   8    7.80    4.50
  -5   1   8    6.00    3.20
   4  -1  -8 1073.29   29.70
   4  -1  -8 1110.99   47.00
   4  -1  -8 1102.89   43.30
   4  -1  -8 1087.79   40.70
  -4   1   8  839.12   94.99
  -4   1   8 1049.20   40.30
  -4   1   8 1083.29   39.80
  -4   1   8 1053.79   39.20
  -4   1   8 1089.19   40.50
   3  -1  -8  539.85   26.40
   3  -1  -8  531.85   28.30
   3  -1  -8  547.45   30.90
  -3   1   8  537.65   25.40
  -3   1   8  550.04   26.80
  -3   1   8  490.45   24.60
  -3   1   8  481.15   54.79
  -3   1   8  567.24   26.80
   2  -1  -8  208.28   17.00
   2  -1  -8  205.18   15.20
  -2   1   8  181.48   14.30
  -2   1   8  233.08   16.40
  -2   1   8  205.38   16.20
  -2   1   8  172.18   13.90
   1  -1  -8  261.87   19.50
  -1   1   8  231.38   17.10
  -1   1   8  240.58   16.30
  -1   1   8  226.38   19.00
   0  -1  -8 1011.70   39.70
   0  -1  -8 1028.50   44.50
   0   1   8  978.90   41.80
   0   1   8  958.20   40.00
   0   1   8  996.70   43.80
   0   1   8  952.90   37.70
  -1  -1  -8  338.67   21.60
  -1  -1  -8  306.17   23.80
   1   1   8  322.57   20.90
   1   1   8  350.56   28.70
   1   1   8  308.37   21.70
   1   1   8  351.46   25.70
   1   1   8  356.16   24.00
  -2  -1  -8   85.39   13.30
  -2  -1  -8  104.19   14.10
   2   1   8   96.29   16.60
   2   1   8  103.19   12.30
   2   1   8   77.99   11.90
   2   1   8   88.89    6.20
   2   1   8   64.49   11.80
   2   1   8  102.99   13.10
   7  -2  -8  585.34   29.40
   7  -2  -8  477.15   33.10
   7  -2  -8  653.33   37.60
  -7   2   8  600.94   28.80
  -7   2   8  565.64   29.40
   6  -2  -8   50.89    9.70
   6  -2  -8   29.90    9.30
   6  -2  -8   47.80    8.80
  -6   2   8   49.10    8.60
  -6   2   8   43.80   12.80
  -6   2   8   45.10    8.60
  -6   2   8   39.00    8.20
   5  -2  -8   21.40    6.70
   5  -2  -8   19.10    5.90
   5  -2  -8   17.70    3.60
   5  -2  -8    9.40    3.90
  -5   2   8   13.50   30.00
  -5   2   8   16.90    4.50
  -5   2   8   16.00    4.90
  -5   2   8    9.80    5.20
  -5   2   8    9.40    3.70
   4  -2  -8   44.20    7.90
   4  -2  -8   33.00    8.20
  -4   2   8   36.70    7.40
  -4   2   8   23.30   26.30
  -4   2   8   34.90    7.00
  -4   2   8   32.70    6.70
  -4   2   8   37.60    7.20
   3  -2  -8   18.30    5.40
   3  -2  -8   20.50    6.20
   3  -2  -8   13.90    5.70
  -3   2   8   21.40    5.40
  -3   2   8   13.60    4.60
  -3   2   8   20.30    4.70
  -3   2   8   25.10    6.50
  -3   2   8   -2.40   13.00
   2  -2  -8   49.99    8.70
   2  -2  -8   51.69    9.10
  -2   2   8   59.59    7.70
  -2   2   8   45.80    7.90
  -2   2   8   57.59    9.90
   1  -2  -8 1663.93   58.49
   1  -2  -8 1755.32   55.09
  -1   2   8 1657.83   52.89
  -1   2   8 1808.72   57.99
  -1   2   8 1814.12   55.89
   0  -2  -8  132.59   12.90
   0  -2  -8  118.89   13.70
   0   2   8  135.69   22.00
   0   2   8  134.59   13.50
   0   2   8  117.79   14.00
   0   2   8  108.59   10.80
  -1  -2  -8   10.20    5.40
  -1  -2  -8   17.80    6.80
   1   2   8   12.20    4.80
   1   2   8   12.60    5.80
   1   2   8   23.10    7.60
   1   2   8   13.60    5.00
   1   2   8    8.10    4.50
   6  -3  -8   19.80    6.40
  -6   3   8   11.90    4.70
  -6   3   8    4.40    4.80
  -6   3   8   10.70    4.10
   5  -3  -8  393.96   23.00
   5  -3  -8  434.56   22.60
   5  -3  -8  425.26   29.10
  -5   3   8  456.55   22.00
  -5   3   8  395.06   21.40
  -5   3   8  377.56   25.90
  -5   3   8  437.06   21.70
   4  -3  -8  947.61   35.20
   4  -3  -8  912.51   37.00
   4  -3  -8  929.71   44.60
  -4   3   8  961.00   98.09
  -4   3   8  965.30   36.00
  -4   3   8  970.50   34.50
  -4   3   8  930.81   34.60
  -4   3   8  895.81   33.40
   3  -3  -8  855.71   35.20
   3  -3  -8  864.61   41.60
   3  -3  -8  883.91   33.00
  -3   3   8  841.72   31.80
  -3   3   8  826.72   73.69
  -3   3   8  906.41   32.80
  -3   3   8  878.71   35.10
  -3   3   8  832.32   30.90
   2  -3  -8   17.00    5.30
   2  -3  -8    4.50    4.10
  -2   3   8    8.90    3.60
  -2   3   8    6.70    3.30
  -2   3   8    8.90    3.90
  -2   3   8    3.00    3.10
   1  -3  -8   21.30    5.00
   1  -3  -8   13.30    5.90
  -1   3   8   16.80    5.40
  -1   3   8   29.10    8.80
  -1   3   8   11.80    4.80
  -1   3   8   14.90    5.60
  -1   3   8   24.00    5.00
   0  -3  -8   31.10    6.20
   0  -3  -8   19.30    7.70
   0   3   8   17.60    4.70
   0   3   8   10.60    5.30
   0   3   8   19.70    5.00
   0   3   8   14.60    7.80
   0   3   8   19.50    5.80
   5  -4  -8   18.80    7.80
   5  -4  -8   32.30    6.30
  -5   4   8   20.70    5.70
  -5   4   8   25.50    5.30
  -5   4   8   11.40    5.30
   4  -4  -8   39.60    7.10
   4  -4  -8   46.90   10.90
   4  -4  -8   29.30    8.30
  -4   4   8   48.60    8.20
  -4   4   8   66.79    7.80
  -4   4   8   48.70    6.30
  -4   4   8   63.39    7.50
   3  -4  -8  556.84   25.50
   3  -4  -8  541.25   22.90
  -3   4   8  505.65   21.30
  -3   4   8  499.15   22.20
  -3   4   8  596.74   62.49
  -3   4   8  560.44   26.80
   2  -4  -8   74.69    8.20
   2  -4  -8   83.99   12.70
  -2   4   8   86.39    7.80
  -2   4   8   86.79    9.70
  -2   4   8   94.49    9.30
  -2   4   8  102.29   18.70
  -2   4   8  106.39   10.70
  -1   4   8   94.59    9.80
  -1   4   8   95.09   17.80
  -1   4   8  121.79   22.80
   2   9  -9  109.09   13.10
   2   9  -9  122.89   13.40
   2   9  -9  112.09   14.60
  -2  -9   9  117.19   13.40
  -2  -9   9  114.09   48.90
   1   9  -9  101.49   18.90
   1   9  -9   98.69   13.20
  -1  -9   9   94.89   15.50
  -1  -9   9  107.59   49.10
  -1  -9   9  102.99   13.30
   0   9  -9   -3.90    3.60
   0   9  -9    0.00    3.70
   0  -9   9  -10.30    4.70
   0  -9   9   13.60    5.60
   0  -9   9  -10.20   29.90
  -1   9  -9   95.39   14.40
  -1   9  -9   84.79   17.00
  -2   9  -9  401.26   30.20
  -2   9  -9  427.46   26.60
  -2   9  -9  394.66   27.50
   2  -9   9  449.56   30.90
   2  -9   9  383.96   32.10
   3   8  -9   -2.00    3.00
   3   8  -9   -3.30    3.70
  -3  -8   9    1.20    3.40
  -3  -8   9   14.80   23.30
  -3  -8   9    2.80    4.20
   2   8  -9    6.50    4.00
   2   8  -9    9.30    5.00
   2   8  -9   -9.00    4.50
   2   8  -9    5.80    4.10
  -2  -8   9   11.00    4.90
  -2  -8   9   -3.90    3.30
  -2  -8   9   19.30   20.10
   1   8  -9    3.60    4.10
   1   8  -9    5.90    4.00
   1   8  -9   12.10    5.30
   1   8  -9    3.00    3.50
  -1  -8   9    3.90    4.60
  -1  -8   9    9.10    4.80
  -1  -8   9    5.20    3.70
  -1  -8   9   10.10   23.90
   0   8  -9 1851.61   63.09
   0   8  -9 1754.92   62.19
   0   8  -9 1878.61   69.99
   0   8  -9 1857.91   62.49
   0  -8   9 1728.93   52.29
   0  -8   9 1802.12   68.29
   0  -8   9 1524.75  146.99
   0  -8   9 1908.61   62.79
  -1   8  -9  261.57   20.80
  -1   8  -9  274.77   23.70
  -1   8  -9  271.57   20.70
  -1   8  -9  235.18   19.30
   1  -8   9  277.77   30.40
   1  -8   9  247.38   14.00
  -2   8  -9   -0.20    4.00
  -2   8  -9    9.60    6.10
  -2   8  -9    4.00    4.80
  -2   8  -9   16.20    5.40
   2  -8   9    9.20    8.00
   2  -8   9   12.60    3.80
   2  -8   9    9.60    6.20
  -3   8  -9   30.40    8.60
  -3   8  -9   42.80   10.10
  -3   8  -9   30.10   10.20
   3  -8   9   49.00   10.40
   3  -8   9   29.80   11.40
   4   7  -9  328.87   23.50
   4   7  -9  323.87   25.20
   4   7  -9  338.57   23.20
  -4  -7   9  327.67   22.60
  -4  -7   9  313.07   63.99
  -4  -7   9  282.77   21.30
   3   7  -9  820.12   41.30
   3   7  -9  883.81   43.50
   3   7  -9  924.11   40.90
   3   7  -9  903.11   38.30
  -3  -7   9  826.92   38.80
  -3  -7   9  799.42  100.69
  -3  -7   9  894.11   38.70
   2   7  -9  688.13   34.20
   2   7  -9  635.24   34.10
   2   7  -9  672.63   32.40
   2   7  -9  667.33   36.80
  -2  -7   9  673.63   93.39
  -2  -7   9  653.23   32.40
  -2  -7   9  592.44   32.20
   1   7  -9   42.80    8.90
   1   7  -9   55.29   11.10
   1   7  -9   54.89   11.30
   1   7  -9   65.89   10.90
  -1  -7   9   51.99    9.00
  -1  -7   9   47.10   10.50
  -1  -7   9   41.50    8.80
  -1  -7   9   38.60   25.00
   0   7  -9  141.49   14.20
   0   7  -9  147.19   15.20
   0   7  -9  158.08   17.20
   0   7  -9  141.59   14.90
   0  -7   9  164.78   15.70
   0  -7   9  156.08   17.50
  -1   7  -9  285.87   24.40
  -1   7  -9  267.87   21.20
  -1   7  -9  267.27   20.40
  -1   7  -9  287.27   20.70
   1  -7   9  264.07   16.00
   1  -7   9  265.57   24.80
  -2   7  -9  148.89   15.80
  -2   7  -9  167.98   19.20
  -2   7  -9  163.88   33.90
  -2   7  -9  150.78   18.70
  -2   7  -9  162.78   15.60
   2  -7   9  148.49   10.90
   2  -7   9  134.49   12.60
   2  -7   9  137.39   16.40
   2  -7   9  154.68   18.90
  -3   7  -9  922.41   42.30
  -3   7  -9  952.80   50.49
   3  -7   9  962.90   47.90
   3  -7   9  968.90   33.20
   3  -7   9  996.40   50.79
   5   6  -9  553.24   33.70
   5   6  -9  548.45   31.40
   5   6  -9  560.54   31.70
  -5  -6   9  570.84   31.20
  -5  -6   9  571.04   31.70
  -5  -6   9  653.23   88.49
   4   6  -9    1.30    3.90
   4   6  -9    1.50    6.90
   4   6  -9   -0.70    3.40
   4   6  -9    6.20    4.10
  -4  -6   9    1.90   10.40
  -4  -6   9   -2.80    2.90
  -4  -6   9    5.80    3.90
   3   6  -9   89.69   14.70
   3   6  -9   61.79   11.00
   3   6  -9   92.29   15.00
  -3  -6   9   79.59   34.80
  -3  -6   9   83.59   10.90
  -3  -6   9  105.19   12.40
   2   6  -9  947.51   45.00
   2   6  -9  935.41   37.80
   2   6  -9  940.21   41.30
   2   6  -9  949.21   42.00
  -2  -6   9  898.91   40.70
  -2  -6   9  957.30   40.20
  -2  -6   9  826.02   94.29
   1   6  -9  141.99   16.40
   1   6  -9  167.08   15.60
   1   6  -9  158.38   15.50
   1   6  -9  149.09   17.30
  -1  -6   9  155.08   14.00
  -1  -6   9  170.48   15.50
  -1  -6   9  158.08   47.10
  -1  -6   9  149.88   15.80
   0   6  -9  304.67   22.50
   0   6  -9  286.77   20.90
   0   6  -9  353.46   21.50
   0   6  -9  318.17   26.00
   0  -6   9  324.47   19.60
   0  -6   9  314.17   22.10
   0  -6   9  344.67   25.70
  -1   6  -9  726.43   36.60
  -1   6  -9  807.82   35.80
  -1   6  -9  756.62   41.80
  -1   6  -9  781.92   36.70
   1  -6   9  796.52   45.00
  -2   6  -9  146.49   18.40
  -2   6  -9  175.28   28.80
  -2   6  -9  153.88   15.50
  -2   6  -9  141.29   15.20
  -2   6  -9  146.79   15.00
   2  -6   9  175.68   14.90
   2  -6   9  113.09   11.40
   2  -6   9  161.28   17.10
   2  -6   9  166.88   19.00
  -3   6  -9  234.68   18.90
  -3   6  -9  236.58   40.00
  -3   6  -9  170.28   20.40
  -3   6  -9  189.98   17.80
   3  -6   9  182.88   21.40
   3  -6   9  184.38   19.60
   3  -6   9  194.48   14.60
   3  -6   9  199.18   16.10
   5   5  -9  261.87   22.00
   5   5  -9  253.17   16.90
   5   5  -9  251.07   20.40
   5   5  -9  247.48   20.00
  -5  -5   9  239.08   19.80
  -5  -5   9  206.98   18.20
   4   5  -9  307.07   21.50
   4   5  -9  323.27   22.50
   4   5  -9  319.07   17.50
   4   5  -9  331.37   24.40
   4   5  -9  316.47   24.20
  -4  -5   9  357.36   58.79
  -4  -5   9  294.57   21.40
  -4  -5   9  291.87   21.40
   3   5  -9  640.34   36.30
   3   5  -9  607.04   33.90
   3   5  -9  645.34   33.30
   3   5  -9  652.03   24.40
  -3  -5   9  657.83   75.39
  -3  -5   9  653.93   32.90
  -3  -5   9  676.43   32.70
   2   5  -9  712.13   30.10
   2   5  -9  734.63   38.30
   2   5  -9  716.63   38.80
   2   5  -9  667.93   33.70
  -2  -5   9  696.43   34.40
  -2  -5   9  615.14   71.29
  -2  -5   9  638.04   32.20
   1   5  -9    5.90    3.50
   1   5  -9   -0.80    3.90
   1   5  -9    5.80    4.00
   1   5  -9    0.70    2.80
  -1  -5   9   -1.20    2.50
  -1  -5   9   -2.90    2.50
  -1  -5   9   -8.70   10.30
   0   5  -9   35.60    8.70
   0   5  -9   31.10    6.70
   0   5  -9   30.60    8.10
   0   5  -9   32.40    9.70
   0  -5   9   46.20   10.80
   0  -5   9   28.90    8.10
   0  -5   9   30.50    5.90
   0  -5   9   33.60    7.90
  -1   5  -9 1756.22   57.29
  -1   5  -9 1854.21   70.89
  -1   5  -9 1788.62   61.59
  -1   5  -9 1756.72   62.99
   1  -5   9 1799.02   57.89
   1  -5   9 1802.92   55.09
  -2   5  -9   16.10    7.70
  -2   5  -9    7.90    5.10
  -2   5  -9    7.30    4.60
   2  -5   9   34.90    7.80
   2  -5   9    9.70    5.90
   2  -5   9   12.20    6.30
   2  -5   9   14.50    6.70
   2  -5   9    9.80    5.70
  -3   5  -9   47.80   10.50
  -3   5  -9   73.59   12.10
  -3   5  -9   54.09   13.80
  -3   5  -9   40.00   22.20
   3  -5   9   83.29   16.30
   3  -5   9   55.29   10.50
   3  -5   9   64.59   13.40
   6   4  -9   74.89   12.10
   6   4  -9   85.99   14.00
   6   4  -9   67.29   12.00
   6   4  -9   74.19   12.80
  -6  -4   9   76.29   12.80
  -6  -4   9   68.79   11.80
   5   4  -9   37.90    9.10
   5   4  -9   31.20    8.20
   5   4  -9   43.20   10.10
   5   4  -9   37.20    7.90
  -5  -4   9   33.90    7.70
  -5  -4   9   35.60    8.60
   4   4  -9   -2.90    2.60
   4   4  -9    5.90    3.50
   4   4  -9    4.20    3.60
  -4  -4   9    1.80    3.30
  -4  -4   9    1.10    2.90
   3   4  -9   27.70    6.40
   3   4  -9   17.00    6.00
   3   4  -9   23.80    5.80
   3   4  -9   20.40    7.20
   3   4  -9   28.40    7.10
  -3  -4   9   21.50    7.70
  -3  -4   9   18.20   13.80
  -3  -4   9   22.00    6.00
  -3  -4   9   21.90    6.80
   2   4  -9  139.19   15.70
   2   4  -9  123.29   10.60
   2   4  -9   93.89   16.10
   2   4  -9  117.89   13.30
  -2  -4   9  130.09   29.10
  -2  -4   9  127.29   13.90
  -2  -4   9  138.09   10.50
  -2  -4   9  143.99   14.50
   1   4  -9 2023.50   66.39
   1   4  -9 1851.91   63.89
   1   4  -9 1997.00   71.79
   1   4  -9 1977.50   56.99
  -1  -4   9 1992.80   66.89
  -1  -4   9 1838.22   77.19
  -1  -4   9 2030.30   58.19
  -1  -4   9 1973.40   68.59
   0   4  -9  463.25   30.70
   0   4  -9  425.66   28.00
   0   4  -9  410.86   21.20
   0  -4   9  428.96   25.80
   0  -4   9  422.76   29.60
   0  -4   9  448.06   23.20
   0  -4   9  421.26   27.30
  -1   4  -9   57.29   12.10
  -1   4  -9   96.89   10.20
  -1   4  -9  100.19   12.50
   1  -4   9   79.69   14.10
   1  -4   9   87.69   14.20
   1  -4   9   71.99   11.40
  -2   4  -9   40.70   10.60
  -2   4  -9   34.00    8.40
  -2   4  -9   41.60    8.00
   2  -4   9   45.80   10.40
   2  -4   9   34.50    9.30
   2  -4   9   39.90   10.90
  -3   4  -9   11.50    5.00
  -3   4  -9   20.00    7.40
  -3   4  -9   13.60    5.70
   3  -4   9    6.70    5.10
   3  -4   9   25.80    8.90
   3  -4   9   25.00    8.30
   6   3  -9  112.59   14.90
   6   3  -9  121.09   13.90
   6   3  -9  124.79   15.30
   6   3  -9  137.49   13.80
  -6  -3   9  134.99   14.40
  -6  -3   9  127.29   14.20
   5   3  -9   51.99   10.40
   5   3  -9   63.29   11.60
   5   3  -9   73.39   11.70
  -5  -3   9   47.70    9.80
  -5  -3   9   51.19    9.60
   4   3  -9 1406.96   47.90
   4   3  -9 1349.66   48.50
   4   3  -9 1457.95   52.79
   4   3  -9 1354.26   54.59
  -4  -3   9 1391.96   50.89
  -4  -3   9 1319.47   50.69
  -4  -3   9 1344.67   50.79
   3   3  -9    8.50    4.70
   3   3  -9    3.90    3.80
   3   3  -9   11.70    5.40
   3   3  -9   14.30    4.40
  -3  -3   9   13.10    6.50
  -3  -3   9   21.70   11.90
   2   3  -9  393.76   24.60
   2   3  -9  363.76   17.50
   2   3  -9  394.26   26.90
  -2  -3   9  375.76   23.90
  -2  -3   9  358.26   20.80
  -2  -3   9  401.56   24.90
  -2  -3   9  397.36   23.70
   1   3  -9   14.00    5.00
   1   3  -9   15.40    3.80
   1   3  -9    8.10    3.40
  -1  -3   9   10.10    3.90
  -1  -3   9   19.30    7.20
  -1  -3   9   13.60    5.40
  -1  -3   9   17.20    6.70
   0   3  -9   24.40    5.20
   0   3  -9   13.70    5.80
   0   3  -9   25.70    7.10
   0  -3   9   20.30    7.20
   0  -3   9   14.90    5.50
   0  -3   9   18.10    6.40
   0  -3   9   14.90    6.60
  -1   3  -9    8.00    7.00
  -1   3  -9    7.10    3.60
   1  -3   9   11.30    5.10
   1  -3   9    4.30    4.80
   1  -3   9   10.50    4.80
  -2   3  -9 1916.91   66.79
  -2   3  -9 1989.80   58.69
  -2   3  -9 1782.12   72.79
   2  -3   9 1982.40   72.09
   2  -3   9 2013.70   75.69
   2  -3   9 1834.02   69.89
   2  -3   9 1956.70   71.69
  -3   3  -9  249.18   20.80
  -3   3  -9  266.17   25.80
  -3   3  -9  250.37   17.20
   3  -3   9  272.37   22.60
   3  -3   9  239.58   23.80
   3  -3   9  244.58   21.80
   6   2  -9  932.41   41.40
   6   2  -9 1004.00   45.10
   6   2  -9  958.70   42.80
  -6  -2   9  951.40   41.20
  -6  -2   9  956.30   42.20
   5   2  -9  355.96   28.90
   5   2  -9  384.66   26.20
   5   2  -9  404.16   24.90
  -5  -2   9  400.36   24.40
  -5  -2   9  403.66   25.10
  -5  -2   9  423.76   25.20
   4   2  -9  241.18   18.30
   4   2  -9  217.58   15.00
   4   2  -9  221.98   19.60
   4   2  -9  208.98   17.40
  -4  -2   9  244.78   18.20
  -4  -2   9  213.18   17.70
  -4  -2   9  234.18   17.80
   3   2  -9  819.12   35.60
   3   2  -9  788.32   36.60
   3   2  -9  809.82   29.20
   3   2  -9  832.82   40.00
  -3  -2   9  815.82   34.80
  -3  -2   9  824.12   36.90
  -3  -2   9  849.61   36.40
  -3  -2   9  809.02   36.80
   2   2  -9  306.27   23.10
   2   2  -9  292.87   14.70
   2   2  -9  290.87   20.60
   2   2  -9  305.37   13.90
  -2  -2   9  289.97   20.60
  -2  -2   9  284.97   19.80
  -2  -2   9  311.37   21.50
  -2  -2   9  278.87   19.40
  -2  -2   9  277.47   19.40
   1   2  -9  352.96   30.60
   1   2  -9  397.86   24.60
   1   2  -9  376.56   16.10
  -1  -2   9  360.26   23.00
  -1  -2   9  363.26   23.40
  -1  -2   9  388.06   25.90
  -1  -2   9  391.56   23.60
  -1  -2   9  401.26   25.10
   0   2  -9  141.69    9.60
   0   2  -9  169.78   17.80
   0   2  -9  153.68   15.30
   0  -2   9  156.38   15.90
   0  -2   9  151.18   17.10
  -1   2  -9  590.44   36.10
  -1   2  -9  577.94   23.30
  -1   2  -9  579.64   31.70
   1  -2   9  567.24   32.80
   1  -2   9  638.54   38.90
   1  -2   9  637.74   35.00
   1  -2   9  675.03   37.70
  -2   2  -9    5.70    4.40
  -2   2  -9    9.50    6.60
  -2   2  -9   11.70    4.60
   2  -2   9   22.90    8.60
   2  -2   9    2.60    6.40
   2  -2   9   13.60    8.30
   2  -2   9   18.20    7.60
  -3   2  -9   50.89   10.20
  -3   2  -9   52.09   11.40
  -3   2  -9   61.99    9.20
   3  -2   9   72.79   15.40
   3  -2   9   79.49   14.10
   3  -2   9   47.10   11.00
   6   1  -9  474.25   29.40
   6   1  -9  477.25   27.50
   6   1  -9  437.86   28.20
  -6  -1   9  504.45   27.30
  -6  -1   9  485.25   27.80
  -6  -1   9  478.75   28.10
   5   1  -9  195.68   18.70
   5   1  -9  208.88   18.10
   5   1  -9  241.68   16.20
   5   1  -9  246.98   18.80
  -5  -1   9  211.48   17.50
  -5  -1   9  238.38   18.50
  -5  -1   9  236.38   17.70
   4   1  -9  254.07   14.50
   4   1  -9  225.48   17.70
   4   1  -9  253.37   29.50
  -4  -1   9  239.58   17.80
  -4  -1   9  223.38   17.00
  -4  -1   9  205.68   16.70
  -4  -1   9  243.08   19.00
   3   1  -9  543.25   28.50
   3   1  -9  570.74   29.70
   3   1  -9  532.65   22.90
   3   1  -9  577.74   18.50
   3   1  -9  521.25   30.20
  -3  -1   9  580.14   29.40
  -3  -1   9  573.24   28.40
  -3  -1   9  485.65   26.50
  -3  -1   9  531.85   28.20
   2   1  -9  914.61   39.50
   2   1  -9  990.30   44.30
  -2  -1   9 1007.20   41.30
  -2  -1   9  984.80   41.70
  -2  -1   9  919.21   38.70
  -2  -1   9 1013.10   39.70
   1   1  -9  177.48   15.50
   1   1  -9  157.98   16.80
  -1  -1   9  160.58   14.40
  -1  -1   9  149.29   14.90
  -1  -1   9  167.48   15.00
  -1  -1   9  158.38   16.70
   0   1  -9  724.33   38.80
   0   1  -9  741.73   34.80
   0  -1   9  744.73   36.00
   0  -1   9  750.62   41.50
   0  -1   9  696.23   35.90
   0  -1   9  663.83   32.80
  -1   1  -9  413.06   26.00
  -1   1  -9  455.55   16.60
  -1   1  -9  497.65   31.60
   1  -1   9  432.26   27.80
   1  -1   9  491.35   31.90
   1  -1   9  437.66   28.40
   1  -1   9  450.35   32.40
  -2   1  -9   52.99   10.50
  -2   1  -9   46.20   13.40
  -2   1  -9   50.59    6.80
   2  -1   9   43.60   11.60
   2  -1   9   57.29   11.70
   2  -1   9   50.09   11.50
   2  -1   9   57.19   11.40
   6   0  -9   39.00    9.90
   6   0  -9   34.90    9.40
  -6   0   9   23.40    7.50
  -6   0   9   25.10    6.80
  -6   0   9   30.00    6.80
   5   0  -9   31.80    9.10
   5   0  -9   36.50    6.50
   5   0  -9   20.30    7.20
   5   0  -9   24.80    7.00
  -5   0   9   26.50    6.50
  -5   0   9   42.10    8.30
  -5   0   9   21.20    6.50
   4   0  -9  343.17   24.00
   4   0  -9  367.86   24.30
   4   0  -9  378.56   22.90
  -4   0   9  356.36   30.50
  -4   0   9  392.36   22.50
  -4   0   9  290.57   49.40
  -4   0   9  348.87   21.60
  -4   0   9  365.26   21.70
   3   0  -9 1021.50   43.90
   3   0  -9 1000.10   43.50
   3   0  -9 1000.20   40.40
  -3   0   9  999.50   39.20
  -3   0   9  988.40   39.20
  -3   0   9 1066.09   41.90
  -3   0   9  993.80   40.40
   2   0  -9  573.94   31.60
   2   0  -9  589.94   29.20
  -2   0   9  592.14   30.70
  -2   0   9  569.34   29.20
  -2   0   9  519.55   26.90
  -2   0   9  591.34   28.40
   1   0  -9 1612.84   59.99
   1   0  -9 1618.54   55.59
  -1   0   9 1618.64   61.59
  -1   0   9 1593.24   53.89
  -1   0   9 1698.33   56.09
  -1   0   9 1611.74   56.69
   0   0  -9   43.80    9.10
   0   0  -9   41.00    9.10
   0   0   9   49.10    9.70
   0   0   9   23.40    6.90
   0   0   9   38.70   10.60
   0   0   9   27.10    7.60
   0   0   9   23.60    8.60
  -1   0  -9  148.69   14.70
  -1   0  -9  134.09   16.40
   1   0   9  149.09   15.60
   1   0   9  126.29   15.10
   1   0   9  176.38   19.80
   1   0   9  149.88   16.60
   1   0   9  122.59   13.90
  -2   0  -9    3.90    6.70
  -2   0  -9    1.10    4.90
   2   0   9   -5.40    2.90
   2   0   9    1.50    5.50
   6  -1  -9    5.30    3.90
   6  -1  -9   15.10    7.80
   6  -1  -9    5.70    5.40
  -6   1   9    4.50    3.30
  -6   1   9    2.00    4.10
   5  -1  -9 1245.68   48.40
   5  -1  -9 1202.28   34.70
   5  -1  -9 1243.48   45.80
   5  -1  -9 1245.08   52.09
  -5   1   9  925.61  110.89
  -5   1   9 1214.28   44.20
  -5   1   9 1251.37   45.60
  -5   1   9 1222.58   45.40
  -5   1   9 1171.48   44.10
   4  -1  -9  179.18   17.70
   4  -1  -9  146.69   14.70
   4  -1  -9  174.38   15.10
  -4   1   9  195.08   14.70
  -4   1   9  168.78   13.90
  -4   1   9  161.08   14.00
  -4   1   9  195.28   15.20
  -4   1   9  162.88   40.40
   3  -1  -9  258.47   18.10
   3  -1  -9  274.07   21.20
   3  -1  -9  277.87   20.60
  -3   1   9  289.67   18.00
  -3   1   9  276.97   18.00
  -3   1   9  259.27   17.90
  -3   1   9  244.88   18.00
   2  -1  -9    4.30    4.40
   2  -1  -9   17.10    5.60
  -2   1   9   16.10    4.90
  -2   1   9   15.00    4.80
  -2   1   9   30.60    7.50
  -2   1   9   14.90    5.00
   1  -1  -9  136.49   15.10
   1  -1  -9  143.49   13.60
  -1   1   9  121.49   14.90
  -1   1   9  130.29   12.60
  -1   1   9  127.59   13.50
  -1   1   9  155.78   14.20
   0  -1  -9   24.50    7.20
   0  -1  -9   31.40    7.50
   0   1   9   22.90    6.90
   0   1   9   17.30    6.10
   0   1   9   12.50    5.40
   0   1   9   15.60    8.70
   0   1   9   16.60    7.60
  -1  -1  -9  213.68   21.00
  -1  -1  -9  243.98   19.10
   1   1   9  299.57   27.20
   1   1   9  262.47   23.10
   1   1   9  259.87   22.30
   6  -2  -9  777.62   34.00
   6  -2  -9  743.43   40.50
  -6   2   9  705.93   31.60
  -6   2   9  822.52   34.30
   5  -2  -9   11.50    5.50
   5  -2  -9   15.50    6.80
   5  -2  -9    2.70    4.70
  -5   2   9   20.80   30.10
  -5   2   9   18.60    5.20
  -5   2   9    6.00    3.00
  -5   2   9    8.90    4.10
  -5   2   9    5.80    5.00
   4  -2  -9   59.99    9.70
   4  -2  -9   82.99   14.10
  -4   2   9   62.49    9.40
  -4   2   9   68.99    8.50
  -4   2   9   55.79    9.30
  -4   2   9   69.29   10.80
  -4   2   9   50.79   27.60
   3  -2  -9   89.39   10.90
   3  -2  -9   75.79   11.30
   3  -2  -9   84.69   14.90
  -3   2   9   69.09    9.50
  -3   2   9   65.09   18.70
  -3   2   9   87.29    9.40
  -3   2   9   79.69    9.20
  -3   2   9   82.99    9.50
   2  -2  -9  719.93   31.30
   2  -2  -9  734.23   34.40
  -2   2   9  668.63   29.00
  -2   2   9  710.93   32.50
  -2   2   9  732.13   35.80
   1  -2  -9   11.30    6.80
  -1   2   9    7.90    5.00
  -1   2   9   20.60    8.90
  -1   2   9   32.80    6.80
  -1   2   9   21.30    6.50
  -1   2   9    7.30    5.30
   0  -2  -9  913.51   36.60
   0   2   9  913.51   41.90
   0   2   9  881.01   38.80
   0   2   9  722.73   46.60
   0   2   9  818.92   48.10
   5  -3  -9   47.60   10.20
   5  -3  -9   75.79   13.10
  -5   3   9   68.19    8.90
  -5   3   9  100.09    9.90
   4  -3  -9  376.56   20.90
  -4   3   9  404.96   20.50
  -4   3   9  348.87   27.30
  -4   3   9  384.06   20.70
   3  -3  -9  466.05   23.50
  -3   3   9  485.35   23.00
  -3   3   9  476.45   30.30
  -3   3   9  511.45   30.30
   2  -3  -9   81.69    9.90
  -2   3   9   95.29   26.20
  -2   3   9   56.49    8.90
   1  -3  -9  124.69   12.90
  -1   3   9  134.89   12.10
  -1   3   9  128.79   13.00
  -1   3   9  154.38   14.60
  -1   3   9  115.99   21.70
   2   8 -10  344.97   26.80
   2   8 -10  303.27   22.40
   2   8 -10  344.27   22.30
  -2  -8  10  330.77   22.90
  -2  -8  10  345.97   24.20
  -2  -8  10  347.17   69.99
   1   8 -10  310.87   21.30
   1   8 -10  281.37   23.60
   1   8 -10  342.07   26.70
  -1  -8  10  286.47   59.29
  -1  -8  10  274.77   20.70
  -1  -8  10  300.47   23.60
   0   8 -10   19.30    6.50
   0   8 -10   18.70    5.70
   0   8 -10   23.30    7.00
   0  -8  10   17.00    6.80
   0  -8  10   28.50    9.10
   0  -8  10   10.10    4.90
  -1   8 -10  426.36   31.40
  -1   8 -10  474.35   29.10
  -1   8 -10  459.85   27.70
   1  -8  10  450.95   30.30
   3   7 -10  145.09   16.90
   3   7 -10  132.79   13.90
   3   7 -10  148.89   17.30
  -3  -7  10  121.79   13.80
  -3  -7  10  131.59   14.70
  -3  -7  10  120.19   46.00
   2   7 -10  478.95   28.50
   2   7 -10  428.76   24.60
   2   7 -10  450.45   30.90
   2   7 -10  457.45   29.60
  -2  -7  10  400.76   68.19
  -2  -7  10  503.45   28.20
  -2  -7  10  469.15   28.80
   1   7 -10    7.30    4.50
   1   7 -10   -1.80    5.30
   1   7 -10   10.40    6.70
  -1  -7  10    3.40    3.60
  -1  -7  10   25.80   18.30
  -1  -7  10    9.70    6.00
   0   7 -10   22.50    7.80
   0   7 -10   27.80    7.10
   0   7 -10   20.60    6.00
   0   7 -10   18.90    7.40
   0  -7  10   25.80    6.60
   0  -7  10   38.80   11.10
  -1   7 -10  367.56   25.50
  -1   7 -10  359.96   25.60
  -1   7 -10  447.06   32.20
  -1   7 -10  430.36   25.50
   1  -7  10  413.26   28.80
   1  -7  10  389.46   21.00
  -2   7 -10    5.40    5.10
  -2   7 -10    9.30    4.00
  -2   7 -10   18.50    7.20
   2  -7  10   -4.30    4.10
   2  -7  10    0.40    5.40
   2  -7  10   26.40    9.50
   4   6 -10  245.48   21.90
   4   6 -10  206.98   22.30
  -4  -6  10  259.97   20.20
  -4  -6  10  247.68   52.09
  -4  -6  10  236.78   19.70
   3   6 -10   15.80    6.20
   3   6 -10   26.20    6.20
   3   6 -10   15.80    5.40
  -3  -6  10    7.00    4.70
  -3  -6  10   24.40    7.00
  -3  -6  10   18.50   20.70
   2   6 -10  109.79   14.60
   2   6 -10   88.09   11.50
   2   6 -10   78.69   13.00
   2   6 -10   96.49   10.50
  -2  -6  10  108.69   12.60
  -2  -6  10   93.69   12.40
  -2  -6  10   77.19   30.60
   1   6 -10 1399.36   54.09
   1   6 -10 1374.36   53.79
   1   6 -10 1396.66   48.60
   1   6 -10 1373.86   59.29
  -1  -6  10 1372.46   56.59
  -1  -6  10 1430.06   53.09
   0   6 -10  423.66   30.50
   0   6 -10  378.16   25.50
   0   6 -10  411.66   23.30
   0  -6  10  379.66   24.80
   0  -6  10  390.86   29.70
  -1   6 -10   80.49   10.60
  -1   6 -10   75.49   15.40
  -1   6 -10   63.39   10.60
   1  -6  10   65.19   12.80
  -2   6 -10   10.60    5.20
  -2   6 -10   -1.10    5.60
  -2   6 -10   15.50    5.50
   2  -6  10   13.00    9.00
   2  -6  10   11.10    7.30
   2  -6  10   23.40    8.30
   2  -6  10   15.30    7.40
   5   5 -10  140.39   12.70
   5   5 -10  171.78   18.30
  -5  -5  10  184.98   45.30
  -5  -5  10  150.98   15.90
  -5  -5  10  147.89   15.10
   4   5 -10 1414.76   54.89
   4   5 -10 1454.35   59.09
   4   5 -10 1361.66   44.20
  -4  -5  10 1433.16  114.99
  -4  -5  10 1387.36   53.29
  -4  -5  10 1442.26   54.59
   3   5 -10  246.18   21.10
   3   5 -10  205.58   15.30
   3   5 -10  190.08   17.90
  -3  -5  10  203.18   18.00
  -3  -5  10  218.28   18.20
  -3  -5  10  201.48   40.90
   2   5 -10  131.99   11.40
   2   5 -10  132.09   15.90
   2   5 -10  123.49   14.20
  -2  -5  10  119.69   13.90
  -2  -5  10  135.89   14.10
  -2  -5  10  121.69    9.10
  -2  -5  10  130.89   31.30
   1   5 -10    3.00    3.10
   1   5 -10   10.40    4.10
   1   5 -10    1.30    3.10
  -1  -5  10    3.60    3.40
  -1  -5  10    3.30    3.40
   0   5 -10   45.50   10.30
   0   5 -10   41.00    8.00
   0   5 -10   46.40    9.80
   0  -5  10   32.40    9.30
   0  -5  10   75.49   12.50
   0  -5  10   59.39    9.70
  -1   5 -10    0.20    3.30
  -1   5 -10    2.20    3.60
   1  -5  10    2.20    5.10
   1  -5  10   18.60    6.10
  -2   5 -10 1151.38   49.30
  -2   5 -10 1183.98   56.69
  -2   5 -10 1194.58   44.60
   2  -5  10 1142.39   52.89
   2  -5  10 1171.78   56.29
   2  -5  10 1129.79   48.70
   5   4 -10   50.29    9.80
   5   4 -10   69.59   13.80
   5   4 -10   69.09   11.60
  -5  -4  10   56.69   10.20
  -5  -4  10   69.89   13.00
   4   4 -10   44.60   10.80
   4   4 -10   81.79   10.10
   4   4 -10   60.39   11.90
  -4  -4  10   62.19   24.80
  -4  -4  10   43.20    7.90
  -4  -4  10   51.39   10.50
   3   4 -10  301.87   22.50
   3   4 -10  274.07   23.10
   3   4 -10  308.37   17.90
  -3  -4  10  294.77   21.60
  -3  -4  10  268.27   20.30
   2   4 -10   46.70   10.20
   2   4 -10   80.39    8.00
   2   4 -10   53.59   10.20
  -2  -4  10   63.29   11.10
  -2  -4  10   82.19    9.20
  -2  -4  10   56.19   10.20
   1   4 -10 1094.09   46.10
   1   4 -10 1050.99   49.30
   1   4 -10 1064.59   36.80
  -1  -4  10 1041.70   44.10
  -1  -4  10 1018.20   45.70
  -1  -4  10 1112.79   49.10
   0   4 -10  297.97   25.10
   0   4 -10  308.57   18.00
   0   4 -10  295.07   21.90
   0  -4  10  298.97   25.90
   0  -4  10  273.07   19.90
   0  -4  10  311.47   22.30
  -1   4 -10  397.06   30.40
  -1   4 -10  406.06   27.20
  -1   4 -10  477.85   23.70
   1  -4  10  471.75   31.80
   1  -4  10  408.06   30.10
   1  -4  10  423.46   29.10
  -2   4 -10  142.99   15.30
  -2   4 -10  115.79   11.90
  -2   4 -10  125.19   20.40
   2  -4  10  128.89   15.50
   2  -4  10  103.39   17.10
   2  -4  10  124.49   15.60
   6   3 -10  101.29   14.90
   6   3 -10  132.09   14.40
   6   3 -10  162.18   17.60
  -6  -3  10  139.89   14.70
  -6  -3  10  121.69   13.90
   5   3 -10   18.10    5.70
   5   3 -10    6.80    4.90
   5   3 -10   -1.60    4.80
  -5  -3  10   17.70    6.10
  -5  -3  10    6.80    4.40
   4   3 -10  250.57   18.30
   4   3 -10  221.48   20.20
   4   3 -10  237.18   17.10
   4   3 -10  263.67   20.50
  -4  -3  10  263.77   19.30
  -4  -3  10  187.18   20.70
  -4  -3  10  257.57   19.70
   3   3 -10 1673.23   54.19
   3   3 -10 1631.24   50.09
   3   3 -10 1707.73   63.99
   3   3 -10 1663.73   59.19
   3   3 -10 1627.14   47.60
  -3  -3  10 1706.23   58.19
  -3  -3  10 1472.55   56.69
  -3  -3  10 1665.83   86.49
  -3  -3  10 1596.14   58.19
  -3  -3  10 1669.03   59.69
   2   3 -10    9.60    4.20
   2   3 -10    9.40    3.80
   2   3 -10    3.00    3.00
   2   3 -10   10.80    3.50
  -2  -3  10    4.90    5.20
  -2  -3  10    3.60    4.60
  -2  -3  10    2.70    3.20
  -2  -3  10    1.30    2.30
   1   3 -10   83.59   15.50
   1   3 -10   69.29   11.90
   1   3 -10   58.29    7.10
  -1  -3  10   66.39   11.60
  -1  -3  10   47.30   11.10
  -1  -3  10   75.39   17.10
   0   3 -10  963.80   42.50
   0   3 -10  897.01   31.80
   0   3 -10  925.71   46.40
   0  -3  10  940.71   48.50
   0  -3  10  920.21   45.20
  -1   3 -10   13.40    5.40
  -1   3 -10   38.80   10.30
  -1   3 -10   29.70    5.80
   1  -3  10   10.40    7.40
   1  -3  10   30.90    9.40
   1  -3  10    9.90    7.10
   1  -3  10   24.10    7.90
  -2   3 -10    8.70    6.60
  -2   3 -10   15.30    7.30
  -2   3 -10   15.60    5.30
   2  -3  10   36.80    9.90
   2  -3  10   19.80    7.10
   2  -3  10    4.70    7.70
   6   2 -10   21.00    6.20
   6   2 -10    5.30    5.60
   6   2 -10   17.70    6.70
  -6  -2  10   18.80    5.70
  -6  -2  10    8.70    4.60
   5   2 -10    9.00    4.40
   5   2 -10   32.90    9.60
   5   2 -10   39.60    7.80
  -5  -2  10   20.00    5.60
  -5  -2  10   20.50    6.20
  -5  -2  10   18.50    6.50
   4   2 -10   61.79   12.60
   4   2 -10   64.69   11.30
   4   2 -10   59.39    8.10
   4   2 -10   64.49   10.90
  -4  -2  10   41.90    8.40
  -4  -2  10   45.30    8.90
  -4  -2  10   83.89   10.40
   3   2 -10  121.39   13.50
   3   2 -10  116.49    8.20
   3   2 -10  104.59    8.80
   3   2 -10  117.59   12.40
   3   2 -10  128.89   15.10
  -3  -2  10  105.19   12.70
  -3  -2  10  124.99   12.80
  -3  -2  10  116.29   13.00
   2   2 -10  351.86   14.50
   2   2 -10  343.47   22.80
   2   2 -10  321.57   25.40
  -2  -2  10  338.87   23.90
  -2  -2  10  353.06   22.80
  -2  -2  10  332.07   23.00
   1   2 -10  407.56   28.70
   1   2 -10  431.66   15.90
   1   2 -10  411.86   25.50
  -1  -2  10  426.46   25.60
  -1  -2  10  407.46   26.30
  -1  -2  10  421.06   28.50
   0   2 -10  545.45   34.40
   0   2 -10  572.04   19.60
   0  -2  10  603.04   33.40
   0  -2  10  576.64   37.40
   0  -2  10  521.45   31.00
  -1   2 -10   19.70    7.80
  -1   2 -10   14.90    5.20
   1  -2  10   20.80    6.70
   1  -2  10    9.70    5.70
   1  -2  10    9.50    6.70
   1  -2  10   16.30    6.80
  -2   2 -10  119.79   14.30
  -2   2 -10   88.69    8.70
  -2   2 -10   90.39   16.60
   2  -2  10   85.59   20.20
   2  -2  10   84.59   15.50
   2  -2  10  121.99   15.10
   6   1 -10   12.60    7.20
   6   1 -10    5.80    4.50
   6   1 -10    7.10    4.70
  -6  -1  10   -1.80    3.60
  -6  -1  10    3.70    4.10
   5   1 -10 1102.69   45.20
   5   1 -10 1156.88   47.60
   5   1 -10 1075.69   47.50
  -5  -1  10 1122.09   44.10
  -5  -1  10 1069.69   45.00
  -5  -1  10 1113.19   45.10
   4   1 -10   87.09    8.50
   4   1 -10   87.29    8.00
   4   1 -10   91.29   12.30
   4   1 -10  102.39   13.20
   4   1 -10  114.49   13.10
  -4  -1  10   96.39   12.00
  -4  -1  10  100.09   11.50
  -4  -1  10   79.29   10.90
   3   1 -10  329.57   21.90
   3   1 -10  304.37   21.60
   3   1 -10  316.87   23.90
  -3  -1  10  349.27   22.00
  -3  -1  10  326.87   22.20
  -3  -1  10  335.07   22.70
   2   1 -10   62.99   12.00
   2   1 -10   88.89   11.20
  -2  -1  10   81.59   10.50
  -2  -1  10   84.19   14.30
  -2  -1  10   98.89   16.40
  -2  -1  10   69.59   10.90
   1   1 -10    9.60    5.20
   1   1 -10   12.00    6.10
  -1  -1  10   19.20    6.70
  -1  -1  10    2.90    4.50
  -1  -1  10   10.60    4.80
   0   1 -10   35.40    9.10
   0   1 -10   29.90    8.90
   0  -1  10   41.90    8.90
   0  -1  10   47.00    9.40
   0  -1  10   39.80   11.40
  -1   1 -10  907.51   48.00
  -1   1 -10  910.71   41.10
   1  -1  10  948.41   50.09
   1  -1  10  859.91   45.70
   1  -1  10 1008.00   48.40
   6   0 -10  679.03   35.90
  -6   0  10  695.03   33.30
   5   0 -10    2.10    4.30
   5   0 -10    9.50    4.90
   5   0 -10   -1.30    4.20
  -5   0  10    6.00    4.30
  -5   0  10    3.00    2.80
  -5   0  10   -2.90    2.60
   4   0 -10  115.59   13.60
   4   0 -10   93.59   12.10
   4   0 -10   92.09   15.10
  -4   0  10  114.39   28.50
  -4   0  10   70.19   10.80
  -4   0  10   80.09    9.50
  -4   0  10   99.39   11.10
  -4   0  10  100.99   11.20
   3   0 -10   82.59   13.90
   3   0 -10   90.59   11.00
  -3   0  10   89.39   11.20
  -3   0  10   80.89   10.60
  -3   0  10   77.69    9.90
  -3   0  10   80.09   10.10
   2   0 -10  569.74   33.00
   2   0 -10  591.04   30.40
  -2   0  10  615.04   33.10
  -2   0  10  605.24   29.70
  -2   0  10  610.54   30.70
  -2   0  10  601.74   29.40
   1   0 -10   13.20    5.30
   1   0 -10   18.10    6.80
  -1   0  10   11.10    5.70
  -1   0  10   11.90    5.50
  -1   0  10   10.60    4.90
   0   0 -10  442.06   29.90
   0   0 -10  434.86   26.20
   0   0  10  408.46   32.70
   0   0  10  421.76   28.90
   0   0  10  470.25   30.60
   0   0  10  458.15   29.30
   5  -1 -10    1.20    3.80
   5  -1 -10    1.80    5.70
   5  -1 -10    7.70    6.90
  -5   1  10   13.70    4.70
  -5   1  10    7.90    3.70
   4  -1 -10  536.45   27.90
   4  -1 -10  599.44   33.10
   4  -1 -10  567.24   30.80
  -4   1  10  491.55   50.39
  -4   1  10  501.15   26.90
  -4   1  10  519.95   26.70
  -4   1  10  506.15   26.70
  -4   1  10  562.14   28.90
   3  -1 -10  788.62   34.90
   3  -1 -10  775.42   37.40
  -3   1  10  789.12   36.60
  -3   1  10  750.02   32.70
  -3   1  10  764.22   34.10
  -3   1  10  816.32   34.30
   2  -1 -10   84.19   11.10
   2  -1 -10   64.09   11.10
  -2   1  10   59.29   10.40
  -2   1  10   68.79   12.40
  -2   1  10   63.09    9.80
   1  -1 -10   67.19   11.70
   1  -1 -10  105.09   11.80
  -1   1  10   76.29   16.80
  -1   1  10   87.19   11.70
   4  -2 -10  278.47   18.90
   4  -2 -10  270.67   22.10
  -4   2  10  272.07   19.20
   3  -2 -10   73.49   10.60
  -3   2  10   69.19   11.90
  -3   2  10   68.69    8.90
   2  -2 -10  462.25   24.90
  -2   2  10  543.75   35.90
  -2   2  10  421.46   28.40
   2   7 -11   41.10   10.40
   2   7 -11   40.70    8.40
   2   7 -11   38.30    8.10
  -2  -7  11   73.49   34.80
  -2  -7  11   31.60    8.10
  -2  -7  11   25.40    8.20
   1   7 -11  158.98   18.00
   1   7 -11  143.59   13.80
   1   7 -11  115.39   13.80
  -1  -7  11  155.98   17.80
  -1  -7  11  114.39   13.80
   0   7 -11   48.00    9.90
   0   7 -11   43.80   13.20
   0   7 -11   46.40    9.20
   0  -7  11   29.60    8.40
   0  -7  11   47.70   12.70
   3   6 -11  174.98   14.70
   3   6 -11  202.38   20.30
  -3  -6  11  152.98   45.80
  -3  -6  11  152.58   15.70
  -3  -6  11  166.78   22.10
   2   6 -11  201.98   18.30
   2   6 -11  225.08   21.80
   2   6 -11  205.28   15.60
  -2  -6  11  205.28   41.40
  -2  -6  11  230.98   19.40
  -2  -6  11  177.68   20.10
   1   6 -11  220.18   22.00
   1   6 -11  227.28   19.50
   1   6 -11  235.48   17.10
  -1  -6  11  244.68   29.80
  -1  -6  11  211.38   18.50
   0   6 -11  361.26   28.40
   0   6 -11  391.36   26.50
   0   6 -11  374.86   22.30
   0  -6  11  354.36   28.80
   0  -6  11  349.87   24.60
  -1   6 -11  129.19   13.20
  -1   6 -11  125.29   20.90
  -1   6 -11  129.49   21.90
   1  -6  11  116.89   15.80
   1  -6  11   83.69   15.10
   4   5 -11   30.50    8.30
   4   5 -11   33.70    8.60
  -4  -5  11   37.70    9.60
  -4  -5  11   21.70   19.40
  -4  -5  11   39.00    8.60
   3   5 -11 1031.70   37.70
   3   5 -11 1060.79   50.19
   3   5 -11 1026.00   45.70
  -3  -5  11 1011.80   45.80
  -3  -5  11  946.11   83.29
  -3  -5  11 1047.00   44.50
   2   5 -11  103.29   10.70
   2   5 -11  103.19   13.70
   2   5 -11  110.99   18.40
  -2  -5  11  115.89   14.00
  -2  -5  11  104.19    9.60
  -2  -5  11   73.49   13.00
   1   5 -11    4.80    3.90
   1   5 -11   18.30    6.60
   1   5 -11   23.10    7.20
  -1  -5  11   14.90    5.50
  -1  -5  11   12.20    5.10
  -1  -5  11    0.00    6.20
   0   5 -11  197.48   15.40
   0   5 -11  217.98   22.00
   0   5 -11  210.08   19.30
   0  -5  11  199.68   22.20
   0  -5  11  209.58   17.50
  -1   5 -11  139.49   21.60
  -1   5 -11  123.59   14.90
  -1   5 -11  134.69   13.00
   1  -5  11   92.39   15.70
   1  -5  11  139.59   21.60
   1  -5  11  164.58   18.70
   4   4 -11   71.59   10.80
   4   4 -11   63.49   11.50
   4   4 -11   82.79   15.00
  -4  -4  11   91.39   11.50
  -4  -4  11   73.59   12.70
  -4  -4  11   91.09   27.60
   3   4 -11  285.07   24.30
   3   4 -11  272.37   21.60
   3   4 -11  237.58   14.70
  -3  -4  11  274.07   21.90
  -3  -4  11  229.38   18.70
   2   4 -11  531.95   23.50
   2   4 -11  536.95   34.50
   2   4 -11  589.84   31.90
  -2  -4  11  593.04   31.60
  -2  -4  11  543.85   32.60
  -2  -4  11  509.95   29.40
   1   4 -11  578.94   36.20
   1   4 -11  568.54   32.20
   1   4 -11  569.54   24.50
  -1  -4  11  561.94   30.80
  -1  -4  11  525.65   34.10
   0   4 -11  410.96   27.50
   0   4 -11  466.55   22.10
   0   4 -11  483.55   33.40
   0  -4  11  491.45   34.20
  -1   4 -11    5.50    6.40
  -1   4 -11   -2.00    3.10
  -1   4 -11   10.80    4.90
   1  -4  11    4.30    6.20
   1  -4  11   -3.20    3.90
   1  -4  11   -2.60    5.20
   5   3 -11 1046.20   43.20
   5   3 -11 1062.19   69.19
   5   3 -11 1144.89   47.90
  -5  -3  11 1108.49   46.70
  -5  -3  11 1090.49   45.40
   4   3 -11    4.90    3.30
   4   3 -11    0.10    5.20
   4   3 -11    5.60    5.30
   4   3 -11    0.40    4.10
   4   3 -11    9.60    4.60
  -4  -3  11   -0.50    3.10
  -4  -3  11   -1.50    2.80
   3   3 -11    9.80    3.30
   3   3 -11    0.00    4.10
   3   3 -11   -2.10    2.90
  -3  -3  11    0.90    2.40
  -3  -3  11    4.20    5.00
  -3  -3  11    2.40    4.20
   2   3 -11  109.59    8.90
   2   3 -11   95.89   14.30
   2   3 -11   86.39   16.10
   2   3 -11   90.89    8.90
  -2  -3  11  106.69   14.10
  -2  -3  11   93.09   11.50
  -2  -3  11  113.29   13.90
   1   3 -11  110.19   14.90
   1   3 -11   92.79    8.40
   1   3 -11   96.39   12.70
  -1  -3  11  112.79   18.40
  -1  -3  11  102.59   15.60
  -1  -3  11  116.19   13.10
   0   3 -11    6.50    5.80
   0   3 -11   10.60    3.80
   0   3 -11   16.00    5.50
   0  -3  11    6.80    6.20
   0  -3  11    5.30    5.70
   0  -3  11    2.10    4.50
  -1   3 -11  474.45   20.00
  -1   3 -11  444.76   28.40
  -1   3 -11  422.96   31.80
   1  -3  11  449.95   32.80
   1  -3  11  462.35   30.70
   1  -3  11  464.85   32.80
   5   2 -11   40.90   10.50
   5   2 -11   41.70    9.80
   5   2 -11   36.40    8.20
  -5  -2  11   33.70    8.00
  -5  -2  11   37.80    8.30
   4   2 -11   29.70    5.00
   4   2 -11   26.60    7.30
   4   2 -11   18.00    6.60
   4   2 -11   21.00    7.80
  -4  -2  11   13.10    6.00
  -4  -2  11   22.80    7.40
   3   2 -11   26.40    6.80
   3   2 -11   35.70    9.30
   3   2 -11   25.80    4.00
   3   2 -11   34.00    4.90
  -3  -2  11   30.60    8.10
  -3  -2  11   15.70    7.20
  -3  -2  11   35.50    7.60
   2   2 -11 1182.58   53.09
   2   2 -11 1259.37   49.99
  -2  -2  11 1266.17   53.09
  -2  -2  11 1312.47   49.70
  -2  -2  11 1168.48   48.70
   1   2 -11  109.89   18.00
   1   2 -11  118.69   13.20
  -1  -2  11   71.59   15.20
  -1  -2  11   73.99   11.70
  -1  -2  11   86.69   11.10
   0   2 -11  431.06   31.30
   0   2 -11  433.86   27.40
   0  -2  11  431.86   34.50
   0  -2  11  478.75   30.40
   4   1 -11 1170.78   51.59
   4   1 -11 1263.67   49.10
   4   1 -11 1193.88   48.80
  -4  -1  11 1213.78   46.90
  -4  -1  11 1263.27   49.80
   3   1 -11  153.28   35.20
  -3  -1  11  175.58   17.80
  -3  -1  11  194.38   17.70
   2   1 -11   24.70    8.30
   2   1 -11   13.10    6.60
  -2  -1  11   23.10    8.90
  -2  -1  11   15.50    6.20
  -2  -1  11   15.90    7.40
   1   1 -11  163.98   18.20
   1   1 -11  163.88   16.70
   4   0 -11   49.70   12.40
   4   0 -11   26.60    7.60
   4   0 -11   33.20    8.80
  -4   0  11   41.20    9.30
  -4   0  11   53.59    9.70
   3   0 -11   67.39   13.90
   3   0 -11   50.59   10.60
  -3   0  11   70.89   12.50
  -3   0  11   82.49   10.40
   2   0 -11   75.59   12.00
   2   0 -11   43.50   12.80
  -2   0  11   48.00    9.40
  -2   0  11   57.29    9.70
   2   4 -12  512.55   45.10
   2   4 -12  374.56   18.80
   2   4 -12  375.96   26.40
  -2  -4  12  422.86   29.50
  -2  -4  12  380.86   25.30
  -2  -3  12   28.90    9.30
   0   0   0    0.00    0.00

_computing_structure_solution     'SHELXT 2014/5 (Sheldrick, 2014)'
;
_shelx_hkl_checksum              44682
loop_
_space_group_symop_operation_xyz
'x, y, z'
'-x, -y, -z'
loop_
_atom_site_label
_atom_site_type_symbol
_atom_site_fract_x
_atom_site_fract_y
_atom_site_fract_z
_atom_site_U_iso_or_equiv
_atom_site_adp_type
_atom_site_occupancy
_atom_site_site_symmetry_order
_atom_site_calc_flag
_atom_site_refinement_flags_posn
_atom_site_refinement_flags_adp
_atom_site_refinement_flags_occupancy
_atom_site_disorder_assembly
_atom_site_disorder_group
Ba1 Ba 0.56002(3) 0.38474(3) 0.27954(2) 0.01714(6) Uani 1 1 d . . . . .
Cd1 Cd 0.09863(5) -0.20492(4) -0.01457(3) 0.02266(7) Uani 1 1 d . . . . .
O1 O 0.7706(4) 0.6957(3) 1.0081(3) 0.0206(5) Uani 1 1 d . . . . .
B1 B 0.7660(6) 0.5238(5) 0.9914(5) 0.0173(7) Uani 1 1 d . . . . .
Ba2 Ba 1.26609(3) 1.09696(3) 0.69882(2) 0.01715(6) Uani 1 1 d . . . . .
O2 O 0.6608(4) 0.3766(3) 0.8373(3) 0.0198(5) Uani 1 1 d . . . . .
B2 B 0.9585(6) 0.6934(5) 0.6214(5) 0.0169(7) Uani 1 1 d . . . . .
Sc1 Sc 0.82412(10) 0.32965(8) 0.66068(8) 0.01391(13) Uani 1 1 d . . . . .
O3 O 0.7931(4) 0.5569(3) 0.6199(3) 0.0183(5) Uani 1 1 d . . . . .
O6 O 0.9602(4) 0.7039(3) 0.4770(3) 0.0210(5) Uani 1 1 d . . . . .
O5 O 1.1312(4) 0.8155(3) 0.7660(3) 0.0226(5) Uani 1 1 d . . . . .
O8 O 0.1708(4) -0.0731(3) 0.3547(3) 0.0177(5) Uani 1 1 d . . . . .
O7 O 0.5052(4) 0.1911(3) 0.4794(3) 0.0213(5) Uani 1 1 d . . . . .
O4 O 0.8652(4) 0.4969(3) 1.1270(3) 0.0202(5) Uani 1 1 d . . . . .
O9 O 0.3460(5) 0.0296(4) 0.1900(3) 0.0263(6) Uani 1 1 d . . . . .
B3 B 0.3357(6) 0.0503(5) 0.3414(5) 0.0173(7) Uani 1 1 d . . . . .
loop_
_atom_site_aniso_label
_atom_site_aniso_U_11
_atom_site_aniso_U_22
_atom_site_aniso_U_33
_atom_site_aniso_U_23
_atom_site_aniso_U_13
_atom_site_aniso_U_12
Ba1 0.01590(10) 0.01876(11) 0.01736(11) 0.00900(8) 0.00553(8) 0.00520(8)
Cd1 0.02299(14) 0.02053(14) 0.02024(13) 0.00670(11) 0.00806(11) 0.00255(10)
O1 0.0215(13) 0.0201(13) 0.0196(12) 0.0074(10) 0.0071(10) 0.0083(10)
B1 0.0148(17) 0.0190(19) 0.0181(18) 0.0076(15) 0.0075(15) 0.0042(14)
Ba2 0.01547(10) 0.01662(11) 0.01742(11) 0.00627(8) 0.00542(8) 0.00405(8)
O2 0.0186(12) 0.0188(12) 0.0181(12) 0.0057(10) 0.0076(10) 0.0016(9)
B2 0.0172(18) 0.0177(19) 0.0186(18) 0.0088(15) 0.0067(15) 0.0090(14)
Sc1 0.0142(3) 0.0137(3) 0.0133(3) 0.0058(2) 0.0044(2) 0.0041(2)
O3 0.0165(12) 0.0183(12) 0.0229(13) 0.0115(10) 0.0081(10) 0.0048(9)
O6 0.0239(13) 0.0211(13) 0.0207(13) 0.0101(11) 0.0110(11) 0.0070(10)
O5 0.0222(13) 0.0205(13) 0.0198(13) 0.0089(11) 0.0033(10) 0.0012(10)
O8 0.0167(12) 0.0156(12) 0.0206(12) 0.0082(10) 0.0061(10) 0.0048(9)
O7 0.0190(12) 0.0194(13) 0.0202(12) 0.0094(11) 0.0017(10) 0.0005(10)
O4 0.0190(12) 0.0225(13) 0.0173(12) 0.0096(10) 0.0042(10) 0.0040(10)
O9 0.0321(15) 0.0212(14) 0.0200(13) 0.0071(11) 0.0109(11) -0.0005(11)
B3 0.0165(18) 0.0162(18) 0.0202(19) 0.0085(16) 0.0058(15) 0.0070(14)
loop_
_atom_type_symbol
_atom_type_description
_atom_type_scat_dispersion_real
_atom_type_scat_dispersion_imag
_atom_type_scat_source
B B 0.0013 0.0007 'International Tables Vol C Tables 4.2.6.8 and 6.1.1.4'
Ba Ba -0.3244 2.2819 'International Tables Vol C Tables 4.2.6.8 and 6.1.1.4'
Cd Cd -0.8075 1.2024 'International Tables Vol C Tables 4.2.6.8 and 6.1.1.4'
O O 0.0106 0.0060 'International Tables Vol C Tables 4.2.6.8 and 6.1.1.4'
Sc Sc 0.2519 0.3716 'International Tables Vol C Tables 4.2.6.8 and 6.1.1.4'
loop_
_geom_angle_atom_site_label_1
_geom_angle_atom_site_label_2
_geom_angle_atom_site_label_3
_geom_angle
_geom_angle_site_symmetry_1
_geom_angle_site_symmetry_3
_geom_angle_publ_flag
O9 Ba1 O3 84.67(8) . 2_666 ?
O9 Ba1 O1 80.44(8) . 2_666 ?
O3 Ba1 O1 77.03(8) 2_666 2_666 ?
O9 Ba1 O3 108.53(8) . . ?
O3 Ba1 O3 81.88(8) 2_666 . ?
O1 Ba1 O3 156.24(7) 2_666 . ?
O9 Ba1 O5 70.57(8) . 2_766 ?
O3 Ba1 O5 150.03(7) 2_666 2_766 ?
O1 Ba1 O5 113.70(8) 2_666 2_766 ?
O3 Ba1 O5 90.05(7) . 2_766 ?
O9 Ba1 O4 122.30(8) . 1_554 ?
O3 Ba1 O4 144.40(7) 2_666 1_554 ?
O1 Ba1 O4 84.66(8) 2_666 1_554 ?
O3 Ba1 O4 107.07(7) . 1_554 ?
O5 Ba1 O4 65.53(7) 2_766 1_554 ?
O9 Ba1 O6 148.61(8) . . ?
O3 Ba1 O6 109.95(8) 2_666 . ?
O1 Ba1 O6 129.06(8) 2_666 . ?
O3 Ba1 O6 49.81(7) . . ?
O5 Ba1 O6 85.52(8) 2_766 . ?
O4 Ba1 O6 60.13(7) 1_554 . ?
O9 Ba1 O7 49.36(8) . . ?
O3 Ba1 O7 72.90(7) 2_666 . ?
O1 Ba1 O7 122.54(8) 2_666 . ?
O3 Ba1 O7 59.58(7) . . ?
O5 Ba1 O7 78.11(7) 2_766 . ?
O4 Ba1 O7 141.69(7) 1_554 . ?
O6 Ba1 O7 107.06(7) . . ?
O9 Ba1 O2 123.67(8) . 2_666 ?
O3 Ba1 O2 64.69(7) 2_666 2_666 ?
O1 Ba1 O2 48.46(7) 2_666 2_666 ?
O3 Ba1 O2 111.99(7) . 2_666 ?
O5 Ba1 O2 143.79(7) 2_766 2_666 ?
O4 Ba1 O2 80.28(7) 1_554 2_666 ?
O6 Ba1 O2 87.62(7) . 2_666 ?
O7 Ba1 O2 137.58(7) . 2_666 ?
O9 Ba1 B3 25.34(9) . . ?
O3 Ba1 B3 71.22(9) 2_666 . ?
O1 Ba1 B3 98.15(9) 2_666 . ?
O3 Ba1 B3 85.13(9) . . ?
O5 Ba1 B3 79.39(9) 2_766 . ?
O4 Ba1 B3 142.41(9) 1_554 . ?
O6 Ba1 B3 132.45(9) . . ?
O7 Ba1 B3 25.73(9) . . ?
O2 Ba1 B3 128.84(8) 2_666 . ?
O9 Ba1 B2 130.19(9) . . ?
O3 Ba1 B2 96.34(9) 2_666 . ?
O1 Ba1 B2 148.46(8) 2_666 . ?
O3 Ba1 B2 24.89(8) . . ?
O5 Ba1 B2 87.53(9) 2_766 . ?
O4 Ba1 B2 83.54(9) 1_554 . ?
O6 Ba1 B2 24.93(8) . . ?
O7 Ba1 B2 83.23(9) . . ?
O2 Ba1 B2 100.61(8) 2_666 . ?
B3 Ba1 B2 108.96(10) . . ?
O9 Ba1 B2 87.91(9) . 2_766 ?
O3 Ba1 B2 144.37(9) 2_666 2_766 ?
O1 Ba1 B2 135.79(9) 2_666 2_766 ?
O3 Ba1 B2 67.62(8) . 2_766 ?
O5 Ba1 B2 24.52(8) 2_766 2_766 ?
O4 Ba1 B2 66.07(9) 1_554 2_766 ?
O6 Ba1 B2 63.81(9) . 2_766 ?
O7 Ba1 B2 75.88(9) . 2_766 ?
O2 Ba1 B2 143.40(8) 2_666 2_766 ?
B3 Ba1 B2 87.71(10) . 2_766 ?
B2 Ba1 B2 63.02(11) . 2_766 ?
O9 Cd1 O5 106.63(10) . 1_444 ?
O9 Cd1 O1 117.56(10) . 1_444 ?
O5 Cd1 O1 122.96(10) 1_444 1_444 ?
O9 Cd1 O4 125.66(10) . 2_656 ?
O5 Cd1 O4 86.96(9) 1_444 2_656 ?
O1 Cd1 O4 94.45(9) 1_444 2_656 ?
O9 Cd1 B1 127.62(11) . 1_444 ?
O5 Cd1 B1 125.55(11) 1_444 1_444 ?
O1 Cd1 B1 28.86(10) 1_444 1_444 ?
O4 Cd1 B1 66.73(10) 2_656 1_444 ?
O9 Cd1 Ba1 102.40(8) . 2_655 ?
O5 Cd1 Ba1 48.50(7) 1_444 2_655 ?
O1 Cd1 Ba1 138.16(7) 1_444 2_655 ?
O4 Cd1 Ba1 49.29(6) 2_656 2_655 ?
B1 Cd1 Ba1 114.51(8) 1_444 2_655 ?
O9 Cd1 Ba1 139.71(8) . 2 ?
O5 Cd1 Ba1 82.36(7) 1_444 2 ?
O1 Cd1 Ba1 40.60(7) 1_444 2 ?
O4 Cd1 Ba1 93.41(6) 2_656 2 ?
B1 Cd1 Ba1 54.59(8) 1_444 2 ?
Ba1 Cd1 Ba1 111.81(3) 2_655 2 ?
O9 Cd1 Ba2 44.98(8) . 2_766 ?
O5 Cd1 Ba2 108.23(7) 1_444 2_766 ?
O1 Cd1 Ba2 128.31(7) 1_444 2_766 ?
O4 Cd1 Ba2 80.68(6) 2_656 2_766 ?
B1 Cd1 Ba2 112.84(8) 1_444 2_766 ?
Ba1 Cd1 Ba2 72.67(3) 2_655 2_766 ?
Ba1 Cd1 Ba2 167.408(10) 2 2_766 ?
O9 Cd1 Ba2 80.59(8) . 2_666 ?
O5 Cd1 Ba2 142.14(7) 1_444 2_666 ?
O1 Cd1 Ba2 36.98(7) 1_444 2_666 ?
O4 Cd1 Ba2 119.59(6) 2_656 2_666 ?
B1 Cd1 Ba2 56.41(8) 1_444 2_666 ?
Ba1 Cd1 Ba2 168.025(10) 2_655 2_666 ?
Ba1 Cd1 Ba2 70.42(3) 2 2_666 ?
Ba2 Cd1 Ba2 102.75(3) 2_766 2_666 ?
B1 O1 Cd1 100.8(2) . 1_666 ?
B1 O1 Ba2 112.1(2) . 2_777 ?
Cd1 O1 Ba2 114.09(10) 1_666 2_777 ?
B1 O1 Ba1 101.4(2) . 2_666 ?
Cd1 O1 Ba1 107.88(10) 1_666 2_666 ?
Ba2 O1 Ba1 118.49(9) 2_777 2_666 ?
O1 B1 O2 119.4(3) . . ?
O1 B1 O4 120.9(3) . . ?
O2 B1 O4 119.8(3) . . ?
O1 B1 Cd1 50.34(16) . 1_666 ?
O2 B1 Cd1 111.1(2) . 1_666 ?
O4 B1 Cd1 106.3(2) . 1_666 ?
O1 B1 Ba1 54.44(17) . 2_666 ?
O2 B1 Ba1 66.84(19) . 2_666 ?
O4 B1 Ba1 165.1(2) . 2_666 ?
Cd1 B1 Ba1 81.52(10) 1_666 2_666 ?
O5 Ba2 O8 80.92(8) . 2_666 ?
O5 Ba2 O2 131.17(8) . 1_665 ?
O8 Ba2 O2 134.56(8) 2_666 1_665 ?
O5 Ba2 O1 85.38(8) . 2_777 ?
O8 Ba2 O1 71.73(7) 2_666 2_777 ?
O2 Ba2 O1 79.21(8) 1_665 2_777 ?
O5 Ba2 O8 102.90(8) . 1_665 ?
O8 Ba2 O8 89.89(7) 2_666 1_665 ?
O2 Ba2 O8 108.16(7) 1_665 1_665 ?
O1 Ba2 O8 158.57(7) 2_777 1_665 ?
O5 Ba2 O9 68.63(8) . 2_766 ?
O8 Ba2 O9 149.43(7) 2_666 2_766 ?
O2 Ba2 O9 69.95(8) 1_665 2_766 ?
O1 Ba2 O9 102.25(8) 2_777 2_766 ?
O8 Ba2 O9 99.17(7) 1_665 2_766 ?
O5 Ba2 O6 48.29(8) . . ?
O8 Ba2 O6 69.61(7) 2_666 . ?
O2 Ba2 O6 154.49(7) 1_665 . ?
O1 Ba2 O6 122.69(7) 2_777 . ?
O8 Ba2 O6 56.83(7) 1_665 . ?
O9 Ba2 O6 91.02(7) 2_766 . ?
O5 Ba2 O7 138.90(8) . 1_665 ?
O8 Ba2 O7 120.53(7) 2_666 1_665 ?
O2 Ba2 O7 60.06(7) 1_665 1_665 ?
O1 Ba2 O7 132.86(8) 2_777 1_665 ?
O8 Ba2 O7 48.24(7) 1_665 1_665 ?
O9 Ba2 O7 86.06(7) 2_766 1_665 ?
O6 Ba2 O7 103.16(7) . 1_665 ?
O5 Ba2 O6 136.66(8) . 2_776 ?
O8 Ba2 O6 57.67(7) 2_666 2_776 ?
O2 Ba2 O6 90.40(8) 1_665 2_776 ?
O1 Ba2 O6 92.50(7) 2_777 2_776 ?
O8 Ba2 O6 67.82(7) 1_665 2_776 ?
O9 Ba2 O6 152.33(7) 2_766 2_776 ?
O6 Ba2 O6 100.61(7) . 2_776 ?
O7 Ba2 O6 66.94(7) 1_665 2_776 ?
O5 Ba2 B3 83.51(9) . 2_766 ?
O8 Ba2 B3 155.47(9) 2_666 2_766 ?
O2 Ba2 B3 69.55(9) 1_665 2_766 ?
O1 Ba2 B3 125.76(9) 2_777 2_766 ?
O8 Ba2 B3 75.24(9) 1_665 2_766 ?
O9 Ba2 B3 25.75(9) 2_766 2_766 ?
O6 Ba2 B3 85.88(9) . 2_766 ?
O7 Ba2 B3 62.91(9) 1_665 2_766 ?
O6 Ba2 B3 129.56(9) 2_776 2_766 ?
O5 Ba2 O7 75.46(8) . 2_766 ?
O8 Ba2 O7 131.10(7) 2_666 2_766 ?
O2 Ba2 O7 91.97(8) 1_665 2_766 ?
O1 Ba2 O7 145.42(7) 2_777 2_766 ?
O8 Ba2 O7 55.78(6) 1_665 2_766 ?
O9 Ba2 O7 44.03(7) 2_766 2_766 ?
O6 Ba2 O7 62.62(7) . 2_766 ?
O7 Ba2 O7 64.06(8) 1_665 2_766 ?
O6 Ba2 O7 121.18(7) 2_776 2_766 ?
B3 Ba2 O7 25.05(9) 2_766 2_766 ?
O5 Ba2 B2 24.45(9) . . ?
O8 Ba2 B2 68.68(8) 2_666 . ?
O2 Ba2 B2 152.89(9) 1_665 . ?
O1 Ba2 B2 100.94(9) 2_777 . ?
O8 Ba2 B2 81.67(9) 1_665 . ?
O9 Ba2 B2 83.72(9) 2_766 . ?
O6 Ba2 B2 24.99(8) . . ?
O7 Ba2 B2 126.17(8) 1_665 . ?
O6 Ba2 B2 116.58(9) 2_776 . ?
B3 Ba2 B2 89.62(10) 2_766 . ?
O7 Ba2 B2 72.39(8) 2_766 . ?
B1 O2 Sc1 120.2(2) . . ?
B1 O2 Ba2 133.2(2) . 1_445 ?
Sc1 O2 Ba2 106.51(10) . 1_445 ?
B1 O2 Ba1 88.4(2) . 2_666 ?
Sc1 O2 Ba1 92.77(9) . 2_666 ?
Ba2 O2 Ba1 92.39(8) 1_445 2_666 ?
O5 B2 O6 118.6(3) . . ?
O5 B2 O3 120.5(3) . . ?
O6 B2 O3 120.8(3) . . ?
O5 B2 Ba2 53.63(17) . . ?
O6 B2 Ba2 69.33(19) . . ?
O3 B2 Ba2 160.6(2) . . ?
O5 B2 Ba1 176.6(2) . . ?
O6 B2 Ba1 62.63(19) . . ?
O3 B2 Ba1 58.12(18) . . ?
Ba2 B2 Ba1 128.79(12) . . ?
O5 B2 Ba1 60.05(18) . 2_766 ?
O6 B2 Ba1 98.4(2) . 2_766 ?
O3 B2 Ba1 107.6(2) . 2_766 ?
Ba2 B2 Ba1 85.73(10) . 2_766 ?
Ba1 B2 Ba1 116.98(11) . 2_766 ?
O7 Sc1 O6 102.79(11) . 2_766 ?
O7 Sc1 O8 86.09(10) . 2_656 ?
O6 Sc1 O8 83.62(10) 2_766 2_656 ?
O7 Sc1 O3 85.23(10) . . ?
O6 Sc1 O3 89.67(10) 2_766 . ?
O8 Sc1 O3 167.58(10) 2_656 . ?
O7 Sc1 O2 87.39(11) . . ?
O6 Sc1 O2 169.36(10) 2_766 . ?
O8 Sc1 O2 94.16(10) 2_656 . ?
O3 Sc1 O2 94.29(10) . . ?
O7 Sc1 O4 171.07(10) . 2_767 ?
O6 Sc1 O4 84.90(10) 2_766 2_767 ?
O8 Sc1 O4 99.40(10) 2_656 2_767 ?
O3 Sc1 O4 90.35(10) . 2_767 ?
O2 Sc1 O4 85.20(10) . 2_767 ?
O7 Sc1 Ba2 60.67(8) . 2_766 ?
O6 Sc1 Ba2 55.65(7) 2_766 2_766 ?
O8 Sc1 Ba2 49.44(7) 2_656 2_766 ?
O3 Sc1 Ba2 118.25(8) . 2_766 ?
O2 Sc1 Ba2 129.56(7) . 2_766 ?
O4 Sc1 Ba2 128.18(7) 2_767 2_766 ?
O7 Sc1 Ba1 49.85(7) . . ?
O6 Sc1 Ba1 73.19(8) 2_766 . ?
O8 Sc1 Ba1 121.00(7) 2_656 . ?
O3 Sc1 Ba1 46.74(7) . . ?
O2 Sc1 Ba1 116.50(8) . . ?
O4 Sc1 Ba1 130.27(7) 2_767 . ?
Ba2 Sc1 Ba1 73.20(3) 2_766 . ?
O7 Sc1 Ba1 68.93(8) . 2_666 ?
O6 Sc1 Ba1 133.29(7) 2_766 2_666 ?
O8 Sc1 Ba1 138.12(7) 2_656 2_666 ?
O3 Sc1 Ba1 44.94(6) . 2_666 ?
O2 Sc1 Ba1 53.23(7) . 2_666 ?
O4 Sc1 Ba1 102.53(7) 2_767 2_666 ?
Ba2 Sc1 Ba1 128.59(2) 2_766 2_666 ?
Ba1 Sc1 Ba1 67.03(2) . 2_666 ?
O7 Sc1 Ba2 121.31(8) . 1_545 ?
O6 Sc1 Ba2 53.95(7) 2_766 1_545 ?
O8 Sc1 Ba2 43.71(7) 2_656 1_545 ?
O3 Sc1 Ba2 137.02(7) . 1_545 ?
O2 Sc1 Ba2 118.03(7) . 1_545 ?
O4 Sc1 Ba2 66.87(7) 2_767 1_545 ?
Ba2 Sc1 Ba2 62.92(2) 2_766 1_545 ?
Ba1 Sc1 Ba2 123.92(2) . 1_545 ?
Ba1 Sc1 Ba2 167.93(2) 2_666 1_545 ?
O7 Sc1 Ba2 51.34(7) . 1_445 ?
O6 Sc1 Ba2 144.95(8) 2_766 1_445 ?
O8 Sc1 Ba2 72.59(7) 2_656 1_445 ?
O3 Sc1 Ba2 108.35(7) . 1_445 ?
O2 Sc1 Ba2 41.98(7) . 1_445 ?
O4 Sc1 Ba2 123.51(7) 2_767 1_445 ?
Ba2 Sc1 Ba2 89.33(2) 2_766 1_445 ?
Ba1 Sc1 Ba2 97.17(3) . 1_445 ?
Ba1 Sc1 Ba2 65.54(3) 2_666 1_445 ?
Ba2 Sc1 Ba2 114.63(3) 1_545 1_445 ?
O7 Sc1 Ba1 139.75(8) . 2_766 ?
O6 Sc1 Ba1 44.91(7) 2_766 2_766 ?
O8 Sc1 Ba1 108.11(7) 2_656 2_766 ?
O3 Sc1 Ba1 73.56(7) . 2_766 ?
O2 Sc1 Ba1 127.19(7) . 2_766 ?
O4 Sc1 Ba1 45.01(7) 2_767 2_766 ?
Ba2 Sc1 Ba1 99.82(2) 2_766 2_766 ?
Ba1 Sc1 Ba1 92.24(2) . 2_766 ?
Ba1 Sc1 Ba1 112.68(3) 2_666 2_766 ?
Ba2 Sc1 Ba1 64.52(3) 1_545 2_766 ?
Ba2 Sc1 Ba1 168.462(19) 1_445 2_766 ?
B2 O3 Sc1 128.5(2) . . ?
B2 O3 Ba1 123.1(2) . 2_666 ?
Sc1 O3 Ba1 102.11(9) . 2_666 ?
B2 O3 Ba1 97.0(2) . . ?
Sc1 O3 Ba1 99.96(9) . . ?
Ba1 O3 Ba1 98.13(8) 2_666 . ?
B2 O6 Sc1 134.7(2) . 2_766 ?
B2 O6 Ba1 92.4(2) . . ?
Sc1 O6 Ba1 104.36(10) 2_766 . ?
B2 O6 Ba2 85.7(2) . . ?
Sc1 O6 Ba2 89.69(9) 2_766 . ?
Ba1 O6 Ba2 161.62(10) . . ?
B2 O6 Ba2 130.4(2) . 2_776 ?
Sc1 O6 Ba2 92.47(9) 2_766 2_776 ?
Ba1 O6 Ba2 88.08(7) . 2_776 ?
Ba2 O6 Ba2 79.39(7) . 2_776 ?
B2 O5 Cd1 115.0(2) . 1_666 ?
B2 O5 Ba2 101.9(2) . . ?
Cd1 O5 Ba2 133.43(11) 1_666 . ?
B2 O5 Ba1 95.4(2) . 2_766 ?
Cd1 O5 Ba1 97.19(9) 1_666 2_766 ?
Ba2 O5 Ba1 106.86(9) . 2_766 ?
B3 O8 Sc1 125.6(2) . 2_656 ?
B3 O8 Ba2 127.7(2) . 2_666 ?
Sc1 O8 Ba2 103.74(9) 2_656 2_666 ?
B3 O8 Ba2 99.8(2) . 1_445 ?
Sc1 O8 Ba2 96.10(9) 2_656 1_445 ?
Ba2 O8 Ba2 90.11(7) 2_666 1_445 ?
B3 O7 Sc1 157.7(2) . . ?
B3 O7 Ba1 88.2(2) . . ?
Sc1 O7 Ba1 96.99(9) . . ?
B3 O7 Ba2 89.7(2) . 1_445 ?
Sc1 O7 Ba2 96.52(9) . 1_445 ?
Ba1 O7 Ba2 149.06(10) . 1_445 ?
B3 O7 Ba2 72.87(19) . 2_766 ?
Sc1 O7 Ba2 85.17(9) . 2_766 ?
Ba1 O7 Ba2 92.86(7) . 2_766 ?
Ba2 O7 Ba2 115.94(8) 1_445 2_766 ?
B1 O4 Sc1 129.3(2) . 2_767 ?
B1 O4 Cd1 105.0(2) . 2_656 ?
Sc1 O4 Cd1 106.36(10) 2_767 2_656 ?
B1 O4 Ba1 114.9(2) . 1_556 ?
Sc1 O4 Ba1 102.46(9) 2_767 1_556 ?
Cd1 O4 Ba1 92.36(8) 2_656 1_556 ?
B3 O9 Cd1 115.1(2) . . ?
B3 O9 Ba1 97.0(2) . . ?
Cd1 O9 Ba1 140.44(13) . . ?
B3 O9 Ba2 81.0(2) . 2_766 ?
Cd1 O9 Ba2 105.24(11) . 2_766 ?
Ba1 O9 Ba2 101.94(9) . 2_766 ?
O9 B3 O7 117.4(3) . . ?
O9 B3 O8 120.9(3) . . ?
O7 B3 O8 121.5(3) . . ?
O9 B3 Ba2 73.2(2) . 2_766 ?
O7 B3 Ba2 82.08(19) . 2_766 ?
O8 B3 Ba2 110.4(2) . 2_766 ?
O9 B3 Ba1 57.63(18) . . ?
O7 B3 Ba1 66.07(18) . . ?
O8 B3 Ba1 158.6(2) . . ?
Ba2 B3 Ba1 90.01(10) 2_766 . ?
O9 B3 Ba2 175.3(3) . 1_445 ?
O7 B3 Ba2 65.89(18) . 1_445 ?
O8 B3 Ba2 56.19(17) . 1_445 ?
Ba2 B3 Ba2 111.03(11) 2_766 1_445 ?
Ba1 B3 Ba2 123.39(12) . 1_445 ?
loop_
_geom_bond_atom_site_label_1
_geom_bond_atom_site_label_2
_geom_bond_distance
_geom_bond_site_symmetry_2
_geom_bond_publ_flag
Ba1 O9 2.704(3) . ?
Ba1 O3 2.731(2) 2_666 ?
Ba1 O1 2.735(3) 2_666 ?
Ba1 O3 2.790(3) . ?
Ba1 O5 2.867(3) 2_766 ?
Ba1 O4 2.881(3) 1_554 ?
Ba1 O6 2.898(3) . ?
Ba1 O7 2.905(3) . ?
Ba1 O2 3.031(3) 2_666 ?
Ba1 B3 3.177(4) . ?
Ba1 B2 3.261(4) . ?
Ba1 B2 3.294(4) 2_766 ?
Cd1 O9 2.120(3) . ?
Cd1 O5 2.158(3) 1_444 ?
Cd1 O1 2.197(3) 1_444 ?
Cd1 O4 2.358(3) 2_656 ?
Cd1 B1 2.803(4) 1_444 ?
Cd1 Ba2 4.1196(14) 2_766 ?
Cd1 Ba2 4.1464(12) 2_666 ?
O1 B1 1.377(5) . ?
O1 Ba2 2.732(3) 2_777 ?
B1 O2 1.382(5) . ?
B1 O4 1.386(5) . ?
Ba2 O5 2.672(3) . ?
Ba2 O8 2.696(3) 2_666 ?
Ba2 O2 2.709(3) 1_665 ?
Ba2 O8 2.819(3) 1_665 ?
Ba2 O9 3.018(3) 2_766 ?
Ba2 O6 3.046(3) . ?
Ba2 O7 3.052(3) 1_665 ?
Ba2 O6 3.067(3) 2_776 ?
Ba2 B3 3.115(4) 2_766 ?
Ba2 O7 3.228(3) 2_766 ?
Ba2 B2 3.246(4) . ?
O2 Sc1 2.116(3) . ?
B2 O5 1.373(5) . ?
B2 O6 1.375(5) . ?
B2 O3 1.382(5) . ?
Sc1 O7 2.079(3) . ?
Sc1 O6 2.098(3) 2_766 ?
Sc1 O8 2.099(2) 2_656 ?
Sc1 O3 2.103(3) . ?
Sc1 O4 2.190(3) 2_767 ?
O8 B3 1.380(5) . ?
O7 B3 1.380(5) . ?
O9 B3 1.370(5) . ?
