#------------------------------------------------------------------------------
#$Date: 2020-09-06 12:41:39 +0300 (Sun, 06 Sep 2020) $
#$Revision: 256100 $
#$URL: file:///home/coder/svn-repositories/cod/cif/7/70/49/7704954.cif $
#------------------------------------------------------------------------------
#
# This file is available in the Crystallography Open Database (COD),
# http://www.crystallography.net/
#
# All data on this site have been placed in the public domain by the
# contributors.
#
data_7704954
loop_
_publ_author_name
'Liu, Runqing'
'Wu, Hongping'
'Yu, Hongwei'
'Hu, Zhanggui'
'Wang, Jiyang'
'Wu, Yicheng'
_publ_section_title
;
 Synthesis and characterization of three new rare-earth orthoborates:
 Ba<sub>2</sub>MgY<sub>2</sub>(BO<sub>3</sub>)<sub>4</sub>,
 Ba<sub>2</sub>CdY<sub>2</sub>(BO<sub>3</sub>)<sub>4</sub>, and
 Ba<sub>2</sub>CdSc(BO<sub>3</sub>)<sub>3</sub>.
;
_journal_issue                   31
_journal_name_full
'Dalton transactions (Cambridge, England : 2003)'
_journal_page_first              10874
_journal_page_last               10879
_journal_paper_doi               10.1039/d0dt01799j
_journal_volume                  49
_journal_year                    2020
_chemical_formula_sum            'B8 Ba4 Cd2 O24 Y4'
_chemical_formula_weight         1600.28
_space_group_crystal_system      monoclinic
_space_group_IT_number           14
_space_group_name_Hall           '-P 2ybc'
_space_group_name_H-M_alt        'P 1 21/c 1'
_audit_creation_method           SHELXL-2018/3
_audit_update_record
;
2020-04-28 deposited with the CCDC.	2020-07-08 downloaded from the CCDC.
;
_cell_angle_alpha                90
_cell_angle_beta                 94.932(6)
_cell_angle_gamma                90
_cell_formula_units_Z            2
_cell_length_a                   12.702(2)
_cell_length_b                   13.673(2)
_cell_length_c                   6.4210(11)
_cell_measurement_reflns_used    8106
_cell_measurement_temperature    300(2)
_cell_measurement_theta_max      27.49
_cell_measurement_theta_min      2.98
_cell_volume                     1111.0(3)
_computing_structure_refinement  'SHELXL-2018/3 (Sheldrick, 2018)'
_diffrn_ambient_temperature      300(2)
_diffrn_measured_fraction_theta_full 0.999
_diffrn_measured_fraction_theta_max 0.998
_diffrn_measurement_device_type  'Bruker APEX-II CCD'
_diffrn_measurement_method       '\f and \w scans'
_diffrn_radiation_type           MoK\a
_diffrn_radiation_wavelength     0.71073
_diffrn_reflns_av_R_equivalents  0.0603
_diffrn_reflns_av_unetI/netI     0.0325
_diffrn_reflns_Laue_measured_fraction_full 0.999
_diffrn_reflns_Laue_measured_fraction_max 0.998
_diffrn_reflns_limit_h_max       16
_diffrn_reflns_limit_h_min       -16
_diffrn_reflns_limit_k_max       17
_diffrn_reflns_limit_k_min       -17
_diffrn_reflns_limit_l_max       8
_diffrn_reflns_limit_l_min       -8
_diffrn_reflns_number            19834
_diffrn_reflns_point_group_measured_fraction_full 0.999
_diffrn_reflns_point_group_measured_fraction_max 0.998
_diffrn_reflns_theta_full        25.242
_diffrn_reflns_theta_max         27.527
_diffrn_reflns_theta_min         2.980
_exptl_absorpt_coefficient_mu    19.260
_exptl_crystal_colour            clourless
_exptl_crystal_density_diffrn    4.784
_exptl_crystal_description       block
_exptl_crystal_F_000             1416
_refine_diff_density_max         4.594
_refine_diff_density_min         -3.229
_refine_diff_density_rms         0.347
_refine_ls_extinction_method     none
_refine_ls_goodness_of_fit_ref   1.100
_refine_ls_hydrogen_treatment    undef
_refine_ls_matrix_type           full
_refine_ls_number_parameters     185
_refine_ls_number_reflns         2565
_refine_ls_number_restraints     240
_refine_ls_restrained_S_all      1.082
_refine_ls_R_factor_all          0.0648
_refine_ls_R_factor_gt           0.0483
_refine_ls_shift/su_max          0.005
_refine_ls_shift/su_mean         0.000
_refine_ls_structure_factor_coef Fsqd
_refine_ls_weighting_details
'w=1/[\s^2^(Fo^2^)+(0.0442P)^2^+33.6983P] where P=(Fo^2^+2Fc^2^)/3'
_refine_ls_weighting_scheme      calc
_refine_ls_wR_factor_gt          0.1168
_refine_ls_wR_factor_ref         0.1235
_reflns_Friedel_coverage         0.000
_reflns_number_gt                2104
_reflns_number_total             2565
_reflns_threshold_expression     'I > 2\s(I)'
_cod_data_source_file            d0dt01799j2.cif
_cod_data_source_block           Ba2CdY2B4O12
_cod_depositor_comments
'Adding full bibliography for 7704953--7704955.cif.'
_cod_original_sg_symbol_H-M      'P 21/c'
_cod_database_code               7704954
_shelx_shelxl_version_number     2018/3
_shelx_space_group_comment
;
The symmetry employed for this shelxl refinement is uniquely defined
by the following loop, which should always be used as a source of
symmetry information in preference to the above space-group names.
They are only intended as comments.
;
_shelx_res_file
;
TITL whp in P2(1)/c
    whp.res
    created by SHELXL-2018/3 at 19:25:56 on 18-Oct-2019
CELL 0.71073  12.7018  13.6730   6.4210  90.000  94.932  90.000
ZERR    2.00   0.0020   0.0022   0.0011   0.000   0.006   0.000
LATT 1
SYMM -X, 0.5+Y, 0.5-Z
SFAC B  O  Y  Cd Ba
UNIT 16 48 8 4 8
LIST 4 ! automatically inserted. Change 6 to 4 for CHECKCIF!!
acta
L.S. 4
ACTA
rigu
BOND
FMAP 2
PLAN 20
ISOR 0.02 O4   CD1 O11
DELU B1 O8
TEMP 26.850
WGHT    0.044200   33.698296
FVAR       0.06480
MOLE 1
BA1   5    0.465301    0.646422    0.317192    11.00000    0.03279    0.03377 =
         0.02096   -0.00532    0.00688   -0.01376
BA3   5    0.004446    0.846605    0.154747    11.00000    0.02660    0.03333 =
         0.02179   -0.00493    0.00597   -0.00314
CD1   4    0.169003    0.575599    0.221473    11.00000    0.03368    0.04149 =
         0.01868    0.00121    0.00259   -0.01218
Y1    3   -0.267551    0.673901   -0.020832    11.00000    0.01858    0.06021 =
         0.01382   -0.00970    0.00288   -0.00903
Y2    3    0.302831    0.948139    0.280358    11.00000    0.03794    0.03189 =
         0.01523   -0.00494    0.00691   -0.01792
O1    2    0.468509    0.954797    0.210054    11.00000    0.03806    0.04591 =
         0.02983    0.00987    0.00804    0.02103
O2    2    0.363090    1.026749    0.595647    11.00000    0.07204    0.02547 =
         0.03001   -0.00293   -0.01683   -0.00946
O3    2    0.157480    1.012050    0.422200    11.00000    0.06835    0.07858 =
         0.04079    0.02649    0.02595    0.04089
O4    2    0.279922    0.837907    0.525345    11.00000    0.09896    0.04481 =
         0.03597   -0.00409    0.01920   -0.03154
O6    2   -0.308713    0.634747    0.309492    11.00000    0.02914    0.04989 =
         0.02319    0.01061   -0.00381    0.00958
O7    2   -0.231534    0.678315   -0.356494    11.00000    0.07373    0.04570 =
         0.02124   -0.00691    0.01304   -0.02835
simu  O4 O10 O8
isor 0.001 O8
DElu  0.02 O8
O8    2    0.145805    0.725182    0.406816    11.00000    0.06204    0.06354 =
         0.06292   -0.00029    0.00480   -0.00074
O10   2    0.308082    0.678027    0.558169    11.00000    0.11443
O11   2    0.217010    0.480024    0.485070    11.00000    0.10539    0.07748 =
         0.02909    0.00129   -0.01757    0.06428
O12   2   -0.086938    0.665555    0.047833    11.00000    0.03851    0.03759 =
         0.06269    0.01439    0.01497    0.00772
O13   2    0.005526    0.546502    0.268413    11.00000    0.01998    0.11055 =
         0.03376    0.02083    0.00456    0.00977
O14   2   -0.447756    0.676968   -0.095228    11.00000    0.03266    0.03002 =
         0.04076   -0.00802   -0.00913    0.00280
isor 0.0009 B1
simu
B1    1    0.240823    0.751095    0.495347    11.00000    0.02992    0.02929 =
         0.02922    0.00027    0.00308    0.00029
B3    1   -0.253316    0.609512    0.491371    11.00000    0.02356    0.03415 =
         0.01544   -0.00551   -0.00228    0.00453
B4    1   -0.074686    0.576274    0.134667    11.00000    0.02115    0.03035 =
         0.01800   -0.00487    0.00138    0.00455
B5    1   -0.449956    0.581915   -0.165211    11.00000    0.03130    0.01883 =
         0.02205    0.00162    0.00075   -0.00363
HKLF 4




REM  whp in P2(1)/c
REM wR2 = 0.123525, GooF = S = 1.09990, Restrained GooF = 1.08168 for all data
REM R1 = 0.048338 for 2104 Fo > 4sig(Fo) and 0.064822 for all 2565 data
REM 185 parameters refined using 240 restraints

END

WGHT      0.0523     33.4065

REM Highest difference peak  4.594,  deepest hole -3.229,  1-sigma level  0.347
Q1    1   0.2444  0.6583  0.5073  11.00000  0.05    4.59
Q2    1   0.1391  0.8048  0.4526  11.00000  0.05    3.42
Q3    1  -0.2891  0.7186 -0.0374  11.00000  0.05    3.10
Q4    1   0.3435  0.7987  0.5057  11.00000  0.05    2.62
Q5    1  -0.2758  0.6573  0.0299  11.00000  0.05    1.80
Q6    1   0.3304  0.6920  0.5916  11.00000  0.05    1.65
Q7    1   0.1888  0.5202  0.1952  11.00000  0.05    1.61
Q8    1   0.1089  0.9865  0.3792  11.00000  0.05    1.40
Q9    1   0.2777  0.9739  0.2853  11.00000  0.05    1.38
Q10   1   0.0049  0.6193  0.2792  11.00000  0.05    1.36
Q11   1   0.2987  0.9208  0.3378  11.00000  0.05    1.31
Q12   1  -0.2258  0.6793  0.0037  11.00000  0.05    1.28
Q13   1   0.2929  0.9060  0.2793  11.00000  0.05    1.27
Q14   1   0.4291  0.6737  0.3470  11.00000  0.05    1.21
Q15   1   0.3400  0.9565  0.2914  11.00000  0.05    1.15
Q16   1   0.2627  0.4972  0.4669  11.00000  0.05    1.09
Q17   1  -0.4242  0.6891 -0.2109  11.00000  0.05    0.90
Q18   1   0.1819  1.0244  0.4350  11.00000  0.05    0.87
Q19   1   0.1814  0.4669  0.4658  11.00000  0.05    0.84
Q20   1  -0.1037  0.6624  0.1673  11.00000  0.05    0.82
;
_shelx_res_checksum              60558
_shelx_hkl_file
;
   0   0   1    0.04    0.27
   0   0  -1    0.04    0.04
   0   0  -1   -0.18    0.11
   0   0   1    0.04    0.04
   0   0   2  255.57    6.94
   0   0   2  263.74   11.01
   0   0  -2  251.71    6.93
   0   0  -2  262.94   10.88
   0   0   3   -0.62    0.68
   0   0   3   -0.05    0.10
   0   0  -3   -0.48    0.62
   0   0  -3   -0.02    0.10
   0   0   4   67.56    6.62
   0   0   4   63.84    2.03
   0   0  -4   64.82    6.31
   0   0  -4   62.04    2.00
   0   0   5    0.51    1.71
   0   0  -5   -0.35    0.14
   0   0  -5   -0.44    1.27
   0   0  -5    0.23    0.26
   0   0  -5   -0.14    0.18
   0   0   6   78.92    2.60
   0   0   6   81.33    9.15
   0   0  -6   80.92    2.88
   0   0  -6   76.74    2.56
   0   0  -6   74.10    8.59
   0   0  -7   -0.27    0.28
   0   0  -7   -0.73    2.84
   0   0  -7   -0.21    0.38
   0   0   7    0.08    0.27
   0   0   7    0.07    3.06
   0   0  -8    1.35    0.51
   0   0   8    0.73    0.38
   0   0  -8    1.13    0.86
   0   0  -8   -2.27    5.73
   0   0   8    7.29    6.76
   0   1   1    1.75    0.15
   0   1  -1    1.50    0.56
   0   1   1    2.39    0.76
   0   1   1    1.82    0.16
   0  -1   1    1.93    0.09
   0  -1  -1    2.01    0.13
   0  -1  -1    2.43    0.75
   0  -1  -1    1.97    0.16
   0  -1  -1    1.87    0.16
   0   1   2   -0.14    0.24
   0   1   2    0.02    0.08
   0   1  -2    0.16    0.08
   0   1  -2    0.47    0.61
   0  -1   2   -0.04    0.42
   0  -1  -2    0.12    0.09
   0  -1  -2    0.17    0.10
   0  -1  -2    0.54    0.69
   0  -1   2    0.12    0.07
   0  -1  -2    0.18    0.11
   0   1   3   49.62    4.93
   0   1  -3   45.84    4.50
   0   1  -3   47.21    1.42
   0   1   3   44.85    1.51
   0  -1  -3   46.17    1.62
   0  -1  -3   42.99    4.45
   0  -1   3   48.56    4.80
   0  -1  -3   45.06    1.53
   0  -1  -3   44.81    1.50
   0  -1   3   47.00    1.43
   0   1  -4    0.44    0.94
   0   1   4    0.88    0.23
   0   1  -4    0.56    0.16
   0  -1  -4   -0.10    0.97
   0  -1   4    1.80    1.47
   0  -1  -4    0.68    0.22
   0  -1  -4    0.99    0.22
   0  -1  -4    0.68    0.26
   0  -1   4    0.78    0.19
   0   1  -5    7.48    2.70
   0   1   5    1.23    1.92
   0   1   5    6.34    0.53
   0  -1   5    7.59    2.61
   0  -1   5    5.21    0.45
   0  -1  -5    5.14    0.55
   0  -1  -5    9.57    3.07
   0  -1  -5    5.42    0.62
   0  -1  -5    6.69    0.52
   0   1  -6   40.04    1.76
   0   1   6   36.38    1.52
   0   1  -6   38.99    5.97
   0   1   6   40.96    7.87
   0  -1   6   45.09    6.80
   0  -1   6   37.43    1.44
   0  -1  -6   35.74    1.67
   0  -1  -6   37.21    1.51
   0  -1  -6   31.81    6.61
   0   1  -7   45.64    2.22
   0   1   7   48.22    1.91
   0   1  -7   46.98    2.16
   0   1  -7   39.09    7.96
   0   1   7   47.63    9.29
   0  -1   7   40.71    8.17
   0  -1  -7   49.03    2.15
   0  -1  -7   48.93    2.25
   0  -1   7   49.10    1.78
   0  -1  -7   37.72    7.56
   0   1  -8    5.88    5.22
   0   1  -8    0.69    0.66
   0   1  -8    0.54    0.41
   0   1   8    0.15    0.37
   0   1   8    3.74    4.68
   0  -1  -8   -5.82    3.70
   0  -1   8   -1.67    4.63
   0  -1  -8    0.36    0.43
   0  -1  -8    0.52    0.80
   0  -1   8    1.10    0.36
   0   2   0    2.81    0.21
   0   2   0    3.07    0.17
   0   2   0    3.00    0.69
   0  -2   0    3.55    0.18
   0  -2   0    2.08    0.68
   0  -2   0    2.97    0.22
   0  -2   0    3.04    0.17
   0   2  -1   11.80    1.44
   0   2   1   12.35    1.56
   0   2   1   10.71    0.40
   0   2   1   12.36    0.48
   0   2   1   10.86    0.47
   0  -2  -1   12.02    0.41
   0  -2  -1   11.15    0.47
   0  -2  -1   12.53    1.55
   0  -2  -1   11.02    0.46
   0   2  -2  203.30    9.22
   0   2   2  189.64    5.49
   0   2   2  197.33   11.76
   0   2   2  199.98    5.47
   0  -2  -2  193.76    5.49
   0  -2  -2  181.54   11.33
   0  -2  -2  200.09    5.41
   0  -2  -2  199.29    5.46
   0  -2   2  203.13    9.27
   0  -2   2  204.10    5.27
   0   2   3  112.80    7.62
   0   2   3  102.12    3.08
   0   2  -3  102.97    7.15
   0  -2  -3  102.70    3.14
   0  -2   3  102.30    7.22
   0  -2  -3  102.36    3.04
   0  -2  -3   95.38    7.07
   0  -2   3  104.41    2.87
   0  -2  -3  103.15    3.07
   0   2  -4   41.54    5.02
   0   2   4   36.83    4.87
   0  -2   4   38.10    4.91
   0  -2  -4   36.47    4.86
   0  -2   4   37.66    1.23
   0  -2  -4   36.85    1.41
   0  -2  -4   37.88    1.40
   0  -2  -4   35.71    1.50
   0   2   5    7.15    0.61
   0   2  -5    8.58    3.79
   0   2   5   11.38    3.52
   0  -2  -5    7.30    0.69
   0  -2  -5    7.68    0.63
   0  -2   5    8.12    0.50
   0  -2  -5    7.47    0.59
   0  -2  -5    6.50    2.75
   0  -2   5    8.77    4.15
   0   2   6   67.92    8.37
   0   2  -6   52.24    7.05
   0   2   6   52.54    1.98
   0  -2  -6   51.65    2.07
   0  -2  -6   48.27    2.60
   0  -2   6   59.60    7.78
   0  -2   6   51.15    1.75
   0  -2  -6   54.08    7.29
   0  -2  -6   48.73    1.91
   0   2   7   -0.06    0.31
   0   2  -7   -0.43    0.30
   0   2   7    2.72    3.34
   0   2  -7    4.35    2.85
   0   2  -7   -0.32    0.28
   0  -2   7   -2.36    2.29
   0  -2  -7    1.86    2.81
   0  -2  -7    0.09    0.42
   0  -2  -7   -0.65    0.26
   0  -2   7   -0.30    0.21
   0   2  -8    0.64    0.44
   0   2  -8    0.81    0.52
   0   2   8   -0.30    0.36
   0   2   8    0.46    5.55
   0   2  -8   -2.99    3.72
   0  -2   8    0.95    0.32
   0  -2  -8    0.68    0.57
   0  -2  -8    0.16    0.38
   0  -2  -8   -0.26    3.88
   0  -2   8   -4.28    4.86
   0   3   0    0.07    0.07
   0   3   0    0.45    0.40
   0   3   0    0.02    0.10
   0   3   0   -0.01    0.07
   0  -3   0    0.09    0.07
   0  -3   0    0.34    0.14
   0  -3   0    0.03    0.06
   0   3   1   20.99    0.68
   0   3  -1   19.95    0.76
   0   3   1   19.02    0.76
   0   3  -1   19.37    0.60
   0   3  -1   21.73    2.20
   0   3   1   19.88    0.75
   0  -3  -1   20.47    0.75
   0  -3   1   20.24    0.61
   0  -3  -1   19.94    0.66
   0  -3  -1   18.83    0.74
   0  -3   1   24.42    2.34
   0   3   2    0.91    0.72
   0   3   2    0.73    0.18
   0   3   2    0.50    0.17
   0   3   2    0.47    0.11
   0   3  -2    0.05    0.42
   0  -3  -2    0.54    0.18
   0  -3  -2    0.32    0.14
   0  -3  -2   -0.23    0.48
   0  -3  -2    0.54    0.13
   0   3   3  776.75   20.70
   0   3   3  800.75   28.12
   0   3  -3  766.45   27.26
   0  -3  -3  755.45   20.58
   0  -3   3  785.04   20.36
   0  -3   3  778.13   27.41
   0  -3  -3  767.51   21.39
   0  -3  -3  766.97   20.67
   0  -3  -3  760.80   27.63
   0   3   4    3.34    0.46
   0   3  -4    5.03    2.08
   0   3   4    4.63    2.26
   0  -3  -4    3.20    0.36
   0  -3   4    4.14    0.28
   0  -3  -4    4.57    2.19
   0  -3  -4    4.16    0.49
   0  -3  -4    3.46    0.40
   0  -3   4    3.79    2.05
   0   3   5   18.56    4.48
   0   3  -5   20.37    4.68
   0   3   5   18.80    1.00
   0  -3  -5   17.94    0.94
   0  -3  -5   16.86    0.93
   0  -3   5   19.81    4.74
   0  -3  -5   17.29    1.06
   0  -3   5   18.41    0.73
   0  -3  -5   18.41    4.55
   0   3   6   -0.33    0.24
   0   3  -6    1.63    2.16
   0   3   6    1.26    2.94
   0  -3  -6    0.63    0.27
   0  -3   6    0.36    0.20
   0  -3  -6    0.41    2.38
   0  -3  -6    0.32    0.29
   0  -3  -6   -0.09    0.35
   0  -3   6    1.84    2.05
   0   3   7    0.75    0.40
   0   3   7    1.08    2.98
   0   3  -7    1.37    0.50
   0   3  -7   -0.12    2.47
   0  -3   7   -2.30    3.00
   0  -3  -7    1.64    0.56
   0  -3   7    1.44    0.29
   0  -3  -7    0.70    0.37
   0  -3  -7    4.97    2.98
   0   3  -8    2.10    4.97
   0   3   8   -1.27    5.07
   0   3  -8    0.34    0.39
   0   3   8    0.67    0.44
   0   3  -8    0.27    0.52
   0  -3  -8   -0.06    0.46
   0  -3  -8    0.08    0.40
   0  -3   8   -1.12    4.55
   0  -3  -8    2.65    4.49
   0   4   0  426.20   14.54
   0   4   0  434.44   11.22
   0   4   0  375.54   11.35
   0  -4   0  427.75   11.39
   0  -4   0  435.38   11.21
   0   4   1   15.28    0.69
   0   4   1   15.52    0.58
   0   4   1   15.75    2.00
   0   4  -1   14.99    0.52
   0   4   1   14.20    0.65
   0   4  -1   17.14    2.18
   0   4  -1   14.51    0.68
   0  -4   1   14.95    0.51
   0  -4  -1   14.56    0.55
   0  -4  -1   11.70    1.81
   0  -4  -1   15.50    0.66
   0  -4   1   14.05    2.08
   0  -4   1   15.29    0.70
   0  -4  -1   14.84    0.64
   0   4   2   67.88    2.14
   0   4   2   67.32    2.12
   0   4   2   63.95    1.94
   0   4  -2   61.37    4.87
   0   4  -2   65.36    2.10
   0   4   2   65.45    5.17
   0  -4   2   54.19    6.40
   0  -4  -2   68.11    1.95
   0  -4  -2   66.32    2.10
   0  -4  -2   65.62    2.10
   0  -4  -2   75.48    5.48
   0   4   3   20.32    3.91
   0   4   3   18.13    0.98
   0   4   3   17.50    0.88
   0   4  -3   19.23    3.00
   0  -4  -3   17.62    3.61
   0  -4  -3   17.63    0.75
   0  -4  -3   17.72    0.84
   0  -4  -3   18.03    0.88
   0   4   4    9.55    0.68
   0   4  -4    7.45    2.36
   0   4   4    6.32    2.42
   0  -4   4    7.77    2.76
   0  -4  -4   10.16    0.66
   0  -4  -4    9.34    0.59
   0  -4  -4    9.42    0.71
   0  -4  -4    8.72    2.91
   0   4  -5    0.21    1.69
   0   4   5   -0.02    0.23
   0   4   5    2.08    1.72
   0  -4  -5   -0.07    0.28
   0  -4  -5   -0.50    0.18
   0  -4  -5    0.24    0.24
   0  -4  -5   -1.17    1.10
   0  -4   5   -0.88    1.06
   0   4  -6   68.73    8.29
   0   4   6   76.39    2.80
   0  -4   6   88.01    9.34
   0  -4  -6   80.27    2.78
   0  -4  -6   78.30    2.97
   0   4  -7   -3.28    2.15
   0   4   7    9.82    3.70
   0   4   7   -0.32    0.31
   0  -4   7    4.68    3.90
   0  -4  -7    0.54    0.38
   0  -4  -7   -5.49    2.54
   0  -4  -7    0.19    0.46
   0   4  -8    6.29    6.09
   0   4   8    1.57    5.30
   0   4  -8    4.85    0.85
   0   4   8    3.23    0.66
   0  -4  -8    2.88    0.74
   0  -4  -8    3.18    0.66
   0  -4  -8   -3.81    4.10
   0   5   0    0.56    0.68
   0   5   0   -0.17    0.08
   0   5   0    0.23    0.16
   0   5   0    0.08    0.10
   0   5   0    0.34    0.50
   0  -5   0    0.08    0.10
   0  -5   0    0.08    0.15
   0   5  -1   21.02    2.68
   0   5  -1   23.87    0.80
   0   5  -1   24.18    1.00
   0   5   1   24.03    0.94
   0   5   1   24.99    0.87
   0   5   1   21.71    2.56
   0  -5  -1   22.83    2.79
   0  -5  -1   23.50    0.93
   0  -5   1   23.04    0.79
   0  -5   1   22.52    1.00
   0  -5   1   23.53    2.98
   0  -5  -1   24.81    0.83
   0  -5  -1   23.00    0.95
   0   5  -2    3.07    1.19
   0   5   2    3.86    0.28
   0   5   2    3.47    1.38
   0   5   2    3.46    0.38
   0   5  -2    3.57    0.36
   0   5   2    3.53    0.39
   0  -5  -2    3.86    1.48
   0  -5  -2    3.81    0.28
   0  -5   2    3.73    1.49
   0  -5  -2    3.06    0.36
   0  -5  -2    3.47    0.36
   0   5   3   47.76    1.77
   0   5   3   43.89    5.01
   0   5   3   49.57    1.81
   0   5  -3   45.92    1.72
   0   5  -3   50.63    5.04
   0  -5  -3   50.14    1.59
   0  -5  -3   46.37    1.75
   0  -5  -3   49.29    1.75
   0  -5  -3   52.99    5.36
   0   5   4    2.83    0.44
   0   5   4    3.19    1.98
   0   5  -4    5.78    2.29
   0  -5   4    4.84    1.99
   0  -5  -4    3.13    0.45
   0  -5  -4    2.07    1.73
   0  -5  -4    3.01    0.48
   0  -5  -4    3.63    0.38
   0   5  -5    1.92    1.96
   0   5   5    1.35    0.40
   0   5   5    1.20    1.72
   0  -5  -5    1.48    0.42
   0  -5  -5    1.51    0.35
   0  -5  -5    1.11    1.91
   0  -5  -5    1.44    0.36
   0  -5   5    1.24    1.86
   0   5   6   36.42    1.75
   0   5  -6   43.17    6.59
   0   5   6   46.78    7.21
   0  -5  -6   37.42    1.63
   0  -5   6   39.60    6.41
   0  -5  -6   40.47    1.88
   0  -5  -6   39.45    7.50
   0   5   7    9.88    4.87
   0   5   7    6.27    0.79
   0  -5  -7    5.67    4.20
   0  -5  -7    4.38    0.77
   0  -5  -7    6.34    0.73
   0   6   0  309.58    8.35
   0   6   0  282.81    8.53
   0   6   0  321.21   12.61
   0   6   0  268.72   14.24
   0   6   0  321.13    8.34
   0  -6   0  308.65    8.30
   0  -6   0  313.82    8.56
   0   6   1   74.60    2.29
   0   6  -1   77.58    5.74
   0   6  -1   70.79    2.33
   0   6   1   68.27    2.37
   0   6   1   72.51    5.18
   0   6  -1   69.39    2.40
   0   6  -1   69.07    2.10
   0   6   1   72.05    2.18
   0  -6   1   67.61    2.08
   0  -6  -1   75.47    5.61
   0  -6  -1   73.36    2.15
   0  -6  -1   71.22    2.25
   0  -6  -1   73.48    2.35
   0  -6   1   82.32    6.31
   0  -6   1   68.71    2.38
   0   6   2   80.84    2.66
   0   6  -2   78.94    2.25
   0   6   2   77.74    2.40
   0   6  -2   79.87    2.62
   0   6   2   82.81    6.22
   0   6  -2   79.27    5.96
   0   6   2   80.97    2.60
   0  -6  -2   78.92    2.56
   0  -6  -2   76.91    6.20
   0  -6   2   82.64    6.42
   0  -6  -2   85.64    2.38
   0  -6   2   78.77    2.23
   0  -6  -2   79.13    2.57
   0   6  -3   12.52    3.06
   0   6  -3   12.69    0.76
   0   6   3   12.58    0.58
   0   6   3   11.77    3.17
   0   6   3   13.02    0.80
   0   6   3   11.90    0.80
   0  -6  -3   13.76    0.78
   0  -6   3   12.61    3.09
   0  -6  -3   13.72    0.80
   0  -6  -3   13.34    0.61
   0  -6  -3   13.29    3.35
   0   6  -4   36.05    1.55
   0   6  -4   39.47    4.88
   0   6   4   34.90    1.58
   0   6   4   40.38    5.36
   0  -6  -4   41.44    5.33
   0  -6  -4   39.51    1.39
   0  -6  -4   36.47    1.55
   0  -6  -4   37.64    1.61
   0   6   5    3.18    2.26
   0   6  -5    0.92    1.84
   0   6   5    6.10    0.73
   0  -6  -5    6.85    0.55
   0  -6  -5    2.33    2.74
   0  -6  -5    6.73    0.72
   0  -6   5    5.96    2.68
   0   6  -6   92.93    9.45
   0   6   6   96.58    3.40
   0   6   6  102.46   10.84
   0  -6  -6   91.72    3.11
   0  -6  -6   87.27    9.31
   0  -6   6  102.31   10.11
   0   6   7    4.60    4.59
   0   6   7    6.38    0.83
   0   6  -7    7.25    4.38
   0  -6  -7    3.03    3.66
   0  -6   7    1.60    4.16
   0  -6  -7    6.90    0.72
   0  -6  -7    5.35    0.82
   0   7   0    0.03    0.14
   0   7   0    0.08    0.43
   0   7   0    0.07    0.12
   0   7   0   -0.06    0.48
   0   7   0   -0.11    0.15
   0  -7   0    0.21    0.22
   0  -7   0    0.11    0.14
   0   7   1   75.89    2.29
   0   7  -1   73.90    6.01
   0   7  -1   74.02    2.44
   0   7   1   71.88    5.42
   0   7   1   71.83    2.38
   0   7  -1   71.30    2.52
   0   7  -1   72.54    2.20
   0   7   1   69.86    2.52
   0  -7   1   71.45    2.51
   0  -7  -1   76.32    2.53
   0  -7  -1   69.15    5.84
   0  -7   1   70.61    2.17
   0  -7  -1   77.89    2.26
   0  -7  -1   72.96    2.34
   0   7   2   -0.11    0.75
   0   7  -2    0.85    0.28
   0   7   2    0.28    0.17
   0   7   2    0.53    0.24
   0   7  -2    1.51    1.02
   0   7   2    0.41    0.24
   0   7  -2    1.07    0.27
   0  -7  -2    0.75    0.24
   0  -7  -2    1.07    0.20
   0  -7  -2    0.72    0.26
   0  -7   2    1.27    0.99
   0  -7  -2    0.01    0.90
   0   7   3  352.41   16.87
   0   7   3  334.11    9.49
   0   7  -3  337.46    9.83
   0   7  -3  341.54   16.01
   0   7   3  342.79    9.87
   0   7   3  364.80    9.99
   0  -7  -3  362.50    9.52
   0  -7  -3  355.79    9.83
   0  -7   3  376.01   17.01
   0  -7  -3  346.56    9.84
   0  -7  -3  350.25   16.98
   0   7   4    0.51    1.86
   0   7   4    0.28    0.29
   0   7   4    0.26    0.30
   0   7  -4    1.76    1.31
   0   7  -4    0.23    0.23
   0  -7  -4    0.27    0.29
   0  -7  -4    0.10    0.25
   0  -7   4    0.00    1.15
   0  -7  -4    0.60    0.22
   0  -7  -4   -0.36    0.94
   0   7  -5   93.64    8.83
   0   7   5  105.36   10.05
   0   7   5  110.24    3.71
   0  -7  -5  110.33    3.35
   0  -7  -5  105.74    9.91
   0  -7  -5  112.02    3.93
   0   7  -6   18.44    4.74
   0   7   6   20.51    6.13
   0   7   6   22.52    1.38
   0  -7  -6   21.87    1.10
   0  -7  -6   19.87    1.36
   0  -7   6   30.93    6.26
   0  -7  -6   18.20    5.49
   0   7   7    4.59    0.72
   0   7  -7    3.52    3.57
   0  -7   7    6.78    3.94
   0  -7  -7    3.60    0.73
   0  -7  -7    1.00    3.53
   0  -7  -7    4.26    0.59
   0   8   0   95.51    2.92
   0   8   0   87.18    3.12
   0   8   0   94.02    2.88
   0   8   0  101.20    8.50
   0   8   0   84.90    6.20
   0  -8   0   94.80    3.15
   0  -8   0   95.53    2.85
   0   8   1   48.52    2.00
   0   8  -1   51.01    1.99
   0   8  -1   49.72    1.66
   0   8   1   51.35    4.75
   0   8  -1   50.74    1.88
   0   8  -1   48.29    5.17
   0   8   1   50.62    1.83
   0   8  -1   53.11    5.06
   0   8   1   53.23    1.77
   0  -8  -1   48.99    1.77
   0  -8   1   52.63    2.00
   0  -8  -1   52.22    5.37
   0  -8   1   49.43    1.63
   0  -8  -1   51.78    1.71
   0  -8  -1   51.23    1.93
   0   8   2   12.21    0.67
   0   8   2   12.45    0.80
   0   8  -2   12.97    0.85
   0   8   2   13.17    3.11
   0   8   2   12.84    0.88
   0   8  -2   11.01    0.80
   0   8  -2   10.39    2.83
   0   8  -2   13.14    0.56
   0  -8  -2   14.98    3.46
   0  -8  -2   12.59    0.79
   0  -8  -2   12.23    0.60
   0  -8  -2   13.35    0.78
   0  -8   2   13.56    3.23
   0  -8   2   12.00    0.52
   0   8   3    0.01    0.24
   0   8  -3    0.13    1.16
   0   8  -3   -0.13    0.24
   0   8   3    1.41    1.41
   0   8  -3    0.04    0.23
   0   8   3    0.04    0.14
   0   8   3    0.24    0.25
   0  -8  -3    0.18    0.21
   0  -8  -3   -0.21    0.23
   0  -8  -3   -0.07    1.18
   0  -8  -3    0.16    0.16
   0   8  -4   54.50    6.09
   0   8   4   56.95    2.22
   0   8   4   48.73    6.29
   0  -8  -4   50.33    6.57
   0  -8  -4   55.92    1.82
   0  -8  -4   54.07    2.15
   0  -8   4   50.51    6.35
   0   8  -5   -1.10    1.70
   0   8   5    1.09    1.81
   0   8   5    0.17    0.37
   0  -8  -5    0.04    0.36
   0  -8   5    0.88    2.51
   0  -8  -5   -0.12    0.21
   0  -8  -5   -0.78    2.61
   0   8   6   12.86    1.08
   0   8   6   18.25    5.51
   0   8  -6   15.66    4.24
   0  -8  -6    3.49    3.58
   0  -8  -6   12.54    0.78
   0  -8  -6   12.35    1.09
   0   8   7    4.38    0.73
   0   8  -7    3.89    3.43
   0   8   7    0.27    5.03
   0  -8  -7    4.31    0.59
   0  -8  -7    5.04    1.03
   0  -8   7    2.53    3.61
   0  -8  -7    0.08    4.08
   0   9   0    0.44    0.93
   0   9   0   -0.12    0.15
   0   9   0    0.33    0.26
   0   9   0   -0.21    0.17
   0   9   0   -1.12    1.29
   0  -9   0    0.23    0.28
   0   9  -1    4.77    0.51
   0   9   1    3.85    0.61
   0   9  -1    4.38    0.54
   0   9   1    4.13    0.49
   0   9  -1    3.90    0.39
   0   9   1    3.21    1.60
   0   9  -1    5.89    2.56
   0   9  -1    2.52    1.57
   0  -9  -1    3.83    0.47
   0  -9  -1    3.90    0.56
   0  -9   1    3.30    0.34
   0  -9   1    3.61    0.56
   0  -9  -1    4.42    1.78
   0   9  -2    5.56    0.39
   0   9   2    5.09    0.48
   0   9  -2    6.18    0.72
   0   9  -2    4.47    1.81
   0   9  -2    4.54    0.59
   0   9   2    3.24    1.41
   0   9   2    5.07    0.58
   0  -9  -2    6.03    2.44
   0  -9   2    5.14    0.36
   0  -9   2    6.91    2.60
   0  -9  -2    5.34    0.60
   0  -9   2    5.71    0.67
   0  -9  -2    6.16    0.43
   0  -9  -2    5.68    0.63
   0   9   3   45.27    5.59
   0   9  -3   51.88    2.14
   0   9  -3   56.66    2.30
   0   9   3   51.75    2.12
   0   9   3   51.38    1.76
   0   9   3   56.69    2.29
   0   9  -3   54.26    5.70
   0  -9   3   63.33    6.54
   0  -9  -3   53.12    2.07
   0  -9  -3   56.03    1.77
   0  -9  -3   53.28    2.09
   0  -9  -3   60.74    6.63
   0   9   4   37.64    1.79
   0   9  -4   36.54    5.14
   0   9   4   33.70    5.42
   0  -9  -4   38.53    1.74
   0  -9  -4   40.37    1.40
   0  -9   4   37.91    5.56
   0  -9  -4   43.90    6.18
   0   9   5   10.82    3.63
   0   9  -5    7.20    2.94
   0   9   5    5.63    0.80
   0  -9  -5   10.08    3.95
   0  -9  -5    6.94    0.52
   0  -9   5    3.94    3.24
   0  -9  -5    6.85    0.85
   0   9   6   18.19    1.31
   0   9  -6   12.03    3.85
   0  -9   6   16.60    4.92
   0  -9  -6   20.95    1.39
   0  -9  -6   18.60    1.14
   0   9   7    6.17    1.01
   0  -9  -7    7.09    0.68
   0  -9  -7    8.60    1.05
   0  10   0  296.21   13.85
   0  10   0  301.25   16.84
   0  10   0  299.48    8.46
   0  10   0  310.47    8.55
   0  10   0  281.41    9.04
   0 -10   0  303.32    8.41
   0 -10   0  311.63    8.82
   0  10  -1    2.01    1.29
   0  10  -1    0.34    0.28
   0  10   1    0.67    0.27
   0  10  -1    0.18    0.22
   0  10  -1    1.61    1.49
   0  10   1    0.53    0.33
   0  10   1    0.47    1.01
   0  10   1    0.03    0.22
   0  10  -1    0.20    0.20
   0 -10   1   -0.49    0.23
   0 -10  -1    0.12    0.31
   0 -10   1    0.00    0.17
   0 -10  -1    0.20    0.21
   0  10   2   95.23    7.48
   0  10  -2   89.23    7.27
   0  10  -2   87.47    3.24
   0  10   2   86.74    3.00
   0  10  -2   88.49    3.16
   0  10   2   73.08    2.95
   0  10  -2   88.39    2.62
   0  10   2   77.37    3.15
   0 -10  -2   83.72    7.92
   0 -10  -2   88.74    3.06
   0 -10  -2   90.29    2.70
   0 -10   2   87.17    8.19
   0 -10  -2   88.57    2.94
   0 -10   2   86.82    2.59
   0 -10   2   91.90    3.19
   0  10   3   13.28    3.64
   0  10  -3   19.00    4.11
   0  10   3   16.52    1.08
   0  10   3   15.89    0.77
   0 -10  -3   12.29    3.68
   0 -10   3   12.90    3.64
   0 -10  -3   16.64    1.07
   0 -10  -3   17.15    0.77
   0  10   4   -0.22    0.35
   0  10  -4    1.30    2.03
   0  10   4    0.63    1.83
   0 -10  -4   -1.79    1.60
   0 -10  -4    0.21    0.20
   0 -10   4    0.49    1.76
   0 -10  -4    0.30    0.37
   0  10   5    7.65    0.91
   0  10  -5    3.55    2.76
   0 -10  -5    8.57    0.56
   0 -10  -5   11.08    3.88
   0 -10  -5    8.35    0.91
   0 -10   5    6.99    3.51
   0  10   6   29.80    7.15
   0  10   6   31.64    1.77
   0  10  -6   26.46    5.61
   0 -10  -6   33.42    7.61
   0 -10   6   22.81    5.92
   0 -10  -6   27.57    1.17
   0  11   0   -0.42    0.24
   0  11   0   -0.08    0.19
   0  11   0    0.37    1.62
   0  11   0   -0.44    0.97
   0  11   0    0.10    0.23
   0 -11   0    0.41    0.34
   0 -11   0   -0.04    0.17
   0  11   1   27.37    4.16
   0  11   1   36.45    1.51
   0  11  -1   35.30    1.38
   0  11  -1   32.70    1.56
   0  11  -1   35.30    1.75
   0  11   1   31.44    1.72
   0  11   1   33.33    1.52
   0  11  -1   33.79    4.37
   0 -11  -1   34.70    1.68
   0 -11   1   35.37    1.33
   0 -11   1   37.39    1.74
   0 -11  -1   35.07    1.48
   0  11   2   10.89    0.87
   0  11  -2   11.77    3.36
   0  11  -2   11.04    0.62
   0  11  -2   11.41    3.20
   0  11  -2   10.02    0.86
   0  11   2    8.43    0.69
   0  11   2    7.92    2.48
   0 -11   2   10.69    0.95
   0 -11  -2   15.38    4.16
   0 -11   2    9.97    0.56
   0 -11  -2   11.55    0.94
   0  11   3   14.59    1.00
   0  11  -3   15.41    3.72
   0  11   3   15.35    1.11
   0  11   3   19.85    4.47
   0 -11   3   12.74    4.01
   0 -11  -3   16.94    1.14
   0 -11  -3   15.65    4.05
   0 -11  -3   14.19    0.74
   0  11  -4    0.61    1.65
   0  11   4    1.04    0.44
   0 -11   4    0.96    2.99
   0 -11  -4    0.52    2.08
   0 -11  -4    0.47    0.23
   0 -11  -4   -0.14    0.39
   0  11   5    7.25    3.75
   0  11   5    4.57    0.76
   0 -11  -5    7.89    0.91
   0 -11  -5   -0.26    3.52
   0 -11  -5    6.19    0.47
   0  11  -6    5.83    3.87
   0  11   6    3.06    0.72
   0 -11   6   -1.37    4.29
   0 -11  -6    2.33    0.66
   0  12   0   46.93    1.93
   0  12   0   47.82    1.87
   0  12   0   40.65    4.80
   0 -12   0   47.15    1.93
   0 -12   0   46.77    2.12
   0  12   1    1.27    1.72
   0  12   1    3.44    0.57
   0  12   1    4.94    0.57
   0  12  -1    1.48    1.53
   0  12   1    6.21    3.45
   0  12  -1    4.80    0.65
   0  12  -1    4.33    0.53
   0 -12  -1    3.53    0.69
   0 -12  -1    3.52    0.50
   0 -12   1    5.43    0.80
   0 -12   1    4.22    0.45
   0  12   2    0.31    0.33
   0  12  -2   -1.04    1.68
   0  12   2    0.48    0.31
   0  12  -2    0.73    0.30
   0  12   2    0.64    1.50
   0 -12  -2    0.02    0.36
   0 -12   2    0.72    0.58
   0 -12   2    1.40    0.27
   0 -12  -2   -1.16    1.82
   0  12   3    0.97    0.27
   0  12   3    0.74    0.41
   0  12  -3   -0.23    1.57
   0 -12  -3    0.48    2.27
   0 -12   3    5.91    2.98
   0 -12  -3    0.94    0.47
   0  12   4   -0.02    2.42
   0  12  -4    1.77    1.81
   0  12   4    0.48    0.43
   0 -12   4    3.54    3.06
   0 -12  -4   -1.33    2.54
   0 -12  -4   -0.15    0.40
   0 -12  -4    0.09    0.20
   0  12  -5    2.19    2.38
   0  12   5    2.07    0.59
   0 -12  -5    1.90    0.59
   0 -12   5    2.09    3.63
   0  12   6    6.80    0.98
   0 -12  -6    6.00    0.91
   0  13   0   -0.51    0.23
   0  13   0    0.06    0.29
   0  13   0   -1.12    1.82
   0 -13   0    0.49    0.26
   0 -13   0    0.10    0.45
   0  13   1    8.94    0.82
   0  13  -1    7.51    0.67
   0  13  -1    8.82    0.78
   0  13   1    4.15    2.79
   0  13   1    7.99    0.75
   0  13  -1    7.41    3.09
   0 -13   1    7.58    0.62
   0 -13  -1    9.37    0.99
   0 -13   1    9.14    0.96
   0  13  -2    5.40    0.52
   0  13   2    5.20    0.67
   0  13  -2    3.36    2.02
   0  13   2    6.69    0.79
   0 -13   2    4.76    0.46
   0 -13  -2    5.16    0.77
   0 -13   2    6.56    0.94
   0  13   3   28.93    6.14
   0  13  -3   22.06    4.57
   0  13   3   31.88    1.70
   0  13   3   30.93    1.27
   0 -13  -3   30.22    1.69
   0 -13   3   29.00    1.07
   0 -13  -3   30.96    6.42
   0  13   4   14.60    1.24
   0  13  -4   13.72    4.00
   0  13   4    8.12    4.94
   0 -13  -4   11.36    6.52
   0 -13  -4   15.01    1.23
   0 -13   4   21.61    5.57
   0  13   5    1.35    0.60
   0  13  -5    6.91    3.45
   0 -13   5    0.05    4.17
   0 -13  -5    0.54    0.53
   0  14   0   31.08    1.56
   0  14   0   28.54    5.94
   0  14   0   34.71    1.70
   0 -14   0   36.88    1.87
   0  14   1    3.76    0.61
   0  14   1    0.24    3.13
   0  14  -1    0.92    1.91
   0  14  -1    4.87    0.62
   0  14   1    2.46    1.88
   0 -14   1    4.51    0.50
   0 -14   1    3.04    0.66
   0 -14  -1    3.08    0.71
   0  14   2   30.34    1.57
   0  14   2   35.53    1.78
   0  14  -2   33.32    1.41
   0  14  -2   31.57    7.16
   0  14  -2   24.11    5.26
   0  14   2   28.51    5.68
   0 -14  -2   35.40    1.88
   0 -14   2   40.99    2.03
   0 -14   2   35.16    1.35
   0  14   3   10.65    0.70
   0  14  -3   11.56    3.69
   0  14   3   10.77    1.07
   0 -14   3   10.47    0.56
   0 -14  -3   11.41    1.09
   0  14   4    2.22    0.66
   0  14  -4    3.43    2.67
   0 -14  -4    2.08    0.64
   0  14   5   12.68    1.27
   0  14  -5   12.93    4.24
   0 -14  -5   12.26    1.25
   0  15   0    0.30    0.32
   0  15   0   -1.21    2.32
   0  15   0    0.26    0.37
   0 -15   0   -0.65    0.38
   0  15   1   -0.13    2.93
   0  15   1    0.21    0.39
   0  15  -1    5.32    2.73
   0  15  -1    1.18    0.44
   0 -15  -1    1.22    0.57
   0 -15   1    1.55    0.58
   0 -15   1    0.34    0.30
   0  15   2    2.16    0.61
   0  15   2   -5.91    3.88
   0  15  -2    4.20    2.78
   0  15  -2    3.28    0.49
   0  15   2    2.70    0.53
   0 -15   2    3.23    0.75
   0 -15  -2    3.39    0.76
   0 -15   2    2.73    0.41
   0  15   3    3.25    0.70
   0  15  -3   -0.34    2.19
   0  15   3    3.24    0.47
   0 -15  -3    2.95    0.69
   0  15   4    0.46    0.52
   0  15  -4    6.28    3.07
   0 -15  -4    0.96    0.62
   0  16   0   13.82    1.11
   0  16   0   11.77    4.11
   0 -16   0   18.61    1.43
   0  16   1   28.08    1.58
   0  16   1   22.49    1.44
   0  16  -1   24.09    1.33
   0  16   1   19.39    5.87
   0  16  -1   25.30    5.73
   0 -16   1   27.50    1.69
   0  16   2    8.44    4.54
   0  16   2    0.99    0.48
   0  16  -2    1.60    2.67
   0  16  -2    0.45    0.35
   0  16   2    0.59    0.49
   0 -16   2    0.38    0.46
   0 -16  -2   -0.01    0.49
   0 -16   2    0.57    0.32
   0  16   3   12.98    1.29
   0  16  -3    6.66    3.70
   0 -16  -3   11.21    1.40
   0  17   0    4.22    3.43
   0  17  -1    0.99    3.38
   0  17   1    3.61    0.71
   0  17   1    7.12    4.59
   0  17  -1    3.42    0.62
   0 -17   1    3.93    1.26
   0  17  -2    3.28    3.72
   0  17   2    0.94    0.52
   0  17  -2    0.35    0.35
   0  17   2   -0.45    4.71
   0 -17  -2    1.21    0.64
   1   0  -8   26.81    8.28
  -1   0   8   33.19    8.41
  -1   0   8   32.14    1.51
   1   0  -8   33.14    1.84
  -1   0   7    0.53    3.09
   1   0  -7    0.17    3.10
   1   0  -7    0.01    0.29
  -1   0   7    0.22    0.32
   1   0  -7    0.19    0.39
   1   0  -6    6.10    0.75
  -1   0   6    6.35    0.59
   1   0  -6    7.06    0.69
   1   0  -6    5.94    2.96
  -1   0   6    7.07    3.37
   1   0  -5   -0.20    1.71
  -1   0   5    0.22    0.20
   1   0  -5   -0.12    0.22
  -1   0   5    0.83    1.52
  -1   0   4   -0.79    0.87
  -1   0   4    0.22    0.17
   1   0  -4    0.45    0.17
   1   0  -4    1.57    1.48
  -1   0   3    0.02    0.13
  -1   0   3   -0.05    0.66
   1   0  -3    0.12    0.11
   1   0  -2    3.06    0.22
   1   0  -2    3.06    1.19
  -1   0   2    2.72    0.22
  -1   0   2    2.40    1.04
   1   0  -1    0.00    0.26
  -1   0   1    0.07    0.05
  -1   0   1    0.17    0.32
   1   0   1    0.07    0.06
   1   0   1   -0.14    0.15
   1   0   1    0.04    0.06
  -1   0  -1    0.00    0.22
  -1   0  -1    0.07    0.05
  -1   0  -1   -0.02    0.05
  -1   0  -2    2.69    0.21
  -1   0  -2    2.75    0.25
   1   0   2    4.35    1.36
   1   0   2    2.90    0.22
  -1   0  -2    2.19    0.89
   1   0   3    0.20    0.14
  -1   0  -3    0.13    0.13
  -1   0  -3   -0.67    0.53
   1   0   3   -0.58    0.71
  -1   0  -4   43.47    1.67
   1   0   4   44.88    1.51
  -1   0  -4   44.44    5.10
   1   0   4   50.19    5.66
  -1   0  -5   -0.15    0.23
  -1   0  -5    0.09    0.23
  -1   0  -5   -0.04    0.17
  -1   0  -5   -0.21    1.28
   1   0   5   -0.05    0.17
   1   0   5    0.07    1.16
  -1   0  -6   15.00    0.81
  -1   0  -6   15.44    1.25
  -1   0  -6   14.93    1.05
   1   0   6   18.83    5.43
   1   0   6   14.83    0.83
  -1   0  -6   13.04    3.96
   1   0   7    1.47    2.80
  -1   0  -7    6.13    3.45
  -1   0  -8    9.59    4.91
   1   0   8    6.67    0.68
   1   0   8    2.40    5.01
  -1   0  -8    8.38    1.03
  -1   0  -8    7.09    0.92
  -1   1   8   13.64    6.41
   1   1  -8   19.09    1.36
   1   1  -8   17.21    9.97
   1  -1  -8   17.02    6.44
  -1  -1   8   17.20    1.04
  -1  -1   8   27.96   10.97
   1  -1  -8   19.54    1.36
  -1   1   7    6.05    0.68
   1   1  -7    4.14    0.66
   1   1  -7    1.15    2.78
  -1   1   7    0.32    3.31
   1   1  -7    3.73    0.72
   1  -1  -7    5.89    0.71
   1  -1  -7    4.65    3.37
  -1  -1   7   -3.52    2.94
   1  -1  -7    4.92    0.78
  -1  -1   7    4.48    0.55
   1   1  -6   29.68    6.22
  -1   1   6   23.63    1.16
  -1   1   6   14.41    4.52
   1  -1  -6   22.88    5.69
  -1  -1   6   22.39    1.05
   1  -1  -6   23.09    1.24
  -1  -1   6   20.49    5.35
   1  -1  -6   23.60    1.11
   1  -1  -6   22.88    1.46
  -1   1   5   23.70    1.09
  -1   1   5   22.49    5.20
   1   1  -5   27.42    4.40
  -1  -1   5   24.66    5.39
   1  -1  -5   24.56    4.99
   1  -1  -5   22.40    1.10
   1  -1  -5   25.30    1.25
   1  -1  -5   23.38    1.04
  -1  -1   5   23.24    1.00
   1   1  -4  147.45   10.17
  -1   1   4  151.42    4.40
  -1   1   4  164.69   10.77
   1  -1  -4  141.49   10.00
   1  -1  -4  149.44    4.53
  -1  -1   4  151.98    4.30
  -1  -1   4  145.35   10.24
   1  -1  -4  153.16    4.37
  -1   1   3    0.66    0.18
   1   1  -3    0.94    0.86
  -1   1   3   -0.35    0.85
   1  -1  -3    0.93    1.06
  -1  -1   3    0.41    0.14
   1  -1  -3    0.66    0.20
  -1  -1   3   -0.45    0.77
   1  -1  -3    0.12    0.14
  -1   1   2  825.54   26.59
   1   1  -2  869.12   27.10
  -1  -1   2  817.38   26.63
   1  -1  -2  787.75   21.76
   1  -1  -2  837.15   26.69
  -1  -1   2  802.55   21.69
  -1   1   1    0.32    0.37
   1   1  -1    0.60    0.11
   1   1  -1    0.60    0.47
  -1   1   1    0.52    0.10
  -1   1   1    0.64    0.11
   1  -1  -1    0.75    0.11
   1  -1  -1    0.85    0.50
  -1  -1   1    0.52    0.44
   1  -1  -1    0.76    0.11
   1   1   1    7.40    0.34
   1   1   1    6.38    0.33
  -1   1  -1    7.46    1.00
   1   1   1    7.49    0.33
  -1   1  -1    7.21    0.25
   1   1   1    6.24    1.25
  -1  -1  -1    7.54    0.35
  -1  -1  -1    7.01    0.33
   1  -1   1    5.36    1.24
   1  -1   1    7.40    0.24
  -1  -1  -1    8.95    1.24
  -1  -1  -1    7.21    0.32
   1   1   2   68.31    4.85
  -1   1  -2   65.52    1.83
  -1   1  -2   68.80    4.51
   1   1   2   63.83    1.92
  -1  -1  -2   62.04    1.92
   1  -1   2   65.32    1.82
  -1  -1  -2   64.89    4.68
  -1  -1  -2   62.36    1.99
  -1  -1  -2   63.56    1.98
   1  -1   2   66.98    4.60
   1   1   3    5.72    0.39
   1   1   3    4.45    1.66
  -1   1  -3    5.65    0.32
  -1   1  -3    4.37    1.70
  -1  -1  -3    5.38    0.45
  -1  -1  -3    5.41    0.42
  -1  -1  -3    3.99    1.60
   1  -1   3    7.18    2.10
  -1  -1  -3    5.38    0.38
   1  -1   3    6.35    0.34
   1   1   4  129.59    3.82
   1   1   4  130.45    9.66
  -1   1  -4  131.57    3.72
  -1   1  -4  125.39    8.90
   1  -1   4  135.18    9.69
  -1  -1  -4  132.43    3.84
   1  -1   4  130.16    3.71
  -1  -1  -4  127.45    9.26
  -1  -1  -4  128.34    3.96
  -1  -1  -4  131.09    4.03
   1   1   5    3.13    2.23
  -1   1  -5    7.66    0.66
   1   1   5    7.01    0.55
  -1   1  -5    6.24    0.45
  -1   1  -5    9.83    4.34
  -1  -1  -5    6.38    0.52
   1  -1   5    3.90    4.05
  -1  -1  -5    5.20    2.53
  -1  -1  -5    6.53    0.67
  -1  -1  -5    6.83    0.64
   1  -1   5    6.88    0.48
  -1   1  -6    1.35    0.42
  -1   1  -6   -1.02    1.89
  -1   1  -6    1.44    0.29
   1   1   6    1.29    0.35
  -1   1  -6    1.35    0.46
   1   1   6   -2.09    2.23
  -1  -1  -6    1.64    0.42
  -1  -1  -6    1.68    0.35
  -1  -1  -6    1.48    1.93
   1  -1   6    1.50    0.31
   1  -1   6    4.97    2.77
  -1  -1  -6    0.77    0.43
  -1   1  -7   22.60    5.95
   1   1   7   20.60    1.11
  -1   1  -7   20.43    1.38
   1   1   7   17.33    5.76
  -1   1  -7   23.43    1.49
  -1  -1  -7   21.96    1.45
  -1  -1  -7   20.36    1.08
  -1  -1  -7   15.75    5.24
  -1  -1  -7   20.71    1.33
   1  -1   7   22.65    5.99
   1  -1   7   22.03    1.03
   1   1   8    1.56    0.46
  -1   1  -8    1.88    0.65
   1   1   8    1.24    9.68
  -1   1  -8    1.49    0.55
  -1   1  -8   -0.39    4.29
  -1  -1  -8    1.71    0.63
   1  -1   8   -1.65    5.17
  -1  -1  -8    2.23    0.60
  -1  -1  -8   -0.23    6.36
   1  -1   8    2.68    0.46
  -1   2   8   -8.61    4.74
   1   2  -8    8.40    5.43
   1   2  -8    2.56    0.87
  -1   2   8    3.15    0.58
  -1  -2   8   -5.26    4.32
   1  -2  -8   -2.01    3.74
   1  -2  -8    2.91    0.63
  -1  -2   8    2.53    0.47
  -1   2   7    2.58    0.52
   1   2  -7    2.58    3.40
  -1   2   7    0.30    3.11
  -1  -2   7    3.04    0.43
   1  -2  -7    2.16    0.59
  -1  -2   7    4.03    3.28
   1  -2  -7    7.26    3.28
   1  -2  -7    2.57    0.53
  -1   2   6    9.76    3.65
   1   2  -6    7.11    3.36
  -1   2   6   12.47    0.84
   1  -2  -6   10.57    0.75
  -1  -2   6    6.64    3.80
   1  -2  -6   10.94    1.48
   1  -2  -6   10.42    0.80
   1  -2  -6   15.75    4.40
  -1   2   5   86.66    8.40
  -1   2   5   90.59    2.99
   1   2  -5  100.92    8.84
   1  -2  -5   89.11    2.96
  -1  -2   5   94.47    2.79
   1  -2  -5   94.21    3.14
   1  -2  -5   92.03    2.94
  -1  -2   5   90.70    8.61
   1  -2  -5   85.00    8.39
  -1   2   4   -0.90    0.77
  -1   2   4    0.28    0.20
   1   2  -4    0.47    1.27
  -1  -2   4    0.96    1.01
   1  -2  -4    0.09    0.15
   1  -2  -4    1.13    1.40
   1  -2  -4    0.35    0.23
  -1  -2   4    0.34    0.16
   1  -2  -4    0.33    0.18
   1   2  -3   32.14    4.01
  -1   2   3   34.84    4.01
  -1   2   3   35.21    1.28
  -1  -2   3   34.68    4.09
   1  -2  -3   35.05    1.25
  -1  -2   3   36.59    1.13
   1  -2  -3   34.19    1.18
   1  -2  -3   34.69    1.30
   1  -2  -3   31.40    3.94
  -1   2   2    0.53    0.15
   1   2  -2    0.18    0.68
  -1   2   2    0.69    0.66
  -1   2   2    0.82    0.17
   1  -2  -2    1.22    0.19
   1  -2  -2    0.76    0.18
  -1  -2   2    0.72    0.73
   1  -2  -2    0.68    0.11
   1  -2  -2    1.70    0.96
  -1   2   1   35.56    1.12
  -1   2   1   35.28    2.56
  -1   2   1   34.41    1.13
   1   2  -1   35.81    1.14
   1   2  -1   35.50    2.97
   1   2  -1   35.56    1.18
   1  -2  -1   36.33    2.64
  -1  -2   1   38.23    3.09
   1  -2  -1   38.50    1.13
  -1  -2   1   36.22    1.04
   1  -2  -1   35.45    1.13
  -1   2   0    0.05    0.05
   1   2   0    0.07    0.06
   1   2   0    0.57    0.55
   1   2   0    0.24    0.09
   1   2   0   -0.01    0.06
   1   2   0    0.34    0.46
  -1   2   0    0.04    0.07
  -1   2   0    0.20    0.12
  -1  -2   0    0.16    0.09
  -1  -2   0    0.06    0.06
   1  -2   0    0.09    0.08
   1  -2   0    0.06    0.05
   1  -2   0    0.06    0.13
  -1  -2   0    0.02    0.05
   1   2   1  235.95    6.57
   1   2   1  255.76    9.74
   1   2   1  249.53    6.57
   1   2   1  226.15    6.56
  -1   2  -1  238.59    8.36
  -1  -2  -1  255.01    9.58
  -1  -2  -1  233.15    6.56
   1  -2   1  253.05    8.59
  -1  -2  -1  246.43    6.57
  -1  -2  -1  240.89    6.57
   1   2   2    0.29    0.12
   1   2   2   -0.36    0.41
   1   2   2    0.00    0.11
  -1   2  -2    0.05    0.40
   1   2   2    0.29    0.11
  -1  -2  -2    0.37    0.62
  -1  -2  -2    0.23    0.12
  -1  -2  -2    0.36    0.15
  -1  -2  -2   -0.04    0.09
   1   2   3  100.31    7.26
  -1   2  -3   95.83    2.64
  -1   2  -3   93.46    6.55
   1   2   3   94.56    2.86
  -1  -2  -3   86.84    6.73
  -1  -2  -3   93.46    2.89
  -1  -2  -3   96.74    2.88
   1  -2   3   99.89    6.99
  -1  -2  -3   93.40    2.95
   1  -2   3   96.57    2.64
  -1   2  -4   24.84    3.86
  -1   2  -4   25.22    0.86
   1   2   4   25.30    4.08
  -1  -2  -4   21.56    1.29
  -1  -2  -4   23.77    1.14
   1  -2   4   24.58    3.90
  -1  -2  -4   27.88    4.21
   1  -2   4   24.67    0.85
  -1  -2  -4   23.34    1.02
  -1   2  -5  200.01   12.63
   1   2   5  210.55   13.82
   1   2   5  187.99    5.59
  -1  -2  -5  193.20    5.74
  -1  -2  -5  188.68    5.82
  -1  -2  -5  190.42   12.90
  -1  -2  -5  189.60    5.59
   1  -2   5  186.13   12.84
   1  -2   5  193.18    5.34
  -1   2  -6   -0.74    1.71
   1   2   6    2.06    0.44
   1   2   6    1.37    2.69
  -1   2  -6    2.44    0.52
  -1  -2  -6    1.84    0.43
   1  -2   6    2.46    0.32
  -1  -2  -6    2.86    0.59
  -1  -2  -6    2.03    0.39
  -1  -2  -6    3.60    2.53
   1  -2   6    3.45    2.40
  -1   2  -7  133.97   12.43
   1   2   7  130.97    4.20
   1   2   7  138.33   13.47
  -1   2  -7  132.98    4.58
  -1   2  -7  139.78    4.73
  -1  -2  -7  142.76   12.59
   1  -2   7  107.96   12.13
  -1  -2  -7  115.99    4.87
  -1  -2  -7  141.06    4.66
   1  -2   7  131.83    4.14
  -1   2  -8    0.80    0.49
   1   2   8   -0.91    4.73
  -1   2  -8    0.75    0.54
  -1   2  -8    5.19    4.71
   1   2   8    0.31    0.42
   1  -2   8   -4.84    4.75
   1  -2   8    1.58    0.34
  -1  -2  -8   -2.23    4.13
  -1  -2  -8    1.04    0.52
  -1  -2  -8    0.56    0.50
  -1   3   8    4.84    5.38
   1   3  -8    0.24    0.47
  -1   3   8   -0.13    0.38
   1   3  -8    0.44    4.53
   1  -3  -8    1.04    0.67
   1  -3  -8    5.38    5.00
   1  -3  -8    0.12    0.41
  -1  -3   8   -1.77    4.91
  -1   3   7    5.39    0.78
  -1   3   7    8.50    4.38
   1   3  -7    4.33    3.14
   1  -3  -7    5.77    0.67
   1  -3  -7    4.19    0.75
   1  -3  -7    4.87    3.53
  -1  -3   7   -0.55    3.29
  -1   3   6   20.70    5.27
   1   3  -6   31.90    5.22
  -1   3   6   27.04    1.34
  -1  -3   6   26.33    1.04
   1  -3  -6   30.62    6.46
  -1  -3   6   21.77    5.50
   1  -3  -6   26.07    1.26
   1  -3  -6   24.14    1.76
   1  -3  -6   26.09    1.28
  -1   3   5   48.08    1.85
  -1   3   5   44.26    5.77
   1   3  -5   54.36    6.31
   1  -3  -5   46.62    1.91
   1  -3  -5   47.88    1.79
  -1  -3   5   44.06    5.96
   1  -3  -5   47.93    1.75
   1  -3  -5   41.85    6.04
  -1  -3   5   47.05    1.55
   1   3  -4  186.63   11.70
  -1   3   4  183.20    5.41
  -1   3   4  193.62   12.08
  -1  -3   4  184.12    5.11
  -1  -3   4  190.68   11.94
   1  -3  -4  184.37    5.45
   1  -3  -4  187.72   11.77
   1  -3  -4  184.02    5.37
   1  -3  -4  183.72    5.28
  -1   3   3   -0.30    0.84
   1   3  -3    2.38    1.38
  -1   3   3    0.96    0.25
   1  -3  -3    0.99    0.26
   1  -3  -3    1.04    0.18
   1  -3  -3    0.91    0.22
  -1  -3   3    0.70    0.90
  -1  -3   3    0.83    0.14
   1  -3  -3    2.35    1.21
  -1   3   2  518.53   18.70
  -1   3   2  523.36   14.11
  -1   3   2  516.58   14.10
   1   3  -2  550.09   19.61
  -1  -3   2  520.53   19.18
   1  -3  -2  565.27   19.23
   1  -3  -2  502.85   14.07
   1  -3  -2  515.59   14.08
   1  -3  -2  522.47   13.90
  -1   3   1   10.39    0.50
   1   3  -1   11.33    1.83
   1   3  -1   10.57    0.51
   1   3  -1   10.91    0.40
  -1   3   1   10.94    0.50
   1   3  -1   10.07    0.52
  -1   3   1   11.83    1.51
   1  -3  -1   10.32    1.45
  -1  -3   1   10.49    0.40
  -1  -3   1   11.05    0.53
  -1  -3   1    9.36    1.96
   1  -3  -1   10.05    0.47
   1  -3  -1   11.35    0.49
   1   3   0  147.62    7.28
   1   3   0  145.62    3.93
  -1   3   0  151.38    5.26
   1   3   0  139.18    3.95
   1   3   0  131.31    7.82
   1   3   0  139.12    4.02
  -1   3   0  147.70    3.91
  -1  -3   0  133.71    4.02
  -1  -3   0  151.10    3.97
   1  -3   0  147.88    3.89
  -1  -3   0  146.23    3.93
   1  -3   0  147.47    4.01
   1  -3   0  120.79    5.49
   1   3   1   71.54    2.08
  -1   3  -1   70.27    3.68
   1   3   1   67.77    2.08
   1   3   1   70.22    4.60
   1   3   1   69.75    2.11
  -1   3  -1   67.55    2.08
  -1  -3  -1   72.07    2.06
  -1  -3  -1   67.96    2.08
   1  -3   1   72.71    3.81
  -1  -3  -1   69.39    2.09
  -1  -3  -1   71.07    4.63
   1   3   2   20.83    0.83
   1   3   2   19.60    2.80
  -1   3  -2   22.83    2.53
   1   3   2   22.79    0.89
  -1  -3  -2   22.84    0.89
  -1  -3  -2   19.87    2.74
   1  -3   2   26.27    2.75
  -1  -3  -2   22.25    0.90
  -1  -3  -2   22.56    0.85
   1   3   3    0.16    0.17
   1   3   3    0.84    0.99
  -1   3  -3    0.03    0.74
  -1  -3  -3    0.35    0.18
  -1  -3  -3    0.02    0.13
  -1  -3  -3    0.16    0.20
  -1  -3  -3   -0.09    0.71
   1   3   4    0.14    1.00
   1   3   4    0.44    0.22
  -1   3  -4    0.48    1.09
  -1  -3  -4    0.40    0.27
   1  -3   4    0.47    1.07
  -1  -3  -4    1.08    1.41
  -1  -3  -4    0.34    0.19
  -1  -3  -4    0.54    0.23
  -1   3  -5    3.82    2.14
   1   3   5    3.10    0.48
   1   3   5    1.71    2.43
  -1  -3  -5    3.58    2.33
   1  -3   5    3.51    0.30
  -1  -3  -5    3.95    0.50
  -1  -3  -5    3.99    0.51
  -1  -3  -5    3.51    0.57
   1  -3   5    3.54    2.19
   1   3   6   -0.20    0.28
  -1   3  -6   -0.97    1.30
  -1   3  -6    0.51    0.38
   1   3   6    1.85    2.96
  -1  -3  -6    0.15    0.27
   1  -3   6    2.65    2.45
  -1  -3  -6    1.90    1.99
   1  -3   6    0.44    0.19
  -1  -3  -6    0.49    0.39
  -1  -3  -6    0.49    0.29
  -1   3  -7   44.95    8.35
   1   3   7   47.41    2.00
   1   3   7   48.21   10.15
  -1   3  -7   50.04    2.27
   1  -3   7   37.37    7.87
  -1  -3  -7   46.69    2.26
  -1  -3  -7   47.98    2.13
  -1  -3  -7   46.93    9.54
  -1   3  -8    3.38    3.95
   1   3   8    1.01    0.46
  -1   3  -8   -0.17    0.40
  -1   3  -8    0.31    0.49
   1   3   8   -1.84    5.43
  -1  -3  -8   -4.08    3.82
  -1  -3  -8   -0.45    0.46
  -1  -3  -8    0.02    0.42
   1   4  -8    0.87    4.55
  -1   4   8    5.75    0.76
   1   4  -8    4.65    0.84
  -1  -4   8   -2.06    5.53
   1  -4  -8    5.29    4.93
   1  -4  -8    5.46    0.84
  -1   4   7   46.57    2.05
  -1   4   7   36.41    7.88
   1   4  -7   37.55    7.41
   1  -4  -7   40.74    8.23
  -1  -4   7   45.65    9.02
   1  -4  -7   51.33    2.27
   1  -4  -7   47.98    1.99
  -1   4   6    2.64    0.53
   1   4  -6    2.68    2.32
  -1   4   6    3.10    3.02
  -1  -4   6    1.21    2.61
   1  -4  -6    2.80    0.59
   1  -4  -6    2.93    0.46
  -1  -4   6    2.68    0.32
   1  -4  -6    0.53    2.77
   1   4  -5  201.78   13.47
  -1   4   5  184.84   13.15
  -1   4   5  201.05    5.97
  -1  -4   5  202.98   13.68
   1  -4  -5  189.16   13.34
   1  -4  -5  199.44    6.02
   1  -4  -5  197.41    5.89
  -1  -4   5  207.82    5.51
   1  -4  -5  203.74    5.79
  -1   4   4    4.70    0.51
  -1   4   4    4.42    2.36
   1   4  -4    7.67    2.49
   1  -4  -4    4.24    0.44
   1  -4  -4    2.17    1.86
   1  -4  -4    3.91    0.36
   1  -4  -4    4.32    0.49
  -1  -4   4    3.81    0.28
  -1  -4   4    4.95    2.23
  -1   4   3   40.59    4.55
  -1   4   3   41.59    1.57
  -1   4   3   42.55    1.58
   1   4  -3   38.57    4.64
   1  -4  -3   43.16    1.54
   1  -4  -3   44.72    1.58
  -1  -4   3   42.67    1.26
   1  -4  -3   43.36    1.37
  -1  -4   3   40.37    4.69
   1  -4  -3   38.94    4.52
  -1   4   2    9.70    0.56
  -1   4   2    8.95    0.54
   1   4  -2    8.87    0.58
   1   4  -2    9.49    0.54
   1   4  -2    9.31    2.32
  -1   4   2    9.97    2.20
   1  -4  -2   10.28    2.34
  -1  -4   2   10.49    2.44
   1  -4  -2    9.40    0.53
  -1  -4   2    8.78    0.37
   1  -4  -2    9.20    0.52
   1  -4  -2    9.47    0.37
  -1   4   1  127.20    3.53
   1   4  -1  116.19    3.53
  -1   4   1  119.93    5.93
  -1   4   1  126.52    3.29
   1   4  -1  118.75    3.33
   1   4  -1  121.18    7.25
   1   4  -1  120.19    3.52
  -1   4   1  119.53    3.47
  -1  -4   1  113.32    3.52
   1  -4  -1  120.08    3.45
   1  -4  -1  121.02    3.44
   1  -4  -1  121.99    6.08
  -1  -4   1  121.36    3.33
   1  -4  -1  121.17    3.26
  -1   4   0   -0.06    0.07
   1   4   0    0.46    0.59
   1   4   0    0.03    0.12
   1   4   0    0.02    0.09
   1   4   0   -0.14    0.07
   1   4   0    0.20    0.72
  -1   4   0   -0.07    0.24
  -1   4   0    0.00    0.11
  -1  -4   0    0.01    0.08
  -1  -4   0    0.07    0.13
  -1  -4   0    0.17    0.10
   1  -4   0    0.00    0.12
   1  -4   0   -0.04    0.07
   1   4   1  853.69   27.50
  -1   4  -1  873.41   25.76
  -1  -4  -1  842.94   22.84
   1  -4   1  894.57   26.38
  -1  -4  -1  836.20   27.59
   1   4   2    0.54    0.16
   1   4   2    0.74    0.90
  -1   4  -2    1.03    0.22
   1   4   2    0.59    0.18
  -1   4  -2    1.09    0.86
   1   4   2    0.93    0.22
  -1  -4  -2    0.09    0.71
  -1  -4  -2    0.82    0.20
   1  -4   2    0.23    0.56
  -1  -4  -2    1.13    0.20
  -1  -4  -2    1.03    0.23
  -1   4  -3   52.02    4.83
   1   4   3   57.27    1.96
   1   4   3   56.57    1.99
   1   4   3   53.57    1.82
   1   4   3   59.77    5.79
  -1  -4  -3   56.95    1.94
  -1  -4  -3   57.39    1.98
   1  -4   3   62.30    5.36
  -1  -4  -3   60.32    5.72
  -1  -4  -3   56.98    1.88
   1   4   4   11.05    3.18
   1   4   4    7.84    0.63
  -1   4  -4    7.64    2.33
  -1  -4  -4    7.15    0.63
  -1  -4  -4    7.73    0.57
  -1  -4  -4    7.81    2.78
  -1  -4  -4    6.48    0.55
   1   4   5   39.73    1.66
  -1   4  -5   39.34    5.19
   1   4   5   36.49    6.82
  -1  -4  -5   38.87    1.77
  -1  -4  -5   41.75    1.66
   1  -4   5   42.30    5.58
  -1  -4  -5   42.00    1.67
  -1  -4  -5   38.38    5.71
  -1   4  -6   10.97    3.59
   1   4   6   12.47    0.90
   1   4   6   11.29    4.41
  -1  -4  -6   10.20    3.68
  -1  -4  -6   11.24    0.87
  -1  -4  -6   11.99    1.02
   1  -4   6   10.92    4.06
   1   4   7    2.03    0.50
  -1   4  -7   -3.17    2.13
  -1   4  -7    1.68    0.51
   1   4   7    4.99    3.59
  -1  -4  -7   -1.42    3.08
  -1  -4  -7    1.86    0.58
  -1  -4  -7    1.11    0.40
   1  -4   7    4.27    3.41
   1   4   8   14.32    1.13
  -1   4  -8   11.89    2.05
   1   4   8   10.80    6.44
  -1  -4  -8   13.19    1.25
  -1  -4  -8    6.70    5.46
  -1  -4  -8   12.25    1.13
  -1   5   8   45.56    2.18
  -1   5   8   47.34   10.02
   1  -5  -8   46.60    2.36
   1  -5  -8   57.84   10.99
  -1   5   7    8.53    0.91
  -1   5   7   12.29    5.06
   1   5  -7    5.45    3.41
  -1  -5   7    0.82    3.79
   1  -5  -7    7.39    0.92
   1  -5  -7    8.35    3.22
   1  -5  -7    9.26    0.77
  -1   5   6    2.75    2.41
  -1   5   6    5.18    0.70
   1  -5  -6    4.30    0.68
  -1  -5   6    3.13    4.15
   1  -5  -6    4.56    0.53
   1  -5  -6    6.16    2.97
  -1   5   5    5.30    4.12
   1   5  -5    4.43    2.49
  -1   5   5    4.17    0.61
   1  -5  -5    5.37    0.66
   1  -5  -5    5.07    0.56
   1  -5  -5    5.58    0.48
  -1  -5   5    4.44    2.53
  -1   5   4    2.22    0.41
  -1   5   4    1.83    1.59
   1   5  -4   -0.40    0.98
   1  -5  -4    1.33    0.24
  -1  -5   4    1.04    1.48
   1  -5  -4    1.87    0.35
   1  -5  -4    1.76    0.39
   1  -5  -4    2.47    1.59
   1   5  -3   58.97    2.12
  -1   5   3   62.85    2.18
   1   5  -3   61.16    6.01
  -1   5   3   63.68    5.92
  -1   5   3   63.01    2.19
   1  -5  -3   63.92    5.94
   1  -5  -3   64.11    2.14
   1  -5  -3   63.78    1.89
  -1  -5   3   64.37    6.12
   1  -5  -3   64.91    2.16
  -1   5   2   70.15    5.34
   1   5  -2   68.22    5.77
   1   5  -2   73.37    2.43
  -1   5   2   70.53    2.32
  -1   5   2   68.92    2.01
   1   5  -2   67.69    2.30
  -1   5   2   72.04    2.34
   1  -5  -2   76.21    2.03
   1  -5  -2   70.89    5.45
   1  -5  -2   70.71    2.27
   1  -5  -2   73.64    2.29
  -1  -5   2   73.19    2.04
  -1   5   1   26.66    1.10
   1   5  -1   29.04    3.57
   1   5  -1   22.47    1.29
   1   5  -1   28.78    0.93
   1   5  -1   28.53    1.10
  -1   5   1   29.02    0.90
  -1   5   1   26.89    1.04
  -1   5   1   26.99    2.65
  -1  -5   1   28.59    0.93
   1  -5  -1   26.04    2.75
   1  -5  -1   28.50    1.06
  -1  -5   1   25.16    1.11
   1  -5  -1   28.99    1.03
  -1   5   0  194.76    7.84
   1   5   0  205.60    9.87
  -1   5   0  204.79    5.43
  -1   5   0  170.46    5.57
   1   5   0  170.31   10.67
  -1   5   0  200.95    5.43
  -1   5   0  182.19    9.35
   1   5   0  192.41    5.61
   1   5   0  193.34    5.48
   1   5   0  198.72    5.44
   1  -5   0  201.93    5.60
   1  -5   0  197.84    5.39
  -1  -5   0  210.78    5.51
  -1  -5   0  200.46    5.64
  -1  -5   0  206.82    5.45
   1   5   1    0.09    0.14
  -1   5  -1    0.35    0.52
  -1   5  -1   -0.08    0.07
   1   5   1    0.13    0.12
   1   5   1    0.09    0.11
   1   5   1    0.11    0.63
   1  -5   1    0.73    0.62
  -1  -5  -1   -0.21    0.62
  -1  -5  -1   -0.02    0.10
   1  -5   1   -0.14    0.06
  -1  -5  -1   -0.07    0.13
   1  -5   1    0.14    0.15
   1   5   2  464.32   12.55
  -1   5  -2  471.09   16.97
   1   5   2  445.71   12.45
  -1   5  -2  458.91   12.53
   1   5   2  461.71   12.59
   1   5   2  469.12   18.56
  -1  -5  -2  440.20   18.23
   1  -5   2  466.91   17.21
  -1  -5  -2  476.11   12.41
  -1  -5  -2  454.98   12.53
   1   5   3    6.31    2.22
   1   5   3    6.62    0.55
   1   5   3    6.48    0.55
   1   5   3    6.88    0.46
  -1   5  -3    7.30    2.16
  -1  -5  -3    6.80    0.57
   1  -5   3    5.88    1.94
  -1  -5  -3    5.48    2.19
  -1  -5  -3    7.13    0.55
  -1  -5  -3    7.18    0.49
  -1   5  -4  335.88   15.69
   1   5   4  308.15   16.74
   1   5   4  314.59    9.00
  -1  -5  -4  320.92   16.63
  -1  -5  -4  314.31    9.04
  -1  -5  -4  320.93    8.99
   1  -5   4  301.23   15.80
  -1  -5  -4  328.01    8.89
  -1   5  -5    0.59    1.36
   1   5   5    5.33    2.68
   1   5   5    2.09    0.46
  -1  -5  -5    2.35    1.98
   1  -5   5    0.61    1.19
  -1  -5  -5    1.56    0.36
  -1  -5  -5    2.32    0.44
  -1  -5  -5    1.79    0.45
   1   5   6    0.79    2.53
   1   5   6    0.87    0.39
  -1   5  -6    1.17    1.86
   1  -5   6    1.83    2.17
  -1  -5  -6    0.31    0.30
  -1  -5  -6   -2.52    1.90
  -1  -5  -6   -0.04    0.36
  -1   5  -7    1.80    2.71
  -1   5  -7    3.08    0.65
   1   5   7    1.19    3.89
   1   5   7    3.34    0.64
   1  -5   7   -3.80    2.60
  -1  -5  -7    3.74    0.75
  -1  -5  -7    4.39    3.27
  -1  -5  -7    3.46    0.61
  -1   6   7   30.41    8.14
   1   6  -7   32.48    6.72
  -1   6   7   28.04    1.61
   1  -6  -7   28.52    1.36
   1  -6  -7   14.05    5.36
  -1  -6   7   29.92    7.54
  -1   6   6    1.60    3.01
   1   6  -6    2.39    2.62
  -1   6   6    3.34    0.62
   1  -6  -6    3.24    0.64
  -1  -6   6    1.89    2.99
   1  -6  -6    3.37    0.46
   1  -6  -6    3.67    2.65
  -1   6   5   57.39    7.17
   1   6  -5   51.63    6.68
  -1   6   5   55.31    2.20
   1  -6  -5   54.88    2.17
   1  -6  -5   52.45    1.83
  -1  -6   5   60.24    7.20
   1  -6  -5   44.40    6.33
   1   6  -4   -0.16    0.21
  -1   6   4    0.79    0.29
   1   6  -4   -0.01    0.21
  -1   6   4    1.18    1.28
   1   6  -4    0.87    1.24
  -1   6   4   -0.14    0.21
   1  -6  -4    0.31    0.16
   1  -6  -4    0.29    1.20
   1  -6  -4    0.33    0.24
  -1  -6   4   -0.26    1.32
   1  -6  -4    0.34    0.28
  -1   6   3    6.83    0.59
   1   6  -3    5.53    0.52
  -1   6   3    5.92    0.56
   1   6  -3    6.41    0.61
  -1   6   3    4.52    1.92
   1   6  -3    6.00    2.21
   1  -6  -3    5.94    0.54
   1  -6  -3    5.51    0.50
   1  -6  -3    6.38    0.35
   1  -6  -3    5.10    1.83
  -1   6   2    5.22    0.48
  -1   6   2    4.85    0.29
   1   6  -2    5.63    0.51
   1   6  -2    5.05    0.49
  -1   6   2    4.97    0.49
  -1   6   2    6.01    1.88
   1   6  -2    5.75    2.08
   1  -6  -2    5.94    1.83
  -1  -6   2    5.38    0.31
   1  -6  -2    5.27    0.44
   1  -6  -2    5.88    0.29
   1   6  -1  255.36   13.15
   1   6  -1  266.78    7.36
   1   6  -1  253.29    7.42
  -1   6   1  276.44    7.11
   1   6  -1  262.05    7.12
  -1   6   1  250.22    7.40
  -1   6   1  259.35    7.29
  -1   6   1  261.13   10.81
   1  -6  -1  263.53    7.24
   1  -6  -1  266.47   11.50
   1  -6  -1  269.81    7.34
  -1  -6   1  248.55    7.42
  -1  -6   1  265.74    7.12
  -1   6   0    4.43    0.45
  -1   6   0    4.14    1.65
  -1   6   0    4.56    0.35
  -1   6   0    3.17    1.03
   1   6   0    2.20    1.67
   1   6   0    4.12    0.44
   1   6   0    5.66    1.75
   1   6   0    4.46    0.37
  -1   6   0    4.69    0.36
   1   6   0    4.82    0.39
  -1  -6   0    5.04    0.40
   1  -6   0    5.01    0.34
   1  -6   0    5.62    0.48
  -1  -6   0    4.62    0.36
  -1  -6   0    5.18    0.50
   1   6   1  218.69    6.10
   1   6   1  214.77    6.24
  -1   6  -1  215.61    5.92
  -1   6  -1  210.33    6.25
  -1   6  -1  216.81    9.55
   1   6   1  213.11    6.13
   1   6   1  230.99   11.02
  -1  -6  -1  214.44    6.13
   1  -6   1  217.43    6.23
   1  -6   1  215.28    5.90
  -1  -6  -1  206.84   11.00
  -1  -6  -1  218.07    6.21
  -1  -6  -1  221.73    6.05
   1  -6   1  240.87   10.82
  -1   6  -2   18.92    2.54
   1   6   2   16.44    0.85
   1   6   2   16.14    0.88
   1   6   2   16.03    0.78
  -1   6  -2   16.16    0.85
   1   6   2   21.80    3.19
  -1  -6  -2   16.93    0.74
   1  -6   2   20.49    2.83
  -1  -6  -2   15.49    3.25
  -1  -6  -2   18.21    0.89
  -1  -6  -2   16.81    0.84
   1   6   3   44.62    1.76
  -1   6  -3   45.84    1.73
   1   6   3   49.77    5.51
  -1   6  -3   48.81    4.82
   1   6   3   45.33    1.60
   1   6   3   45.51    1.80
  -1  -6  -3   48.64    1.77
   1  -6   3   48.26    4.91
  -1  -6  -3   48.39    1.61
  -1  -6  -3   45.37    1.75
  -1  -6  -3   43.36    5.17
   1   6   4   91.37    3.22
   1   6   4   93.85    3.16
  -1   6  -4   89.04    3.09
   1   6   4  104.35    8.80
  -1   6  -4   98.86    7.74
  -1  -6  -4  104.83    8.94
  -1  -6  -4   94.10    3.18
  -1  -6  -4   90.26    3.11
   1  -6   4   98.11    8.02
  -1  -6  -4   99.15    3.00
  -1   6  -5    0.36    1.59
   1   6   5    0.08    0.27
   1  -6   5    0.89    1.91
  -1  -6  -5    0.56    0.27
  -1  -6  -5    0.62    0.35
  -1   6  -6    3.26    2.54
   1   6   6    8.44    4.41
   1   6   6    4.90    0.69
  -1  -6  -6    6.22    3.61
  -1  -6  -6    6.34    0.64
  -1  -6  -6    5.79    0.83
   1   6   7    0.05    0.38
   1   6   7   -0.71    3.30
  -1   6  -7   -0.01    2.65
  -1  -6  -7    0.44    0.47
  -1  -6  -7    0.03    0.36
   1  -6   7   -5.21    2.47
  -1  -6  -7   -1.23    3.07
  -1   7   7    2.74    0.64
   1   7  -7   -0.37    2.76
  -1   7   7    4.51    3.75
   1  -7  -7    1.01    0.39
  -1  -7   7    2.62    3.38
   1  -7  -7    4.02    3.54
   1  -7  -7    2.23    0.65
  -1   7   6    7.93    0.87
   1   7  -6    5.42    3.41
  -1   7   6    2.78    2.84
   1  -7  -6    5.05    0.76
  -1  -7   6    9.79    4.15
   1  -7  -6   11.87    3.62
  -1   7   5    2.20    0.51
   1   7  -5    5.35    2.81
  -1   7   5    1.05    1.92
   1  -7  -5    2.74    2.27
  -1  -7   5    2.74    2.44
   1  -7  -5    2.56    0.34
   1  -7  -5    2.86    0.54
  -1   7   4    2.71    0.49
   1   7  -4   -0.67    1.64
  -1   7   4    0.65    1.71
   1   7  -4    2.09    0.48
   1   7  -4    2.77    0.48
  -1   7   4    2.19    0.46
   1  -7  -4    0.64    1.30
   1  -7  -4    2.53    0.29
   1  -7  -4    2.32    0.45
   1  -7  -4    2.75    0.45
   1   7  -3    2.89    0.47
  -1   7   3    2.26    0.40
   1   7  -3    2.91    0.49
   1   7  -3    1.28    1.24
  -1   7   3    1.76    0.38
  -1   7   3    1.67    1.49
   1  -7  -3    1.96    0.36
   1  -7  -3    2.47    0.43
   1  -7  -3    2.04    1.53
  -1   7   2  179.59    9.78
   1   7  -2  183.52    5.37
  -1   7   2  167.98    4.90
   1   7  -2  180.74   10.77
  -1   7   2  180.59    5.35
  -1   7   2  176.73    5.25
   1   7  -2  179.25    4.92
   1   7  -2  174.45    5.32
   1  -7  -2  184.22    4.87
   1  -7  -2  176.62    5.19
   1  -7  -2  185.10   10.18
   1  -7  -2  174.49    5.18
  -1  -7   2  175.55    4.90
  -1  -7   2  180.26   11.30
   1   7  -1    5.75    0.56
   1   7  -1    6.80    0.52
  -1   7   1    5.40    0.55
  -1   7   1    6.27    0.50
  -1   7   1    5.84    1.57
   1   7  -1    6.39    2.40
   1   7  -1    6.20    0.41
  -1   7   1    6.30    0.40
   1  -7  -1    6.16    0.45
   1  -7  -1    7.42    1.93
  -1  -7   1    4.10    2.04
  -1  -7   1    6.37    0.40
  -1  -7   1    6.63    0.61
   1   7   0    5.88    1.80
  -1   7   0    6.57    2.23
  -1   7   0    6.78    0.46
  -1   7   0    4.97    0.53
   1   7   0    5.88    0.49
   1   7   0    5.65    0.56
  -1   7   0    7.14    0.46
   1   7   0    6.48    0.47
   1   7   0    6.05    2.66
  -1   7   0    5.97    1.52
  -1  -7   0    7.66    0.52
  -1  -7   0    6.73    0.46
   1  -7   0    7.17    0.60
   1   7   1    0.10    0.83
  -1   7  -1    1.07    0.26
  -1   7  -1    1.26    0.32
  -1   7  -1    2.57    1.22
   1   7   1    1.55    0.28
  -1   7  -1    0.98    0.19
   1   7   1    1.09    0.29
   1  -7   1    0.96    0.17
  -1  -7  -1    1.35    0.33
  -1  -7  -1    1.16    0.24
   1  -7   1    1.10    0.34
  -1  -7  -1    3.11    1.37
  -1  -7  -1    1.39    0.26
   1   7   2    7.23    0.62
   1   7   2    6.54    0.50
   1   7   2    7.78    0.59
   1   7   2    5.29    2.08
  -1   7  -2    6.79    0.58
  -1   7  -2    7.27    1.97
  -1  -7  -2    7.55    0.49
   1  -7   2    7.70    2.10
  -1  -7  -2    6.23    0.56
  -1  -7  -2    7.32    0.57
  -1  -7  -2    7.95    2.54
   1   7   3    0.90    0.29
   1   7   3    1.65    0.39
  -1   7  -3    1.56    0.35
   1   7   3    1.31    1.56
   1   7   3    1.17    0.29
  -1   7  -3   -0.65    0.67
  -1  -7  -3    1.45    0.36
   1  -7   3   -0.13    1.00
  -1  -7  -3    1.02    0.25
  -1  -7  -3    0.74    0.26
  -1  -7  -3   -0.88    1.18
  -1   7  -4    5.89    2.24
  -1   7  -4    5.38    0.57
   1   7   4    7.92    2.84
   1   7   4    5.59    0.64
   1   7   4    5.39    0.69
   1  -7   4    7.35    2.52
  -1  -7  -4    5.55    0.50
  -1  -7  -4    5.17    0.58
  -1  -7  -4    4.86    0.61
  -1  -7  -4    8.95    3.25
   1   7   5   22.63    1.28
  -1   7  -5   17.76    4.18
   1   7   5   21.35    5.37
  -1  -7  -5   24.60    5.33
  -1  -7  -5   20.99    1.05
   1  -7   5   15.58    4.21
   1   7   6    3.27    0.62
   1   7   6    4.25    3.62
  -1   7  -6    5.98    2.96
  -1  -7  -6    3.49    3.24
  -1  -7  -6    2.26    0.61
   1  -7   6   -0.70    2.30
  -1  -7  -6    2.21    0.48
  -1   7  -7    3.86    4.18
   1   7   7    5.31    5.71
   1   7   7   15.62    1.21
  -1  -7  -7   16.28    1.09
  -1  -7  -7   16.94    1.36
  -1  -7  -7   11.14    5.73
   1   8  -7   12.37    5.18
  -1   8   7   14.95    5.84
  -1   8   7   16.94    1.29
  -1  -8   7   10.08    5.17
   1  -8  -7   14.55    0.89
   1  -8  -7   19.57    1.38
   1  -8  -7   16.92    5.48
  -1   8   6    9.86    1.00
   1   8  -6    5.18    3.32
  -1  -8   6    4.09    3.85
   1  -8  -6   12.05    4.34
   1  -8  -6    8.89    0.93
   1  -8  -6    7.83    0.57
  -1   8   5  109.14   10.02
   1   8  -5  104.74    9.88
  -1   8   5  100.43    3.60
   1  -8  -5  103.78    9.93
   1  -8  -5   98.44    3.01
   1  -8  -5  101.54    3.54
  -1   8   4    6.63    0.72
   1   8  -4    4.90    2.29
  -1   8   4    7.06    2.47
   1  -8  -4    6.34    0.40
   1  -8  -4    6.25    0.70
   1  -8  -4    5.64    3.03
  -1   8   3    6.32    0.65
  -1   8   3    7.21    0.80
   1   8  -3    7.19    2.51
  -1   8   3    8.16    2.64
   1   8  -3    6.04    0.62
   1   8  -3    7.30    0.70
  -1   8   3    7.08    0.35
   1  -8  -3    6.63    0.60
  -1  -8   3    7.92    3.06
   1  -8  -3    8.28    2.86
   1  -8  -3    7.15    0.64
  -1  -8   3    7.00    0.36
   1  -8  -3    7.14    0.38
   1   8  -2    4.48    0.51
   1   8  -2    5.73    2.24
   1   8  -2    4.50    0.36
  -1   8   2    3.80    0.55
  -1   8   2    4.26    1.75
  -1   8   2    4.88    0.53
   1   8  -2    4.11    0.57
  -1   8   2    4.73    0.35
   1  -8  -2    4.11    1.72
  -1  -8   2    4.62    0.34
   1  -8  -2    4.52    0.31
   1  -8  -2    5.28    0.54
  -1  -8   2    4.47    0.63
  -1  -8   2    4.72    2.13
   1  -8  -2    5.40    0.49
  -1   8   1   76.87    5.54
   1   8  -1   76.01    2.78
   1   8  -1   90.81    7.87
  -1   8   1   72.34    2.77
   1   8  -1   78.77    6.91
   1   8  -1   77.77    2.46
   1   8  -1   85.82    2.74
  -1   8   1   87.13    2.49
  -1   8   1   83.79    2.64
   1  -8  -1   75.77    2.53
   1  -8  -1   78.65    6.22
  -1  -8   1   77.98    2.53
   1  -8  -1   81.20    2.71
  -1  -8   1   83.12    2.85
  -1   8   0    5.08    0.44
   1   8   0    4.76    0.45
   1   8   0    4.03    0.44
   1   8   0    7.75    2.30
   1   8   0    8.23    2.87
  -1   8   0    4.15    0.51
  -1   8   0    4.97    2.06
   1   8   0    4.97    0.54
  -1   8   0    3.61    1.15
   1  -8   0    5.01    0.40
   1  -8   0    5.11    0.56
  -1  -8   0    5.19    0.44
  -1  -8   0    5.11    0.49
  -1  -8   0    4.32    0.61
  -1   8  -1  265.77   12.09
   1   8   1  256.51    8.02
   1   8   1  278.66   13.59
   1   8   1  279.15    7.78
  -1   8  -1  270.56    7.54
  -1   8  -1  277.10    7.84
  -1   8  -1  280.27    7.98
   1   8   1  268.88    7.97
  -1  -8  -1  274.88    7.90
   1  -8   1  273.44    7.51
   1  -8   1  288.32    7.93
  -1  -8  -1  269.53    7.73
  -1  -8  -1  287.00    7.69
  -1  -8  -1  287.01   14.91
   1   8   2   17.66    1.04
  -1   8  -2   17.49    0.67
   1   8   2   17.27    3.62
   1   8   2   17.01    0.89
   1   8   2   17.63    0.96
  -1   8  -2   17.70    1.00
  -1  -8  -2   16.91    0.96
  -1  -8  -2   16.36    3.50
  -1  -8  -2   17.64    0.82
  -1  -8  -2   16.91    0.93
   1  -8   2   18.83    0.64
   1   8   3    0.21    0.19
   1   8   3    0.33    1.07
   1   8   3   -0.07    0.21
   1   8   3    0.22    0.25
  -1   8  -3    0.28    0.23
  -1  -8  -3   -0.27    0.21
   1  -8   3    0.66    1.29
  -1  -8  -3   -0.14    1.41
  -1  -8  -3    0.01    0.24
  -1  -8  -3    0.43    0.20
   1   8   4    1.12    0.39
  -1   8  -4    1.66    1.36
   1   8   4    1.54    0.29
   1   8   4   -1.99    1.81
  -1  -8  -4    1.40    0.43
  -1  -8  -4    2.26    1.88
   1  -8   4    3.55    1.95
  -1  -8  -4    1.35    0.31
  -1   8  -5   21.27    4.57
   1   8   5   22.30    1.32
   1   8   5   14.55    4.56
  -1  -8  -5   20.39    1.03
  -1  -8  -5   28.91    6.21
  -1  -8  -5   21.24    1.31
   1  -8   5   19.19    4.51
   1   8   6    0.09    2.74
   1   8   6    0.34    0.43
  -1   8  -6   -0.31    2.32
   1  -8   6   -3.41    1.87
  -1  -8  -6    0.50    0.45
  -1  -8  -6    0.74    0.35
  -1  -8  -6    1.37    3.51
  -1   8  -7   20.41    5.61
   1   8   7   20.54    6.88
   1   8   7   22.17    1.44
   1  -8   7   11.21    4.55
  -1  -8  -7   19.56    1.17
  -1  -8  -7   20.16    6.03
   1   9  -7    6.55    4.31
  -1   9   7    0.15    0.48
   1  -9  -7    0.82    0.33
   1  -9  -7    0.45    0.50
  -1   9   6    9.26    4.16
   1   9  -6    8.48    3.07
  -1   9   6    6.95    0.91
   1  -9  -6    8.09    0.94
   1  -9  -6    8.04    3.61
   1  -9  -6    6.77    0.50
   1   9  -5    0.26    1.88
  -1   9   5    1.64    2.20
  -1   9   5    1.00    0.48
   1  -9  -5    1.16    0.23
   1  -9  -5    1.39    2.43
   1  -9  -5    0.87    0.48
  -1   9   4   16.90    4.47
  -1   9   4   15.18    1.08
   1   9  -4   17.55    4.26
  -1  -9   4   15.04    4.19
   1  -9  -4   13.87    4.00
   1  -9  -4   16.43    1.06
  -1   9   3   16.69    1.06
  -1   9   3   16.75    1.11
   1   9  -3   17.04    3.70
   1   9  -3   16.62    1.11
   1   9  -3   16.08    1.06
  -1   9   3   16.66    0.64
  -1   9   3   19.58    4.01
   1  -9  -3   18.40    4.06
   1  -9  -3   18.19    1.00
  -1  -9   3   21.60    4.70
   1  -9  -3   18.12    1.04
  -1   9   2   18.05    0.83
   1   9  -2   20.52    1.13
   1   9  -2   18.56    4.04
   1   9  -2   19.64    0.82
  -1   9   2   20.27    3.21
  -1   9   2   19.43    1.07
   1   9  -2   20.09    1.19
  -1   9   2   19.69    1.32
   1  -9  -2   19.86    1.08
  -1  -9   2   17.76    1.12
   1  -9  -2   17.50    1.00
  -1  -9   2   15.80    4.14
  -1  -9   2   19.11    0.79
   1  -9  -2   21.54    4.18
   1   9  -1    5.47    3.43
  -1   9   1    7.93    0.64
  -1   9   1    8.79    2.32
  -1   9   1    7.49    0.71
   1   9  -1    8.03    0.55
   1   9  -1    6.05    2.58
   1   9  -1    7.62    0.63
  -1   9   1    8.01    0.54
   1   9  -1    9.08    0.74
   1  -9  -1    6.70    0.54
  -1  -9   1    8.91    0.79
  -1  -9   1    8.34    0.52
   1  -9  -1    5.03    2.20
   1  -9  -1    8.00    0.69
  -1   9   0    2.22    0.45
   1   9   0    1.78    0.41
  -1   9   0    2.47    0.37
  -1   9   0    1.83    1.41
   1   9   0    0.56    1.09
   1   9   0    1.55    0.32
   1   9   0    1.26    0.31
  -1   9   0    3.20    1.97
   1   9   0    0.40    1.42
  -1  -9   0    1.26    0.39
   1  -9   0    0.89    0.35
  -1  -9   0    1.28    0.28
   1  -9   0    1.59    0.28
   1   9   1    1.37    0.33
  -1   9  -1    1.82    0.35
   1   9   1    2.34    0.38
  -1   9  -1    2.17    0.47
  -1   9  -1    1.68    0.29
  -1   9  -1    1.31    1.16
   1   9   1    3.88    1.88
   1   9   1    1.62    0.42
  -1   9  -1    2.64    1.20
  -1  -9  -1    1.89    0.35
   1  -9   1    2.20    0.46
  -1  -9  -1    2.23    0.46
  -1  -9  -1   -0.63    1.08
  -1  -9  -1    2.19    0.36
   1  -9   1    1.53    0.25
  -1   9  -2  106.31    7.24
   1   9   2  102.62    3.42
  -1   9  -2  112.51    3.68
  -1   9  -2  107.42    3.10
  -1   9  -2  102.22    3.81
   1   9   2  110.05    3.72
   1   9   2  104.93    8.41
   1   9   2  109.14    3.52
   1  -9   2  109.50    3.06
   1  -9   2  104.70    8.10
  -1  -9  -2  114.37    3.31
  -1  -9  -2  106.87    8.84
  -1  -9  -2  106.81    3.55
   1   9   3    0.24    0.28
  -1   9  -3    0.37    0.27
   1   9   3   -1.90    1.00
  -1   9  -3    0.33    0.27
   1   9   3    0.22    0.18
   1   9   3    0.21    0.29
  -1   9  -3    0.18    0.94
   1  -9   3   -0.22    1.12
  -1  -9  -3    0.29    0.21
  -1  -9  -3    0.75    1.99
  -1  -9  -3    0.41    0.32
  -1  -9  -3    0.14    0.23
   1   9   4   33.55    6.48
   1   9   4   36.36    1.72
  -1   9  -4   31.27    8.39
   1   9   4   36.95    1.39
  -1  -9  -4   37.43    1.72
   1  -9   4   30.22    7.65
  -1  -9  -4   38.30    6.07
  -1  -9  -4   37.22    1.42
   1   9   5   -2.40    2.29
   1   9   5    0.14    0.37
  -1   9  -5    1.18    1.96
  -1  -9  -5    0.10    0.27
  -1  -9  -5   -0.26    0.38
   1  -9   5   -1.96    1.49
  -1  -9  -5   -0.47    2.01
  -1   9  -6    1.46    2.31
   1   9   6    3.09    0.63
  -1  -9  -6    6.06    3.51
  -1  -9  -6    2.13    0.43
   1  -9   6    6.33    3.61
  -1  -9  -6    2.50    0.62
   1   9   7   11.80    1.75
   1   9   7   23.84    7.18
  -1  -9  -7   12.63    0.93
  -1  -9  -7   12.20    4.71
  -1  -9  -7   14.81    1.29
  -1  10   6    2.27    0.60
   1  10  -6    2.49    2.98
  -1  10   6    3.12    3.88
   1 -10  -6    3.53    0.69
  -1 -10   6    5.66    4.26
   1 -10  -6   -0.35    3.14
   1  10  -5   -2.02    1.69
  -1  10   5    0.48    0.46
   1 -10  -5   -1.87    3.12
   1 -10  -5    0.69    0.43
  -1 -10   5    1.09    2.43
  -1  10   4    1.35    0.47
  -1  10   4    2.00    1.78
   1  10  -4    3.52    2.07
  -1 -10   4    1.09    2.00
   1 -10  -4    1.21    2.37
  -1  10   3   14.95    3.59
   1  10  -3   13.64    3.56
  -1  10   3   13.83    1.02
   1 -10  -3   15.60    1.01
  -1 -10   3    8.63    3.51
  -1 -10   3   14.08    0.61
   1 -10  -3   15.18    4.02
   1  10  -2    2.33    0.33
  -1  10   2    2.77    0.57
  -1  10   2    1.30    0.30
   1  10  -2    2.24    1.81
   1  10  -2    3.27    0.54
  -1  10   2    1.80    1.47
   1  10  -2    1.87    0.48
  -1  10   2    2.83    0.50
  -1 -10   2    2.86    0.58
   1 -10  -2    2.78    0.44
  -1 -10   2   -0.50    1.59
  -1 -10   2    2.31    0.30
   1 -10  -2    4.04    2.09
   1 -10  -2    2.05    0.47
   1  10  -1   22.70    4.76
   1  10  -1   26.73    1.21
   1  10  -1   27.21    4.02
  -1  10   1   22.59    1.38
  -1  10   1   30.19    3.58
   1  10  -1   24.98    1.39
  -1  10   1   28.42    1.71
  -1  10   1   29.10    1.30
   1  10  -1   27.05    1.32
   1 -10  -1   26.32    1.36
  -1 -10   1   28.97    1.12
   1 -10  -1   24.34    4.66
   1 -10  -1   26.92    1.19
  -1 -10   1   27.23    1.46
  -1  10   0    1.23    0.31
  -1  10   0    1.76    0.35
   1  10   0    2.29    0.42
   1  10   0    2.52    0.51
  -1  10   0    0.27    0.99
   1  10   0    1.59    1.59
   1  10   0    1.24    1.24
  -1  10   0    2.84    1.39
   1  10   0    1.84    0.36
  -1 -10   0    2.51    0.51
   1 -10   0    1.55    0.29
   1 -10   0    1.70    0.43
  -1 -10   0    1.65    0.32
  -1  10  -1    1.09    0.35
   1  10   1    0.75    0.28
  -1  10  -1    0.49    1.00
   1  10   1    0.89    0.36
   1  10   1    1.09    1.43
  -1  10  -1    1.20    1.18
   1  10   1    0.39    0.26
  -1  10  -1    0.40    0.23
  -1  10  -1    1.29    0.34
   1 -10   1    1.04    0.22
  -1 -10  -1    0.55    0.25
  -1 -10  -1    0.36    0.33
  -1 -10  -1    0.78    0.28
   1 -10   1    0.45    0.34
  -1  10  -2   24.83    1.36
  -1  10  -2   27.89    3.66
   1  10   2   22.25    4.49
   1  10   2   24.23    1.40
   1  10   2   24.54    1.22
   1  10   2   24.04    1.27
  -1  10  -2   24.28    0.96
  -1 -10  -2   25.23    4.96
  -1 -10  -2   25.56    1.25
  -1 -10  -2   25.14    1.34
  -1 -10  -2   26.88    1.12
   1 -10   2   25.05    0.91
   1  10   3   36.03    1.68
   1  10   3   34.45    5.20
  -1  10  -3   40.10    4.66
   1  10   3   34.27    1.45
  -1 -10  -3   38.26    1.41
  -1 -10  -3   35.88    1.67
  -1 -10  -3   35.01    6.57
   1 -10   3   33.65    5.05
   1  10   4   38.06    6.06
  -1  10  -4   45.85    5.67
   1  10   4   40.83    1.90
   1  10   4   40.57    1.49
   1 -10   4   32.47    5.23
  -1 -10  -4   41.56    1.52
  -1 -10  -4   47.41    6.67
  -1 -10  -4   36.43    1.80
  -1  10  -5   -0.86    1.29
   1  10   5    1.80    2.55
   1  10   5    0.72    0.47
   1 -10   5    1.94    2.50
  -1 -10  -5    4.23    3.11
  -1 -10  -5    0.26    0.27
  -1 -10  -5    0.70    0.43
  -1  10  -6    6.65    4.19
   1  10   6    9.83    4.86
   1  10   6    9.88    1.06
  -1 -10  -6   10.73    1.14
   1 -10   6    7.27    4.88
  -1 -10  -6   11.06    4.42
  -1 -10  -6   10.23    0.74
  -1  11   6    6.16    0.92
   1  11  -6    1.41    2.96
   1 -11  -6    5.90    0.87
  -1 -11   6   16.42    5.97
   1  11  -5    5.55    2.86
  -1  11   5   -0.04    2.67
  -1  11   5    0.19    0.44
   1 -11  -5    1.10    0.51
  -1 -11   5   -1.03    2.95
   1 -11  -5    0.40    2.83
  -1  11   4   83.65    3.16
   1  11  -4   76.34    8.14
  -1 -11   4   91.42    9.88
   1 -11  -4   72.15    8.26
   1 -11  -4   81.98    3.02
  -1  11   3    4.83    2.37
  -1  11   3    4.54    0.33
  -1  11   3    3.11    0.60
   1  11  -3    3.22    2.20
   1 -11  -3    4.06    0.67
   1 -11  -3    2.46    2.27
  -1 -11   3    3.28    2.41
  -1 -11   3    3.79    0.34
  -1  11   2  151.55    4.87
   1  11  -2  162.99    5.04
  -1  11   2  158.54   10.06
   1  11  -2  155.92    4.50
   1  11  -2  155.89   11.15
  -1  11   2  130.11    4.50
   1 -11  -2  153.52    4.89
  -1 -11   2  157.62    4.45
   1 -11  -2  161.65   11.06
  -1 -11   2  158.31    5.11
   1 -11  -2  155.70    5.27
   1  11  -1   19.19    4.66
  -1  11   1   20.00    1.11
  -1  11   1   19.61    1.01
   1  11  -1   19.80    1.14
   1  11  -1   19.60    1.36
  -1  11   1   16.61    1.22
  -1  11   1   22.39    3.18
   1  11  -1   16.04    3.75
   1  11  -1   19.10    0.97
  -1 -11   1   19.26    0.93
  -1 -11   1   21.11    1.31
   1 -11  -1   20.24    1.22
   1 -11  -1   19.96    1.09
   1  11   0   29.62    6.11
   1  11   0   32.52    1.67
  -1  11   0   32.84    1.67
  -1  11   0   34.21    1.47
   1  11   0   33.99    1.45
  -1  11   0   33.24    3.82
  -1  11   0   32.19    1.42
  -1  11   0   43.99    5.55
   1  11   0   35.11    4.65
   1  11   0   33.21    1.53
  -1 -11   0   33.91    1.41
  -1 -11   0   32.53    1.69
   1 -11   0   34.59    1.36
   1 -11   0   34.12    1.66
  -1  11  -1   28.69    1.50
   1  11   1   27.58    1.33
   1  11   1   26.95    6.20
  -1  11  -1   27.00    1.36
  -1  11  -1   18.69    3.77
   1  11   1   32.03    4.27
   1  11   1   26.72    1.31
  -1  11  -1   26.46    1.16
  -1  11  -1   23.61    3.27
   1  11   1   25.26    1.82
  -1 -11  -1   26.11    1.45
  -1 -11  -1   28.65    1.29
  -1 -11  -1   26.47    1.27
   1 -11   1   28.34    1.46
   1 -11   1   27.50    1.09
  -1  11  -2   13.68    0.98
  -1  11  -2   11.22    0.64
   1  11   2   11.93    0.93
  -1  11  -2    9.76    2.58
   1  11   2   12.94    3.45
   1  11   2   11.28    0.84
   1 -11   2   13.84    1.03
  -1 -11  -2   12.28    0.99
  -1 -11  -2   12.51    3.92
  -1 -11  -2   13.08    0.79
   1  11   3   16.51    0.96
   1  11   3   18.84    4.70
  -1  11  -3   25.06    3.90
   1 -11   3   18.73    4.29
  -1 -11  -3   18.54    0.92
  -1 -11  -3   21.42    5.42
   1  11   4   20.44    0.96
  -1  11  -4   19.65    4.39
   1  11   4   22.01    1.37
   1  11   4   12.01    4.55
  -1 -11  -4   19.57    4.77
  -1 -11  -4   21.73    0.99
   1 -11   4   19.03    4.84
  -1 -11  -4   21.05    1.33
   1  11   5   23.11    1.48
  -1  11  -5   15.67    4.29
   1  11   5   20.83    5.56
   1 -11   5   16.01    4.91
  -1 -11  -5   22.27    1.41
  -1 -11  -5   26.88    6.21
   1  11   6    0.17    0.44
  -1  11  -6   -2.25    2.38
   1 -11   6   -3.64    3.44
  -1 -11  -6   -0.05    0.28
  -1  12   6   14.44    1.33
   1 -12  -6   15.49    1.28
   1  12  -5    3.60    3.30
  -1  12   5    9.63    1.04
  -1 -12   5    8.88    4.53
   1 -12  -5    9.50    1.00
   1  12  -4    1.87    2.60
  -1  12   4    3.51    0.66
  -1  12   4    3.89    2.64
  -1 -12   4    2.84    3.43
   1 -12  -4    3.93    0.68
   1 -12  -4    4.20    2.77
  -1  12   3    1.17    0.47
   1  12  -3   -0.85    1.35
   1 -12  -3    3.64    2.47
  -1 -12   3    2.77    2.99
   1 -12  -3    0.38    0.42
  -1  12   2    2.69    0.55
   1  12  -2    0.88    1.74
  -1  12   2    1.68    1.67
   1  12  -2    3.93    2.24
   1  12  -2    2.01    0.37
   1 -12  -2    3.32    0.61
  -1 -12   2    2.51    0.36
  -1 -12   2    3.55    1.07
  -1  12   1   47.66    6.69
   1  12  -1   56.76    6.12
   1  12  -1   49.14    6.77
   1  12  -1   53.21    2.21
  -1  12   1   52.31    2.02
  -1  12   1   53.80    2.14
   1  12  -1   53.35    1.97
   1 -12  -1   50.81    1.99
   1 -12  -1   53.09    2.27
  -1 -12   1   52.86    1.90
  -1 -12   1   59.21    2.42
   1  12   0   20.26    4.15
   1  12   0   23.47    1.21
   1  12   0   24.24    5.52
  -1  12   0   25.37    1.24
  -1  12   0   22.79    1.19
  -1  12   0   20.47    4.31
   1  12   0   24.08    1.29
   1 -12   0   24.34    1.40
  -1 -12   0   23.80    1.47
  -1 -12   0   26.02    1.29
   1 -12   0   23.21    1.11
  -1  12  -1   28.95    2.21
   1  12   1   31.22    1.53
  -1  12  -1   37.99    4.62
   1  12   1   29.72    4.52
   1  12   1   34.70    1.56
  -1  12  -1   29.47    1.32
   1  12   1   37.53    7.88
  -1 -12  -1   30.49    1.45
   1 -12   1   30.93    1.25
   1 -12   1   33.51    1.65
  -1 -12  -1   32.24    1.69
  -1  12  -2   15.17    1.47
  -1  12  -2   16.67    0.82
   1  12   2   17.48    1.14
  -1  12  -2   16.87    3.71
   1  12   2   16.15    1.07
   1  12   2   15.50    4.17
   1 -12   2   16.89    0.76
  -1 -12  -2   18.18    0.96
  -1 -12  -2   12.14    3.89
   1 -12   2   18.41    1.36
   1  12   3    2.48    0.45
   1  12   3    2.46    0.55
  -1  12  -3    1.56    1.94
  -1 -12  -3    3.86    0.71
   1 -12   3    1.55    2.13
  -1 -12  -3    1.00    2.21
   1  12   4   -2.39    2.36
   1  12   4    1.31    0.30
  -1  12  -4    0.17    2.05
   1  12   4    1.20    0.49
   1 -12   4   -0.12    2.59
  -1 -12  -4    0.78    0.43
  -1 -12  -4    0.76    0.33
  -1 -12  -4    2.57    2.68
   1  12   5   27.96    6.74
  -1  12  -5   38.76    5.88
   1  12   5   34.94    1.93
   1 -12   5   26.42    6.38
  -1 -12  -5   34.07    1.86
  -1 -12  -5   36.05    7.32
   1  12   6    3.43    0.74
  -1 -12  -6    1.98    0.68
   1  13  -5    9.59    4.37
  -1  13   5   17.49    1.56
  -1 -13   5   18.27    6.09
   1 -13  -5   19.65    1.38
   1  13  -4   14.21    4.47
  -1  13   4   20.46    1.41
   1 -13  -4   21.21    1.43
  -1 -13   4   20.26    5.60
   1  13  -3   10.38    3.93
  -1  13   3   12.61    1.07
  -1  13   3   13.26    3.66
   1 -13  -3   12.27    3.96
  -1 -13   3   11.86    0.63
   1 -13  -3   11.78    1.08
   1  13  -2    2.97    3.00
   1  13  -2    2.72    2.74
  -1  13   2    3.25    0.50
  -1  13   2    4.94    3.28
   1  13  -2    4.01    0.51
  -1  13   2    3.75    0.66
  -1 -13   2    5.61    0.90
  -1 -13   2    4.18    0.45
   1 -13  -2    4.15    0.70
   1 -13  -2   10.35    3.83
   1  13  -1   15.33    0.92
  -1  13   1   15.58    1.05
   1  13  -1    8.32    3.28
  -1  13   1   10.09    3.79
   1  13  -1   15.19    1.09
  -1  13   1   15.32    0.99
  -1 -13   1   15.50    1.24
  -1 -13   1   15.16    0.87
   1 -13  -1   17.94    1.38
   1  13   0   23.45    1.33
   1  13   0   18.08    5.24
  -1  13   0   24.23    5.08
  -1  13   0   24.38    1.26
  -1  13   0   24.41    1.30
   1  13   0   23.06    1.25
   1 -13   0   23.49    1.14
  -1 -13   0   26.15    1.57
  -1 -13   0   23.82    1.19
  -1  13  -1   23.23    1.15
  -1  13  -1   19.56    4.02
   1  13   1   23.19    1.33
   1  13   1   22.61    5.98
   1  13   1   22.83    1.32
  -1  13  -1   24.12    1.36
   1 -13   1   25.38    1.48
   1 -13   1   23.66    1.07
  -1 -13  -1   26.37    1.54
   1  13   2    0.73    0.42
  -1  13  -2    0.82    0.29
  -1  13  -2    0.06    1.38
   1  13   2    0.53    0.32
   1 -13   2    1.31    0.27
   1 -13   2    1.43    0.55
  -1 -13  -2    0.85    0.50
  -1  13  -3   12.23    3.18
   1  13   3   15.01    1.19
   1  13   3   15.61    0.97
   1  13   3   14.82    4.33
  -1 -13  -3    8.10    4.41
  -1 -13  -3   16.48    0.90
  -1 -13  -3   18.40    1.33
   1  13   4    0.34    0.25
  -1  13  -4   -0.74    1.96
   1  13   4   -0.38    2.64
   1  13   4    0.73    0.45
  -1 -13  -4    0.36    0.47
  -1 -13  -4    2.03    2.90
   1 -13   4   -1.48    2.50
  -1  13  -5    1.78    2.50
  -1 -13  -5    0.06    0.82
  -1 -13  -5   -0.01    0.28
   1 -13   5   -0.34    3.94
  -1  14   5   13.88    1.30
   1 -14  -5   10.63    1.18
   1  14  -4    4.70    3.64
  -1  14   4    4.61    0.81
   1 -14  -4    3.46    0.71
   1  14  -3    0.89    2.04
  -1  14   3    0.19    0.39
  -1 -14   3    0.06    0.21
   1 -14  -3   -0.06    0.43
  -1  14   2   -0.06    0.29
   1  14  -2    0.88    0.33
  -1  14   2    3.41    2.54
  -1  14   2    0.36    0.41
   1  14  -2    0.90    2.13
   1  14  -2    0.53    2.43
  -1 -14   2    0.26    0.47
   1 -14  -2    0.80    0.51
  -1 -14   2    0.41    0.25
  -1  14   1    3.78    0.60
   1  14  -1    0.60    2.26
  -1  14   1    5.04    2.77
   1  14  -1    0.94    1.86
  -1  14   1    3.66    0.63
   1  14  -1    4.11    0.56
  -1 -14   1    4.00    0.79
  -1 -14   1    3.56    0.47
   1 -14  -1    3.15    0.70
  -1  14   0   -0.11    0.49
   1  14   0   -0.01    1.74
   1  14   0   -0.33    0.32
  -1  14   0   -0.68    1.95
   1  14   0    0.32    0.33
  -1  14   0   -0.24    0.32
   1  14   0   -0.80    2.08
  -1 -14   0   -0.06    0.42
   1 -14   0    0.07    0.41
   1 -14   0    0.66    0.32
   1  14   1   24.22    5.99
   1  14   1   23.65    2.08
   1  14   1   27.54    1.67
  -1  14  -1   25.18    1.26
  -1  14  -1   19.19    4.35
   1  14   1   16.97    4.59
   1 -14   1   29.45    1.62
  -1 -14  -1   29.04    1.71
  -1  14  -2    0.59    0.30
   1  14   2    0.36    2.24
  -1  14  -2    2.79    1.57
   1  14   2    1.13    0.44
   1  14   2    0.33    0.43
  -1  14  -2   -0.48    1.95
   1 -14   2    0.58    0.23
  -1 -14  -2    0.24    0.45
   1  14   3    1.76    0.41
   1  14   3    0.86    4.66
   1  14   3    1.90    0.59
  -1  14  -3    3.31    2.02
  -1 -14  -3    0.64    0.50
   1  14   4    0.49    0.27
  -1  14  -4   -1.70    2.50
   1  14   4    0.75    0.53
  -1 -14  -4    0.33    0.50
   1 -14   5    3.32    5.22
  -1  15   4   16.99    1.63
   1  15  -4   15.81    4.88
  -1  15   3   11.37    1.10
   1  15  -3    4.47    3.38
  -1 -15   3   10.15    0.64
   1 -15  -3   11.67    1.14
   1  15  -2   28.55    1.34
  -1  15   2   28.14    1.65
   1  15  -2   19.18    4.86
  -1  15   2   30.23    6.54
  -1  15   2   27.29    1.39
   1 -15  -2   26.41    1.68
  -1 -15   2   31.04    1.86
  -1  15   1    5.01    0.72
   1  15  -1    4.76    0.63
   1  15  -1   -1.07    2.24
  -1  15   1    5.52    3.65
  -1  15   1    4.55    0.69
   1 -15  -1    2.83    0.64
  -1 -15   1    4.13    0.79
  -1  15   0   -0.03    0.35
  -1  15   0    0.27    0.35
  -1  15   0    2.44    2.53
   1  15   0   -3.18    2.70
   1  15   0    0.06    0.40
   1 -15   0    1.23    0.54
  -1 -15   0    0.67    0.52
   1  15   1    0.68    0.46
   1  15   1    2.57    3.60
   1  15   1    0.52    0.40
  -1  15  -1   -0.94    1.74
  -1  15  -1    0.73    0.35
   1 -15   1    0.71    0.29
  -1 -15  -1    0.15    0.48
   1 -15   1    0.84    0.51
  -1  15  -2   13.93    3.97
   1  15   2   20.13    1.34
   1  15   2   19.17    6.24
   1  15   2   24.88    1.53
  -1  15  -2   25.30    1.16
   1 -15   2   24.88    1.05
  -1 -15  -2   23.89    1.60
   1  15   3    0.75    0.49
  -1  15  -3    3.48    2.19
  -1 -15  -3    2.76    0.70
  -1  15  -4   11.85    5.93
   1  15   4   19.59    1.49
  -1 -15  -4   17.83    1.45
  -1  16   3    1.33    0.53
   1  16  -3   -2.90    2.91
  -1  16   2    0.91    0.48
   1  16  -2    0.73    2.24
  -1  16   2    0.36    0.38
  -1  16   2    0.48    3.99
   1  16  -2   -0.76    0.30
  -1 -16   2   -0.17    0.40
  -1 -16   2   -0.40    0.27
   1 -16  -2   -0.08    0.42
  -1  16   1    6.23    3.51
  -1  16   1    7.87    0.94
   1  16  -1    5.10    3.83
   1  16  -1    6.97    0.79
   1 -16  -1    4.47    0.80
  -1 -16   1    8.41    1.12
  -1  16   0    2.92    0.58
   1  16   0    2.31    0.58
   1  16   0    1.37    3.57
   1 -16   0    3.40    0.71
  -1 -16   0    2.49    0.70
   1  16   1    1.18    0.55
   1  16   1    2.86    4.26
  -1  16  -1   -2.71    2.57
  -1  16  -1    2.48    0.54
   1 -16   1    3.46    0.71
  -1 -16  -1    3.00    0.75
  -1  16  -2   -0.05    0.29
   1  16   2    2.49    4.03
   1  16   2    1.06    0.48
   1  16   2    0.49    0.46
   1 -16   2   -0.02    0.26
  -1 -16  -2   -0.49    0.43
  -1  16  -3   -0.09    2.67
  -1 -16  -3   -0.02    0.48
  -1  17   2   -4.05    4.08
   1  17  -2    1.86    0.50
  -1  17   2    1.48    0.60
   1 -17  -2    1.40    0.61
  -1 -17   2    1.51    0.66
  -1  17   1    2.84    0.62
  -1  17   1    2.04    3.68
  -1  17   1    3.41    0.99
   1  17  -1    3.09    0.60
   1  17  -1    5.68    4.04
  -1 -17   1    2.56    0.74
   1  17   0    0.18    0.43
   1  17   0   -1.43    3.66
  -1  17   0   -0.62    2.85
  -1  17   0   -0.18    0.40
   1 -17   0    0.37    0.59
  -1  17  -1    4.32    0.75
  -1  17  -1    4.40    2.99
   1  17   1    3.51    0.72
   1  17   1   -2.70    4.00
  -1 -17  -1    3.75    0.90
  -1  17  -2    2.06    2.72
  -1  17  -2    0.17    0.35
   1  17   2    0.34    0.51
  -1 -17  -2    0.84    0.56
  -2   0   8   86.30   11.89
   2   0  -8   76.84    3.12
   2   0  -8   73.36   11.70
   2   0  -8   78.75    3.37
  -2   0   8   78.56    2.81
   2   0  -7    0.18    0.37
  -2   0   7    0.19    0.31
  -2   0   7   -3.05    2.75
   2   0  -7    0.49    3.11
   2   0  -7    0.19    0.31
   2   0  -6  185.46    5.72
   2   0  -6  186.55   14.12
  -2   0   6  185.74   14.20
  -2   0   6  175.93    5.38
  -2   0   5    0.09    0.20
  -2   0   5    1.41    1.38
   2   0  -5   -0.90    1.29
   2   0  -4  957.14   35.00
  -2   0   4  936.42   25.63
  -2   0   4 1000.00   35.29
   2   0  -3   -0.45    0.54
  -2   0   3   -0.68    0.45
   2   0  -2  216.21   11.20
  -2   0   2  214.06    5.94
   2   0  -2  212.59    5.97
  -2   0   2  231.79   11.05
   2   0  -1    0.07    0.06
   2   0  -1   -0.41    0.23
  -2   0   1    0.31    0.47
  -2   0   1    0.10    0.07
   2   0   0    0.54    0.10
  -2   0   0   -0.12    0.34
  -2   0   0    0.50    0.10
   2   0   0    0.33    0.40
  -2   0  -1    0.07    0.28
  -2   0  -1    0.05    0.08
   2   0   1    0.09    0.08
   2   0   1    0.08    0.08
  -2   0  -1   -0.03    0.07
   2   0   2  207.73    9.53
  -2   0  -2  203.41    5.57
  -2   0  -2  207.29    9.26
  -2   0  -2  198.35    5.72
   2   0   2  207.65    5.56
  -2   0  -3    0.54    0.88
  -2   0  -3    0.15    0.11
   2   0   3   -0.82    0.53
   2   0   3    0.09    0.12
  -2   0  -3   -0.09    0.12
  -2   0  -4   36.32    1.33
  -2   0  -4   43.25    5.17
   2   0   4   40.16    5.17
   2   0   4   36.77    1.29
  -2   0  -4   35.22    1.49
   2   0   5    1.13    1.70
  -2   0  -5    0.52    1.40
  -2   0  -5   -0.20    0.23
   2   0   5    0.10    0.19
  -2   0  -5   -0.18    0.20
  -2   0  -5    0.06    0.17
  -2   0  -6    1.91    0.48
  -2   0  -6   -1.39    1.13
   2   0   6   -0.88    1.86
   2   0   6    1.30    0.33
  -2   0  -6    1.57    0.49
  -2   0  -6    1.40    0.31
  -2   0  -7   -2.30    2.75
   2   0   7    0.25    0.27
  -2   0  -7   -0.36    0.45
  -2   0  -7   -0.74    0.32
  -2   0  -7   -0.26    0.29
   2   0   7    2.23    2.78
   2   0   8   -0.84    4.57
  -2   0  -8    0.97    0.47
  -2   0  -8   -0.15    0.49
  -2   0  -8    0.74    4.40
   2   0   8    0.88    0.38
  -2   1   8    7.35    0.81
  -2   1   8   -0.13    5.00
   2   1  -8    5.39    5.51
   2   1  -8    4.82    0.98
   2   1  -8    7.98    0.98
   2  -1  -8    6.41    0.99
  -2  -1   8    7.60    0.75
   2  -1  -8    6.53    0.88
   2  -1  -8    6.56    5.44
  -2  -1   8   12.41    6.37
   2   1  -7   -0.06    0.41
  -2   1   7    0.00    2.95
   2   1  -7    4.32    3.12
  -2   1   7    0.12    0.32
  -2  -1   7    0.07    0.26
   2  -1  -7   -0.17    0.37
  -2  -1   7   -0.07    3.19
   2  -1  -7   -0.23    0.29
   2  -1  -7   -0.17    2.36
  -2   1   6    0.35    0.27
   2   1  -6   -0.11    2.39
  -2   1   6   -2.77    1.96
   2  -1  -6    0.10    0.33
   2  -1  -6    0.37    0.29
  -2  -1   6    0.17    0.25
   2  -1  -6   -1.26    1.88
  -2  -1   6   -0.82    1.99
  -2   1   5   31.19    5.08
  -2   1   5   27.51    1.22
   2   1  -5   21.86    4.81
   2  -1  -5   27.03    5.41
  -2  -1   5   27.06    5.58
   2  -1  -5   26.65    1.31
   2   1  -4    3.54    2.18
  -2   1   4    0.68    1.32
  -2  -1   4    4.71    2.16
   2  -1  -4    3.72    0.37
   2  -1  -4    3.83    1.88
   2  -1  -4    3.86    0.45
  -2  -1   4    4.35    0.39
   2   1  -3    4.39    1.85
  -2   1   3    5.03    0.39
  -2   1   3    6.96    2.07
   2  -1  -3    3.46    1.64
  -2  -1   3    4.32    1.65
  -2  -1   3    4.65    0.35
   2  -1  -3    4.45    0.39
   2  -1  -3    4.63    0.36
  -2   1   2    4.08    0.31
  -2   1   2    3.46    1.25
   2   1  -2    3.82    1.31
   2   1  -2    3.54    0.30
   2  -1  -2    4.38    0.30
   2  -1  -2    4.05    0.27
  -2  -1   2    4.64    1.52
   2  -1  -2    3.94    0.29
   2  -1  -2    2.52    1.03
   2   1  -1    3.04    0.24
  -2   1   1    3.47    0.18
  -2   1   1    3.26    0.23
   2   1  -1    2.21    0.95
   2  -1  -1    3.10    0.19
   2  -1  -1    3.26    0.93
  -2  -1   1    2.92    1.06
  -2  -1   1    3.68    0.26
   2  -1  -1    3.38    0.19
  -2   1   0    0.63    0.08
   2   1   0    0.59    0.10
   2   1   0    0.41    0.10
   2   1   0    0.67    0.09
  -2   1   0    0.56    0.10
   2   1   0    0.59    0.62
  -2   1   0    0.39    0.32
  -2  -1   0    0.59    0.12
  -2  -1   0    0.55    0.10
  -2  -1   0    0.53    0.10
   2  -1   0    0.60    0.10
   2  -1   0    0.12    0.21
   2   1   1  256.14    7.47
  -2   1  -1  271.61    7.33
   2   1   1  274.21    7.40
  -2   1  -1  287.43    9.38
   2   1   1  279.46    7.41
  -2   1  -1  276.79    7.47
   2   1   1  279.44   10.65
  -2  -1  -1  265.71    7.41
  -2  -1  -1  275.84    7.49
  -2  -1  -1  271.31    7.41
   2  -1   1  294.40    9.62
  -2  -1  -1  279.18   10.31
  -2   1  -2    9.01    0.50
   2   1   2    8.15    0.48
   2   1   2    9.52    0.46
  -2   1  -2    7.28    1.62
  -2   1  -2    9.26    0.39
   2   1   2    8.28    2.05
   2  -1   2    9.84    0.39
  -2  -1  -2    9.44    2.02
  -2  -1  -2    8.83    0.45
  -2  -1  -2    9.23    0.50
  -2  -1  -2    9.56    0.52
   2   1   3  575.87   21.90
  -2   1  -3  558.61   14.56
   2   1   3  540.04   14.64
  -2   1  -3  552.48   20.49
  -2   1  -3  534.04   14.80
   2  -1   3  545.86   14.53
   2  -1   3  557.65   21.03
  -2  -1  -3  535.97   14.66
  -2  -1  -3  536.20   14.81
  -2  -1  -3  558.16   21.24
  -2  -1  -3  529.76   14.80
   2   1   4   14.89    4.54
   2   1   4   19.36    0.86
  -2   1  -4   18.60    3.75
  -2   1  -4   19.56    0.80
  -2   1  -4   19.01    0.99
  -2  -1  -4   19.27    0.87
  -2  -1  -4   20.81    5.33
  -2  -1  -4   19.69    1.00
   2  -1   4   19.96    0.78
   2  -1   4   20.18    4.22
  -2  -1  -4   19.96    1.03
  -2   1  -5  199.49    5.61
  -2   1  -5  214.87   13.27
   2   1   5  199.25    5.72
   2   1   5  203.03   13.61
  -2   1  -5  199.42    6.02
  -2  -1  -5  194.11    5.98
  -2  -1  -5  197.00    6.04
   2  -1   5  200.18   13.39
  -2  -1  -5  199.82    5.75
   2  -1   5  198.19    5.59
  -2  -1  -5  196.68   12.82
  -2   1  -6   10.31    0.88
  -2   1  -6    8.21    0.87
  -2   1  -6    9.50    0.59
   2   1   6   14.24    4.79
  -2   1  -6    7.75    3.28
   2   1   6    9.69    0.71
   2  -1   6    7.55    3.25
  -2  -1  -6   10.20    0.69
   2  -1   6    9.53    0.82
  -2  -1  -6    5.81    3.09
  -2  -1  -6    8.32    0.85
  -2  -1  -6   10.03    0.88
   2   1   7   18.87    1.06
  -2   1  -7   21.74    1.38
   2   1   7   21.13    6.44
  -2   1  -7   18.24    1.37
  -2   1  -7   21.35    5.77
  -2  -1  -7   21.27    5.49
  -2  -1  -7   18.43    1.34
  -2  -1  -7   18.24    1.03
   2  -1   7   18.45    5.81
  -2  -1  -7   20.14    1.33
   2  -1   7   19.09    0.94
  -2   1  -8   28.34    1.81
  -2   1  -8   25.55    1.69
   2   1   8   26.72    1.36
  -2   1  -8   20.20    6.60
   2   1   8   21.60    7.32
  -2  -1  -8   27.36    1.77
  -2  -1  -8   26.39    1.70
   2  -1   8   27.41    1.20
  -2  -1  -8   17.54    6.33
   2  -1   8   17.22    7.80
  -2   2   8    1.57    0.48
   2   2  -8    0.32    0.45
   2   2  -8    0.22    5.17
  -2   2   8    1.16    4.89
   2  -2  -8    0.67    0.82
   2  -2  -8    0.61    4.10
  -2  -2   8    6.19    9.48
   2  -2  -8    1.12    0.49
  -2  -2   8    1.50    0.39
  -2   2   7   24.77    1.35
  -2   2   7   21.84    6.25
   2   2  -7   33.39    6.87
  -2  -2   7   20.25    6.16
   2  -2  -7   26.34    1.39
   2  -2  -7   24.32    6.75
  -2  -2   7   25.44    1.18
   2  -2  -7   25.82    1.52
  -2   2   6   20.22    1.13
   2   2  -6   12.34    4.41
  -2   2   6   22.31    5.31
  -2  -2   6   20.30    0.97
   2  -2  -6   22.16    1.29
  -2  -2   6   16.18    4.95
   2  -2  -6   23.24    5.18
   2  -2  -6   19.80    1.09
   2   2  -5   -0.28    1.45
  -2   2   5    1.76    1.69
  -2   2   5    1.23    0.33
  -2  -2   5    0.83    1.93
  -2  -2   5    0.92    0.25
   2  -2  -5    0.62    0.25
   2  -2  -5    2.96    1.66
   2  -2  -5    0.71    0.33
   2  -2  -5    0.52    0.25
  -2   2   4    1.42    0.32
   2   2  -4   -1.07    1.01
  -2   2   4    0.45    0.98
  -2  -2   4    1.34    0.24
   2  -2  -4    0.83    0.28
   2  -2  -4   -0.71    1.00
  -2  -2   4    1.98    1.26
   2  -2  -4    1.55    0.30
   2   2  -3    4.41    0.44
  -2   2   3    4.30    1.72
  -2   2   3    4.42    0.39
   2   2  -3    1.61    1.38
   2  -2  -3    3.74    1.67
  -2  -2   3    6.14    2.05
   2  -2  -3    5.08    0.41
  -2  -2   3    4.96    0.33
   2  -2  -3    3.68    0.34
  -2   2   2  170.49    8.32
  -2   2   2  160.58    4.59
   2   2  -2  154.53    8.81
   2   2  -2  165.58    4.67
   2  -2  -2  159.99    4.56
  -2  -2   2  162.36    8.73
   2  -2  -2  167.05    8.30
   2  -2  -2  162.62    4.55
   2  -2  -2  164.77    4.44
  -2   2   1    8.40    0.37
   2   2  -1    8.67    1.95
   2   2  -1    8.92    0.41
   2   2  -1    8.39    0.44
  -2   2   1    8.50    0.41
  -2   2   1    8.24    1.18
  -2  -2   1    8.36    0.44
   2  -2  -1    8.87    0.37
   2  -2  -1    8.49    0.40
  -2  -2   1    7.37    1.77
   2  -2  -1    9.09    1.27
  -2   2   0   50.98    1.62
   2   2   0   53.14    1.68
  -2   2   0   54.63    1.60
  -2   2   0   57.38    1.60
   2   2   0   56.75    1.64
   2   2   0   56.83    4.71
   2   2   0   52.49    4.22
   2   2   0   55.30    1.63
  -2  -2   0   57.08    1.70
  -2  -2   0   55.39    1.64
  -2  -2   0   57.20    1.68
   2  -2   0   57.27    1.61
  -2   2  -1   11.31    1.15
   2   2   1   10.06    0.50
   2   2   1   11.09    0.48
   2   2   1   10.92    1.74
   2   2   1   10.89    0.49
  -2  -2  -1   10.62    0.52
  -2  -2  -1   10.37    0.48
  -2  -2  -1   10.58    0.48
  -2  -2  -1   10.81    1.71
   2  -2   1   10.72    1.17
  -2   2  -2   93.48    5.35
   2   2   2   95.43    6.44
   2   2   2   95.93    2.82
   2   2   2   92.00    2.85
   2   2   2   93.07    2.87
  -2   2  -2   98.39    2.63
   2  -2   2   97.99    5.66
  -2  -2  -2  100.54    6.30
  -2  -2  -2   95.87    2.83
  -2  -2  -2   96.03    2.87
   2  -2   2   98.19    2.61
  -2  -2  -2   97.71    2.90
   2   2   3   31.84    1.19
   2   2   3   34.19    4.40
  -2   2  -3   32.21    1.01
  -2   2  -3   33.30    3.64
  -2  -2  -3   30.28    1.25
   2  -2   3   33.32    1.00
  -2  -2  -3   30.61    4.00
  -2  -2  -3   31.89    1.20
   2   2   4    9.91    0.62
  -2   2  -4    9.52    0.46
  -2   2  -4   10.17    2.83
  -2   2  -4    9.07    0.68
   2   2   4    8.12    2.64
   2  -2   4    9.57    0.45
  -2  -2  -4    8.60    0.65
  -2  -2  -4   12.22    3.41
  -2  -2  -4   10.04    0.71
  -2  -2  -4    9.60    0.61
   2  -2   4    9.11    2.82
  -2   2  -5   68.97    2.08
  -2   2  -5   65.98    2.49
  -2   2  -5   64.71    6.80
   2   2   5   68.42    2.30
   2   2   5   64.91    7.52
  -2  -2  -5   67.69    2.32
   2  -2   5   65.15    7.26
  -2  -2  -5   67.51    2.46
  -2  -2  -5   66.60    2.51
  -2  -2  -5   70.45    7.35
   2  -2   5   67.95    2.06
  -2   2  -6    9.06    3.39
  -2   2  -6   10.76    0.94
   2   2   6    8.52    0.70
   2   2   6   16.62    4.98
  -2  -2  -6    8.85    0.70
  -2  -2  -6    9.67    0.86
   2  -2   6    7.37    3.11
   2  -2   6    9.04    0.54
  -2  -2  -6    9.94    0.91
  -2  -2  -6    3.92    2.64
  -2   2  -7    1.95    0.56
   2   2   7    2.22    0.50
  -2   2  -7    1.58    0.56
  -2   2  -7    2.85    2.98
   2   2   7    0.81    3.89
  -2  -2  -7    3.63    0.70
  -2  -2  -7   -1.43    2.46
   2  -2   7    7.10    4.39
  -2  -2  -7    2.28    0.59
  -2   2  -8   12.12    1.18
   2   2   8   13.61    0.96
   2   2   8   15.79    7.50
  -2   2  -8   22.60    6.49
  -2   2  -8   11.22    1.24
  -2  -2  -8    6.98    5.05
  -2  -2  -8   14.81    1.23
  -2  -2  -8   12.86    1.27
   2   3  -8    0.18    0.56
  -2   3   8   -3.30    4.82
   2   3  -8   -0.45    4.93
  -2   3   8    0.85    0.48
   2  -3  -8   -7.75    3.83
  -2  -3   8    0.35    0.30
  -2  -3   8    7.55    5.33
  -2   3   7   92.07   10.96
   2   3  -7   89.75   10.36
   2  -3  -7   85.25    3.20
  -2  -3   7   70.72    9.85
   2  -3  -7   80.04   10.47
   2  -3  -7   81.13    2.92
  -2  -3   7   79.41    2.63
  -2   3   6    1.95    2.47
   2   3  -6   -0.78    1.89
  -2   3   6    0.72    0.38
  -2  -3   6    0.62    0.36
   2  -3  -6    1.51    2.60
  -2  -3   6   -0.63    1.93
   2  -3  -6    0.41    0.30
   2  -3  -6    0.30    0.40
  -2   3   5   64.12    2.34
  -2   3   5   63.57    7.31
   2   3  -5   62.27    7.10
   2  -3  -5   67.10    2.40
   2  -3  -5   57.63    6.88
   2  -3  -5   65.73    2.20
   2  -3  -5   61.53    2.59
  -2  -3   5   67.79    2.09
  -2  -3   5   73.50    8.03
   2   3  -4    2.70    2.02
  -2   3   4    2.41    0.39
  -2   3   4    2.87    1.69
   2  -3  -4    3.00    0.41
  -2  -3   4    2.67    1.62
   2  -3  -4    2.92    0.32
   2  -3  -4    0.98    1.43
  -2  -3   4    2.97    0.30
   2  -3  -4    2.97    0.42
   2   3  -3  105.63    3.29
   2   3  -3  103.46    7.98
  -2   3   3  102.18    3.16
  -2   3   3  101.78    7.31
   2  -3  -3  103.60    3.12
  -2  -3   3  111.52    8.09
   2  -3  -3   99.96    2.91
  -2  -3   3  101.99    2.93
   2  -3  -3  101.76    3.10
   2  -3  -3   97.35    7.18
  -2   3   2   12.44    0.61
  -2   3   2   16.32    2.29
   2   3  -2   14.16    2.88
   2   3  -2   13.52    0.62
  -2   3   2   12.79    0.64
   2  -3  -2   13.48    0.61
   2  -3  -2   13.95    2.14
  -2  -3   2   11.69    2.71
   2   3  -1  421.94   16.79
  -2   3   1  441.79   11.60
   2   3  -1  406.20   11.63
  -2   3   1  424.34   14.06
  -2   3   1  437.47   11.62
  -2  -3   1  459.86   17.18
  -2  -3   1  420.59   11.53
  -2  -3   1  436.27   11.64
   2  -3  -1  448.57   14.41
   2  -3  -1  427.89   11.59
  -2  -3   1  441.10   11.70
  -2   3   0    1.27    0.16
   2   3   0    1.18    0.98
   2   3   0    1.45    0.20
   2   3   0    0.18    0.72
   2   3   0    1.47    0.21
  -2   3   0    1.09    0.20
   2   3   0    1.39    0.19
  -2   3   0    1.02    0.33
   2  -3   0    1.54    0.49
  -2  -3   0    1.69    0.21
   2  -3   0    1.80    0.22
  -2  -3   0    1.37    0.18
   2  -3   0    1.32    0.15
  -2  -3   0    1.23    0.22
   2   3   1   44.24    3.91
   2   3   1   42.69    1.41
   2   3   1   43.72    1.41
  -2   3  -1   43.79    2.40
  -2   3  -1   41.21    1.36
   2   3   1   41.45    1.43
  -2   3  -1   42.80    1.24
  -2  -3  -1   45.15    1.44
   2  -3   1   45.33    2.56
  -2  -3  -1   42.33    1.41
  -2  -3  -1   44.03    1.41
  -2  -3  -1   48.90    3.98
   2   3   2   11.26    0.58
   2   3   2   10.80    0.58
   2   3   2   10.39    0.57
  -2   3  -2   10.52    1.59
  -2  -3  -2   10.78    0.58
  -2  -3  -2   14.04    4.53
  -2  -3  -2   11.12    0.59
   2   3   3    4.77    0.43
   2   3   3    5.32    0.43
   2   3   3    5.22    1.98
  -2   3  -3    4.28    1.51
  -2  -3  -3    4.30    0.41
  -2  -3  -3    6.91    2.23
  -2  -3  -3    4.75    0.46
  -2  -3  -3    4.34    0.42
   2  -3   3    5.34    1.77
   2   3   4    5.90    2.44
  -2   3  -4    3.98    1.92
   2   3   4    5.03    0.48
  -2  -3  -4    5.66    0.50
  -2  -3  -4    5.97    0.53
  -2  -3  -4    4.61    2.33
  -2  -3  -4    5.38    0.56
   2   3   5   41.67    5.85
   2   3   5   38.68    1.56
  -2   3  -5   37.21    1.68
  -2   3  -5   39.04    5.07
  -2  -3  -5   39.23    1.66
   2  -3   5   35.39    5.19
  -2  -3  -5   36.65    5.32
  -2  -3  -5   39.17    1.56
   2  -3   5   36.38    1.18
  -2  -3  -5   37.63    1.70
   2   3   6   13.18    4.52
  -2   3  -6    8.61    3.38
   2   3   6   14.44    0.92
  -2   3  -6   14.94    1.09
  -2  -3  -6   18.82    4.74
  -2  -3  -6   13.19    0.98
  -2  -3  -6   15.21    0.93
  -2  -3  -6   13.12    1.07
   2  -3   6   16.66    4.67
   2   3   7   15.60    1.07
  -2   3  -7   17.74    1.30
  -2   3  -7   13.94    5.38
   2   3   7   13.69    5.66
   2  -3   7   11.93    4.84
  -2  -3  -7   16.75    1.29
  -2  -3  -7    8.38    4.09
  -2  -3  -7   16.11    1.19
   2   3   8    0.26    0.37
   2   3   8    1.96    5.27
  -2   3  -8   -1.16    0.39
  -2  -3  -8    1.48    0.58
  -2  -3  -8   -1.18    4.41
  -2   4   8   10.96    1.05
   2   4  -8    1.11    5.11
  -2   4   8   -2.91    8.38
   2  -4  -8    8.78    0.87
  -2  -4   8    8.86    6.48
   2  -4  -8    3.74    9.18
   2  -4  -8   11.12    1.12
  -2   4   7    3.34    0.63
   2   4  -7    3.00    3.42
  -2   4   7   -2.90    2.66
   2  -4  -7    3.27    0.53
  -2  -4   7    1.79    3.66
   2  -4  -7    3.33    0.69
   2  -4  -7    4.23    3.83
  -2  -4   7    3.50    0.56
   2   4  -6   40.75    6.53
  -2   4   6   45.42    7.11
  -2   4   6   46.88    1.97
  -2  -4   6   46.86    1.57
   2  -4  -6   47.25    2.11
   2  -4  -6   43.26    1.72
  -2  -4   6   51.77    7.23
   2  -4  -6   31.93    6.67
   2   4  -5   17.29    1.13
   2   4  -5   10.37    3.44
  -2   4   5   19.22    4.76
  -2   4   5   17.02    1.02
  -2  -4   5   11.33    3.93
   2  -4  -5   22.72    5.20
  -2  -4   5   15.66    0.72
   2  -4  -5   17.93    0.95
   2  -4  -5   17.09    0.83
   2  -4  -5   16.02    1.01
  -2   4   4   85.27    2.83
  -2   4   4   84.82    7.62
   2   4  -4   74.71    7.46
   2   4  -4   89.65    3.03
  -2  -4   4   86.61    7.87
   2  -4  -4   82.88    2.74
  -2  -4   4   83.68    2.48
   2  -4  -4   86.08    7.70
   2  -4  -4   83.82    2.78
   2  -4  -4   85.00    2.54
  -2   4   3    0.43    0.20
  -2   4   3    0.50    0.77
  -2   4   3    0.35    0.21
   2   4  -3    0.67    0.91
   2   4  -3    0.24    0.18
  -2  -4   3   -1.00    0.74
   2  -4  -3    0.11    0.16
   2  -4  -3    1.33    1.09
   2  -4  -3    0.47    0.12
  -2   4   2   12.16    0.66
  -2   4   2   15.13    2.23
   2   4  -2   13.08    0.66
   2   4  -2   10.73    2.62
   2   4  -2   13.44    0.72
  -2  -4   2   13.34    0.52
  -2  -4   2    9.62    2.57
   2  -4  -2   13.54    2.20
   2  -4  -2   12.70    0.62
   2  -4  -2   12.64    0.63
  -2   4   1    2.84    0.29
  -2   4   1    2.37    0.82
   2   4  -1    2.75    0.23
  -2   4   1    2.64    0.28
   2   4  -1    2.88    0.30
   2   4  -1    2.33    0.29
   2   4  -1    2.00    1.14
  -2  -4   1    3.03    1.47
  -2  -4   1    3.20    0.33
  -2  -4   1    3.35    0.33
  -2  -4   1    2.99    0.25
   2  -4  -1    3.11    0.28
   2  -4  -1    3.00    0.88
   2  -4  -1    3.00    0.27
   2   4   0  219.58    6.04
  -2   4   0  191.81    6.01
   2   4   0  215.61    6.00
  -2   4   0  220.97    5.91
   2   4   0  231.92   11.10
  -2   4   0  212.44    6.92
   2   4   0  215.37    5.95
   2   4   0  199.37   11.84
  -2  -4   0  212.11    6.08
   2  -4   0  220.45    5.88
   2  -4   0  226.88    6.02
  -2  -4   0  223.72    6.02
  -2  -4   0  222.29    5.96
  -2   4  -1    0.16    0.13
  -2   4  -1    0.31    0.28
   2   4   1    0.45    0.15
   2   4   1    0.18    0.74
   2   4   1    0.20    0.13
  -2   4  -1   -0.01    0.07
  -2  -4  -1   -0.15    0.56
  -2  -4  -1    0.19    0.13
   2  -4   1    0.16    0.35
  -2  -4  -1    0.30    0.14
   2   4   2  147.57    4.25
   2   4   2  148.26    4.28
  -2   4  -2  139.29    6.89
   2   4   2  144.39    8.81
   2   4   2  139.99    4.25
  -2  -4  -2  149.93    4.27
  -2  -4  -2  146.51    8.74
  -2  -4  -2  149.79    4.23
  -2  -4  -2  146.49    4.26
   2  -4   2  149.51    7.31
   2   4   3    0.47    0.23
   2   4   3    0.15    1.06
   2   4   3    0.63    0.21
   2   4   3    0.40    0.21
  -2   4  -3    1.12    0.73
  -2  -4  -3    0.32    0.19
   2  -4   3    2.71    1.10
  -2  -4  -3    0.51    0.23
  -2  -4  -3    0.93    1.04
  -2  -4  -3    0.32    0.20
   2   4   4   16.06    4.06
  -2   4  -4   21.85    3.40
   2   4   4   20.60    1.00
  -2  -4  -4   19.45    0.99
  -2  -4  -4   13.19    3.53
  -2  -4  -4   20.14    1.01
   2  -4   4   22.80    3.61
  -2  -4  -4   18.27    1.03
  -2   4  -5   17.38    4.00
   2   4   5   10.67    3.82
   2   4   5   18.20    1.02
  -2  -4  -5   19.95    4.56
  -2  -4  -5   18.12    1.01
  -2  -4  -5   17.61    1.12
  -2  -4  -5   20.73    1.10
  -2   4  -6   17.39    1.19
  -2   4  -6   14.51    4.16
   2   4   6   18.10    1.07
   2   4   6   12.89    4.85
  -2  -4  -6   15.22    1.17
  -2  -4  -6   17.17    1.11
  -2  -4  -6   13.65    4.23
   2  -4   6   13.08    4.00
   2   4   7   18.61    6.94
   2   4   7   12.66    1.01
  -2   4  -7   13.66    1.16
  -2   4  -7   10.20    3.72
   2  -4   7    8.96    3.49
  -2  -4  -7   14.13    1.20
  -2  -4  -7   20.41    5.57
  -2   5   8   11.36    1.13
  -2   5   7    3.64    0.67
  -2   5   7   -3.17    3.11
   2   5  -7    1.26    3.43
   2  -5  -7    7.41    4.24
  -2  -5   7    2.32    4.15
   2  -5  -7    3.71    0.52
   2  -5  -7    1.85    0.59
  -2   5   6   12.89    1.05
   2   5  -6    8.85    3.72
  -2   5   6   16.15    4.44
  -2  -5   6    3.03    3.55
   2  -5  -6   12.24    0.76
   2  -5  -6   13.35    1.02
   2  -5  -6    9.79    3.98
  -2  -5   6   11.78    0.60
  -2   5   5   15.48    3.96
  -2   5   5   18.77    1.11
   2  -5  -5   17.46    0.83
   2  -5  -5   23.48    5.33
  -2  -5   5   17.50    0.72
   2  -5  -5   18.61    1.09
   2  -5  -5   16.71    0.98
  -2   5   4   11.67    3.41
   2   5  -4    9.80    3.36
   2   5  -4    8.85    1.29
  -2   5   4    9.88    0.74
  -2  -5   4   11.46    0.50
   2  -5  -4   10.30    0.52
   2  -5  -4    7.83    2.67
   2  -5  -4   10.37    0.73
  -2  -5   4    9.43    0.46
   2  -5  -4   10.11    0.69
  -2  -5   4   11.06    3.44
   2   5  -3    4.85    0.51
  -2   5   3    4.83    0.50
  -2   5   3    4.63    0.47
   2   5  -3    1.33    1.30
  -2   5   3    4.05    1.75
   2   5  -3    4.03    0.43
   2  -5  -3    5.21    0.48
   2  -5  -3    4.22    1.75
   2  -5  -3    5.06    0.44
  -2  -5   3    4.89    0.31
  -2  -5   3    2.86    1.77
  -2   5   2    0.49    0.20
   2   5  -2    0.63    0.21
  -2   5   2    1.01    0.24
  -2   5   2    1.13    0.89
   2   5  -2    0.96    0.24
   2   5  -2    2.60    1.52
  -2  -5   2    0.73    0.16
   2  -5  -2    0.92    0.21
   2  -5  -2    0.98    0.24
   2  -5  -2   -0.29    0.57
  -2  -5   2    2.28    1.32
   2   5  -1   77.68    6.75
   2   5  -1   77.30    2.69
  -2   5   1   79.34    2.52
  -2   5   1   82.97    2.23
   2   5  -1   81.46    2.36
  -2   5   1   81.98    4.63
   2   5  -1   78.18    2.52
  -2   5   1   81.49    2.48
  -2  -5   1   81.72    2.56
  -2  -5   1   73.50    2.55
  -2  -5   1   76.98    6.85
   2  -5  -1   83.16    2.47
  -2  -5   1   81.80    2.37
   2  -5  -1   81.24    4.81
  -2   5   0   20.31    1.63
   2   5   0   19.46    4.06
  -2   5   0   20.83    0.80
   2   5   0   21.11    0.88
   2   5   0   20.00    0.82
   2   5   0   21.69    3.24
   2   5   0   21.70    1.01
  -2   5   0   20.17    2.33
  -2   5   0   19.59    0.91
   2  -5   0   20.08    0.76
   2  -5   0   21.59    0.91
  -2  -5   0   20.65    0.87
  -2  -5   0   21.54    0.84
  -2  -5   0   19.22    0.94
   2   5   1   15.93    3.09
  -2   5  -1   12.74    1.91
   2   5   1   15.51    0.73
   2   5   1   15.81    0.75
   2   5   1   14.91    0.75
  -2   5  -1   15.67    0.58
   2  -5   1   15.48    0.74
  -2  -5  -1   15.24    0.75
  -2  -5  -1   15.84    0.73
   2  -5   1   14.87    0.54
   2  -5   1   16.30    2.43
  -2  -5  -1   15.48    0.71
  -2  -5  -1   13.51    2.95
  -2   5  -2   12.33    0.68
   2   5   2   12.93    0.73
   2   5   2   11.61    2.81
   2   5   2   14.30    0.73
  -2   5  -2   13.43    1.91
   2  -5   2   12.91    2.02
  -2  -5  -2   14.36    0.84
  -2  -5  -2   14.11    0.69
  -2  -5  -2   15.38    3.17
  -2  -5  -2   14.13    0.74
   2   5   3   43.21    1.60
   2   5   3   44.21    1.70
   2   5   3   45.10    1.66
  -2   5  -3   43.13    4.23
   2   5   3   40.74    5.22
  -2  -5  -3   45.40    1.62
  -2  -5  -3   40.34    4.99
   2  -5   3   42.50    4.44
  -2  -5  -3   43.14    1.68
   2   5   4   14.14    4.12
   2   5   4   14.81    0.88
  -2   5  -4   15.37    3.22
  -2  -5  -4   12.56    3.34
  -2  -5  -4   14.88    0.93
   2  -5   4   16.06    3.53
  -2  -5  -4   14.77    0.84
  -2  -5  -4   14.41    0.86
   2   5   5    5.12    2.62
   2   5   5    4.68    0.60
  -2   5  -5    2.38    2.18
  -2  -5  -5    4.73    0.67
   2  -5   5    1.51    2.03
  -2  -5  -5    0.70    2.34
  -2  -5  -5    4.91    0.56
  -2  -5  -5    5.42    0.59
   2   5   6   17.67    1.10
  -2   5  -6   10.45    3.54
   2   5   6    8.15    6.26
  -2  -5  -6   15.68    7.18
  -2  -5  -6   17.32    1.21
  -2  -5  -6   15.27    1.04
   2   5   7    5.16    4.68
  -2   5  -7    6.51    0.94
  -2   5  -7    3.62    3.46
   2   5   7    6.84    0.84
  -2  -5  -7    5.39    0.84
  -2  -5  -7   10.15    4.70
  -2  -5  -7    3.94    0.70
  -2   6   7    1.76    0.58
   2   6  -7   -2.10    2.69
   2  -6  -7    3.09    3.64
   2  -6  -7    3.87    0.51
   2  -6  -7    2.83    0.64
  -2  -6   7    2.37    3.77
   2   6  -6   -3.29    1.86
  -2   6   6    0.29    0.41
   2  -6  -6    2.08    2.08
   2  -6  -6    1.24    0.48
   2  -6  -6    1.44    0.34
  -2  -6   6   -1.61    2.91
  -2   6   5    9.40    0.86
  -2   6   5    9.32    3.24
   2   6  -5   10.26    3.46
   2  -6  -5    8.38    0.80
  -2  -6   5    8.16    3.24
   2  -6  -5    9.20    0.54
   2  -6  -5   11.62    3.88
  -2   6   4   28.03    1.50
  -2   6   4   24.58    3.90
  -2   6   4   28.35    1.37
   2   6  -4   27.57    1.43
   2   6  -4   24.24    5.06
   2   6  -4   27.68    1.30
   2  -6  -4   28.04    0.95
  -2  -6   4   29.70    4.83
  -2  -6   4   27.56    0.94
   2  -6  -4   27.86    1.27
   2  -6  -4   27.28    4.24
   2  -6  -4   27.50    1.29
  -2  -6   4   28.96    0.94
  -2   6   3    2.88    0.43
  -2   6   3    1.18    1.17
   2   6  -3    2.48    1.75
   2   6  -3    2.40    0.40
  -2   6   3    1.77    0.36
   2   6  -3    2.41    0.43
  -2  -6   3    1.94    1.87
   2  -6  -3   -0.29    1.05
  -2  -6   3    2.23    0.24
   2  -6  -3    1.95    0.32
   2  -6  -3    2.06    0.37
  -2   6   2  328.23    9.13
   2   6  -2  316.69    9.12
   2   6  -2  325.65    9.19
   2   6  -2  331.11   16.08
  -2   6   2  325.25   13.70
  -2   6   2  327.73    9.10
  -2  -6   2  344.34   16.75
   2  -6  -2  327.15   14.02
  -2  -6   2  327.63    8.82
   2  -6  -2  318.07    9.00
   2  -6  -2  325.84    9.01
  -2   6   1    3.99    0.39
   2   6  -1    3.50    0.43
   2   6  -1    4.32    0.34
  -2   6   1    3.89    0.25
   2   6  -1    3.49    0.38
   2   6  -1    1.69    1.21
  -2   6   1    3.84    0.49
  -2   6   1    3.14    1.00
  -2  -6   1    4.23    0.44
  -2  -6   1    4.81    2.04
  -2  -6   1    3.65    0.44
   2  -6  -1    4.30    1.34
  -2  -6   1    3.78    0.33
   2  -6  -1    4.61    0.42
   2  -6  -1    4.06    0.35
  -2   6   0  128.80    7.36
   2   6   0  118.17    9.71
   2   6   0  137.18    3.94
  -2   6   0  130.32    4.10
  -2   6   0  130.15    5.72
   2   6   0  134.45    4.09
   2   6   0  141.45    9.00
  -2   6   0  138.00    3.90
  -2  -6   0  138.04    4.17
  -2  -6   0  143.10    4.03
   2  -6   0  141.42    4.07
   2  -6   0  135.17    3.84
  -2  -6   0  138.95    3.95
   2   6   1    8.84    2.40
  -2   6  -1    9.07    1.40
   2   6   1    9.38    0.62
   2   6   1    8.78    0.57
   2   6   1    9.26    0.58
  -2   6  -1    8.83    0.44
  -2   6  -1    9.91    0.63
  -2  -6  -1    8.67    0.56
   2  -6   1    8.76    0.40
  -2  -6  -1    8.56    0.60
   2  -6   1    9.08    1.83
  -2  -6  -1    9.28    0.55
   2  -6   1    9.78    0.61
  -2  -6  -1    9.52    2.66
   2   6   2  147.83    5.48
   2   6   2  183.12    5.25
   2   6   2  178.81    5.18
  -2   6  -2  176.04    5.16
   2   6   2  195.11   11.17
  -2   6  -2  160.16    8.86
  -2  -6  -2  191.66    5.12
  -2  -6  -2  188.68   10.88
  -2  -6  -2  181.82    5.20
   2  -6   2  170.06    9.88
  -2  -6  -2  181.63    5.20
   2   6   3    8.69    2.84
  -2   6  -3    7.96    2.03
   2   6   3   10.48    0.73
  -2   6  -3    9.80    0.66
   2   6   3   10.28    0.71
   2   6   3    9.33    0.62
  -2  -6  -3   11.71    3.38
  -2  -6  -3   10.26    0.69
  -2  -6  -3    9.47    0.70
   2  -6   3    9.34    2.30
  -2  -6  -3   10.04    0.64
   2   6   4   15.34    0.99
   2   6   4   13.61    0.80
  -2   6  -4   15.49    0.91
  -2   6  -4   15.05    3.24
   2   6   4   17.41    4.35
   2   6   4   15.96    0.97
  -2  -6  -4   21.58    4.67
  -2  -6  -4   16.39    1.01
  -2  -6  -4   17.71    0.99
   2  -6   4   14.43    3.46
  -2  -6  -4   16.11    0.89
   2   6   5    2.14    2.65
  -2   6  -5   -1.86    1.26
   2   6   5    0.27    0.29
  -2  -6  -5   -0.49    0.26
  -2  -6  -5    0.40    0.30
   2  -6   5   -1.11    1.50
  -2  -6  -5   -0.61    2.03
   2   6   6   28.43    6.42
   2   6   6   26.12    1.45
  -2   6  -6   20.74    4.68
  -2  -6  -6   29.40    6.81
  -2  -6  -6   29.55    1.63
   2  -6   6   35.01    6.90
  -2  -6  -6   29.35    1.45
  -2   6  -7    0.49    0.39
   2   6   7    0.92    0.44
   2   6   7    2.76    4.13
  -2   6  -7    4.51    3.35
  -2  -6  -7    2.02    3.98
  -2  -6  -7   -0.16    0.41
  -2  -6  -7    0.65    0.42
  -2   7   7   35.40    1.88
  -2   7   7   32.25    7.17
   2   7  -7   25.37    6.80
  -2  -7   7   33.06    7.49
   2  -7  -7   19.17    6.31
   2  -7  -7   35.03    1.41
   2  -7  -7   34.79    1.87
   2  -7  -7   35.59    1.46
  -2   7   6    7.27    3.81
  -2   7   6    3.09    0.63
   2   7  -6   -1.98    2.37
  -2  -7   6    1.52    2.73
   2  -7  -6    2.91    0.37
   2  -7  -6    2.65    0.59
   2  -7  -6    2.09    2.40
  -2   7   5   13.59    3.82
   2   7  -5   11.24    3.54
  -2   7   5   11.62    0.95
   2  -7  -5   11.81    0.92
   2  -7  -5   11.95    0.58
  -2  -7   5    8.16    3.54
   2  -7  -5   10.31    3.58
  -2   7   4    0.59    1.41
  -2   7   4    0.11    0.27
   2   7  -4    0.67    0.30
   2   7  -4   -0.26    1.59
   2   7  -4   -0.18    0.24
  -2   7   4    0.13    0.26
   2  -7  -4    1.42    1.58
  -2  -7   4   -0.74    1.37
   2  -7  -4    0.34    0.30
   2  -7  -4   -0.01    0.21
  -2   7   3  179.87   16.43
   2   7  -3  208.56    6.16
   2   7  -3  215.37   12.94
  -2   7   3  218.09    6.22
  -2   7   3  199.30    6.14
   2   7  -3  209.83    6.29
   2  -7  -3  215.43    6.07
  -2  -7   3  219.00   13.36
   2  -7  -3  197.89   16.39
  -2  -7   3  206.24    5.70
   2  -7  -3  203.34    6.03
   2   7  -2    0.11    0.18
  -2   7   2    0.55    0.27
  -2   7   2    0.13    0.20
   2   7  -2    0.33    0.22
   2   7  -2    0.45    0.17
   2   7  -2    2.08    1.40
  -2  -7   2    0.41    0.16
  -2  -7   2   -0.67    1.00
   2  -7  -2    0.17    0.18
   2  -7  -2   -0.80    0.70
   2  -7  -2    0.34    0.23
  -2   7   1  322.94   12.47
  -2   7   1  272.92    8.89
   2   7  -1  317.87    8.99
   2   7  -1  318.00    8.65
  -2   7   1  326.69    8.83
   2   7  -1  293.90   16.39
   2   7  -1  316.40    8.88
  -2   7   1  336.85    8.57
   2  -7  -1  324.36    8.86
   2  -7  -1  321.17    8.73
  -2  -7   1  329.09   17.36
   2  -7  -1  325.83   13.21
  -2  -7   1  309.81    9.02
   2   7   0   20.47    1.02
   2   7   0   14.84    4.04
  -2   7   0   19.91    0.86
   2   7   0   19.63    3.16
  -2   7   0   20.45    0.87
  -2   7   0   17.63    1.94
   2   7   0   19.93    0.89
   2   7   0   20.31    0.94
  -2   7   0   18.22    1.00
  -2   7   0   21.66    2.83
   2  -7   0   21.27    1.01
  -2  -7   0   19.88    0.94
  -2  -7   0   19.85    0.88
  -2  -7   0   19.52    1.18
   2   7   1   23.28    1.12
   2   7   1   23.38    1.05
  -2   7  -1   20.73    2.39
  -2   7  -1   23.00    0.87
   2   7   1   24.17    3.61
   2   7   1   24.01    1.05
  -2   7  -1   23.96    2.46
  -2   7  -1   24.30    1.13
  -2  -7  -1   23.41    1.04
  -2  -7  -1   16.64    3.65
  -2  -7  -1   24.79    1.15
   2  -7   1   23.63    1.19
   2  -7   1   21.88    0.81
  -2  -7  -1   23.06    1.00
   2   7   2   53.20    1.94
   2   7   2   52.21    5.74
  -2   7  -2   53.24    1.95
   2   7   2   51.08    2.00
   2   7   2   56.63    1.97
  -2   7  -2   55.79    4.34
  -2  -7  -2   52.80    1.95
   2  -7   2   57.01    4.69
  -2  -7  -2   55.43    1.85
  -2  -7  -2   52.95    1.95
  -2  -7  -2   47.90    5.50
  -2   7  -3    9.61    0.70
   2   7   3   10.80    0.69
  -2   7  -3    7.50    2.10
   2   7   3   10.77    0.78
   2   7   3   11.85    3.45
  -2  -7  -3   10.75    0.79
  -2  -7  -3   11.46    0.68
  -2  -7  -3    9.66    3.12
   2  -7   3   10.52    2.77
   2   7   4   18.48    0.93
   2   7   4   17.67    4.59
  -2   7  -4   21.09    3.40
   2   7   4   16.62    1.05
  -2   7  -4   19.86    1.16
  -2  -7  -4   17.52    1.09
   2  -7   4   21.07    4.21
  -2  -7  -4   19.26    0.98
  -2  -7  -4   14.62    4.21
  -2  -7  -4   18.90    1.09
   2   7   5    0.41    2.43
   2   7   5    0.53    0.36
  -2   7  -5    2.23    1.73
  -2  -7  -5    1.73    0.47
   2  -7   5   -0.02    1.45
  -2  -7  -5    1.34    0.37
  -2  -7  -5   -1.04    2.27
   2   7   6   10.55    0.96
   2   7   6    9.91    4.63
  -2   7  -6    7.43    3.25
  -2  -7  -6    9.09    0.82
  -2  -7  -6    9.52    0.99
  -2  -7  -6    8.18    3.85
   2  -7   6    7.69    3.25
  -2   7  -7   29.88    6.53
   2   7   7   26.62    1.58
  -2   7  -7   29.25    1.73
   2  -7   7   20.37    6.21
  -2  -7  -7   17.23    5.80
  -2  -7  -7   25.32    1.81
  -2  -7  -7   26.73    1.47
  -2   8   7   -3.92    3.91
  -2   8   7    0.56    0.48
  -2  -8   7   -2.61    6.25
   2  -8  -7    0.81    0.49
   2  -8  -7   -0.15    0.24
  -2   8   6    2.31    0.58
   2   8  -6   -0.07    2.74
  -2  -8   6   -1.63    2.54
   2  -8  -6   -0.38    2.90
   2  -8  -6    1.40    0.51
   2   8  -5   37.20    5.98
  -2   8   5   36.82    1.81
  -2   8   5   38.59    6.07
   2  -8  -5   27.28    5.73
  -2  -8   5   30.37    6.56
   2   8  -4   38.15    5.45
  -2   8   4   39.86    5.37
  -2   8   4   35.73    1.72
  -2   8   4   39.00    1.98
   2  -8  -4   37.67    5.30
  -2  -8   4   39.87    5.84
   2  -8  -4   38.97    1.68
   2   8  -3   24.98    4.93
  -2   8   3   23.49    1.26
   2   8  -3   24.44    1.32
   2   8  -3   23.73    1.25
  -2   8   3   26.75    3.70
   2  -8  -3   25.42    4.00
  -2  -8   3   19.69    4.51
  -2  -8   3   25.14    0.91
   2  -8  -3   25.57    1.20
   2  -8  -3   25.58    1.18
  -2   8   2   25.24    1.29
   2   8  -2   21.32    4.58
   2   8  -2   24.52    1.27
  -2   8   2   26.40    1.23
   2   8  -2   25.47    0.98
   2   8  -2   24.79    1.24
  -2  -8   2   25.65    0.97
   2  -8  -2   25.74    1.18
  -2  -8   2   23.46    1.27
   2  -8  -2   25.38    1.13
  -2   8   1    3.17    0.53
   2   8  -1    4.84    0.42
   2   8  -1    4.46    2.42
  -2   8   1    4.86    1.38
   2   8  -1    4.27    0.53
  -2   8   1    4.21    0.46
   2   8  -1    3.89    0.45
  -2   8   1    4.52    0.35
   2   8  -1    3.56    1.85
  -2  -8   1    3.51    0.36
   2  -8  -1    4.23    0.41
   2  -8  -1    2.24    1.27
   2  -8  -1    4.02    0.49
  -2  -8   1    5.01    0.67
  -2   8   0  128.48    8.06
   2   8   0  127.68    4.09
   2   8   0  129.75    4.19
   2   8   0  113.46   10.44
  -2   8   0  128.55    3.84
  -2   8   0  126.74    6.39
  -2   8   0  124.16    4.09
   2   8   0  125.84    9.03
   2   8   0  134.02    3.99
  -2   8   0  133.56    3.87
  -2  -8   0  127.72    4.16
   2  -8   0  129.16    3.76
  -2  -8   0  131.31    3.87
   2  -8   0  133.88    4.05
  -2  -8   0  134.66    3.99
  -2   8  -1   19.83    1.06
   2   8   1   19.81    0.98
   2   8   1   19.67    0.97
  -2   8  -1   17.14    2.19
   2   8   1   18.32    3.91
  -2   8  -1   18.53    0.80
  -2   8  -1   19.57    2.49
   2   8   1   20.12    1.08
   2  -8   1   19.87    1.03
  -2  -8  -1   20.76    0.96
   2  -8   1   18.65    0.75
  -2  -8  -1   18.87    0.95
  -2  -8  -1   17.43    4.05
  -2  -8  -1   19.65    1.08
   2   8   2   14.08    0.85
  -2   8  -2   10.50    2.26
   2   8   2   14.21    0.92
   2   8   2   13.60    0.83
  -2   8  -2   13.65    0.55
   2   8   2   12.68    3.36
  -2   8  -2   12.80    0.84
   2  -8   2   14.20    2.76
  -2  -8  -2   13.67    0.84
  -2  -8  -2   14.71    3.63
  -2  -8  -2   13.55    0.85
  -2  -8  -2   13.99    0.77
   2   8   3   30.76    1.42
  -2   8  -3   32.01    1.42
  -2   8  -3   31.42    3.74
   2   8   3   26.50    1.27
   2   8   3   29.97    4.72
   2   8   3   31.25    1.49
  -2  -8  -3   29.97    1.39
  -2  -8  -3   28.65    1.23
  -2  -8  -3   36.26    5.14
  -2  -8  -3   27.68    1.37
   2  -8   3   30.97    4.12
   2   8   4   -0.12    0.22
  -2   8  -4    0.42    0.99
   2   8   4    0.00    0.30
   2   8   4   -0.06    1.81
  -2  -8  -4    0.57    0.37
  -2  -8  -4    0.24    0.24
  -2  -8  -4    2.36    2.37
   2  -8   4    0.64    1.71
   2   8   5   15.61    1.12
  -2   8  -5   14.21    4.47
   2   8   5   12.29    4.72
  -2  -8  -5   17.53    1.17
  -2  -8  -5    9.34    4.11
  -2  -8  -5   14.06    0.91
   2  -8   5   19.81    5.51
   2   8   6   13.39    1.09
  -2   8  -6    7.36    3.46
   2   8   6    5.84    3.96
  -2  -8  -6   11.65    4.88
  -2  -8  -6   14.77    1.18
   2  -8   6   13.16    4.39
  -2  -8  -6   13.82    0.98
  -2   8  -7    6.32    0.93
   2   8   7    3.70    0.73
  -2   8  -7    2.84    3.47
   2  -8   7   -5.05    3.45
  -2  -8  -7    6.68    0.78
  -2  -8  -7    6.00    0.90
   2   9  -7    7.97    4.95
  -2   9   6    7.69    3.70
  -2   9   6    5.91    0.86
   2   9  -6    4.64    3.63
   2  -9  -6    1.78    2.95
   2  -9  -6    5.43    0.78
  -2  -9   6   10.90    4.78
   2   9  -5   30.40    6.15
  -2   9   5   33.96    1.77
   2  -9  -5   36.10    1.71
  -2  -9   5   22.61    5.37
   2  -9  -5   25.46    5.60
  -2   9   4    5.47    0.75
  -2   9   4    3.83    2.20
   2   9  -4    7.69    2.95
   2  -9  -4    7.77    2.89
   2  -9  -4    6.68    0.72
  -2  -9   4    3.86    2.83
   2   9  -3    3.86    0.59
  -2   9   3    2.75    0.54
   2   9  -3    4.11    0.62
  -2   9   3    4.06    0.60
   2   9  -3    2.45    2.00
  -2   9   3    3.87    1.90
   2  -9  -3    4.21    0.58
   2  -9  -3    3.12    0.47
  -2  -9   3    3.41    0.33
   2  -9  -3    4.24    2.17
  -2   9   2   10.91    2.60
   2   9  -2   12.58    0.90
  -2   9   2   12.42    0.84
   2   9  -2   11.87    0.88
  -2   9   2   11.74    0.90
   2   9  -2   11.34    0.63
  -2  -9   2   11.51    0.60
  -2  -9   2    8.94    0.83
   2  -9  -2    9.77    2.70
   2  -9  -2   11.19    0.81
   2  -9  -2   10.56    0.80
  -2   9   1   28.18    1.07
   2   9  -1   25.40    1.34
   2   9  -1   21.59    4.53
   2   9  -1   27.36    1.28
   2   9  -1   24.15    5.28
  -2   9   1   27.37    1.23
  -2   9   1   22.39    1.29
  -2   9   1   26.27    3.01
   2   9  -1   25.26    1.21
  -2  -9   1   27.70    1.43
   2  -9  -1   28.73    3.76
   2  -9  -1   25.54    1.26
   2  -9  -1   27.05    1.14
  -2  -9   1   27.24    1.10
   2   9   0   35.58    5.91
   2   9   0   45.37    1.77
  -2   9   0   43.13    1.88
  -2   9   0   48.69    4.92
  -2   9   0   47.70    4.69
   2   9   0   41.31    1.85
   2   9   0   44.41    1.68
   2   9   0   46.72    5.46
  -2   9   0   46.33    1.67
  -2  -9   0   46.43    1.97
   2  -9   0   46.69    1.84
  -2  -9   0   50.28    1.82
  -2  -9   0   45.48    1.68
   2  -9   0   45.60    1.59
  -2   9  -1   94.11    5.73
   2   9   1   95.71    3.20
   2   9   1  104.37    3.44
  -2   9  -1  102.16    3.39
   2   9   1   99.82    8.13
  -2   9  -1   96.68    2.99
   2   9   1  102.47    3.25
  -2   9  -1   91.49    5.97
  -2   9  -1  101.50    3.29
  -2  -9  -1   97.44    3.20
   2  -9   1   98.49    3.01
  -2  -9  -1  103.06    3.40
   2  -9   1  104.12    3.33
  -2  -9  -1   97.51    3.26
  -2  -9  -1  104.18    9.16
   2   9   2   37.25    1.72
   2   9   2   30.78    8.64
  -2   9  -2   35.18    3.61
  -2   9  -2   37.41    1.23
   2   9   2   36.91    1.59
   2   9   2   38.42    1.61
  -2   9  -2   34.26    1.77
   2  -9   2   41.34    4.62
  -2  -9  -2   35.82    1.62
   2  -9   2   36.67    1.17
  -2  -9  -2   39.60    1.61
  -2  -9  -2   40.44    9.37
  -2  -9  -2   39.27    1.48
   2   9   3   66.42    2.50
   2   9   3   65.74    7.34
  -2   9  -3   70.66    2.63
  -2   9  -3   73.67    5.99
   2   9   3   72.37    2.64
  -2  -9  -3   72.35    7.75
  -2  -9  -3   75.55    2.94
   2  -9   3   78.35    6.74
  -2  -9  -3   73.76    2.65
  -2   9  -4   12.50    3.20
   2   9   4   18.19    1.30
   2   9   4   13.43    4.35
   2   9   4   18.56    0.97
   2  -9   4   22.16    4.46
  -2  -9  -4   18.39    0.97
  -2  -9  -4   15.13    4.45
  -2  -9  -4   20.89    1.83
   2   9   5   76.94    9.68
   2   9   5   83.52    3.14
  -2   9  -5   75.80    7.58
  -2  -9  -5   86.50    2.87
   2  -9   5   76.30    8.09
  -2  -9  -5   88.43    9.30
  -2  -9  -5   88.21    3.21
  -2   9  -6    0.56    2.50
   2   9   6   -3.77    4.43
   2   9   6    2.92    0.64
  -2  -9  -6    4.12    0.62
   2  -9   6    5.45    3.63
  -2  -9  -6    6.99    3.74
  -2  -9  -6    2.87    0.66
   2   9   7    4.47    5.62
  -2  -9  -7    1.65    0.49
  -2  -9  -7   -2.18    4.09
  -2  -9  -7    0.97    0.61
  -2  10   6   51.86    2.46
   2  10  -6   48.77    7.91
  -2 -10   6   56.71    8.61
  -2  10   5    3.18    2.88
  -2  10   5    0.07    0.40
   2  10  -5   -1.66    2.20
   2 -10  -5    6.90    3.08
  -2 -10   5   -5.56    3.02
   2 -10  -5   -0.03    0.36
   2  10  -4   63.29    7.88
  -2  10   4   79.23    3.04
  -2  10   4   90.16    8.32
   2 -10  -4   81.54    3.13
   2 -10  -4   83.78    8.27
   2  10  -3   15.95    4.07
  -2  10   3    9.54    3.02
  -2  10   3   16.30    1.09
   2 -10  -3   15.77    1.02
  -2 -10   3   11.36    4.33
   2 -10  -3    6.92    2.80
   2  10  -2   -0.01    0.20
   2  10  -2    0.02    1.42
   2  10  -2    0.50    0.36
   2  10  -2    0.75    0.31
  -2  10   2    0.74    0.35
  -2  10   2   -1.79    0.87
  -2  10   2    0.71    0.19
  -2  10   2    0.21    0.28
  -2 -10   2    0.41    0.36
  -2 -10   2    2.74    2.21
   2 -10  -2    1.81    1.61
   2 -10  -2    0.45    0.33
   2 -10  -2    0.38    0.25
  -2 -10   2    0.90    0.24
  -2  10   1   22.01    0.95
   2  10  -1   19.39    4.30
   2  10  -1   19.02    1.10
   2  10  -1   17.30    4.49
  -2  10   1   19.15    2.74
   2  10  -1   18.65    0.94
  -2  10   1   20.72    1.09
   2  10  -1   20.28    1.24
  -2 -10   1   20.19    0.94
  -2 -10   1   21.25    1.29
   2 -10  -1   22.51    3.63
   2 -10  -1   19.55    1.13
   2 -10  -1   19.27    0.97
   2  10   0   74.56    8.46
  -2  10   0   68.84    2.38
   2  10   0   68.58    2.66
   2  10   0   66.23    6.66
  -2  10   0   73.24    2.41
   2  10   0   66.63    2.39
   2  10   0   70.24    2.51
  -2  10   0   69.26    6.19
  -2  10   0   70.90    4.96
  -2 -10   0   74.96    2.57
  -2 -10   0   69.12    2.72
   2 -10   0   73.65    2.60
   2 -10   0   71.11    2.29
  -2 -10   0   67.52    2.39
   2  10   1    8.53    0.81
   2  10   1    9.30    0.73
  -2  10  -1    9.60    0.60
  -2  10  -1    8.35    1.87
  -2  10  -1    5.32    1.82
  -2  10  -1    8.82    0.72
   2  10   1    7.64    2.71
  -2  10  -1    9.04    0.80
   2  10   1    9.47    0.75
  -2 -10  -1    9.28    0.69
   2 -10   1    9.77    0.80
  -2 -10  -1    9.47    0.84
   2 -10   1    8.61    0.52
   2  10   2   43.32    1.85
  -2  10  -2   46.40    4.37
   2  10   2   43.00    1.84
  -2  10  -2   44.38    1.92
  -2  10  -2   44.42    1.46
   2  10   2   46.34    5.89
   2  10   2   44.89    2.02
  -2 -10  -2   46.83    1.72
  -2 -10  -2   36.59    5.43
  -2 -10  -2   43.69    1.91
  -2 -10  -2   43.62    1.81
   2 -10   2   41.95    1.38
   2  10   3    2.38    1.85
   2  10   3    3.40    0.49
  -2  10  -3    3.74    1.61
   2  10   3    3.07    0.54
   2 -10   3   -0.14    1.46
  -2 -10  -3    2.65    2.61
  -2 -10  -3    2.90    0.59
  -2 -10  -3    3.29    0.46
  -2  10  -4    7.32    2.49
   2  10   4    9.10    0.89
   2  10   4    9.09    0.69
   2  10   4    9.39    3.77
  -2 -10  -4    8.46    0.86
   2 -10   4    7.34    3.04
  -2 -10  -4    9.34    0.71
  -2 -10  -4   10.52    3.74
   2  10   5   11.25    1.02
   2  10   5   18.07    4.60
  -2  10  -5    4.78    2.44
  -2 -10  -5    6.35    4.35
   2 -10   5   11.90    4.06
  -2 -10  -5   11.30    0.79
  -2 -10  -5    9.49    0.99
   2  10   6   10.30    1.04
  -2  10  -6   10.46    3.60
   2  10   6    5.62    4.94
   2 -10   6   16.43    4.58
  -2 -10  -6   10.08    4.47
  -2 -10  -6    8.87    1.07
  -2 -10  -6    8.28    0.77
  -2  11   6    2.96    0.73
   2  11  -6    2.07    3.39
   2 -11  -6    2.60    0.64
  -2  11   5    5.13    3.09
   2  11  -5   -2.99    2.05
  -2  11   5    0.55    0.47
   2 -11  -5    1.45    0.54
   2 -11  -5   -2.16    2.59
  -2 -11   5    1.08    3.12
   2  11  -4   -1.18    1.65
  -2  11   4    1.05    0.49
   2 -11  -4    4.90    4.08
   2 -11  -4    0.79    0.43
  -2 -11   4    0.22    3.09
   2  11  -3   82.25    8.73
  -2  11   3   79.22    3.13
  -2  11   3   87.12    7.63
  -2 -11   3   75.87    2.42
  -2 -11   3   87.04    9.56
   2 -11  -3   77.64    2.90
   2 -11  -3   73.33    7.37
   2  11  -2    7.20    0.77
  -2  11   2    7.12    0.49
  -2  11   2    7.46    0.77
  -2  11   2    6.03    2.29
   2  11  -2    7.53    2.71
   2  11  -2    8.40    0.60
   2 -11  -2    8.33    0.80
   2 -11  -2    6.74    2.80
  -2 -11   2    5.90    0.51
  -2 -11   2    6.92    0.84
   2  11  -1    7.64    3.22
   2  11  -1    6.02    2.81
   2  11  -1    6.59    0.70
  -2  11   1   11.00    2.40
  -2  11   1    8.45    0.64
  -2  11   1    6.13    0.84
  -2  11   1    6.80    0.69
   2  11  -1    7.52    0.62
  -2 -11   1    7.50    0.59
  -2 -11   1    7.63    0.87
   2 -11  -1    7.85    0.67
   2 -11  -1    7.68    0.76
  -2  11   0    0.36    0.36
   2  11   0    4.47    2.35
   2  11   0    0.10    0.25
   2  11   0    0.70    1.35
  -2  11   0    0.49    0.27
  -2  11   0    0.09    0.20
   2  11   0   -0.06    0.24
  -2  11   0    0.90    1.08
   2  11   0    0.07    0.31
  -2  11   0    0.48    1.07
  -2 -11   0    0.15    0.36
   2 -11   0    0.20    0.20
  -2 -11   0    0.33    0.28
   2 -11   0    0.37    0.34
  -2 -11   0    0.15    0.22
   2  11   1    4.59    0.57
   2  11   1    0.58    2.32
  -2  11  -1    4.18    0.48
  -2  11  -1    4.30    0.65
   2  11   1    3.39    0.54
   2  11   1    2.03    2.12
  -2  11  -1    1.91    1.22
  -2  11  -1    4.41    0.60
  -2  11  -1    4.99    1.68
  -2 -11  -1    4.52    0.54
  -2 -11  -1    3.74    0.67
   2 -11   1    3.85    0.62
  -2 -11  -1    4.84    0.57
   2 -11   1    3.82    0.39
  -2  11  -2    1.89    1.40
  -2  11  -2    2.63    0.53
  -2  11  -2    0.44    1.16
   2  11   2    2.63    0.51
   2  11   2    1.26    2.09
   2  11   2    2.25    0.47
  -2  11  -2    2.58    0.33
  -2 -11  -2    3.01    0.59
   2 -11   2    2.00    0.27
  -2 -11  -2    1.68    2.01
  -2 -11  -2    2.00    0.40
  -2  11  -3   46.61    4.95
   2  11   3   51.76    6.75
   2  11   3   38.79    1.80
   2  11   3   45.32    2.12
   2 -11   3   52.58    5.98
  -2 -11  -3   46.22    2.07
  -2 -11  -3   44.39    1.73
  -2 -11  -3   46.50    6.73
  -2  11  -4    2.45    1.90
   2  11   4    2.52    0.59
   2  11   4    3.10    0.47
   2  11   4    3.27    3.39
  -2 -11  -4    4.32    0.52
   2 -11   4    3.46    2.98
  -2 -11  -4    3.54    0.65
  -2 -11  -4    6.11    2.99
   2  11   5    5.65    0.87
  -2  11  -5    7.37    2.73
   2  11   5   -1.69    3.21
  -2 -11  -5    4.90    0.79
  -2 -11  -5    5.43    0.59
  -2 -11  -5    4.96    3.85
   2 -11   5    8.43    3.77
   2  11   6    2.81    8.30
  -2  11  -6    9.63    3.56
   2 -11   6    6.56    4.69
  -2 -11  -6   15.24    1.32
  -2 -11  -6   12.30    0.88
  -2  12   6    0.46    0.48
   2 -12  -6    1.26    0.59
  -2  12   5    0.96    0.54
   2  12  -5   -2.34    2.24
  -2 -12   5    3.10    3.32
   2 -12  -5    1.04    0.48
  -2  12   4   18.08    1.33
  -2  12   4   17.35    4.23
   2  12  -4   14.32    4.38
  -2 -12   4    7.96    4.26
   2 -12  -4   18.06    4.44
   2 -12  -4   19.28    1.29
   2  12  -3    0.68    2.13
  -2  12   3    2.98    0.62
  -2 -12   3    2.48    3.66
   2 -12  -3    2.34    0.59
  -2 -12   3    2.39    0.33
  -2  12   2   11.17    0.92
   2  12  -2    7.03    3.31
   2  12  -2    8.93    0.67
  -2  12   2    8.65    0.58
   2  12  -2    5.64    3.11
   2 -12  -2    9.94    0.91
   2 -12  -2    8.31    2.97
  -2 -12   2    9.49    0.63
  -2  12   1    1.58    0.33
   2  12  -1    2.26    1.97
  -2  12   1   -2.69    1.65
   2  12  -1    1.34    0.33
   2  12  -1    1.16    0.41
  -2  12   1    1.14    0.38
   2  12  -1    0.11    1.86
  -2 -12   1    0.83    0.46
   2 -12  -1    1.19    0.47
  -2 -12   1    1.09    0.29
  -2  12   0    1.22    0.36
   2  12   0    2.29    1.94
  -2  12   0    1.66    0.39
  -2  12   0    0.24    1.69
   2  12   0    1.19    0.41
  -2  12   0    0.99    0.89
   2  12   0    2.22    2.93
  -2 -12   0    2.28    0.43
   2 -12   0    1.40    0.32
  -2 -12   0    1.85    0.56
   2 -12   0    1.42    0.46
   2  12   1    1.47    2.36
  -2  12  -1   -0.37    0.19
   2  12   1    0.21    0.31
   2  12   1   -0.59    1.15
   2  12   1   -0.04    0.32
  -2  12  -1   -0.28    1.13
  -2  12  -1   -0.67    0.87
  -2 -12  -1    0.02    0.40
  -2 -12  -1    0.08    0.26
   2 -12   1    0.03    0.35
   2 -12   1    0.10    0.16
  -2  12  -2   14.60    3.00
  -2  12  -2   15.58    1.32
  -2  12  -2   15.87    0.79
   2  12   2   16.88    1.16
  -2  12  -2   17.91    3.27
   2  12   2   16.23    4.37
   2  12   2   14.62    1.08
  -2 -12  -2   11.18    4.31
   2 -12   2   15.98    0.71
  -2 -12  -2   16.80    0.97
  -2 -12  -2   16.72    1.25
   2  12   3   15.15    1.12
   2  12   3   12.05    0.92
   2  12   3   12.19    4.22
  -2  12  -3   16.64    3.65
  -2 -12  -3   15.66    1.20
  -2 -12  -3    9.45    4.05
  -2 -12  -3   14.14    0.88
   2  12   4    8.48    5.07
   2  12   4    1.68    0.40
  -2  12  -4    2.73    1.99
   2  12   4    1.58    0.51
  -2 -12  -4    1.07    0.38
  -2 -12  -4    1.56    0.55
  -2 -12  -4   -1.52    2.89
   2 -12   4    0.27    2.54
   2  12   5    3.74    0.72
  -2  12  -5    4.23    2.97
   2  12   5    1.62    4.08
   2 -12   5    1.89    3.65
  -2 -12  -5    4.01    0.75
  -2 -12  -5    4.04    0.56
  -2 -12  -5    4.21    3.27
  -2  13   5    1.71    0.66
   2  13  -5    4.63    3.83
   2 -13  -5    0.73    0.51
  -2 -13   5    1.55    4.39
   2  13  -4    2.92    2.64
  -2  13   4    1.12    0.52
  -2 -13   4   -1.28    3.33
   2 -13  -4    1.37    0.55
  -2  13   3   24.24    1.50
   2  13  -3   17.87    4.97
  -2  13   3   21.30    4.79
   2 -13  -3   19.77    4.89
  -2 -13   3   23.10    0.99
   2 -13  -3   22.71    1.43
   2  13  -2    3.54    2.72
  -2  13   2    5.95    0.83
   2  13  -2    5.17    0.60
   2  13  -2    6.94    5.36
  -2  13   2    4.31    0.48
   2 -13  -2    0.63    2.08
  -2 -13   2    5.19    0.85
  -2 -13   2    6.42    0.54
   2 -13  -2    5.42    0.81
   2  13  -1   14.77    0.93
  -2  13   1   13.81    1.02
   2  13  -1   11.59    4.21
  -2  13   1   13.65    3.99
  -2  13   1   14.15    0.90
  -2 -13   1   14.90    1.23
  -2 -13   1   14.12    0.87
   2  13   0    5.37    3.61
   2  13   0    7.24    0.74
  -2  13   0    5.60    2.38
  -2  13   0    6.71    0.66
   2  13   0    3.63    2.64
  -2  13   0    6.32    0.67
   2  13   0    5.30    0.67
  -2 -13   0    4.99    0.65
  -2 -13   0    5.59    0.86
   2 -13   0    4.60    0.53
   2  13   1   13.36    1.50
   2  13   1   16.13    5.55
  -2  13  -1   11.20    2.64
   2  13   1   14.57    1.04
  -2  13  -1   11.05    2.44
  -2  13  -1   14.05    0.87
  -2  13  -1   16.06    1.07
   2  13   1    6.01    3.83
   2 -13   1   15.34    1.14
   2 -13   1   14.96    0.79
  -2 -13  -1   16.74    1.26
   2  13   2    1.58    0.48
  -2  13  -2    1.76    0.48
   2  13   2    0.84    0.47
  -2  13  -2    2.24    1.62
  -2  13  -2    1.21    1.46
  -2 -13  -2    1.99    0.57
  -2 -13  -2    1.27    0.40
   2 -13   2    1.89    0.28
  -2  13  -3   40.78    4.93
  -2  13  -3   45.77    5.26
   2  13   3   37.89    1.79
   2  13   3   37.97    7.15
   2  13   3   40.56    1.98
  -2 -13  -3   40.65    1.66
  -2 -13  -3   29.36    6.91
  -2 -13  -3   41.35    2.05
  -2  13  -4    3.12    2.39
   2  13   4    0.31    0.28
   2 -13   4   -0.34    3.16
  -2 -13  -4    0.77    0.33
  -2 -13  -4    0.03    0.43
  -2 -13  -4    3.09    3.45
  -2  13  -5   16.11    4.34
   2  13   5   20.14    1.68
  -2 -13  -5   18.57    1.89
   2 -13   5   15.54    4.83
  -2  14   5    0.53    0.50
   2 -14  -5    0.49    0.54
  -2  14   4   11.52    1.15
   2  14  -4   10.28    4.84
   2 -14  -4   11.18    1.09
   2  14  -3    3.46    3.24
  -2  14   3    4.26    0.74
   2 -14  -3    4.83    0.80
  -2 -14   3    4.30    0.48
  -2  14   2    2.35    0.59
   2  14  -2    2.32    0.47
  -2  14   2    0.96    1.99
   2  14  -2    2.97    2.93
   2  14  -2   -1.54    2.13
   2 -14  -2    1.34    0.54
  -2 -14   2    0.90    0.38
  -2 -14   2    3.00    0.73
  -2  14   1   18.62    1.22
  -2  14   1   19.74    4.83
  -2  14   1   17.48    1.08
   2  14  -1   18.43    4.56
   2  14  -1   18.55    1.09
   2  14  -1   17.39    4.65
  -2 -14   1   21.44    1.48
   2 -14  -1   18.29    1.31
  -2 -14   1   17.95    1.01
  -2  14   0   29.49    3.99
   2  14   0   26.72    6.84
  -2  14   0   32.98    1.59
  -2  14   0   35.58    1.66
   2  14   0   35.41    5.39
  -2  14   0   25.02    4.84
   2  14   0   33.69    1.64
  -2 -14   0   36.81    1.97
   2 -14   0   38.00    1.86
   2 -14   0   31.66    1.44
  -2  14  -1   10.24    0.79
  -2  14  -1    9.58    2.62
  -2  14  -1    6.27    2.54
   2  14   1    7.20    4.21
  -2  14  -1   10.10    0.93
   2  14   1    8.77    0.89
   2  14   1   11.38    0.99
   2  14   1    8.89    3.36
  -2 -14  -1   11.37    1.15
   2 -14   1    9.60    0.67
   2 -14   1   11.62    1.06
  -2  14  -2    6.53    0.59
   2  14   2    6.32    1.15
  -2  14  -2    7.40    2.39
   2  14   2    3.54    3.63
   2  14   2    6.29    0.83
  -2  14  -2    6.05    2.17
   2  14   2    4.62    2.91
   2 -14   2    5.59    0.46
  -2 -14  -2    6.80    0.73
  -2 -14  -2    5.78    0.87
   2  14   3    1.95    0.49
   2  14   3    1.34    0.57
   2  14   3    0.34    3.15
  -2  14  -3    5.18    3.12
  -2 -14  -3    0.82    0.36
  -2 -14  -3    1.39    0.56
  -2 -14  -3    0.03    3.38
  -2  14  -4    1.60    2.81
   2  14   4    0.49    0.36
   2  14   4    0.53    0.46
  -2 -14  -4    0.10    0.31
  -2 -14  -4   -0.66    0.48
   2  15  -4    4.37    3.89
  -2  15   4   -0.06    0.54
   2 -15  -4   -0.79    0.69
   2  15  -3    3.68    3.04
  -2  15   3    0.19    0.43
  -2 -15   3    0.12    0.27
   2 -15  -3    0.52    0.45
  -2  15   2    2.97    0.50
  -2  15   2    1.97    3.54
   2  15  -2    4.49    0.61
  -2  15   2    3.72    0.67
  -2 -15   2    2.62    0.46
   2 -15  -2    3.04    0.67
  -2 -15   2    4.84    0.87
  -2  15   1   -1.59    2.04
   2  15  -1    5.01    0.64
  -2  15   1    3.67    0.63
   2  15  -1    4.48    2.96
  -2  15   1    4.09    0.64
   2 -15  -1    5.28    0.84
  -2 -15   1    3.82    0.77
  -2  15   0    4.05    0.64
   2  15   0   -0.62    3.14
  -2  15   0    3.33    0.56
  -2  15   0    3.30    2.08
   2  15   0    4.60    3.42
   2  15   0    3.69    0.60
  -2 -15   0    3.37    0.79
   2 -15   0    4.07    0.74
   2  15   1   -0.36    3.19
  -2  15  -1    1.28    2.06
   2  15   1    1.05    0.48
  -2  15  -1    0.99    0.37
   2 -15   1    1.41    0.51
   2 -15   1    0.85    0.30
  -2 -15  -1    0.42    0.51
   2  15   2    2.02    0.57
   2  15   2    4.10    0.74
   2  15   2    2.71    3.66
  -2  15  -2    3.15    0.45
  -2  15  -2    1.91    1.84
  -2 -15  -2    2.35    0.70
   2 -15   2    2.87    0.37
  -2  15  -3    0.00    2.58
   2  15   3    2.93    0.68
   2  15   3    3.55    0.78
  -2 -15  -3    2.67    0.68
   2  15   4    9.65    1.14
  -2  15  -4    9.27    3.33
  -2 -15  -4    9.86    1.17
  -2 -15  -4    7.35    0.73
   2  16  -3    7.69    4.59
  -2  16   3    7.79    1.01
   2 -16  -3    4.76    1.25
   2  16  -2    7.19    4.09
  -2  16   2    8.02    0.65
  -2  16   2    5.55    0.87
  -2  16   2    5.65    3.83
   2  16  -2    6.78    0.76
   2 -16  -2    6.51    0.91
  -2 -16   2    6.10    0.97
   2  16  -1   -4.69    3.11
  -2  16   1    2.87    0.64
  -2  16   1    0.37    2.92
  -2  16   1    2.02    0.56
  -2 -16   1    3.06    0.75
   2 -16  -1    2.73    0.62
   2  16   0    6.58    4.81
   2  16   0   19.01    1.26
  -2  16   0   17.16    1.27
  -2  16   0   19.02    1.25
   2 -16   0   19.60    1.37
  -2 -16   0   23.79    1.62
  -2  16  -1    0.77    0.38
   2  16   1    0.24    0.43
   2  16   1   -2.32    3.25
  -2  16  -1   -1.94    1.84
   2 -16   1    0.42    0.44
  -2 -16  -1    0.55    0.55
  -2  16  -2   10.69    0.78
  -2  16  -2    9.58    3.44
   2  16   2   13.88    5.74
   2  16   2   11.10    1.12
  -2 -16  -2   10.89    1.19
  -2  16  -3    3.66    2.82
   2  16   3    1.45    0.63
  -2 -16  -3    0.43    0.59
  -2  17   2   -3.46    4.02
   2  17  -2    0.33    0.42
  -2  17   2    0.26    0.42
  -2 -17   2    0.27    0.53
   2 -17  -2   -0.43    0.45
  -2  17   1    6.07    0.86
   2  17  -1    0.38    3.67
  -2  17   1    4.43    4.19
   2  17  -1    8.43    0.94
  -2 -17   1   11.67    1.23
   2 -17  -1    8.96    1.63
   2  17   0    3.76    0.69
   2  17   0   -2.27    3.27
  -2  17   0    2.34    3.15
  -2  17   0    3.22    0.68
  -2 -17   0    4.42    0.92
   2 -17   0    5.71    0.95
  -2  17  -1   -2.11    2.18
   2  17   1    0.43    0.42
  -2  17  -1   -0.07    0.38
   2  17   1   -7.11    4.23
  -2 -17  -1    1.10    0.59
  -2  17  -2   15.56    0.97
  -2  17  -2   12.92    3.94
  -2 -17  -2   18.37    1.53
  -3   0   8   -4.91    4.45
   3   0  -8   -0.26    0.43
   3   0  -8    0.69    0.45
   3   0  -8    1.54    4.03
   3   0  -7    3.90    3.30
  -3   0   7   -2.77    2.60
   3   0  -7    0.76    0.42
  -3   0   7    0.01    0.28
   3   0  -6   -0.27    0.27
  -3   0   6    0.42    0.28
  -3   0   6    0.19    2.36
   3   0  -6    0.36    0.32
   3   0  -6   -1.75    1.82
  -3   0   5    0.88    1.57
   3   0  -5    0.42    0.24
  -3   0   5    0.03    0.20
   3   0  -5    0.60    1.72
  -3   0   4   25.64    4.11
   3   0  -4   29.98    4.60
  -3   0   4   27.52    1.24
   3   0  -4   26.97    1.18
   3   0  -3    0.15    0.91
   3   0  -3    0.19    0.14
  -3   0   3    0.04    0.14
  -3   0   3   -0.77    0.56
   3   0  -2    1.26    0.98
  -3   0   2    0.38    0.67
   3   0  -2    1.82    0.22
   3   0  -1    0.19    0.47
   3   0  -1    0.19    0.09
  -3   0   1    0.06    0.08
  -3   0   1    0.96    0.60
  -3   0   0    2.39    0.23
   3   0   0    1.96    0.20
   3   0   0    1.05    0.78
  -3   0  -1    0.18    0.11
  -3   0  -1   -0.11    0.28
  -3   0  -1    0.06    0.08
   3   0   1   -0.06    0.07
  -3   0  -1    0.04    0.09
   3   0   1    0.01    0.34
   3   0   1    0.01    0.08
   3   0   2   62.46    2.33
  -3   0  -2   72.00    4.83
  -3   0  -2   66.45    2.19
  -3   0  -2   68.33    2.03
   3   0   2   72.85    2.03
  -3   0  -3    1.22    0.97
  -3   0  -3    1.95    0.53
  -3   0  -4   13.48    0.84
  -3   0  -4   13.41    0.84
   3   0   4   13.51    3.50
  -3   0  -4   13.82    0.68
   3   0   4   12.51    0.65
  -3   0  -4   11.31    3.18
  -3   0  -5   -0.01    0.18
   3   0   5   -0.94    1.24
  -3   0  -5    0.04    0.24
  -3   0  -5   -0.29    0.24
  -3   0  -5    1.30    1.48
  -3   0  -6   36.91    1.82
  -3   0  -6   37.36    1.81
   3   0   6   32.48    6.56
   3   0   6   36.28    1.42
  -3   0  -6   36.72    1.45
  -3   0  -6   34.13    6.51
  -3   0  -7    0.16    0.41
  -3   0  -7   -0.24    0.31
   3   0   7    2.96    3.58
  -3   0  -7    0.17    2.86
   3   0   7   -0.12    0.26
  -3   0  -8   37.98    2.14
  -3   0  -8   34.12    9.39
  -3   0  -8   33.95    2.00
   3   0   8   36.48    1.52
   3   1  -8   30.03    1.83
  -3   1   8   30.85    8.06
   3   1  -8   31.57    1.79
  -3   1   8   29.20    1.58
   3   1  -8   17.70    6.50
  -3  -1   8   38.15    9.28
  -3  -1   8   33.11    1.53
   3  -1  -8   34.13    1.77
   3  -1  -8   26.24    7.57
   3  -1  -8   31.93    1.85
   3   1  -7    3.12    6.74
  -3   1   7    0.55    0.35
   3   1  -7    1.41    0.54
  -3   1   7    0.99    3.48
  -3  -1   7    0.76    0.33
   3  -1  -7    3.77    3.62
  -3  -1   7   -4.11    3.49
   3  -1  -7    0.47    0.40
   3  -1  -7    1.19    0.48
  -3   1   6   73.75    8.79
  -3   1   6   75.74    2.67
   3   1  -6   68.40    8.45
   3   1  -6   75.30    2.84
   3  -1  -6   77.71    9.26
   3  -1  -6   73.35    2.73
  -3  -1   6   78.57    2.59
   3  -1  -6   79.37    2.85
  -3  -1   6   71.84    8.60
   3   1  -5    0.35    1.40
  -3   1   5    1.05    0.32
   3   1  -5    1.07    0.30
  -3   1   5    1.09    1.86
   3  -1  -5    1.87    2.07
  -3  -1   5    2.64    1.99
   3  -1  -5    1.63    0.39
   3  -1  -5    0.84    0.29
  -3  -1   5    0.42    0.23
  -3   1   4   46.72    1.72
   3   1  -4   49.77    5.99
   3   1  -4   46.53    1.78
  -3   1   4   49.69    5.77
   3  -1  -4   45.68    1.69
   3  -1  -4   49.17    5.70
   3  -1  -4   48.32    1.75
  -3  -1   4   52.73    5.77
  -3  -1   4   46.87    1.64
   3   1  -3    2.58    1.45
  -3   1   3    2.09    1.31
   3   1  -3    2.74    0.33
  -3   1   3    1.98    0.29
   3  -1  -3    3.38    0.31
  -3  -1   3    4.50    1.83
   3  -1  -3    2.80    1.41
   3  -1  -3    2.86    0.33
  -3  -1   3    2.63    0.31
   3   1  -2  141.62    8.36
  -3   1   2  132.20    3.94
  -3   1   2  133.24    7.48
   3   1  -2  141.15    3.97
  -3  -1   2  141.34    8.11
  -3  -1   2  134.13    3.99
   3  -1  -2  138.92    3.86
   3  -1  -2  146.74    7.93
   3  -1  -2  137.64    3.84
  -3   1   1   30.25    2.62
   3   1  -1   28.98    1.02
   3   1  -1   29.93    3.15
  -3   1   1   30.17    0.96
   3   1  -1   28.43    0.91
  -3  -1   1   30.99    3.19
   3  -1  -1   28.56    0.93
   3  -1  -1   28.91    0.87
   3  -1  -1   29.99    2.63
  -3  -1   1   28.92    1.03
  -3   1   0   93.66    2.52
  -3   1   0   93.93    2.70
  -3   1   0   84.31    5.42
   3   1   0   96.29    2.56
   3   1   0   93.76    6.14
  -3  -1   0   97.89    2.76
   3  -1   0   92.74    5.02
  -3  -1   0   92.94    2.59
  -3  -1   0   89.41    2.65
   3  -1   0   96.93    2.68
  -3   1  -1   42.55    1.30
  -3   1  -1   43.57    2.79
   3   1   1   41.61    1.32
   3   1   1   44.27    1.36
  -3   1  -1   44.11    1.44
   3   1   1   45.60    3.74
   3   1   1   42.60    1.45
  -3  -1  -1   41.62    1.36
   3  -1   1   43.24    1.43
   3  -1   1   45.29    3.00
  -3  -1  -1   43.53    3.44
  -3  -1  -1   42.89    1.34
  -3  -1  -1   42.69    1.46
  -3   1  -2  127.23    3.79
  -3   1  -2  127.26    3.57
   3   1   2  127.81    7.69
  -3   1  -2  132.29    6.72
   3   1   2  129.87    3.66
   3  -1   2  139.52    7.22
   3  -1   2  128.29    3.55
  -3  -1  -2  125.21    3.70
  -3  -1  -2  130.49    7.33
  -3  -1  -2  124.69    3.80
  -3  -1  -2  125.80    3.66
  -3   1  -3   57.29    2.02
   3   1   3   63.22    6.00
  -3   1  -3   52.77    4.78
  -3   1  -3   57.03    1.78
   3   1   3   59.34    1.86
  -3  -1  -3   56.88    1.99
  -3  -1  -3   62.80    5.44
  -3  -1  -3   55.19    2.05
   3  -1   3   59.70    1.76
  -3   1  -4   12.14    0.79
   3   1   4    9.57    2.69
  -3   1  -4   12.31    0.60
   3   1   4   11.63    0.65
  -3   1  -4   11.82    2.75
  -3  -1  -4   12.01    0.80
  -3  -1  -4   11.75    0.79
   3  -1   4   11.38    0.57
  -3  -1  -4   11.46    0.66
  -3  -1  -4   12.69    3.18
   3  -1   4   11.28    3.16
   3   1   5    6.00    0.52
  -3   1  -5    6.28    0.46
  -3   1  -5    6.29    0.69
   3   1   5    4.12    2.54
  -3   1  -5    7.57    2.87
   3  -1   5    5.45    2.78
  -3  -1  -5    7.28    2.61
  -3  -1  -5    5.90    0.69
   3  -1   5    6.34    0.47
  -3  -1  -5    6.72    0.66
  -3  -1  -5    6.75    0.55
  -3   1  -6    2.02    0.33
   3   1   6    1.15    2.77
  -3   1  -6    1.70    0.52
  -3   1  -6    2.63    2.34
   3   1   6    0.82    0.34
  -3   1  -6    2.49    0.84
   3  -1   6    1.04    0.32
   3  -1   6    1.86    2.14
  -3  -1  -6    1.31    0.48
  -3  -1  -6    1.01    0.33
  -3  -1  -6    2.01    0.49
  -3  -1  -6   -3.14    1.45
  -3   1  -7    0.66    0.26
  -3   1  -7    0.51    0.42
  -3   1  -7    0.97    0.48
   3   1   7    1.62    3.58
   3   1   7    1.21    0.37
  -3   1  -7   -4.91    2.13
   3  -1   7    0.03    0.26
  -3  -1  -7   -0.68    2.57
   3  -1   7    1.64    3.06
  -3  -1  -7    0.37    0.38
  -3  -1  -7    0.55    0.47
  -3  -1  -7    0.22    0.29
   3   1   8   12.40    0.89
  -3   1  -8   11.23    1.16
  -3   1  -8   10.87    1.18
  -3  -1  -8   13.12    1.21
  -3  -1  -8   15.32    1.37
  -3  -1  -8    6.45    5.43
   3  -1   8   11.91    0.75
  -3   2   8    0.74    4.75
   3   2  -8    0.11    0.56
  -3   2   8   -0.44    0.40
   3   2  -8    2.17    4.99
  -3  -2   8   -0.13    0.31
   3  -2  -8    0.87    0.52
   3  -2  -8   -3.77    3.84
  -3  -2   8   -7.45    4.06
   3  -2  -8    0.64    0.41
  -3   2   7   42.29    1.90
  -3   2   7   39.78    8.18
   3   2  -7   32.13    7.63
   3  -2  -7   51.81    8.48
   3  -2  -7   41.25    1.84
   3  -2  -7   41.44    1.88
   3  -2  -7   45.80    2.07
  -3  -2   7   42.49    1.69
  -3  -2   7   48.26    9.13
   3   2  -6    7.00    3.48
  -3   2   6    3.25    2.76
  -3   2   6    7.12    0.71
  -3  -2   6    3.55    2.80
   3  -2  -6    7.91    0.69
   3  -2  -6    6.57    3.46
   3  -2  -6    7.23    0.65
   3  -2  -6    6.90    0.77
  -3  -2   6    6.50    0.59
  -3   2   5   42.72    1.74
  -3   2   5   45.16    6.05
   3   2  -5   54.14    6.76
   3   2  -5   44.16    1.87
  -3  -2   5   42.71    1.62
  -3  -2   5   39.38    5.87
   3  -2  -5   43.68    1.67
   3  -2  -5   45.83    5.99
   3  -2  -5   42.63    1.76
   3   2  -4    0.72    1.50
  -3   2   4    0.28    0.22
   3   2  -4    0.50    0.24
  -3   2   4    1.01    1.24
   3  -2  -4    1.45    1.43
  -3  -2   4    0.21    0.18
   3  -2  -4    0.36    0.23
   3  -2  -4    0.46    0.19
  -3  -2   4    1.00    1.33
  -3   2   3   40.84    1.48
   3   2  -3   39.94    1.52
  -3   2   3   38.25    4.42
   3   2  -3   38.16    4.70
  -3  -2   3   39.51    4.66
   3  -2  -3   40.36    1.33
   3  -2  -3   39.81    4.43
   3  -2  -3   41.33    1.43
   3   2  -2    2.15    0.27
   3   2  -2    3.35    1.88
  -3   2   2    3.46    1.20
  -3   2   2    2.62    0.30
  -3  -2   2    2.40    0.30
   3  -2  -2    2.62    1.13
   3  -2  -2    2.19    0.18
  -3  -2   2    3.91    2.03
   3  -2  -2    2.20    0.24
  -3   2   1  465.38   15.11
   3   2  -1  449.10   12.27
  -3   2   1  444.01   12.32
   3   2  -1  461.85   12.38
  -3   2   1  458.19   12.20
   3   2  -1  448.90   17.82
  -3  -2   1  476.92   18.08
   3  -2  -1  472.62   12.18
   3  -2  -1  464.93   15.22
  -3   2   0   13.59    1.37
   3   2   0   15.16    2.94
   3   2   0   15.17    0.57
   3   2   0   14.82    0.61
   3   2   0   13.64    2.90
  -3   2   0   16.18    0.61
  -3   2   0   16.07    0.57
  -3  -2   0   16.93    0.71
  -3  -2   0   14.77    0.61
   3  -2   0   15.34    0.53
  -3  -2   0   14.99    0.62
   3  -2   0   16.11    0.59
   3  -2   0   15.35    1.15
  -3   2  -1  731.29   21.78
   3   2   1  765.99   20.11
   3   2   1  737.01   20.20
   3   2   1  769.87   25.64
  -3  -2  -1  736.18   20.11
   3  -2   1  776.36   22.20
  -3  -2  -1  787.12   25.02
   3   2   2   25.15    0.97
  -3   2  -2   25.83    0.83
   3   2   2   21.37    3.11
  -3   2  -2   27.25    2.66
  -3   2  -2   24.08    1.02
  -3  -2  -2   24.73    0.97
  -3  -2  -2   26.15    1.06
  -3  -2  -2   26.39    1.01
   3  -2   2   24.96    2.66
  -3  -2  -2   26.75    3.17
   3   2   3  302.34    8.81
   3   2   3  315.11    8.70
  -3   2  -3  319.45    8.51
  -3   2  -3  300.77    8.84
   3   2   3  328.73   15.81
  -3   2  -3  327.30   13.81
   3  -2   3  325.60   14.30
  -3  -2  -3  315.04    8.82
  -3  -2  -3  312.75    8.87
  -3  -2  -3  316.26    8.74
  -3  -2  -3  337.14   15.05
   3  -2   3  315.83    8.47
  -3   2  -4    0.22    0.14
   3   2   4    1.22    1.35
  -3   2  -4   -0.01    0.19
  -3   2  -4    0.39    1.01
   3   2   4   -0.22    0.16
  -3  -2  -4    0.35    0.25
  -3  -2  -4    0.06    0.19
  -3  -2  -4   -0.05    0.24
   3  -2   4    0.14    0.13
   3   2   5    2.85    0.43
  -3   2  -5    2.44    0.49
   3   2   5    3.01    2.17
  -3   2  -5    2.40    0.28
  -3  -2  -5    1.15    1.55
   3  -2   5    0.58    1.74
   3  -2   5    2.43    0.29
  -3  -2  -5    3.07    0.49
  -3  -2  -5    1.54    0.44
  -3  -2  -5    2.24    0.40
  -3   2  -6   31.85    1.66
  -3   2  -6   30.57    1.14
   3   2   6   29.89    6.55
  -3   2  -6   24.13    5.34
   3   2   6   32.09    1.39
  -3  -2  -6   29.75    1.61
   3  -2   6   30.39    1.12
  -3  -2  -6   26.61    5.74
  -3  -2  -6   30.54    1.59
   3  -2   6   27.29    6.27
  -3  -2  -6   31.33    1.40
  -3   2  -7    6.32    3.35
   3   2   7    3.36    0.55
  -3   2  -7    3.93    0.74
  -3   2  -7    2.54    0.66
  -3  -2  -7   -1.76    3.21
  -3  -2  -7    2.64    0.65
   3  -2   7    2.58    3.17
  -3  -2  -7    2.77    0.63
   3  -2   7    2.99    0.37
   3   3  -8   46.09   10.06
  -3   3   8   49.36    2.21
   3  -3  -8   49.78    2.14
   3  -3  -8   56.97    3.52
  -3  -3   8   49.11    1.88
  -3  -3   8   33.32    9.37
   3   3  -7    7.93    4.41
  -3   3   7    5.01    0.72
  -3   3   7   -2.74    2.87
   3  -3  -7    4.45    0.74
   3  -3  -7    5.52    0.69
  -3  -3   7    5.73    0.59
  -3  -3   7    3.51    3.95
   3  -3  -7    5.16    0.64
   3  -3  -7   10.80    4.65
  -3   3   6   71.15    8.74
  -3   3   6   69.08    2.61
   3   3  -6   82.50    9.32
  -3  -3   6   66.34    8.28
   3  -3  -6   72.57    2.69
  -3  -3   6   69.36    2.32
   3  -3  -6   63.48    8.02
   3  -3  -6   67.75    2.41
   3  -3  -6   70.78    2.48
   3   3  -5    1.70    0.43
  -3   3   5   -0.76    1.54
  -3   3   5    2.10    0.43
   3   3  -5    0.39    1.92
  -3  -3   5   -1.09    1.72
   3  -3  -5    2.22    0.33
   3  -3  -5    2.30    0.44
  -3  -3   5    1.94    0.32
   3  -3  -5    1.94    0.32
   3  -3  -5    2.13    0.38
   3  -3  -5    6.09    2.39
   3   3  -4   14.75    3.76
  -3   3   4   17.07    0.94
   3   3  -4   18.59    1.01
  -3   3   4   17.56    3.95
   3  -3  -4   17.83    0.78
   3  -3  -4   16.16    0.86
   3  -3  -4   13.91    3.56
   3  -3  -4   17.76    0.92
  -3  -3   4   13.27    3.66
  -3  -3   4   18.89    0.80
   3   3  -3    4.78    2.01
  -3   3   3    4.98    1.93
   3   3  -3    5.12    0.47
  -3   3   3    5.40    0.48
   3  -3  -3    2.03    1.34
   3  -3  -3    5.20    0.31
   3  -3  -3    5.14    0.41
  -3  -3   3    7.09    2.49
   3  -3  -3    4.97    0.42
  -3   3   2    8.46    1.93
   3   3  -2   14.14    3.08
  -3   3   2    9.50    0.51
   3   3  -2    8.76    0.51
   3   3  -2    9.95    0.58
  -3   3   2    9.08    0.55
  -3  -3   2    9.68    0.61
   3  -3  -2    9.82    0.53
  -3  -3   2    9.43    2.61
   3  -3  -2   11.11    0.51
   3  -3  -2   10.44    2.11
  -3   3   1    0.15    0.11
   3   3  -1    0.33    0.13
  -3   3   1    0.34    0.09
  -3   3   1    0.32    0.13
  -3   3   1    0.38    0.30
   3   3  -1    0.48    0.16
   3  -3  -1    0.16    0.11
  -3  -3   1    0.21    0.12
   3  -3  -1   -0.25    0.23
  -3  -3   1    0.31    0.95
  -3  -3   1    0.17    0.13
  -3  -3   1    0.31    0.14
   3  -3  -1    0.16    0.06
   3   3   0    1.01    1.03
  -3   3   0    3.65    0.25
   3   3   0    4.36    0.34
  -3   3   0    3.71    0.29
   3   3   0    3.46    0.28
   3   3   0    3.01    1.63
  -3   3   0    3.64    0.26
   3   3   0    3.53    0.28
  -3  -3   0    3.53    0.32
  -3  -3   0    3.47    0.32
  -3  -3   0    3.08    0.28
   3  -3   0    3.89    0.27
  -3   3  -1   19.58    0.74
   3   3   1   20.09    0.81
  -3   3  -1   20.49    1.45
   3   3   1   18.83    0.77
   3   3   1   20.82    3.03
  -3   3  -1   20.45    0.80
   3   3   1   20.73    0.87
  -3  -3  -1   21.07    2.83
   3  -3   1   20.44    1.55
  -3  -3  -1   19.96    0.86
  -3  -3  -1   20.00    0.79
  -3  -3  -1   18.45    0.80
   3   3   2    1.74    0.28
  -3   3  -2    1.21    0.67
  -3   3  -2    1.29    0.24
  -3   3  -2    1.25    0.14
   3   3   2    0.78    0.22
   3   3   2    1.48    1.06
   3   3   2    0.91    0.21
   3  -3   2    1.51    0.78
  -3  -3  -2    1.14    0.24
  -3  -3  -2    0.90    0.21
  -3  -3  -2    0.85    0.22
  -3  -3  -2    1.70    1.10
   3   3   3   69.60    6.54
  -3   3  -3   59.45    2.13
  -3   3  -3   64.71    5.09
   3   3   3   58.70    2.12
  -3  -3  -3   59.33    5.78
   3  -3   3   64.88    5.39
  -3  -3  -3   63.63    2.15
  -3  -3  -3   62.44    2.09
  -3  -3  -3   62.57    2.16
  -3   3  -4    4.98    0.53
   3   3   4    5.65    0.52
  -3   3  -4    4.24    1.88
   3   3   4    4.60    2.46
   3  -3   4    7.27    2.47
  -3  -3  -4    5.57    0.57
  -3  -3  -4    5.17    0.54
  -3  -3  -4    5.31    0.49
  -3  -3  -4    2.24    1.74
   3   3   5   45.06    1.73
  -3   3  -5   43.83    1.91
  -3   3  -5   39.84    5.32
   3   3   5   39.68    6.21
  -3  -3  -5   42.54    5.94
  -3  -3  -5   44.66    1.89
  -3  -3  -5   44.86    1.92
  -3  -3  -5   44.50    1.75
  -3   3  -6   19.36    1.27
   3   3   6   20.06    1.09
  -3   3  -6   14.48    4.10
   3   3   6   14.25    5.03
  -3  -3  -6   17.82    1.26
  -3  -3  -6   13.73    4.27
  -3  -3  -6   17.47    1.04
   3  -3   6   14.26    4.74
  -3  -3  -6   17.93    1.19
   3   3   7    7.20    4.31
  -3   3  -7    6.99    0.90
   3   3   7    7.52    0.77
  -3   3  -7    3.67    3.29
  -3  -3  -7    5.45    0.81
  -3  -3  -7    5.41    3.75
  -3  -3  -7    5.79    0.86
   3  -3   7    2.90    3.25
  -3   4   8   -5.74    4.20
   3   4  -8    1.12    3.95
  -3   4   8    2.29    0.58
   3  -4  -8    0.54    4.90
  -3  -4   8    1.10    5.63
  -3  -4   8    2.57    0.42
  -3   4   7   30.44    7.17
   3   4  -7   22.89    6.69
  -3   4   7   30.29    1.62
   3  -4  -7   31.76    1.42
   3  -4  -7   30.81    1.68
   3  -4  -7   28.95    6.72
   3  -4  -7   31.22    1.44
  -3  -4   7   29.22    1.25
  -3  -4   7   35.13    7.43
   3   4  -6    1.22    2.58
  -3   4   6    1.61    0.46
  -3   4   6    2.18    2.55
  -3  -4   6    2.25    2.88
   3  -4  -6    1.60    0.37
   3  -4  -6    1.83    0.37
   3  -4  -6    2.24    2.56
   3   4  -5   38.54    7.09
  -3   4   5   34.55    5.26
  -3   4   5   30.26    1.47
   3   4  -5   29.17    1.53
  -3  -4   5   29.86    5.92
   3  -4  -5   32.73    1.46
   3  -4  -5   29.84    1.18
   3  -4  -5   37.43    5.80
  -3  -4   5   30.60    1.17
   3  -4  -5   30.03    1.36
   3  -4  -5   31.24    1.22
   3   4  -4    2.00    1.73
  -3   4   4    1.08    1.29
  -3   4   4    2.73    0.44
   3   4  -4    3.03    0.49
   3  -4  -4    2.75    0.43
  -3  -4   4    3.24    0.34
  -3  -4   4    7.89    3.05
   3  -4  -4    3.31    0.29
   3  -4  -4    2.62    0.38
   3  -4  -4    2.45    1.57
   3  -4  -4    3.50    0.30
  -3   4   3  194.24    5.82
  -3   4   3  206.32    5.90
   3   4  -3  194.29    5.79
   3   4  -3  213.74   12.80
   3   4  -3  205.44    5.97
  -3   4   3  197.51   10.89
   3  -4  -3  209.26    5.48
   3  -4  -3  204.12    5.77
  -3  -4   3  213.24   12.36
   3  -4  -3  202.74    5.81
   3  -4  -3  204.25   11.23
  -3   4   2    3.43    0.36
   3   4  -2    5.29    1.89
   3   4  -2    3.26    0.37
   3   4  -2    2.63    0.35
  -3   4   2    1.96    1.03
  -3   4   2    2.22    0.30
  -3  -4   2    2.01    1.60
  -3  -4   2    2.39    0.25
  -3  -4   2    3.15    0.39
   3  -4  -2    2.99    0.30
   3  -4  -2    2.51    0.29
   3  -4  -2    1.57    0.89
  -3   4   1    2.26    0.26
   3   4  -1    2.51    0.30
  -3   4   1    1.45    0.23
   3   4  -1    2.16    0.25
  -3   4   1    1.38    0.61
   3   4  -1    2.19    1.40
   3   4  -1    1.95    0.37
  -3  -4   1    1.97    1.32
   3  -4  -1    2.10    0.76
  -3  -4   1    2.18    0.25
   3  -4  -1    1.88    0.25
   3  -4  -1    2.20    0.25
  -3  -4   1    1.45    0.26
  -3  -4   1    2.17    0.32
  -3   4   0   -0.16    0.08
   3   4   0   -0.20    0.11
  -3   4   0    0.12    0.10
   3   4   0    0.02    0.11
   3   4   0    2.75    1.43
   3   4   0    1.05    1.06
  -3   4   0    0.13    0.13
   3   4   0    0.06    0.12
  -3   4   0    0.05    0.08
  -3  -4   0    0.05    0.11
   3  -4   0    0.00    0.11
  -3  -4   0    0.14    0.16
  -3  -4   0    0.01    0.10
   3   4   1   37.04    1.35
   3   4   1   42.36    4.57
  -3   4  -1   37.10    1.18
   3   4   1   42.80    1.47
  -3   4  -1   37.51    1.98
  -3   4  -1   37.46    1.31
   3   4   1   39.43    1.37
  -3  -4  -1   39.94    1.42
  -3  -4  -1   39.80    4.18
  -3  -4  -1   39.50    1.37
  -3  -4  -1   38.92    1.37
   3  -4   1   38.24    2.15
  -3   4  -2   97.70    5.26
   3   4   2   98.72    3.14
   3   4   2  100.88    3.07
   3   4   2   95.07    7.42
   3   4   2   99.17    3.07
  -3  -4  -2  101.99    3.09
   3  -4   2  114.00    5.84
  -3  -4  -2   99.69    3.11
  -3  -4  -2   95.30    7.15
  -3  -4  -2  101.58    3.08
  -3   4  -3    4.12    1.55
   3   4   3    4.96    0.47
   3   4   3    3.80    0.43
   3   4   3    4.08    2.00
   3   4   3    4.01    0.45
  -3  -4  -3    3.38    1.78
  -3  -4  -3    4.24    0.45
  -3  -4  -3    4.24    0.45
  -3  -4  -3    3.93    0.47
   3  -4   3    4.85    1.72
  -3   4  -4   46.27    1.89
   3   4   4   50.20    6.48
   3   4   4   47.99    1.82
  -3   4  -4   43.61    4.74
   3  -4   4   51.24    5.52
  -3  -4  -4   46.84    5.69
  -3  -4  -4   48.96    1.89
  -3  -4  -4   49.70    1.84
  -3  -4  -4   48.75    1.90
   3   4   5  129.44    4.07
  -3   4  -5  131.08    4.27
  -3   4  -5  127.68    9.57
   3   4   5  116.65   10.84
  -3  -4  -5  128.95    4.24
  -3  -4  -5  130.95    4.11
   3  -4   5  123.17   10.01
  -3  -4  -5  137.16   10.90
  -3  -4  -5  131.43    4.20
  -3   4  -6   23.96    1.42
  -3   4  -6   20.48    4.71
   3   4   6   24.68    1.28
   3   4   6   19.30    5.10
  -3  -4  -6   23.13    1.35
  -3  -4  -6   23.05    1.42
  -3  -4  -6   20.61    5.30
   3   4   7   18.08    1.17
  -3   4  -7   20.00    1.38
  -3   4  -7   14.26    4.33
  -3  -4  -7   18.69    1.30
   3  -4   7    9.70    4.55
  -3  -4  -7   17.29    1.30
   3   5  -7    7.60    4.45
  -3   5   7   18.56    1.27
   3  -5  -7   18.32    1.00
   3  -5  -7   22.96    6.42
  -3  -5   7   12.89    5.88
   3  -5  -7   17.55    0.99
   3  -5  -7   18.25    1.29
  -3   5   6    1.39    0.57
   3   5  -6   -0.91    2.42
  -3   5   6    5.08    2.92
   3  -5  -6    1.44    0.31
   3  -5  -6    1.33    0.43
  -3  -5   6    1.04    0.27
  -3  -5   6   -0.33    2.86
   3  -5  -6    1.02    0.28
   3  -5  -6   -0.30    2.48
  -3   5   5   -0.60    1.58
  -3   5   5    2.54    0.52
   3   5  -5    1.03    1.92
  -3  -5   5    2.89    0.35
   3  -5  -5    0.22    2.07
   3  -5  -5    2.56    0.49
   3  -5  -5    3.37    0.34
  -3  -5   5    4.56    2.54
   3  -5  -5    3.06    0.34
  -3   5   4  290.10   19.06
   3   5  -4  304.64    8.80
  -3   5   4  303.64    8.80
   3   5  -4  306.14   17.24
   3   5  -4  315.69    9.19
   3  -5  -4  317.82    8.29
   3  -5  -4  309.32    8.29
  -3  -5   4  306.69    8.37
   3  -5  -4  310.93    8.68
  -3  -5   4  303.41    8.40
  -3  -5   4  309.96   17.09
   3  -5  -4  305.81   20.11
  -3   5   3    1.52    0.33
   3   5  -3    1.24    0.32
  -3   5   3    1.33    0.32
   3   5  -3    1.67    0.32
   3   5  -3    0.46    1.18
  -3   5   3    2.22    1.41
  -3  -5   3    1.60    0.23
  -3  -5   3   -0.24    0.88
   3  -5  -3    1.29    1.21
   3  -5  -3    1.15    0.26
   3  -5  -3    1.62    0.31
   3   5  -2  537.67   22.94
  -3   5   2  518.97   19.09
  -3   5   2  539.75   14.57
   3   5  -2  550.76   14.73
   3   5  -2  514.82   14.60
  -3  -5   2  596.93   23.77
  -3  -5   2  529.88   14.39
   3  -5  -2  529.23   14.54
   3  -5  -2  535.72   19.60
   3  -5  -2  544.63   14.49
  -3   5   1   -0.05    0.12
   3   5  -1    0.14    0.14
   3   5  -1    0.44    1.07
  -3   5   1    0.24    0.16
   3   5  -1    0.02    0.15
  -3   5   1   -0.03    0.28
  -3   5   1    0.01    0.06
   3   5  -1    0.19    0.15
  -3  -5   1   -0.06    0.12
  -3  -5   1   -0.07    0.13
   3  -5  -1   -0.26    0.25
   3  -5  -1    0.26    0.16
  -3  -5   1    0.07    0.17
   3  -5  -1    0.08    0.11
  -3  -5   1    0.53    1.19
  -3   5   0  165.26    5.61
  -3   5   0  166.40    5.03
  -3   5   0  177.78    4.91
   3   5   0  170.79    5.06
   3   5   0  161.73   11.44
   3   5   0  176.33    4.96
  -3   5   0  184.18    6.55
   3   5   0  179.07   10.74
  -3  -5   0  180.64    5.10
  -3  -5   0  178.13    5.14
  -3  -5   0  180.04    5.07
   3  -5   0  180.90    4.98
   3  -5   0  175.76    4.86
  -3   5  -1    8.60    0.92
  -3   5  -1    9.22    0.42
   3   5   1    8.48    0.61
   3   5   1    8.70    0.55
   3   5   1    8.14    2.39
   3   5   1    9.56    0.57
  -3  -5  -1    8.24    0.54
  -3  -5  -1    9.67    0.59
  -3  -5  -1    9.99    0.60
   3  -5   1   10.89    1.24
  -3  -5  -1    9.27    2.51
  -3   5  -2  146.08    4.25
   3   5   2  139.40    4.31
  -3   5  -2  147.09    6.68
   3   5   2  153.12    9.98
   3   5   2  146.79    4.32
   3   5   2  146.30    4.39
  -3  -5  -2  144.14    4.48
   3  -5   2  146.70    7.05
  -3  -5  -2  145.47    4.33
  -3  -5  -2  150.05    4.33
  -3  -5  -2  141.13    9.28
   3   5   3    3.59    0.41
   3   5   3    3.80    0.48
   3   5   3    4.34    0.47
  -3   5  -3    2.65    1.34
   3   5   3    2.41    1.91
  -3  -5  -3    3.35    0.46
   3  -5   3    3.53    1.41
  -3  -5  -3    4.41    2.02
  -3  -5  -3    3.67    0.49
  -3  -5  -3    3.66    0.56
   3   5   4  134.73   10.71
   3   5   4  120.13    3.83
   3   5   4  116.61    3.83
  -3   5  -4  124.35    8.29
  -3  -5  -4  121.25    3.92
  -3  -5  -4  123.65    3.89
   3  -5   4  128.45    8.83
  -3  -5  -4  119.43    9.73
   3   5   5   15.39    0.99
   3   5   5   14.60    4.84
  -3   5  -5   18.80    3.89
  -3   5  -5   17.02    1.08
  -3  -5  -5   15.79    1.05
  -3  -5  -5   14.79    0.99
   3  -5   5   11.73    3.55
  -3  -5  -5   16.56    1.09
  -3  -5  -5   10.06    3.69
  -3   5  -6   77.44    8.04
  -3   5  -6   74.88    2.96
   3   5   6   53.26    8.21
   3   5   6   77.34    2.96
  -3  -5  -6   78.47    2.99
   3  -5   6   88.02    9.11
  -3  -5  -6   73.98    2.84
  -3  -5  -6   73.31    8.85
  -3   5  -7   -0.28    2.57
   3   5   7   13.77    5.27
  -3  -5  -7    3.01    4.18
  -3   6   7    1.67    0.54
  -3   6   7    0.40    3.17
   3   6  -7   -1.21    3.50
   3  -6  -7    3.06    0.44
   3  -6  -7    1.93    0.41
   3  -6  -7   -1.62    3.59
   3  -6  -7    1.95    0.57
  -3  -6   7    5.98    4.29
   3   6  -6    9.44    4.67
  -3   6   6   11.08    1.00
  -3   6   6    9.41    3.85
   3  -6  -6   12.33    0.70
   3  -6  -6    6.32    3.63
   3  -6  -6    9.79    0.93
  -3  -6   6   10.40    0.59
   3  -6  -6   10.57    0.64
  -3  -6   6   10.83    4.41
   3   6  -5   67.08    8.07
  -3   6   5   74.99    7.82
  -3   6   5   72.00    2.66
   3  -6  -5   65.90    7.78
  -3  -6   5   65.40    2.08
  -3  -6   5   66.05    2.10
   3  -6  -5   70.44    2.53
   3  -6  -5   66.60    2.06
   3  -6  -5   67.64    2.06
  -3  -6   5   76.82    8.54
   3   6  -4    2.00    1.69
   3   6  -4    1.60    0.36
  -3   6   4    2.01    1.84
   3   6  -4    2.31    0.46
  -3   6   4    2.62    0.47
   3  -6  -4    3.91    2.12
  -3  -6   4    2.06    2.12
  -3  -6   4    2.03    0.27
   3  -6  -4    2.12    0.38
   3  -6  -4    1.64    0.37
  -3   6   3    4.56    1.94
   3   6  -3    3.15    1.97
   3   6  -3    7.16    0.58
  -3   6   3    5.91    0.55
   3   6  -3    6.27    0.60
  -3   6   3    6.15    0.59
   3  -6  -3    3.85    1.58
  -3  -6   3    5.85    2.65
   3  -6  -3    6.80    0.55
   3  -6  -3    5.66    0.51
  -3  -6   3    6.26    0.41
  -3   6   2   27.33    1.18
  -3   6   2   26.03    3.04
  -3   6   2   27.05    1.19
   3   6  -2   25.40    1.20
   3   6  -2   27.40    1.25
   3   6  -2   32.16    4.80
   3  -6  -2   25.09    3.16
   3  -6  -2   28.39    1.11
  -3  -6   2   26.90    1.01
  -3  -6   2   30.69    4.66
   3  -6  -2   26.46    1.11
   3   6  -1   -1.42    0.63
   3   6  -1    0.07    0.19
  -3   6   1    1.06    0.58
  -3   6   1    0.35    0.10
  -3   6   1    0.51    0.21
   3   6  -1    0.74    0.22
  -3   6   1    0.30    0.21
  -3   6   1    0.23    0.08
   3   6  -1    0.26    0.17
  -3  -6   1    0.88    1.38
   3  -6  -1    0.31    0.16
  -3  -6   1    0.42    0.25
   3  -6  -1    0.41    0.20
  -3  -6   1    0.40    0.19
   3  -6  -1    0.76    0.66
  -3  -6   1    0.46    0.22
  -3   6   0   84.30    2.81
   3   6   0   88.11    2.70
  -3   6   0   91.73    4.70
  -3   6   0   87.43    2.65
   3   6   0   86.25    2.79
   3   6   0   86.39    2.80
  -3   6   0   83.61    3.71
   3   6   0   80.02    8.16
   3   6   0   89.67    7.66
   3  -6   0   89.02    2.60
  -3  -6   0   90.60    2.93
  -3  -6   0   88.95    2.81
  -3  -6   0   89.48    2.72
   3  -6   0   91.18    2.76
  -3   6  -1    8.84    0.46
  -3   6  -1    9.85    0.63
   3   6   1   11.44    3.13
   3   6   1   10.07    0.64
  -3   6  -1   10.18    1.12
   3   6   1    9.11    0.62
   3   6   1    9.93    0.72
  -3  -6  -1    9.63    0.62
  -3  -6  -1   11.56    3.08
  -3  -6  -1    8.78    0.59
   3  -6   1   10.12    0.61
  -3  -6  -1    8.90    0.64
   3   6   2    0.34    0.22
   3   6   2    0.33    0.21
   3   6   2    0.05    0.20
   3   6   2   -0.53    0.94
  -3   6  -2    0.81    0.24
  -3   6  -2    0.78    0.57
  -3  -6  -2    0.29    0.23
   3  -6   2    0.14    0.60
  -3  -6  -2    0.34    0.20
  -3  -6  -2    1.04    1.25
  -3  -6  -2    0.04    0.16
  -3   6  -3    8.28    0.62
  -3   6  -3    7.77    2.01
   3   6   3    8.98    0.69
   3   6   3    8.61    0.65
   3   6   3    7.60    0.64
   3   6   3    3.69    1.97
  -3  -6  -3    7.08    2.85
  -3  -6  -3    7.15    0.62
  -3  -6  -3    8.33    0.66
   3  -6   3    9.32    2.24
  -3  -6  -3    8.16    0.68
   3   6   4    1.01    1.77
   3   6   4    0.72    0.28
   3   6   4    1.19    0.37
   3   6   4    1.52    0.39
  -3   6  -4    2.70    1.30
  -3  -6  -4    1.20    0.35
  -3  -6  -4   -0.28    1.38
  -3  -6  -4    1.00    0.33
   3  -6   4    3.19    1.85
   3   6   5   33.23    6.88
  -3   6  -5   31.12    4.43
   3   6   5   27.96    1.43
  -3  -6  -5   30.07    1.46
  -3  -6  -5   20.17    5.02
   3  -6   5   28.38    4.51
  -3   6  -6   26.51    5.50
  -3   6  -6   28.05    1.58
   3   6   6   24.69    6.85
   3   6   6   26.32    1.44
  -3  -6  -6   24.89    1.52
  -3  -6  -6   27.75    6.23
  -3  -6  -6   25.77    1.42
   3  -6   6   22.34    5.35
  -3   6  -7   16.29    4.93
  -3   6  -7   18.33    1.39
   3   6   7   10.11    5.57
   3   6   7   17.64    1.23
  -3  -6  -7   18.83    1.38
   3  -6   7   16.63    5.57
  -3  -6  -7   24.40    6.63
  -3  -6  -7   18.79    1.30
   3   7  -7   -1.44    3.80
  -3   7   7    6.91    0.94
  -3   7   7   -0.82    3.89
   3  -7  -7    6.08    0.52
  -3  -7   7    4.58    4.26
   3  -7  -7    5.86    0.52
   3  -7  -7    5.56    4.44
   3  -7  -7    5.58    0.80
   3   7  -6   21.34    5.65
  -3   7   6   28.74    1.63
   3  -7  -6   28.82    1.55
   3  -7  -6   30.48    6.33
  -3  -7   6   32.42    6.91
  -3   7   5    7.38    2.86
  -3   7   5    6.47    0.93
   3  -7  -5    6.34    0.72
  -3  -7   5    8.06    0.45
  -3  -7   5    7.29    0.44
   3  -7  -5    2.69    2.34
   3   7  -4   12.12    3.80
   3   7  -4    6.67    0.64
  -3   7   4    8.26    0.76
  -3   7   4    6.98    2.58
   3   7  -4    7.11    0.85
  -3   7   4    6.48    0.69
   3  -7  -4    7.18    0.69
  -3  -7   4    6.81    3.20
   3  -7  -4    7.58    0.66
   3  -7  -4    5.43    2.87
  -3  -7   4    6.93    0.44
   3   7  -3    0.55    0.28
  -3   7   3    0.44    0.27
   3   7  -3    2.03    1.48
  -3   7   3    0.63    0.29
  -3   7   3    0.90    1.18
   3  -7  -3    0.49    0.27
  -3  -7   3    0.55    1.56
  -3  -7   3    0.67    0.19
   3  -7  -3    0.83    0.99
   3   7  -2    5.62    0.54
   3   7  -2    4.20    2.15
  -3   7   2    4.09    0.49
  -3   7   2    6.47    1.73
   3   7  -2    4.07    0.50
  -3   7   2    5.75    0.55
  -3  -7   2    4.35    0.42
   3  -7  -2    5.37    0.49
   3  -7  -2    2.42    1.21
  -3  -7   2    4.85    0.56
  -3  -7   2    2.56    1.56
   3  -7  -2    4.53    0.44
  -3   7   1    2.01    0.39
  -3   7   1    1.96    0.51
   3   7  -1    3.34    1.99
   3   7  -1    2.36    0.31
   3   7  -1    2.06    0.38
  -3   7   1    2.47    0.23
  -3   7   1    2.86    0.95
   3   7  -1    2.02    0.34
   3  -7  -1    2.14    0.31
   3  -7  -1    3.17    0.43
  -3  -7   1    2.79    0.43
  -3  -7   1    2.71    0.35
   3  -7  -1    1.38    0.98
  -3  -7   1    2.23    0.46
  -3   7   0    4.69    0.95
  -3   7   0    6.20    0.47
   3   7   0    6.33    0.56
   3   7   0    8.09    2.89
   3   7   0    6.28    0.52
   3   7   0    3.64    2.26
  -3   7   0    6.09    1.50
  -3   7   0    6.35    0.57
   3   7   0    5.96    0.55
  -3  -7   0    6.18    0.50
  -3  -7   0    6.39    0.64
  -3  -7   0    6.18    0.53
   3  -7   0    6.82    0.54
   3  -7   0    5.97    0.40
   3   7   1   19.09    0.99
  -3   7  -1   18.25    0.97
  -3   7  -1   17.37    1.72
   3   7   1   17.35    3.89
  -3   7  -1   17.14    1.68
   3   7   1   19.42    0.95
  -3   7  -1   18.08    0.77
   3   7   1   19.49    0.98
   3  -7   1   21.34    1.08
  -3  -7  -1   20.05    0.96
  -3  -7  -1   20.10    0.96
  -3  -7  -1   19.68    1.03
  -3  -7  -1   20.01    4.33
  -3   7  -2   29.91    1.29
   3   7   2   29.27    1.35
  -3   7  -2   30.03    2.78
   3   7   2   31.46    1.38
   3   7   2   29.41    1.31
   3   7   2   32.34    4.77
   3  -7   2   33.77    3.25
  -3  -7  -2   30.66    1.33
  -3  -7  -2   28.64    1.31
  -3  -7  -2   30.22    4.42
  -3  -7  -2   31.15    1.29
  -3   7  -3   -0.20    0.78
   3   7   3    0.26    0.20
   3   7   3    3.07    1.92
   3   7   3    0.20    0.26
  -3   7  -3    0.07    0.23
   3   7   3    0.92    0.33
   3  -7   3    0.44    0.81
  -3  -7  -3    0.41    0.27
  -3  -7  -3    0.40    0.31
  -3  -7  -3    0.39    1.40
  -3  -7  -3    0.51    0.26
  -3   7  -4    0.51    1.08
   3   7   4    0.96    0.37
   3   7   4    0.17    0.24
   3   7   4    2.66    2.11
  -3  -7  -4    0.48    0.28
  -3  -7  -4   -0.10    1.85
  -3  -7  -4    0.04    0.30
   3  -7   4    0.92    1.28
   3   7   5   34.68    6.74
  -3   7  -5   31.15    4.66
   3  -7   5   32.78    6.46
  -3  -7  -5   35.09    1.60
  -3  -7  -5   36.36    1.75
  -3  -7  -5   30.58    6.21
   3   7   6    6.29    4.44
   3   7   6    3.67    0.65
  -3   7  -6    4.14    0.71
  -3   7  -6    5.84    3.02
  -3  -7  -6    3.46    0.59
  -3  -7  -6    3.38    0.68
  -3  -7  -6   -0.85    3.00
   3  -7   6   -1.79    2.34
  -3   7  -7   28.08    6.09
   3   7   7   26.98    1.58
   3   7   7   20.18    7.69
  -3  -7  -7   28.06    1.58
  -3  -7  -7   23.78    2.14
   3  -7   7   40.28    7.65
  -3  -7  -7   29.10    6.81
   3   8  -7   36.86    8.74
  -3   8   7   42.86    2.17
  -3  -8   7   37.47    8.71
   3   8  -6    7.44    4.15
  -3   8   6    0.94    2.53
  -3   8   6    3.23    0.66
  -3  -8   6    7.06    3.57
   3  -8  -6    6.26    2.98
   3  -8  -6    1.87    0.55
   3   8  -5   82.47    9.12
  -3   8   5   81.69    3.07
  -3   8   5   66.73    7.93
  -3  -8   5   71.94    8.95
   3  -8  -5   82.32    3.13
  -3  -8   5   78.49    2.31
   3  -8  -5   72.05    8.00
  -3   8   4   14.59    1.04
  -3   8   4   13.28    3.27
  -3   8   4   14.43    1.01
   3   8  -4   14.84    4.13
  -3  -8   4   13.29    4.31
   3  -8  -4   15.59    0.98
   3  -8  -4   13.78    3.47
  -3  -8   4   14.82    0.67
   3   8  -3   62.97    2.49
   3   8  -3   67.16    2.58
  -3   8   3   67.28    2.52
   3   8  -3   65.70    7.56
  -3   8   3   69.50    6.14
  -3   8   3   69.43    2.52
  -3  -8   3   71.50    2.23
   3  -8  -3   66.77    2.37
   3  -8  -3   69.02    2.37
   3  -8  -3   62.60    6.03
  -3  -8   3   75.16    8.22
   3   8  -2    9.49    0.59
   3   8  -2    9.56    0.77
  -3   8   2    9.73    0.73
   3   8  -2   11.35    0.79
   3   8  -2    8.45    3.17
  -3   8   2    9.17    2.14
  -3   8   2    9.61    0.75
   3  -8  -2    9.46    0.69
  -3  -8   2    8.64    0.76
   3  -8  -2   10.74    0.67
   3  -8  -2    7.98    2.19
  -3  -8   2    9.25    0.56
  -3  -8   2   10.07    3.45
  -3   8   1   53.41    1.60
   3   8  -1   49.16    1.73
   3   8  -1   57.14    6.47
  -3   8   1   42.16    1.89
  -3   8   1   54.07    3.94
  -3   8   1   49.93    1.84
   3   8  -1   47.34    1.94
   3   8  -1   43.64    6.38
   3   8  -1   50.71    1.93
   3  -8  -1   52.86    4.42
   3  -8  -1   49.41    1.85
   3  -8  -1   49.85    1.73
  -3  -8   1   52.46    1.75
  -3  -8   1   52.52    1.97
  -3  -8   1   47.71    2.03
  -3   8   0    3.06    1.22
  -3   8   0    3.86    0.41
  -3   8   0    4.25    0.51
   3   8   0    1.94    2.25
   3   8   0    3.67    0.44
  -3   8   0    4.11    0.41
   3   8   0    3.61    0.43
  -3   8   0    4.36    1.02
   3   8   0    4.22    0.56
   3   8   0    3.94    2.21
  -3  -8   0    4.26    0.61
   3  -8   0    3.73    0.35
  -3  -8   0    3.79    0.42
  -3  -8   0    3.89    0.47
   3  -8   0    4.54    0.50
   3   8   1   83.48    2.81
   3   8   1   86.45    2.88
  -3   8  -1   91.15    2.95
   3   8   1   87.20    2.94
  -3   8  -1   83.95    4.38
   3   8   1   89.02    7.96
  -3   8  -1   84.36    2.61
  -3   8  -1   85.88    4.58
   3  -8   1   90.67    2.86
   3  -8   1   83.77    2.52
  -3  -8  -1   90.23    2.98
  -3  -8  -1   81.46    8.15
  -3  -8  -1   77.60    2.90
  -3  -8  -1   86.26    2.83
   3   8   2   -0.10    0.18
  -3   8  -2    0.47    0.68
   3   8   2   -0.09    1.33
  -3   8  -2    0.50    0.14
  -3   8  -2   -0.05    0.22
   3   8   2    0.06    0.24
   3   8   2    1.00    0.31
  -3  -8  -2    0.32    1.56
  -3  -8  -2    0.87    0.32
  -3  -8  -2    0.32    0.25
  -3  -8  -2    0.19    0.25
   3  -8   2   -0.30    0.65
   3   8   3   25.50    5.55
  -3   8  -3   19.38    1.06
   3   8   3   19.00    1.13
   3   8   3   18.80    1.09
   3   8   3   17.83    1.05
  -3   8  -3   22.18    2.88
  -3  -8  -3   23.28    5.04
  -3  -8  -3   20.61    1.04
  -3  -8  -3   18.03    1.07
  -3  -8  -3   20.42    1.11
   3  -8   3   20.72    3.12
   3   8   4   19.37    1.18
   3   8   4   19.97    5.52
  -3   8  -4   22.34    3.31
   3   8   4   16.99    1.01
   3  -8   4   16.00    3.49
  -3  -8  -4   18.26    1.04
  -3  -8  -4   19.86    1.19
  -3  -8  -4   18.87    4.88
   3   8   5   25.86    1.40
  -3   8  -5   21.09    4.29
   3   8   5   21.63    5.62
  -3  -8  -5   15.05    4.85
   3  -8   5   16.30    4.13
  -3  -8  -5   21.93    1.35
  -3  -8  -5   20.61    1.18
   3   8   6    3.35    0.66
   3   8   6    6.15    4.53
  -3   8  -6    6.71    2.94
  -3  -8  -6    8.36    4.02
   3  -8   6    5.13    3.08
  -3  -8  -6    3.71    0.62
  -3  -8  -6    3.29    0.69
   3   8   7    2.63    0.64
  -3   8  -7    3.09    0.71
  -3  -8  -7    1.81    0.65
  -3  -8  -7    1.21    0.54
  -3  -8  -7   -4.55    3.66
  -3   9   7    7.16    1.55
  -3   9   6    1.18    2.74
   3   9  -6   -4.54    2.71
  -3   9   6    0.85    0.49
  -3  -9   6   -1.62    3.24
   3  -9  -6    0.32    0.43
   3  -9  -6   -0.29    2.54
   3   9  -5   -1.08    2.01
  -3   9   5    4.38    0.71
   3  -9  -5    1.41    2.45
  -3  -9   5    3.41    3.24
   3  -9  -5    3.19    0.62
  -3   9   4   32.87    1.82
   3   9  -4   31.40    6.34
  -3   9   4   38.30    5.09
  -3  -9   4   22.03    5.50
   3  -9  -4   30.99    1.47
  -3  -9   4   30.01    1.13
   3  -9  -4   26.25    5.26
  -3   9   3    0.20    0.30
  -3   9   3    0.42    0.33
   3   9  -3    0.32    0.33
   3   9  -3    0.35    0.34
  -3   9   3   -0.17    0.85
   3   9  -3    1.69    1.75
   3  -9  -3    0.44    0.27
  -3  -9   3    0.30    0.19
  -3  -9   3    0.08    1.48
   3  -9  -3    0.14    0.29
   3  -9  -3   -1.61    0.91
  -3   9   2  119.10    4.07
   3   9  -2  119.96   10.53
   3   9  -2  125.17    4.08
  -3   9   2  117.18    7.56
  -3   9   2  127.62    4.00
   3   9  -2  121.96    4.08
   3   9  -2  123.32    3.68
   3  -9  -2  126.20    3.91
  -3  -9   2  116.15    4.10
   3  -9  -2  134.49    8.41
  -3  -9   2  106.58   10.61
  -3  -9   2  131.18    3.70
   3  -9  -2  127.64    4.56
   3   9  -1    2.08    0.40
   3   9  -1    1.74    2.23
  -3   9   1    2.03    0.46
   3   9  -1    3.17    0.40
  -3   9   1    3.15    0.31
   3   9  -1    2.59    0.50
  -3   9   1    2.32    1.08
   3   9  -1    4.18    2.36
  -3   9   1    2.77    0.44
   3  -9  -1    3.40    0.53
   3  -9  -1    2.64    0.38
  -3  -9   1    2.00    0.43
  -3  -9   1    1.99    0.33
   3  -9  -1    1.38    1.14
  -3  -9   1    2.74    0.56
   3   9   0    4.39    0.50
  -3   9   0    3.61    1.24
   3   9   0    4.67    0.51
   3   9   0    6.61    2.75
   3   9   0    4.31    2.23
  -3   9   0    3.81    0.49
  -3   9   0    3.34    1.03
  -3   9   0    3.98    0.43
   3   9   0    4.56    0.57
  -3   9   0    5.22    0.68
  -3  -9   0    3.66    0.61
  -3  -9   0    3.41    0.45
   3  -9   0    4.12    0.39
  -3  -9   0    4.33    0.51
   3  -9   0    4.96    0.56
  -3   9  -1    9.61    0.58
   3   9   1    9.06    0.72
   3   9   1    9.15    0.85
  -3   9  -1    8.12    1.65
  -3   9  -1    9.29    0.75
  -3   9  -1    8.83    1.41
   3   9   1    8.17    0.69
   3   9   1   13.00    3.52
   3  -9   1    9.52    0.50
  -3  -9  -1    9.10    0.69
   3  -9   1    9.73    0.73
  -3  -9  -1    9.23    0.80
  -3  -9  -1    8.68    0.69
   3   9   2   13.12    0.89
   3   9   2   12.90    3.75
   3   9   2   14.84    0.94
  -3   9  -2   16.85    2.24
  -3   9  -2   12.86    1.00
  -3   9  -2   13.13    0.59
   3   9   2   12.76    0.93
  -3  -9  -2   15.96    4.01
   3  -9   2   13.73    2.76
  -3  -9  -2   14.18    0.91
  -3  -9  -2   13.09    0.83
  -3  -9  -2   12.13    0.90
  -3   9  -3   31.04    3.46
   3   9   3   30.08    1.46
  -3   9  -3   27.84    1.44
   3   9   3   27.67    5.71
   3   9   3   26.93    1.39
  -3  -9  -3   27.75    1.43
  -3  -9  -3   28.51    1.31
  -3  -9  -3   26.41    5.67
   3  -9   3   31.14    3.93
  -3   9  -4   93.83    7.20
   3   9   4   92.30    3.22
   3   9   4   83.88    9.12
   3   9   4   95.14    3.59
  -3  -9  -4   94.85    3.56
   3  -9   4   85.63    7.26
  -3  -9  -4  114.20   10.54
  -3  -9  -4   99.22    3.20
   3   9   5    4.64    3.64
  -3   9  -5    4.00    2.41
   3   9   5    6.46    0.82
  -3  -9  -5    5.89    0.84
  -3  -9  -5   11.91    4.14
   3  -9   5    3.59    2.54
  -3  -9  -5    7.06    0.72
  -3   9  -6    5.25    3.16
   3   9   6   13.39    1.11
   3   9   6    8.20    5.48
   3  -9   6    8.78    3.68
  -3  -9  -6    4.73    3.50
  -3  -9  -6   11.29    1.15
  -3  -9  -6   13.41    0.99
   3  10  -6    7.78    4.00
  -3  10   6    1.03    0.47
  -3 -10   6   -0.65    3.61
   3 -10  -6   -0.02    0.44
  -3  10   5   21.74    1.44
   3  10  -5   21.85    5.42
  -3  10   5   15.73    4.58
   3 -10  -5   12.63    4.01
   3 -10  -5   17.80    1.20
  -3 -10   5   15.17    5.52
   3  10  -4    2.70    1.91
  -3  10   4    0.12    0.32
  -3 -10   4    1.49    2.94
   3 -10  -4   -2.12    1.42
   3 -10  -4    0.50    0.36
  -3  10   3    2.93    1.92
  -3  10   3    3.03    0.57
   3  10  -3    7.30    3.16
  -3  10   3    2.81    0.75
   3 -10  -3    1.68    1.50
  -3 -10   3    3.37    0.39
   3 -10  -3    4.36    0.62
  -3 -10   3    2.04    2.30
  -3  10   2   11.31    0.97
   3  10  -2   13.44    4.17
  -3  10   2   17.03    3.23
   3  10  -2   13.31    0.99
   3  10  -2   15.15    0.81
  -3  10   2   15.09    1.00
   3  10  -2   15.18    1.05
   3 -10  -2   16.27    3.39
   3 -10  -2   16.21    0.98
  -3 -10   2   13.62    0.75
  -3 -10   2   16.45    4.65
  -3 -10   2   13.66    1.08
   3 -10  -2   14.80    0.87
   3  10  -1   52.21    6.19
  -3  10   1   47.04    1.63
  -3  10   1   46.30    1.86
   3  10  -1   45.88    2.36
   3  10  -1   45.48    1.72
   3  10  -1   39.12    6.31
  -3  10   1   44.32    3.98
   3  10  -1   46.08    2.02
   3 -10  -1   45.65    1.72
   3 -10  -1   53.48    5.06
  -3 -10   1   49.36    1.75
   3 -10  -1   46.89    1.89
  -3 -10   1   45.21    2.09
  -3 -10   1   50.03    2.05
   3  10   0   24.16    4.96
   3  10   0   24.88    1.19
   3  10   0   22.25    1.29
  -3  10   0   25.90    3.30
  -3  10   0   24.08    1.41
   3  10   0   25.57    6.09
  -3  10   0   25.65    1.17
  -3  10   0   21.34    2.39
  -3  10   0   24.82    1.13
   3  10   0   23.98    1.24
  -3 -10   0   26.02    1.46
   3 -10   0   26.36    1.27
  -3 -10   0   23.44    1.15
   3 -10   0   23.15    1.02
  -3 -10   0   26.55    1.30
  -3  10  -1    7.78    0.73
  -3  10  -1    5.64    1.34
  -3  10  -1    6.95    0.65
  -3  10  -1    7.23    0.54
  -3  10  -1    7.36    1.71
   3  10   1    6.65    0.67
   3  10   1    8.21    0.79
   3  10   1    6.56    0.66
   3  10   1    5.58    2.90
   3  10   1    5.99    3.68
   3 -10   1    7.12    0.46
   3 -10   1    7.95    0.72
  -3 -10  -1    7.92    0.78
  -3 -10  -1    6.50    0.64
  -3 -10  -1    6.11    0.62
   3  10   2    0.77    1.87
  -3  10  -2    1.09    0.93
  -3  10  -2   -0.19    0.69
   3  10   2   -0.08    0.27
  -3  10  -2    0.56    0.33
   3  10   2    0.25    0.27
  -3  10  -2    0.62    0.20
  -3 -10  -2   -0.10    1.85
  -3 -10  -2    0.55    0.29
  -3 -10  -2    0.71    0.35
  -3 -10  -2    0.57    0.37
   3  10   3   42.85    6.63
   3  10   3   61.45    2.37
  -3  10  -3   57.20    4.92
   3  10   3   51.98    2.26
  -3 -10  -3   58.31    2.34
  -3 -10  -3   60.73    7.56
   3 -10   3   61.89    5.59
  -3 -10  -3   62.42    2.19
   3  10   4    1.41    2.50
   3  10   4    7.79    0.86
   3  10   4    8.19    0.74
  -3  10  -4    6.49    2.14
   3 -10   4    5.38    2.40
  -3 -10  -4    7.83    0.71
  -3 -10  -4    6.83    3.59
  -3 -10  -4    6.75    0.85
  -3  10  -5   -0.11    1.57
   3  10   5   -0.06    0.39
   3  10   5   -2.01    3.57
   3 -10   5   -0.35    1.87
  -3 -10  -5    0.40    0.32
  -3 -10  -5    0.75    0.50
  -3 -10  -5   -2.52    2.82
   3  10   6   -0.58    4.62
  -3  10  -6   -3.03    2.72
   3  10   6    0.06    0.40
  -3 -10  -6    0.59    0.55
   3 -10   6    4.48    3.53
  -3 -10  -6   -0.02    0.40
  -3 -10  -6    5.01    4.64
   3  11  -6    9.61    4.70
   3 -11  -6   13.22    1.15
  -3 -11   6    6.71    5.20
   3  11  -5   15.11    4.82
  -3  11   5   21.68    1.47
  -3 -11   5    7.26    4.59
   3 -11  -5   19.62    1.29
   3  11  -4    1.10    2.61
  -3  11   4    1.67    0.55
  -3  11   4    1.39    2.31
  -3 -11   4    0.30    2.91
   3 -11  -4    2.02    0.54
   3 -11  -4    4.97    2.50
  -3 -11   4    2.28    0.32
   3  11  -3   17.17    4.58
  -3 -11   3   18.83    0.88
  -3 -11   3    8.75    3.64
   3 -11  -3   19.42    4.18
   3 -11  -3   21.65    1.23
   3  11  -2   44.36    6.58
   3  11  -2   43.07    1.59
  -3  11   2   40.11    1.83
  -3  11   2   35.16    2.28
   3 -11  -2   45.71    5.16
   3 -11  -2   43.28    1.82
  -3 -11   2   41.31    1.55
  -3 -11   2   35.93    1.95
  -3  11   1   27.33    3.16
   3  11  -1   24.89    1.36
   3  11  -1   24.48    5.09
   3  11  -1   25.93    1.20
  -3  11   1   26.13    1.31
   3  11  -1   22.90    5.56
  -3  11   1   23.69    1.43
  -3  11   1   26.33    1.11
   3 -11  -1   24.83    1.15
   3 -11  -1   24.77    1.34
  -3 -11   1   23.96    1.15
  -3 -11   1   26.39    1.54
  -3  11   0    1.26    1.25
   3  11   0    2.70    2.21
   3  11   0    2.18    0.43
  -3  11   0    3.03    1.14
  -3  11   0    2.87    0.46
  -3  11   0    2.86    0.43
  -3  11   0    2.84    0.55
   3  11   0    1.80    2.20
   3  11   0    2.89    0.54
  -3 -11   0    2.57    0.49
  -3 -11   0    2.78    0.62
   3 -11   0    2.83    0.53
   3 -11   0    2.55    0.38
  -3 -11   0    2.04    0.40
   3  11   1    8.72    3.99
  -3  11  -1    6.65    0.72
  -3  11  -1    7.18    0.70
  -3  11  -1    8.78    1.82
   3  11   1    8.10    0.76
   3  11   1    7.24    0.74
  -3  11  -1    4.18    1.35
  -3  11  -1    8.84    0.65
  -3 -11  -1    7.27    0.71
   3 -11   1    7.24    0.50
  -3 -11  -1    7.48    0.69
  -3 -11  -1    8.77    0.91
   3 -11   1    9.47    0.81
  -3  11  -2    5.23    1.57
   3  11   2   10.08    3.84
   3  11   2   10.04    0.86
  -3  11  -2    9.98    0.57
  -3  11  -2   10.39    2.16
  -3  11  -2   10.83    0.91
   3  11   2    9.41    0.84
  -3 -11  -2    8.34    3.31
  -3 -11  -2    9.28    0.90
  -3 -11  -2    9.98    0.79
  -3  11  -3    8.06    2.45
   3  11   3    7.27    3.68
   3  11   3   10.54    0.93
   3  11   3    8.72    0.82
  -3 -11  -3    7.20    3.14
  -3 -11  -3    9.03    0.93
  -3 -11  -3    9.81    0.77
   3 -11   3    8.48    2.73
   3  11   4   -1.14    2.70
  -3  11  -4    3.08    1.58
   3  11   4    2.46    0.49
   3  11   4    3.59    0.64
  -3 -11  -4    0.40    2.97
  -3 -11  -4    2.55    0.64
   3 -11   4    2.73    2.53
  -3 -11  -4    2.90    0.50
   3  11   5    5.82    0.86
   3  11   5    6.75    0.68
  -3  11  -5    6.21    2.49
   3 -11   5    2.49    2.96
  -3 -11  -5    5.75    0.83
  -3 -11  -5    8.27    0.75
   3  11   6    0.85    0.52
   3  11   6   -4.66    4.24
  -3  11  -6    3.13    2.67
  -3 -11  -6   -2.63    3.94
  -3 -11  -6   -0.21    0.48
   3 -11   6    5.09    4.32
  -3 -11  -6    0.05    0.36
  -3  12   6    4.37    0.86
  -3  12   5   36.15    1.98
   3  12  -5   29.67    6.72
   3 -12  -5   30.52    1.71
  -3  12   4   14.84    1.21
   3  12  -4    8.72    3.91
  -3  12   4   16.58    4.29
  -3 -12   4   13.17    0.68
   3 -12  -4   14.30    1.13
   3 -12  -4   10.34    3.81
  -3  12   3    0.62    0.41
   3  12  -3   -0.12    2.28
   3 -12  -3    0.95    1.80
   3 -12  -3    0.37    0.39
  -3 -12   3    0.07    0.22
  -3  12   2   11.01    0.93
   3  12  -2    7.85    3.53
   3  12  -2   11.31    3.94
   3  12  -2   11.08    0.75
   3 -12  -2    9.40    0.89
  -3 -12   2    9.97    0.68
   3 -12  -2   11.87    3.06
  -3 -12   2    8.57    1.28
   3  12  -1   60.08    3.23
  -3  12   1   68.26    2.55
  -3  12   1   71.78    2.36
  -3  12   1   62.58    5.26
  -3  12   1   80.21    7.56
   3  12  -1   66.92    7.56
   3  12  -1   63.72    8.36
   3  12  -1   67.01    2.39
   3 -12  -1   62.91    2.33
   3 -12  -1   68.00    2.62
  -3 -12   1   73.92    2.90
   3  12   0    3.71    0.53
  -3  12   0    4.17    0.53
   3  12   0    5.66    0.67
   3  12   0    3.67    2.88
  -3  12   0    2.12    1.08
  -3  12   0    4.65    0.59
  -3  12   0    3.54    1.84
   3  12   0    3.27    2.34
  -3 -12   0    5.11    0.71
  -3 -12   0    5.82    0.88
   3 -12   0    4.72    0.69
  -3 -12   0    4.67    0.60
   3 -12   0    3.66    0.47
   3  12   1  143.33   11.46
  -3  12  -1  131.76    4.09
   3  12   1  143.90    5.77
   3  12   1  138.20   13.63
   3  12   1  133.71    4.36
  -3  12  -1  129.53    7.46
  -3  12  -1  132.49    4.38
  -3  12  -1  125.60    6.91
  -3 -12  -1  135.40    4.64
   3 -12   1  131.49    3.96
   3 -12   1  139.48    4.42
  -3 -12  -1  135.00    4.35
   3  12   2   19.36    1.24
   3  12   2   19.17    1.30
  -3  12  -2   20.51    2.01
  -3  12  -2   19.12    2.88
  -3  12  -2   16.53    2.57
  -3  12  -2   18.43    0.86
   3  12   2   15.98    4.19
  -3 -12  -2   19.20    1.11
  -3 -12  -2   17.67    5.32
  -3 -12  -2   19.99    1.31
   3  12   3   26.13    1.54
   3  12   3   35.96    1.76
  -3  12  -3   31.70    3.93
   3  12   3   32.44    6.56
  -3 -12  -3   24.05    5.87
  -3 -12  -3   34.50    1.80
  -3 -12  -3   32.98    1.48
   3  12   4   13.41    1.14
  -3  12  -4   12.64    3.17
  -3 -12  -4   13.21    1.15
   3 -12   4   13.32    4.08
  -3 -12  -4   14.02    0.94
   3  12   5    0.26    0.32
   3  12   5    2.81    4.26
   3  12   5    0.59    0.50
  -3  12  -5   -2.65    1.93
   3 -12   5   -1.26    2.78
  -3 -12  -5    2.51    4.35
  -3 -12  -5   -0.07    0.36
  -3 -12  -5    0.53    0.49
   3  13  -5    1.65    3.12
  -3 -13   5   15.61    6.28
  -3  13   4    5.83    0.89
   3  13  -4    4.30    3.17
  -3 -13   4    5.67    4.49
   3 -13  -4    4.74    0.79
  -3 -13   4    4.44    0.45
  -3  13   3    7.02    0.92
  -3  13   3    5.68    2.45
   3  13  -3    4.44    3.34
   3 -13  -3    8.67    0.92
   3 -13  -3   11.38    3.57
  -3 -13   3    8.06    0.60
   3  13  -2   -1.47    2.41
  -3  13   2    1.79    0.51
   3  13  -2    1.81    0.41
   3 -13  -2    1.25    0.48
  -3 -13   2    2.40    0.66
   3 -13  -2    1.77    1.81
  -3 -13   2    1.71    0.35
   3  13  -1    1.81    2.21
  -3  13   1    0.46    1.93
  -3  13   1    1.65    0.47
   3  13  -1    1.31    0.41
  -3  13   1    1.07    0.34
  -3 -13   1    2.08    0.63
  -3 -13   1    1.38    0.37
   3  13   0    0.43    1.72
  -3  13   0   -0.10    0.27
  -3  13   0    1.07    0.34
   3  13   0    0.88    0.40
   3  13   0    0.54    0.37
  -3  13   0   -0.19    0.80
   3  13   0    0.69    2.78
  -3  13   0    1.33    1.39
   3 -13   0    1.01    0.47
   3 -13   0    0.95    0.28
  -3 -13   0    0.51    0.46
   3  13   1    8.43    0.85
  -3  13  -1    8.35    0.66
   3  13   1    5.73    3.70
   3  13   1    7.50    1.12
  -3  13  -1    8.06    2.14
   3  13   1    2.01    3.43
  -3  13  -1    8.04    0.80
  -3  13  -1    8.57    2.12
  -3 -13  -1    9.25    1.02
  -3 -13  -1    9.12    0.82
   3 -13   1    9.35    0.60
   3 -13   1    9.85    0.90
  -3  13  -2    0.37    0.23
  -3  13  -2    0.49    1.09
   3  13   2    0.68    0.43
   3  13   2    1.48    0.48
  -3 -13  -2    0.04    0.30
  -3 -13  -2    0.65    0.45
  -3  13  -3    7.01    2.28
   3  13   3    9.33    0.90
  -3  13  -3    7.10    2.33
   3  13   3    9.15    0.98
   3  13   3    8.98    4.18
  -3 -13  -3    8.85    4.40
  -3 -13  -3   10.16    1.05
  -3 -13  -3   10.44    0.82
   3  13   4    8.27    3.77
   3  13   4    2.90    0.57
  -3  13  -4    0.64    2.14
   3  13   4    2.29    0.62
  -3 -13  -4    3.93    3.38
  -3 -13  -4    0.92    0.57
  -3 -13  -4    2.26    0.51
   3  13   5   -0.12    0.48
  -3  13  -5    0.33    2.33
  -3 -13  -5   -0.30    0.48
   3 -13   5    2.73    3.43
  -3 -13  -5   -0.10    0.32
   3 -14  -5    2.42    1.13
   3  14  -4    1.65    3.52
  -3  14   4    0.19    0.50
  -3 -14   4    0.94    0.29
   3 -14  -4    0.23    0.45
  -3  14   3    2.72    0.66
   3  14  -3    4.66    3.05
   3 -14  -3    2.96    0.65
  -3 -14   3    1.78    0.37
   3  14  -2    6.61    3.09
   3  14  -2    1.82    0.46
   3  14  -2    5.80    3.19
  -3  14   2    1.38    0.52
  -3 -14   2    1.80    0.41
  -3 -14   2    2.45    0.72
   3 -14  -2    1.56    0.54
  -3  14   1    7.94    2.78
  -3  14   1    6.32    2.24
   3  14  -1    7.98    4.49
   3  14  -1    7.49    3.29
  -3  14   1    6.90    0.94
  -3  14   1    6.79    0.65
   3  14  -1    7.75    0.77
  -3 -14   1    8.46    1.05
   3 -14  -1    8.67    0.92
  -3  14   0   11.58    3.16
  -3  14   0   12.53    2.48
   3  14   0   10.06    0.89
   3  14   0    9.92    3.40
  -3  14   0    9.96    0.86
   3  14   0   17.84    5.09
  -3  14   0    9.94    0.84
   3 -14   0   13.64    1.05
  -3 -14   0   13.17    1.20
   3 -14   0    7.94    0.78
   3  14   1    1.32    3.28
  -3  14  -1    7.61    2.17
  -3  14  -1    8.05    0.83
   3  14   1    0.82    2.47
   3  14   1    7.17    0.85
  -3  14  -1    7.97    0.70
  -3  14  -1    7.50    1.97
  -3 -14  -1    9.13    1.09
  -3 -14  -1    7.43    0.82
   3 -14   1    6.29    0.55
   3 -14   1    7.61    0.85
   3  14   2   22.98    1.49
   3  14   2   23.52    1.46
   3  14   2   20.39    6.49
   3  14   2   20.22    5.23
  -3  14  -2   22.94    3.18
  -3  14  -2   23.15    3.40
  -3  14  -2   24.18    1.10
  -3 -14  -2   23.31    1.32
  -3 -14  -2   25.19    1.62
   3  14   3    0.25    0.39
  -3  14  -3   -1.78    1.39
   3  14   3   -1.61    3.00
   3  14   3    0.44    0.44
  -3 -14  -3    1.09    3.13
  -3 -14  -3   -0.16    0.31
  -3 -14  -3    0.42    0.48
   3  14   4   22.14    1.32
   3  14   4   26.39    1.91
  -3  14  -4   16.69    3.80
  -3 -14  -4   24.38    2.10
  -3 -14  -4   20.51    1.19
  -3  15   4   19.60    1.54
   3 -15  -4   17.65    1.48
  -3  15   3    1.98    0.59
   3  15  -3   -1.18    3.19
   3 -15  -3    1.78    0.60
  -3  15   2   44.17    2.12
  -3  15   2   29.97    6.38
   3  15  -2   43.72    1.82
   3  15  -2   28.65    6.71
  -3 -15   2   34.15    1.82
  -3 -15   2   45.97    2.36
   3 -15  -2   43.22    2.10
  -3  15   1    0.32    1.97
   3  15  -1   -0.06    0.34
  -3  15   1    0.84    0.44
  -3  15   1    0.25    0.34
  -3 -15   1    0.29    0.51
   3 -15  -1   -0.12    0.40
  -3  15   0    8.30    0.84
   3  15   0    8.02    0.86
   3  15   0    3.58    3.43
   3  15   0    8.88    5.16
  -3  15   0    5.67    2.64
  -3  15   0    6.74    0.84
  -3 -15   0    8.26    1.10
   3 -15   0    7.96    0.90
  -3  15  -1    4.22    2.08
   3  15   1   -4.10    3.75
   3  15   1    1.09    0.47
  -3  15  -1    1.51    0.40
   3 -15   1    0.40    0.41
   3 -15   1    0.63    0.28
  -3 -15  -1    1.12    0.59
  -3  15  -2    3.97    1.76
   3  15   2    2.53    0.64
   3  15   2   -5.32    3.64
  -3  15  -2    2.59    0.43
  -3 -15  -2    2.67    0.73
  -3 -15  -2    3.01    0.62
   3  15   3    3.70    0.75
  -3  15  -3    3.05    2.05
   3  15   3    3.69    0.97
  -3 -15  -3    2.19    0.53
  -3 -15  -3    4.23    0.83
   3  15   4    8.24    1.04
  -3  15  -4    7.92    3.04
  -3 -15  -4    6.83    0.80
  -3 -15  -4    7.64    1.06
  -3  16   3   -0.68    0.41
   3 -16  -3    0.45    0.56
   3  16  -2    1.44    3.29
  -3  16   2    0.35    0.41
  -3  16   2   -3.26    3.39
   3  16  -2   -0.53    0.33
  -3 -16   2   -0.15    0.48
   3 -16  -2    0.49    0.49
  -3  16   1    4.15    2.90
  -3  16   1    6.56    0.75
   3  16  -1   -2.34    3.05
   3  16  -1    5.16    0.75
  -3  16   1    6.09    0.84
  -3 -16   1    7.35    1.08
   3 -16  -1    5.58    0.84
   3  16   0   -1.67    4.09
  -3  16   0    0.59    2.26
   3  16   0    1.18    0.47
  -3  16   0    1.74    0.44
  -3  16   0    0.52    0.48
   3 -16   0    0.41    0.45
  -3 -16   0    1.56    0.63
   3  16   1   14.46    1.20
  -3  16  -1   14.66    1.00
  -3  16  -1    8.56    2.79
   3  16   1   14.13    5.50
  -3 -16  -1   15.82    1.41
   3 -16   1   14.54    1.20
  -3  16  -2    0.53    0.31
   3  16   2    0.76    0.49
  -3  16  -2    1.81    2.09
   3  16   2   -0.91    4.68
   3  16   3   -0.42    0.46
  -3  16  -3    2.00    2.26
  -3 -16  -3    1.25    0.47
  -3 -16  -3    0.58    0.53
   3  17  -2    0.29    0.39
  -3  17   2   -0.91    3.98
  -3  17   2   -0.75    0.36
  -3 -17   2    0.05    0.50
   3 -17  -2    0.33    0.52
  -3  17   1    2.28    3.16
  -3  17   1    1.10    0.49
   3  17  -1    1.42    0.48
   3  17  -1   -4.26    4.04
  -3 -17   1    2.36    0.71
   3 -17  -1    0.87    0.62
   3  17   0   -4.32    3.62
  -3  17   0   -3.05    2.15
  -3  17   0    0.43    0.44
   3 -17   0    0.27    0.46
  -3 -17   0    0.90    0.61
   3  17   1    2.81    0.63
  -3  17  -1    0.50    2.23
  -3  17  -1    2.58    0.55
  -3 -17  -1    2.24    0.71
   4   0  -8   41.75    9.16
   4   0  -8   50.27    2.25
  -4   0   8   46.53    9.74
   4   0  -8   47.30    2.32
  -4   0   8   45.10    2.03
   4   0  -7    5.92    3.88
  -4   0   7    0.09    3.55
  -4   0   7   -0.21    0.28
   4   0  -7    0.32    0.38
  -4   0   6   87.51    3.02
   4   0  -6   83.06   16.36
   4   0  -6   89.45    3.16
  -4   0   6   92.21   12.36
   4   0  -6   89.57    3.11
   4   0  -5    1.35    2.14
  -4   0   5   -1.01    1.35
   4   0  -5    0.22    0.24
   4   0  -5    0.08    0.23
  -4   0   5   -0.11    0.20
  -4   0   4    1.75    1.33
   4   0  -4    0.60    1.63
  -4   0   3    1.18    1.17
  -4   0   3    0.04    0.14
   4   0  -3    0.02    0.13
   4   0  -3   -0.23    0.76
  -4   0   2    4.29    0.34
   4   0  -2    2.62    1.16
   4   0  -2    3.32    0.30
  -4   0   2    1.89    1.18
   4   0  -1   -0.17    0.42
  -4   0   1    0.12    0.12
   4   0  -1    0.07    0.10
   4   0   0  737.22   24.54
  -4   0  -1   -0.02    0.09
  -4   0  -1   -0.10    0.09
  -4   0  -1    0.10    0.13
   4   0   1    0.61    0.64
  -4   0  -1    0.29    0.46
   4   0   1    0.13    0.12
   4   0   2   18.90    0.89
   4   0   2   18.47    0.74
  -4   0  -2   18.66    0.76
  -4   0  -2   18.59    0.80
  -4   0  -2   18.33    0.90
  -4   0  -2   17.94    2.39
   4   0   3    0.89    0.95
  -4   0  -3   -0.06    0.14
   4   0   3    0.02    0.13
  -4   0  -3    0.00    0.16
  -4   0  -3   -0.02    0.78
  -4   0  -3   -0.13    0.12
  -4   0  -4    7.45    0.65
  -4   0  -4    7.41    0.51
   4   0   4    6.27    2.42
  -4   0  -4    6.55    0.63
  -4   0  -4    7.36    2.49
   4   0   4    8.61    0.53
  -4   0  -5   -2.09    0.92
  -4   0  -5    0.07    0.20
  -4   0  -5    0.06    0.28
  -4   0  -5   -0.01    0.26
   4   0   5    0.14    1.64
   4   0   5   -0.19    0.18
   4   0   6  172.73    4.97
  -4   0  -6  178.47    5.56
  -4   0  -6  169.85    5.52
  -4   0  -6  152.28   12.59
   4   0   6  155.28   13.60
  -4   0  -6  171.59    5.04
  -4   0  -7   -0.02    0.34
   4   0   7   -0.05    0.26
  -4   0  -7   -0.47    0.36
  -4   0  -7   -4.25    2.47
  -4   0  -7    0.72    0.47
  -4   1   8    0.49    5.54
   4   1  -8    0.11    0.45
  -4   1   8    1.12    0.47
   4  -1  -8    0.43    0.49
   4  -1  -8   -1.89    4.75
  -4  -1   8    0.05    0.57
  -4  -1   8    2.39    4.67
   4  -1  -8   -0.20    0.39
  -4   1   7    3.67    3.38
   4   1  -7    1.99    3.68
   4   1  -7    0.68    0.43
  -4   1   7    0.88    0.40
   4  -1  -7    0.68    0.44
  -4  -1   7    1.45    0.40
   4  -1  -7    0.50    2.87
  -4  -1   7    2.33    3.11
  -4   1   6   15.76    1.02
   4   1  -6   15.71    4.87
   4   1  -6   14.99    1.04
  -4   1   6   19.66    5.17
   4  -1  -6   16.83    1.11
   4  -1  -6   15.60    0.99
   4  -1  -6   15.95    5.05
  -4  -1   6   19.85    5.05
  -4  -1   6   17.59    0.98
   4   1  -5   19.41    4.89
  -4   1   5   19.05    1.02
   4   1  -5   17.10    1.00
  -4   1   5   15.09    3.98
   4  -1  -5   17.76    1.00
   4  -1  -5   16.92    0.93
  -4  -1   5   14.92    4.17
  -4  -1   5   18.99    0.95
   4  -1  -5   17.94    4.88
   4   1  -4    0.96    1.39
  -4   1   4    1.56    0.32
   4   1  -4    1.92    0.34
  -4   1   4    1.62    1.41
   4  -1  -4    1.81    0.34
   4  -1  -4    1.87    0.31
  -4  -1   4    2.76    1.77
   4  -1  -4    2.82    1.83
  -4  -1   4    2.06    0.35
  -4   1   3  492.23   13.61
   4   1  -3  509.06   21.70
  -4   1   3  480.94   20.01
   4   1  -3  506.33   13.63
   4  -1  -3  505.40   13.50
   4  -1  -3  496.83   20.69
   4  -1  -3  487.92   13.50
  -4  -1   3  537.12   21.30
  -4   1   2    0.52    0.18
  -4   1   2    1.33    0.91
   4   1  -2    0.41    0.15
  -4   1   2    0.54    0.15
   4   1  -2    0.69    0.71
   4  -1  -2    0.20    0.12
   4  -1  -2    0.09    0.10
  -4  -1   2    0.48    0.74
  -4  -1   2    0.24    0.15
   4  -1  -2   -0.84    0.44
   4   1  -1  705.56   19.00
   4   1  -1  705.73   19.19
  -4   1   1  748.32   19.16
   4   1  -1  693.58   24.71
  -4   1   1  716.77   23.16
  -4  -1   1  735.46   19.25
   4  -1  -1  719.62   23.21
  -4  -1   1  730.47   25.17
   4   1   0   98.89    2.74
   4   1   0  109.72    7.16
   4   1   0   99.97    2.98
  -4   1   0  104.01    2.98
   4  -1   0   99.56    2.92
  -4  -1   0   94.26    2.89
  -4  -1   0   96.40    2.78
   4  -1   0  106.49    5.56
  -4  -1   0  102.72    3.03
  -4   1  -1  142.94    6.50
   4   1   1  150.04    4.16
   4   1   1  143.79    4.09
   4   1   1  152.49    4.31
  -4   1  -1  147.83    4.12
  -4   1  -1  150.59    4.29
  -4  -1  -1  150.66    4.33
   4  -1   1  149.12    6.84
  -4  -1  -1  146.97    4.10
  -4  -1  -1  142.94    7.48
   4  -1   1  149.51    4.27
  -4  -1  -1  144.79    4.17
   4   1   2   39.08    4.11
   4   1   2   38.55    1.29
  -4   1  -2   36.91    1.42
   4   1   2   37.47    1.43
  -4   1  -2   35.17    3.28
  -4   1  -2   37.45    1.24
   4  -1   2   37.49    3.63
  -4  -1  -2   37.86    1.45
   4  -1   2   37.39    1.21
   4  -1   2   37.91    1.41
  -4  -1  -2   39.02    3.80
  -4  -1  -2   36.74    1.32
  -4  -1  -2   35.72    1.30
  -4   1  -3    0.58    0.24
  -4   1  -3    1.41    0.23
   4   1   3    0.75    0.22
   4   1   3    3.82    1.76
  -4   1  -3    1.93    1.24
   4   1   3    1.47    0.30
   4  -1   3    1.36    0.21
  -4  -1  -3    0.74    0.26
  -4  -1  -3    1.14    0.30
  -4  -1  -3    1.14    0.24
   4  -1   3    0.77    1.00
  -4  -1  -3    1.35    1.11
   4   1   4   14.15    3.84
  -4   1  -4   14.58    3.40
  -4   1  -4   14.45    0.93
  -4  -1  -4   13.84    0.91
  -4  -1  -4   15.76    0.80
  -4  -1  -4   14.82    0.91
  -4  -1  -4   11.82    3.09
   4  -1   4   15.72    0.69
   4   1   5    1.17    0.31
  -4   1  -5    1.37    0.41
   4   1   5    0.45    2.13
  -4   1  -5    1.32    0.42
  -4   1  -5    1.16    0.26
  -4   1  -5    0.26    1.42
  -4  -1  -5    0.72    0.26
  -4  -1  -5    0.62    0.35
   4  -1   5    1.09    0.25
  -4  -1  -5    0.89    0.36
  -4  -1  -5    1.02    1.20
   4  -1   5    2.15    1.89
  -4   1  -6   62.06    7.38
  -4   1  -6   73.73    2.89
   4   1   6   74.16    9.37
  -4   1  -6   73.78    2.38
  -4   1  -6   72.94    2.88
   4   1   6   71.65    2.45
   4  -1   6   71.59    2.30
  -4  -1  -6   64.95    7.71
  -4  -1  -6   73.81    2.86
   4  -1   6   71.03    8.83
  -4  -1  -6   72.40    2.52
  -4   1  -7    0.00    0.40
  -4   1  -7    0.26    0.34
  -4   1  -7   -5.49    3.53
  -4   1  -7   -0.07    0.24
   4   1   7    0.08    0.29
   4   1   7    1.51    3.43
  -4  -1  -7    0.81    0.44
  -4  -1  -7   -0.20    0.39
  -4  -1  -7    0.54    0.29
  -4  -1  -7    0.05    2.41
   4  -1   7    0.87    3.46
   4  -1   7    0.66    0.27
   4   2  -8   10.23    5.22
   4   2  -8    5.82    0.98
  -4   2   8    4.04    0.68
  -4  -2   8    6.26    5.57
   4  -2  -8    4.28    0.81
  -4  -2   8    4.31    0.62
   4   2  -7    4.20    3.49
  -4   2   7    0.88    0.44
   4  -2  -7    0.59    0.45
   4  -2  -7    4.23    3.42
  -4  -2   7    0.25    0.33
   4  -2  -7   -0.40    0.31
  -4  -2   7    0.11    2.58
   4  -2  -7    0.25    0.33
   4   2  -6  108.89   10.91
  -4   2   6   93.73    3.24
  -4   2   6   99.02   10.12
   4  -2  -6   90.66    9.83
  -4  -2   6   91.73    3.03
  -4  -2   6   91.31    9.65
   4  -2  -6   93.97    3.27
   4  -2  -6   89.64    3.08
   4   2  -5   -0.39    1.90
  -4   2   5    1.63    0.40
   4   2  -5    2.53    0.49
  -4   2   5    1.33    1.64
   4  -2  -5    2.58    0.37
  -4  -2   5    1.97    0.37
  -4  -2   5    1.09    1.79
   4  -2  -5    2.71    0.47
   4  -2  -5    5.16    2.62
   4   2  -4   64.52    2.30
  -4   2   4   66.11    6.52
   4   2  -4   62.97    6.94
  -4   2   4   66.02    2.28
   4  -2  -4   65.66    2.19
  -4  -2   4   56.01    6.49
  -4  -2   4   67.23    2.28
   4  -2  -4   63.12    2.10
   4  -2  -4   62.09    6.43
   4   2  -3   19.46    4.06
  -4   2   3   22.08    1.01
  -4   2   3   17.91    2.92
   4   2  -3   22.42    1.02
   4  -2  -3   21.08    0.90
  -4  -2   3   23.89    3.84
   4  -2  -3   22.77    0.85
   4  -2  -3   26.48    3.73
  -4   2   2   67.58    2.03
   4   2  -2   66.94    2.06
  -4   2   2   66.35    5.02
   4   2  -2   66.66    6.08
   4   2  -2   69.06    2.22
   4  -2  -2   69.00    2.00
   4  -2  -2   71.84    5.34
   4  -2  -2   67.65    2.02
  -4  -2   2   69.10    2.25
  -4  -2   2   70.03    6.17
  -4   2   1   59.82    1.70
  -4   2   1   60.29    3.92
   4   2  -1   56.95    1.80
  -4   2   1   63.69    1.84
   4   2  -1   61.08    1.94
   4   2  -1   57.99    5.38
   4  -2  -1   60.08    1.77
   4  -2  -1   58.77    3.96
  -4  -2   1   59.36    1.97
   4  -2  -1   59.72    1.69
  -4  -2   1   59.49    5.59
   4   2   0  100.08    2.95
   4   2   0   95.98    7.18
   4   2   0   93.97    2.84
   4   2   0   96.12    2.73
  -4   2   0   96.20    2.71
   4   2   0  107.72    7.72
  -4   2   0   98.91    2.87
  -4  -2   0   90.91    2.80
   4  -2   0  101.27    4.52
  -4  -2   0   95.59    2.85
   4  -2   0   98.79    2.84
  -4  -2   0  102.03    2.99
  -4   2  -1   51.15    1.70
   4   2   1   48.35    1.56
   4   2   1   50.53    1.64
  -4   2  -1   49.36    2.98
   4   2   1   51.79    1.81
   4   2   1   49.56    4.77
  -4  -2  -1   54.34    4.52
   4  -2   1   51.04    1.68
  -4  -2  -1   50.86    1.60
  -4  -2  -1   50.17    1.65
   4  -2   1   52.08    3.21
  -4  -2  -1   51.48    1.77
   4   2   2   17.63    0.78
  -4   2  -2   16.83    2.08
  -4   2  -2   17.10    0.84
   4   2   2   16.78    0.85
  -4   2  -2   17.22    0.67
   4   2   2   15.21    3.10
  -4  -2  -2   17.57    0.88
   4  -2   2   18.76    2.36
  -4  -2  -2   13.98    2.82
  -4  -2  -2   16.84    0.78
  -4  -2  -2   16.82    0.77
   4   2   3  102.13    8.07
  -4   2  -3   99.02    6.47
   4   2   3   93.05    3.05
   4   2   3   92.16    2.88
  -4   2  -3   87.91    3.03
  -4   2  -3   92.96    2.71
  -4  -2  -3   92.56    7.25
  -4  -2  -3   93.07    3.07
  -4  -2  -3   94.29    2.91
  -4  -2  -3   94.52    2.98
   4  -2   3   97.88    6.92
  -4   2  -4   30.31    1.48
  -4   2  -4   34.87    1.17
  -4   2  -4   33.43    4.27
   4   2   4   33.34    1.33
   4   2   4   31.90    4.80
  -4  -2  -4   34.47    4.67
  -4  -2  -4   32.99    1.36
   4  -2   4   29.03    4.23
   4  -2   4   34.52    1.12
  -4  -2  -4   33.24    1.47
  -4  -2  -4   33.60    1.53
   4   2   5    9.44    0.68
  -4   2  -5    9.31    0.82
   4   2   5    8.52    3.08
  -4   2  -5    9.46    3.08
  -4  -2  -5    9.38    0.81
   4  -2   5    8.85    0.50
  -4  -2  -5    4.95    2.40
  -4  -2  -5    9.59    0.70
  -4  -2  -5    8.68    0.82
  -4   2  -6    4.06    0.71
   4   2   6    5.71    0.61
  -4   2  -6    4.00    0.41
  -4   2  -6    2.49    2.64
  -4   2  -6    4.17    0.69
   4   2   6    9.54    4.02
   4  -2   6    5.19    0.42
  -4  -2  -6    5.69    0.79
  -4  -2  -6    2.15    2.33
  -4  -2  -6    6.29    0.82
   4  -2   6    5.62    2.58
  -4  -2  -6    4.62    0.58
  -4   2  -7    2.04    0.33
  -4   2  -7    1.79    2.61
  -4   2  -7    2.45    0.59
  -4   2  -7    2.99    0.67
   4   2   7    3.36    3.74
   4   2   7    2.59    0.50
  -4  -2  -7    3.00    0.66
   4  -2   7    3.27    3.61
  -4  -2  -7    5.44    3.78
   4  -2   7    2.06    0.36
  -4  -2  -7    3.14    0.71
  -4   3   8    3.68    0.68
  -4   3   8    3.41    4.53
   4   3  -8    5.41    5.15
   4  -3  -8   -0.65    4.30
   4  -3  -8    3.64    0.83
  -4  -3   8   -2.88    5.85
   4  -3  -8    3.72    0.62
  -4  -3   8    3.73    0.53
  -4   3   7   14.93    5.35
   4   3  -7   12.41    5.25
  -4   3   7   22.15    1.35
  -4  -3   7   15.34    6.09
   4  -3  -7   20.49    5.59
   4  -3  -7   22.65    1.41
  -4  -3   7   21.18    1.10
   4  -3  -7   22.43    1.48
   4  -3  -7   22.16    1.18
   4   3  -6    7.98    4.03
  -4   3   6   12.50    4.10
  -4   3   6    8.92    0.84
   4  -3  -6    8.66    0.82
   4  -3  -6   11.50    4.15
  -4  -3   6    7.27    0.62
   4  -3  -6    7.73    0.62
  -4  -3   6    7.18    3.95
   4  -3  -6    7.36    0.62
   4   3  -5   14.75    0.96
  -4   3   5   12.79    0.91
   4   3  -5    7.01    3.11
  -4   3   5   19.20    4.43
  -4  -3   5    9.03    3.55
  -4  -3   5   13.60    0.76
   4  -3  -5   13.96    0.90
   4  -3  -5   17.86    4.38
   4  -3  -5   13.79    0.73
  -4   3   4   16.41    3.86
  -4   3   4   15.43    0.92
   4   3  -4   16.45    4.20
   4   3  -4   16.38    0.95
  -4  -3   4   10.92    3.58
   4  -3  -4   16.89    0.87
  -4  -3   4   16.98    0.82
   4  -3  -4   16.08    3.72
   4  -3  -4   16.67    0.73
   4   3  -3  240.64    6.97
  -4   3   3  236.94   12.31
  -4   3   3  243.21    6.94
   4   3  -3  231.41   13.98
  -4  -3   3  249.27   13.90
   4  -3  -3  253.74    6.61
   4  -3  -3  246.50   12.59
   4  -3  -3  240.02    6.76
  -4   3   2   43.63    1.49
  -4   3   2   40.64    1.34
  -4   3   2   39.64    3.77
   4   3  -2   39.08    1.48
  -4   3   2   39.86    1.23
   4   3  -2   35.56    4.64
   4   3  -2   39.61    1.37
  -4  -3   2   40.52    4.74
   4  -3  -2   38.28    3.69
   4  -3  -2   40.74    1.19
   4  -3  -2   40.21    1.31
  -4  -3   2   38.87    1.52
   4   3  -1   55.53    1.79
  -4   3   1   52.35    3.51
  -4   3   1   56.50    1.82
   4   3  -1   48.36    5.33
  -4   3   1   59.12    1.69
  -4   3   1   59.92    1.72
   4   3  -1   54.21    2.10
   4  -3  -1   54.32    3.57
   4  -3  -1   56.30    1.67
  -4  -3   1   57.36    1.78
  -4  -3   1   64.50    6.16
   4  -3  -1   56.41    1.65
  -4  -3   1   56.71    1.92
   4   3   0   22.95    0.84
   4   3   0   17.72    3.67
  -4   3   0   23.98    0.85
   4   3   0   24.37    0.99
  -4   3   0   23.64    0.88
   4   3   0   23.68    3.79
   4   3   0   23.90    0.91
   4  -3   0   22.97    0.79
   4  -3   0   24.65    0.87
  -4  -3   0   23.30    0.91
  -4  -3   0   21.95    0.91
   4  -3   0   23.59    1.43
  -4  -3   0   23.63    1.01
  -4   3  -1   28.30    0.97
  -4   3  -1   27.58    1.84
   4   3   1   28.39    1.15
   4   3   1   26.84    1.00
   4   3   1   27.41    1.06
  -4   3  -1   29.09    1.08
   4   3   1   25.54    3.67
  -4  -3  -1   29.42    3.49
  -4  -3  -1   28.34    1.16
   4  -3   1   27.03    1.90
  -4  -3  -1   27.67    1.07
  -4  -3  -1   28.35    1.04
   4   3   2   12.07    0.65
   4   3   2   12.19    2.91
  -4   3  -2   12.40    0.51
   4   3   2   11.78    0.63
  -4   3  -2   11.58    1.69
   4   3   2   11.86    0.72
  -4   3  -2   10.87    0.66
  -4  -3  -2   12.06    0.73
  -4  -3  -2   11.85    0.65
  -4  -3  -2   13.77    3.00
   4  -3   2   11.50    1.73
  -4  -3  -2   10.52    0.63
   4   3   3  323.10    9.24
  -4   3  -3  329.69   13.72
  -4   3  -3  323.67    9.22
  -4   3  -3  334.09    8.80
   4   3   3  270.06   23.31
   4   3   3  329.48    9.08
   4  -3   3  343.53   14.60
  -4  -3  -3  333.16    9.27
  -4  -3  -3  327.61    9.15
  -4  -3  -3  331.78    9.12
  -4   3  -4    7.98    0.70
  -4   3  -4   10.08    2.68
   4   3   4    9.29    0.66
   4   3   4   12.88    3.79
  -4   3  -4    8.74    0.44
  -4  -3  -4    8.94    0.66
  -4  -3  -4    9.46    0.74
  -4  -3  -4    9.52    0.75
  -4  -3  -4    8.62    2.82
   4  -3   4    4.25    1.86
   4   3   5   44.04    6.59
  -4   3  -5   47.12    2.03
  -4   3  -5   48.19    1.48
   4   3   5   46.06    1.80
  -4   3  -5   39.26    5.32
  -4  -3  -5   48.21    2.03
  -4  -3  -5   46.41    1.99
  -4  -3  -5   45.93    6.08
  -4  -3  -5   44.76    1.98
   4  -3   5   41.30    5.94
  -4   3  -6    5.53    2.47
   4   3   6    2.24    3.46
  -4   3  -6    7.39    0.85
   4   3   6    5.97    0.67
  -4  -3  -6    8.28    0.87
  -4  -3  -6    7.13    0.83
  -4  -3  -6    6.43    3.37
  -4   3  -7    0.30    0.47
  -4   3  -7    0.81    0.44
  -4   3  -7   -2.31    2.16
   4   3   7    3.85    3.81
  -4  -3  -7    0.24    0.39
   4  -3   7    6.92    4.24
  -4  -3  -7    0.18    0.41
  -4  -3  -7    2.55    3.38
  -4   4   8    2.57    0.68
  -4   4   8   -0.42    5.16
   4   4  -8   -0.11    4.76
   4  -4  -8    0.29    5.24
   4  -4  -8    0.29    0.34
  -4  -4   8    0.22    0.31
   4   4  -7    1.71    3.54
  -4   4   7    1.63    0.53
  -4  -4   7   -0.68    3.30
  -4  -4   7    1.00    0.33
   4  -4  -7    0.99    0.32
   4  -4  -7    1.63    0.56
   4  -4  -7    1.07    0.36
   4  -4  -7    4.00    3.14
  -4   4   6   72.23    8.64
   4   4  -6   88.47   10.36
  -4   4   6   76.83    3.05
   4  -4  -6   75.95    2.54
  -4  -4   6   78.77    9.47
   4  -4  -6   81.46    3.13
  -4  -4   6   76.79    2.55
   4  -4  -6   83.07    9.53
  -4   4   5    3.87    0.60
   4   4  -5    3.64    0.57
  -4   4   5    6.34    2.72
   4   4  -5   -0.27    1.55
  -4  -4   5    4.11    0.45
   4  -4  -5    4.97    0.61
   4  -4  -5    3.84    0.39
  -4  -4   5    7.15    3.23
   4  -4  -5    4.03    0.38
   4  -4  -5    2.33    2.40
  -4   4   4  136.24    4.20
   4   4  -4  131.38    4.23
   4   4  -4  132.39   10.98
  -4   4   4  138.74   10.05
   4  -4  -4  134.32    3.75
   4  -4  -4  131.75    3.73
   4  -4  -4  121.07    9.60
  -4  -4   4  137.23   10.69
   4  -4  -4  133.59    4.03
  -4   4   3   11.52    0.74
   4   4  -3   10.76    0.74
   4   4  -3    9.27    2.90
  -4   4   3   12.05    2.83
   4   4  -3   10.96    0.65
   4  -4  -3   13.43    3.08
   4  -4  -3   11.30    0.64
  -4  -4   3   12.01    3.51
  -4   4   2   10.05    0.55
  -4   4   2   13.39    2.06
   4   4  -2    9.63    0.63
   4   4  -2   13.05    3.32
   4   4  -2   10.05    0.59
  -4  -4   2    6.72    2.58
   4  -4  -2   10.53    0.53
   4  -4  -2    8.82    1.98
  -4  -4   2   10.61    0.73
  -4   4   1    1.16    0.16
   4   4  -1    0.93    0.23
   4   4  -1    0.26    1.20
  -4   4   1    0.43    0.41
  -4   4   1    1.10    0.20
   4   4  -1    1.34    0.26
  -4   4   1    0.88    0.21
   4  -4  -1    1.06    0.20
  -4  -4   1    0.23    1.08
  -4  -4   1    0.97    0.23
  -4  -4   1    0.98    0.24
   4  -4  -1    0.75    0.42
   4   4   0  218.43    6.03
   4   4   0  188.33   15.01
  -4   4   0  223.25    6.00
  -4   4   0  221.19    6.01
   4   4   0  213.19   13.21
   4   4   0  215.18    6.17
   4   4   0  219.27    6.07
  -4   4   0  219.65    6.05
  -4  -4   0  228.46    6.24
   4  -4   0  223.16    5.97
  -4  -4   0  205.02    6.14
  -4  -4   0  216.02    6.08
   4   4   1    1.05    0.26
   4   4   1    1.04    0.24
  -4   4  -1    1.39    0.25
  -4   4  -1    1.16    0.34
  -4   4  -1    1.34    0.23
   4  -4   1    0.88    0.35
  -4  -4  -1    1.39    0.28
  -4  -4  -1    1.30    0.26
  -4  -4  -1    1.26    0.25
   4   4   2   27.61    1.14
   4   4   2   28.63    4.16
  -4   4  -2   27.66    2.47
  -4   4  -2   29.12    0.94
  -4   4  -2   28.75    1.24
   4   4   2   26.50    1.16
   4   4   2   29.13    1.27
  -4  -4  -2   27.82    1.17
  -4  -4  -2   30.50    1.26
  -4  -4  -2   28.42    1.17
  -4  -4  -2   30.60    4.05
   4  -4   2   29.22    2.75
   4   4   3  127.67    3.93
   4   4   3  125.36    4.01
  -4   4  -3  123.25    3.95
  -4   4  -3  126.20    7.35
   4   4   3  128.54   10.04
   4   4   3  128.74    3.89
   4  -4   3  139.22    8.06
  -4  -4  -3  131.51    4.03
  -4  -4  -3  125.54    3.93
  -4  -4  -3  134.14    9.41
  -4  -4  -3  125.52    3.91
   4   4   4   -0.21    0.18
   4   4   4    0.04    0.24
   4   4   4    0.88    1.99
  -4   4  -4   -1.48    0.85
  -4   4  -4    0.48    0.26
   4  -4   4   -0.83    0.82
  -4  -4  -4    0.19    0.28
  -4  -4  -4    0.08    0.25
  -4  -4  -4    0.17    0.22
  -4  -4  -4    1.33    1.58
  -4   4  -5    8.21    2.83
   4   4   5   11.66    0.82
   4   4   5   17.58    5.09
  -4   4  -5   11.28    0.89
  -4  -4  -5    9.90    0.78
   4  -4   5    8.86    3.19
  -4  -4  -5   10.39    3.68
  -4  -4  -5   10.25    0.87
  -4  -4  -5    9.51    0.86
  -4   4  -6   19.02    4.63
   4   4   6   19.16    1.12
   4   4   6   12.84    5.36
  -4   4  -6   18.04    1.27
  -4  -4  -6   18.01    4.85
  -4  -4  -6   16.30    1.20
  -4  -4  -6   18.15    1.24
   4  -4   6   18.15    4.70
   4   4   7    3.22    4.89
  -4   4  -7   14.08    1.20
  -4   4  -7   14.99    4.78
   4   4   7   12.60    0.99
  -4  -4  -7    8.50    0.99
  -4  -4  -7   10.98    1.10
  -4  -4  -7   -0.60    4.28
  -4   5   7   -0.25    0.34
   4   5  -7    1.36    3.37
  -4   5   7    5.74    4.24
   4  -5  -7   -0.46    0.24
  -4  -5   7    0.34    0.26
   4  -5  -7   -0.56    0.34
   4  -5  -7    1.65    3.54
   4  -5  -7   -0.53    0.23
  -4  -5   7   -2.92    3.15
  -4   5   6   -1.10    1.90
  -4   5   6   -0.75    0.29
   4   5  -6   -0.53    2.35
   4  -5  -6    0.30    0.22
   4  -5  -6   -0.19    0.19
   4  -5  -6   -1.77    1.89
   4  -5  -6    0.31    0.37
  -4  -5   6    2.07    3.25
  -4  -5   6   -0.12    0.21
  -4   5   5   31.57    1.56
  -4   5   5   31.02    4.98
   4   5  -5   30.14    5.97
   4  -5  -5   27.26    5.54
   4  -5  -5   30.02    1.08
   4  -5  -5   30.48    1.08
   4  -5  -5   29.98    1.41
  -4  -5   5   29.85    1.33
  -4  -5   5   31.44    6.27
   4   5  -4    2.58    0.47
   4   5  -4    2.43    0.43
   4   5  -4    3.39    2.42
  -4   5   4    2.01    0.43
  -4   5   4    1.34    1.33
   4  -5  -4    1.46    0.33
   4  -5  -4    4.86    2.28
  -4  -5   4    2.70    2.20
   4  -5  -4    3.21    0.45
  -4  -5   4    2.02    0.30
  -4   5   3    2.68    0.43
   4   5  -3    2.30    0.37
  -4   5   3    2.46    0.38
   4   5  -3    2.97    0.45
  -4   5   3    3.09    1.55
   4  -5  -3    2.59    1.41
   4  -5  -3    2.43    0.35
  -4  -5   3    0.59    1.46
   4  -5  -3    3.09    0.44
  -4  -5   3    2.65    0.31
   4   5  -2    1.49    1.79
   4   5  -2    0.26    0.20
   4   5  -2    0.21    0.17
  -4   5   2    0.27    0.20
  -4   5   2   -0.46    0.47
  -4   5   2    0.41    0.20
  -4  -5   2    0.36    0.16
   4  -5  -2    0.14    0.15
   4  -5  -2    0.06    0.14
  -4  -5   2   -0.42    1.18
  -4  -5   2    0.01    0.16
   4  -5  -2   -0.90    0.46
  -4   5   1   60.05    3.70
   4   5  -1   67.01    2.21
   4   5  -1   64.35    2.03
   4   5  -1   48.80    6.47
  -4   5   1   61.74    2.05
  -4   5   1   65.97    2.10
  -4   5   1   65.51    1.86
   4   5  -1   62.98    2.13
   4  -5  -1   65.75    2.01
  -4  -5   1   66.21    7.61
  -4  -5   1   63.71    2.04
   4  -5  -1   68.96    4.01
  -4  -5   1   63.84    2.21
  -4  -5   1   61.10    2.16
  -4   5   0   67.59    2.10
  -4   5   0   69.34    2.19
   4   5   0   67.09    2.16
   4   5   0   64.97    7.28
   4   5   0   65.57    2.24
   4   5   0   66.53    2.16
  -4   5   0   66.35    2.04
   4   5   0   73.91    6.95
  -4  -5   0   68.21    2.28
   4  -5   0   69.47    2.10
  -4  -5   0   66.07    2.15
  -4  -5   0   64.56    2.27
   4   5   1   11.39    0.64
   4   5   1    8.59    2.70
  -4   5  -1   10.41    0.50
  -4   5  -1   10.54    0.58
   4   5   1   11.16    0.69
  -4  -5  -1   11.20    0.70
  -4  -5  -1   11.23    0.65
  -4  -5  -1    9.74    2.84
  -4  -5  -1   11.12    0.66
   4   5   2   44.64    1.62
  -4   5  -2   42.42    1.29
  -4   5  -2   41.63    1.51
  -4   5  -2   46.12    3.13
   4   5   2   44.34    5.61
  -4   5  -2   42.20    1.58
   4   5   2   38.70    1.55
   4   5   2   43.46    1.71
  -4  -5  -2   43.81    1.61
  -4  -5  -2   41.99    1.87
  -4  -5  -2   42.53    1.62
  -4  -5  -2   42.88    5.15
   4  -5   2   45.26    3.33
   4   5   3   21.37    1.14
  -4   5  -3   23.48    1.13
   4   5   3   20.85    4.69
   4   5   3   22.57    1.11
   4   5   3   22.81    1.10
  -4   5  -3   24.68    2.90
  -4  -5  -3   23.27    1.12
  -4  -5  -3   25.17    1.18
  -4  -5  -3   23.27    1.13
  -4  -5  -3   23.86    4.63
   4  -5   3   24.05    3.03
  -4   5  -4   21.70    6.11
   4   5   4   26.44    1.31
   4   5   4   25.71    1.24
   4   5   4   28.03    5.82
  -4   5  -4   26.70    1.33
  -4  -5  -4   24.60    1.30
  -4  -5  -4   26.48    1.28
  -4  -5  -4   26.53    1.34
  -4  -5  -4   27.70    5.39
   4   5   5    0.83    0.36
   4   5   5    2.71    2.74
  -4   5  -5    0.64    1.59
  -4   5  -5    1.96    0.61
  -4  -5  -5    0.96    2.35
  -4  -5  -5    1.43    0.43
  -4  -5  -5    2.21    0.58
   4  -5   5   -0.65    1.57
  -4   5  -6   36.72    1.87
  -4   5  -6   30.74    5.99
   4   5   6   33.79    1.86
   4   5   6   27.28    7.31
  -4  -5  -6   36.81    1.86
   4  -5   6   39.71    6.09
  -4  -5  -6   34.24    1.75
  -4  -5  -6   33.18    6.83
  -4   5  -7    2.03    3.05
   4   5   7    2.62    4.39
  -4   5  -7    0.80    0.49
   4   5   7    0.74    0.44
   4  -5   7    3.55    3.52
  -4  -5  -7    0.21    0.44
  -4  -5  -7    0.28    3.89
  -4  -5  -7    1.13    0.50
   4   6  -7    1.96    3.91
  -4   6   7    0.00    0.43
  -4   6   7   -0.04    3.43
  -4  -6   7    0.53    0.26
   4  -6  -7   -0.04    0.42
   4  -6  -7    0.94    3.92
  -4  -6   7    1.05    0.31
   4  -6  -7   -0.13    0.23
   4  -6  -7    0.13    0.24
  -4  -6   7    3.93    4.61
  -4   6   6  161.65   13.61
   4   6  -6  155.09   14.13
  -4   6   6  160.33    5.17
   4  -6  -6  153.26    4.97
   4  -6  -6  146.98   12.83
   4  -6  -6  151.99    4.39
  -4  -6   6  176.03   14.35
  -4  -6   6  151.94    4.46
   4   6  -5    1.60    2.15
  -4   6   5   -0.21    2.12
  -4   6   5    1.77    0.49
  -4  -6   5    1.51    0.29
   4  -6  -5    0.01    1.94
   4  -6  -5    1.00    0.40
  -4  -6   5    1.57    0.28
  -4  -6   5   -1.10    2.23
   4   6  -4   60.84    2.44
  -4   6   4   59.82    6.24
  -4   6   4   61.30    2.39
   4   6  -4   62.79    7.61
   4   6  -4   59.84    2.26
   4  -6  -4   63.84    2.22
   4  -6  -4   70.56    6.93
  -4  -6   4   69.05    7.67
   4  -6  -4   63.13    2.26
  -4  -6   4   62.81    2.00
   4   6  -3    1.61    0.38
  -4   6   3    1.89    0.40
  -4   6   3    0.38    1.22
   4   6  -3    1.25    0.35
  -4   6   3    1.36    0.30
   4   6  -3   -0.92    0.88
  -4  -6   3    0.14    1.63
   4  -6  -3    1.47    0.31
   4  -6  -3    1.40    0.28
   4  -6  -3    2.08    1.27
  -4  -6   3    1.46    0.27
  -4   6   2   23.64    1.07
  -4   6   2   26.34    1.15
   4   6  -2   22.75    5.01
  -4   6   2   23.73    2.91
   4   6  -2   23.11    1.13
   4   6  -2   24.47    1.17
  -4  -6   2   24.82    0.99
   4  -6  -2   24.19    1.00
   4  -6  -2   24.65    1.05
  -4  -6   2   21.29    4.78
  -4  -6   2   24.25    1.22
   4  -6  -2   22.75    3.00
  -4   6   1    0.23    0.18
   4   6  -1    0.35    0.19
  -4   6   1    0.89    0.25
   4   6  -1    0.57    1.82
  -4   6   1    0.71    0.52
  -4   6   1    0.45    0.11
   4   6  -1    0.37    0.21
   4   6  -1    0.25    0.20
  -4  -6   1    0.55    0.28
  -4  -6   1    0.58    0.24
   4  -6  -1   -0.03    0.53
  -4  -6   1    0.15    0.17
   4  -6  -1    0.35    0.17
  -4  -6   1    4.98    2.61
   4  -6  -1    0.61    0.22
  -4   6   0  350.71    9.62
   4   6   0  348.44    9.81
   4   6   0  312.65   10.22
   4   6   0  360.18    9.75
   4   6   0  312.20   23.54
   4   6   0  356.65   17.91
  -4   6   0  364.86    9.95
  -4   6   0  362.42    9.54
  -4  -6   0  351.14    9.70
   4  -6   0  371.77    9.68
  -4  -6   0  350.35    9.90
  -4  -6   0  362.65   10.21
   4   6   1   22.78    1.04
   4   6   1   23.87    1.05
  -4   6  -1   22.01    0.86
   4   6   1   23.52    1.11
  -4   6  -1   24.58    1.06
   4   6   1   22.88    4.69
  -4  -6  -1   20.40    4.28
  -4  -6  -1   22.53    1.04
  -4  -6  -1   22.85    1.11
  -4   6  -2  126.95    5.84
   4   6   2  129.69    4.04
  -4   6  -2  127.49    3.96
  -4   6  -2  132.85    3.67
   4   6   2  142.07   10.47
   4   6   2  136.39    4.19
   4   6   2  132.79    4.06
  -4  -6  -2  124.48    9.57
  -4  -6  -2  136.35    4.11
   4  -6   2  148.04    6.54
  -4  -6  -2  125.30    4.03
  -4  -6  -2  135.34    4.08
  -4   6  -3   13.24    0.79
   4   6   3   14.16    3.93
   4   6   3   12.12    0.82
   4   6   3   13.89    0.95
  -4   6  -3   17.78    2.35
   4   6   3   13.59    0.88
  -4  -6  -3   13.33    0.86
  -4  -6  -3   13.53    1.25
   4  -6   3   14.97    2.82
  -4  -6  -3   13.39    0.86
  -4  -6  -3   13.88    3.73
  -4   6  -4   66.14    5.67
   4   6   4   60.94    2.31
  -4   6  -4   60.07    2.35
   4   6   4   68.62    7.94
   4   6   4   59.16    2.34
  -4  -6  -4   60.87    2.33
  -4  -6  -4   65.31    2.40
  -4  -6  -4   56.81    6.99
   4  -6   4   63.92    6.01
  -4  -6  -4   64.66    2.37
   4   6   5    5.72    3.75
   4   6   5   11.68    0.91
  -4   6  -5   13.80    3.42
  -4   6  -5   12.44    0.96
  -4  -6  -5   12.84    4.11
  -4  -6  -5   11.54    0.93
  -4  -6  -5   10.68    0.96
   4  -6   5   16.98    3.99
  -4   6  -6   -1.29    2.03
   4   6   6   -0.10    3.51
   4   6   6    0.38    0.37
  -4   6  -6    0.14    0.30
  -4  -6  -6   -0.02    0.43
  -4  -6  -6   -3.06    2.93
   4  -6   6   -2.93    1.81
  -4  -6  -6    0.38    0.35
  -4   6  -7    6.71    3.53
   4   6   7    7.82    0.90
   4   6   7    0.16    4.89
  -4   6  -7    7.82    1.83
   4  -6   7    5.47    4.14
  -4  -6  -7    8.74    0.96
  -4  -6  -7   -0.34    4.45
  -4   7   7   52.32    2.42
   4   7  -7   41.85    9.17
   4  -7  -7   48.65    2.26
  -4  -7   7   51.62   10.72
   4   7  -6   -1.51    2.45
  -4   7   6   -0.07    0.38
  -4  -7   6    1.10    3.39
  -4  -7   6    0.40    0.22
   4  -7  -6    0.92    2.58
   4  -7  -6    0.48    0.39
  -4  -7   6    0.00    0.21
   4   7  -5   14.45    4.52
  -4   7   5   19.26    1.28
  -4   7   5   25.34    5.15
  -4  -7   5   21.56    5.40
  -4  -7   5   18.00    0.80
  -4  -7   5   17.33    0.82
   4  -7  -5   17.70    4.58
   4  -7  -5   16.86    1.07
   4   7  -4   19.08    4.79
  -4   7   4   19.03    1.09
  -4   7   4   19.98    1.18
  -4   7   4   13.37    3.64
   4   7  -4   17.28    1.04
   4  -7  -4   15.55    3.90
  -4  -7   4   18.34    0.81
   4  -7  -4   17.49    0.99
  -4  -7   4   16.00    4.78
  -4   7   3   34.30    4.19
   4   7  -3   18.86    4.63
  -4   7   3   28.65    1.32
  -4   7   3   27.35    1.37
   4   7  -3   28.72    1.43
   4   7  -3   27.10    1.33
   4  -7  -3   28.48    1.22
  -4  -7   3   31.89    6.17
   4  -7  -3   35.61    4.31
  -4  -7   3   28.64    1.11
   4  -7  -3   28.55    1.27
  -4   7   2   38.53    1.56
   4   7  -2   39.31    1.63
   4   7  -2   28.57    6.04
  -4   7   2   39.70    1.60
  -4   7   2   32.46    6.18
   4   7  -2   37.88    1.64
  -4  -7   2   40.59    1.67
  -4  -7   2   39.76    1.42
  -4  -7   2   37.29    5.91
   4  -7  -2   39.21    5.70
   4  -7  -2   40.74    1.51
  -4  -7   2   37.14    1.70
   4  -7  -2   39.52    1.48
   4   7  -1   13.84    0.85
  -4   7   1   12.73    0.80
  -4   7   1   14.40    0.54
  -4   7   1   14.29    1.76
   4   7  -1   10.76    3.79
  -4   7   1   13.85    0.78
   4   7  -1   14.13    0.84
   4  -7  -1   14.44    0.76
  -4  -7   1   14.03    0.74
  -4  -7   1   13.13    0.85
  -4  -7   1   11.40    0.86
   4  -7  -1   14.65    1.96
   4  -7  -1   13.91    0.71
  -4   7   0   11.84    0.76
  -4   7   0   11.65    0.65
   4   7   0   11.72    0.70
   4   7   0   11.76    0.75
  -4   7   0   11.19    1.10
  -4   7   0   11.62    0.95
   4   7   0   12.56    0.76
  -4   7   0   12.43    0.58
   4  -7   0   12.62    0.72
  -4  -7   0   11.44    0.69
  -4  -7   0   12.73    0.87
  -4  -7   0   13.11    0.80
   4   7   1   66.69    2.33
  -4   7  -1   70.24    2.35
   4   7   1   67.14    2.39
  -4   7  -1   66.03    2.09
   4   7   1   64.53    2.29
   4   7   1   78.20    7.71
  -4  -7  -1   68.97    2.38
   4  -7   1   65.94    2.37
  -4  -7  -1   69.29    2.33
  -4  -7  -1   64.07    7.12
  -4  -7  -1   67.98    2.41
   4   7   2    1.29    0.33
   4   7   2    1.23    0.33
  -4   7  -2    1.28    0.20
  -4   7  -2    1.15    0.28
   4   7   2    1.49    1.30
   4   7   2    1.33    0.34
  -4   7  -2    0.80    0.60
  -4  -7  -2    1.20    0.33
  -4  -7  -2    1.68    0.36
  -4  -7  -2    1.34    0.32
  -4  -7  -2   -0.30    1.18
   4  -7   2    0.47    0.61
  -4   7  -3  159.87    8.04
   4   7   3  155.47    4.95
   4   7   3  159.33    4.90
   4   7   3  149.12   11.73
   4   7   3  155.91    4.83
   4  -7   3  160.76    8.55
  -4  -7  -3  162.09   11.62
  -4  -7  -3  157.39    4.89
  -4  -7  -3  158.15    4.84
  -4  -7  -3  159.45    4.89
   4   7   4    9.74    3.67
  -4   7  -4    5.88    1.74
   4   7   4    6.34    0.70
   4   7   4    4.50    0.63
  -4  -7  -4    4.74    0.59
  -4  -7  -4    4.90    2.93
   4  -7   4    7.34    2.18
  -4  -7  -4    5.27    0.69
   4   7   5   34.01    1.62
   4   7   5   30.94   10.37
  -4   7  -5   31.56    1.64
  -4   7  -5   26.27    4.21
  -4  -7  -5   32.32    1.67
   4  -7   5   26.47    5.03
  -4  -7  -5   35.03    8.92
  -4  -7  -5   31.62    1.58
  -4   7  -6   19.16    1.33
   4   7   6   18.45    1.24
  -4   7  -6   15.16    4.09
   4   7   6   20.57    6.61
  -4  -7  -6   16.51    1.20
  -4  -7  -6   26.29    6.28
   4  -7   6   13.07    4.02
  -4  -7  -6   17.22    1.32
   4   7   7    1.27    4.99
  -4   7  -7    0.78    0.50
   4   7   7   -0.04    0.43
  -4   7  -7   -2.82    2.53
  -4  -7  -7    0.60    0.48
  -4  -7  -7    0.62    0.54
   4  -7   7   -6.19    4.80
  -4  -7  -7    6.76    4.80
   4   8  -7   10.76    5.34
  -4   8   7    9.08    1.07
   4  -8  -7    8.80    0.99
  -4  -8   7   -0.09    5.55
  -4   8   6   22.09    5.35
  -4   8   6   24.93    1.57
   4   8  -6   19.32    5.64
  -4  -8   6   29.67    7.76
   4  -8  -6   24.33    1.42
   4  -8  -6   16.09    5.25
   4   8  -5    2.96    3.07
  -4   8   5    3.00    0.64
  -4  -8   5    2.47    0.34
  -4  -8   5    3.27    0.37
   4  -8  -5    1.38    2.25
  -4  -8   5   -0.92    2.21
   4  -8  -5    2.65    0.52
  -4   8   4   64.27    2.58
  -4   8   4   64.98    2.52
  -4   8   4   69.92    6.97
   4  -8  -4   58.25    6.46
   4  -8  -4   68.70    2.41
  -4  -8   4   67.24    2.12
   4   8  -3   11.41    0.86
  -4   8   3   11.05    0.85
   4   8  -3   10.60    0.86
   4   8  -3    5.81    3.02
  -4   8   3   10.81    0.81
  -4   8   3   14.25    2.96
   4  -8  -3   10.13    0.74
   4  -8  -3   10.69    0.74
  -4  -8   3   12.15    0.65
  -4  -8   3    6.94    3.25
   4  -8  -3   11.70    3.01
  -4   8   2    1.29    0.85
   4   8  -2    1.55    0.54
  -4   8   2    1.73    0.38
   4   8  -2    0.95    1.93
   4   8  -2    2.26    0.48
  -4   8   2    2.42    0.45
   4  -8  -2    2.45    0.42
   4  -8  -2    1.59    0.33
  -4  -8   2    2.14    0.46
   4  -8  -2   -0.19    0.99
  -4  -8   2    1.63    0.42
  -4  -8   2    1.79    0.31
   4   8  -1    5.74    0.59
   4   8  -1    3.32    2.34
   4   8  -1    7.14    0.64
  -4   8   1    6.41    0.58
  -4   8   1    6.75    0.36
  -4   8   1    6.78    0.62
  -4   8   1    7.17    0.41
   4   8  -1    6.28    0.53
  -4   8   1    5.11    1.52
  -4  -8   1    5.61    0.67
   4  -8  -1    5.76    1.84
   4  -8  -1    5.87    0.48
   4  -8  -1    6.74    0.57
  -4  -8   1    6.69    0.62
  -4  -8   1    7.42    0.55
   4   8   0    3.39    0.48
  -4   8   0    3.67    0.53
   4   8   0    1.33    2.36
  -4   8   0    2.99    0.40
   4   8   0    2.85    0.48
   4   8   0    2.87    0.41
  -4   8   0    2.96    0.85
  -4   8   0    2.42    0.65
   4   8   0   -0.54    1.37
   4  -8   0    3.52    0.34
  -4  -8   0    2.33    0.38
   4  -8   0    4.05    0.51
  -4  -8   0    2.68    0.44
  -4  -8   0    3.04    0.54
   4   8   1   -0.40    0.16
   4   8   1    0.07    0.22
  -4   8  -1   -0.20    0.25
   4   8   1   -1.08    0.88
  -4   8  -1    0.34    0.25
  -4   8  -1    0.65    0.27
  -4   8  -1    0.33    0.18
   4   8   1   -0.12    0.20
   4  -8   1   -0.13    0.19
  -4  -8  -1    0.11    0.19
  -4  -8  -1   -0.10    0.24
  -4  -8  -1    0.10    0.20
  -4   8  -2   77.35    2.26
   4   8   2   75.73    7.90
   4   8   2   75.84    2.75
  -4   8  -2   76.28    2.64
  -4   8  -2   73.09    4.05
   4   8   2   73.04    2.63
  -4  -8  -2   79.77    7.92
   4  -8   2   75.22    4.76
  -4  -8  -2   75.86    2.68
  -4  -8  -2   78.51    2.67
  -4  -8  -2   77.12    2.68
  -4   8  -3   81.54    5.36
   4   8   3   86.51    8.64
   4   8   3   83.79    2.89
   4   8   3   81.18    2.92
   4   8   3   76.75    2.94
  -4   8  -3   77.97    2.80
  -4  -8  -3   83.63    3.57
   4  -8   3   85.42    5.92
  -4  -8  -3   79.53    2.86
  -4  -8  -3   85.83    2.86
  -4  -8  -3   85.97    8.67
   4   8   4   27.24   10.57
   4   8   4   27.07    1.69
  -4   8  -4   28.45    3.66
   4   8   4   27.32    1.44
   4  -8   4   26.63    3.97
  -4  -8  -4   29.35    1.53
  -4  -8  -4   28.93    1.41
  -4   8  -5   47.20    2.08
   4   8   5   52.46    9.74
   4   8   5   41.94    1.90
   4   8   5   44.11    2.00
  -4   8  -5   45.03    5.45
  -4  -8  -5   42.46    1.91
   4  -8   5   44.99    5.72
  -4  -8  -5   44.36    2.05
  -4  -8  -5   34.18    7.21
  -4   8  -6    8.22    0.93
  -4   8  -6    5.80    2.93
   4   8   6    7.57    0.89
   4   8   6    9.00    5.19
  -4  -8  -6    3.83    4.13
  -4  -8  -6    8.14    0.87
   4  -8   6    3.40    3.03
  -4  -8  -6    8.16    0.98
  -4   9   7   -0.95    0.40
   4  -9  -7    0.67    0.59
  -4   9   6    3.63    0.74
   4   9  -6    4.74    4.12
  -4  -9   6    4.44    4.59
  -4   9   5    0.22    1.92
   4   9  -5   -2.40    2.01
  -4   9   5    0.82    0.46
   4  -9  -5    1.27    0.45
   4  -9  -5    3.67    2.42
  -4  -9   5   -0.06    0.19
  -4  -9   5   -3.36    2.15
  -4  -9   5    0.61    0.24
  -4   9   4    8.80    3.20
   4   9  -4    5.39    3.49
  -4   9   4    7.31    1.03
   4  -9  -4    8.50    0.77
  -4  -9   4    3.18    3.31
  -4  -9   4    6.52    0.50
   4  -9  -4    4.84    2.64
   4   9  -3  152.78   12.97
  -4   9   3  165.21    5.11
   4   9  -3  159.72    5.14
  -4   9   3  153.06    5.05
  -4   9   3  162.98    9.94
  -4  -9   3  161.92    4.66
   4  -9  -3  169.03   10.43
   4  -9  -3  159.76    4.88
  -4  -9   3  159.49   13.53
   4   9  -2    6.64    0.70
   4   9  -2    7.31    0.72
  -4   9   2    6.03    0.67
  -4   9   2    4.50    1.75
  -4   9   2    7.24    0.69
   4   9  -2    2.25    2.45
   4  -9  -2    7.50    0.66
  -4  -9   2    7.11    3.34
  -4  -9   2    7.38    0.55
  -4  -9   2    7.31    0.80
   4  -9  -2    7.32    0.59
   4  -9  -2    5.75    1.94
   4   9  -1   74.83    2.72
  -4   9   1   77.26    2.21
  -4   9   1   72.19    4.62
   4   9  -1   71.85    2.47
   4   9  -1   79.93    8.13
  -4   9   1   73.21    2.71
  -4   9   1   73.16    2.59
   4   9  -1   72.38    8.73
   4   9  -1   76.61    2.76
  -4   9   1   78.77    2.31
   4  -9  -1   76.62    2.47
  -4  -9   1   75.17    2.50
   4  -9  -1   75.02    2.58
  -4  -9   1   75.78    2.76
   4  -9  -1   83.49    5.45
  -4  -9   1   67.51    2.78
   4   9   0    0.23    0.23
   4   9   0    0.37    0.28
  -4   9   0    0.05    0.24
   4   9   0   -0.42    0.20
  -4   9   0    0.12    0.20
  -4   9   0    0.27    0.58
   4   9   0   -0.10    2.02
  -4   9   0   -0.16    0.43
   4   9   0   -1.63    1.95
  -4  -9   0   -0.03    0.23
  -4  -9   0    0.01    0.32
   4  -9   0    0.30    0.16
   4  -9   0    0.37    0.27
  -4  -9   0    0.11    0.25
   4   9   1   85.74    8.22
   4   9   1   75.21    2.67
   4   9   1   80.99    2.81
  -4   9  -1   78.44    3.55
  -4   9  -1   77.37    2.46
  -4   9  -1   82.18    2.78
   4   9   1   78.56    2.99
   4   9   1   69.86   10.05
  -4   9  -1   71.58    3.30
  -4  -9  -1   79.34    2.86
  -4  -9  -1   75.58    2.70
   4  -9   1   79.25    2.66
  -4  -9  -1   73.89    2.89
   4   9   2    5.68    0.64
   4   9   2    5.31    2.66
   4   9   2    5.00    0.63
  -4   9  -2    5.92    0.40
  -4   9  -2    6.57    0.64
   4   9   2    6.62    0.69
  -4   9  -2    5.87    1.27
  -4  -9  -2    4.48    2.90
  -4  -9  -2    6.31    0.70
  -4  -9  -2    5.90    0.65
  -4  -9  -2    5.97    0.62
   4   9   3   12.05    0.95
  -4   9  -3   14.91    2.28
   4   9   3   13.42    0.97
   4   9   3   13.07    3.99
  -4  -9  -3    9.22    3.65
   4  -9   3   11.30    2.59
  -4  -9  -3   13.06    0.88
  -4  -9  -3   14.25    1.02
   4   9   4   17.72    5.39
   4   9   4   17.71    1.17
   4   9   4   19.17    1.22
  -4   9  -4   20.62    3.00
  -4  -9  -4   18.32    1.13
   4  -9   4   23.57    3.70
  -4  -9  -4   21.10    1.28
  -4  -9  -4   24.47    5.75
   4   9   5    0.10    0.41
  -4   9  -5    3.08    1.92
   4   9   5    1.42    0.44
   4   9   5   -2.67    3.50
   4  -9   5    1.42    2.35
  -4  -9  -5    0.85    0.51
  -4  -9  -5    1.69    0.48
  -4  -9  -5   -2.75    3.48
   4   9   6   12.00    5.34
   4   9   6   14.99    1.19
  -4   9  -6   17.64    4.41
  -4   9  -6   16.30    1.28
   4  -9   6   10.24    4.42
  -4  -9  -6    7.24    5.06
  -4  -9  -6   14.66    1.13
  -4  -9  -6   15.85    1.29
  -4  10   6   14.06    1.28
   4  10  -6   17.32    5.62
   4 -10  -6   14.79    1.17
  -4 -10   6   10.04    5.47
   4  10  -5   -1.69    2.56
  -4  10   5    6.32    0.90
  -4  10   5   -0.66    1.99
  -4 -10   5    2.09    3.21
   4 -10  -5    5.55    0.78
   4 -10  -5    3.29    2.98
  -4  10   4   16.07    1.20
   4  10  -4   17.54    5.26
   4 -10  -4   17.42    1.10
  -4 -10   4    7.51    3.98
   4 -10  -4   22.26    5.53
  -4 -10   4   16.44    0.80
   4  10  -3   -0.15    2.39
  -4  10   3    2.15    0.49
  -4  10   3    1.70    0.45
   4 -10  -3    1.26    1.52
   4 -10  -3    2.90    0.55
  -4 -10   3    1.92    0.33
  -4 -10   3    3.30    3.11
  -4  10   2    7.59    0.78
   4  10  -2    7.95    0.84
   4  10  -2    7.29    0.61
   4  10  -2    5.67    3.30
   4  10  -2    7.51    0.78
  -4  10   2    6.84    1.78
  -4  10   2    7.47    0.76
  -4 -10   2    8.14    0.59
  -4 -10   2    6.87    0.83
   4 -10  -2    3.78    1.64
   4 -10  -2    8.04    0.71
   4 -10  -2    7.25    0.61
   4  10  -1    4.57    2.89
   4  10  -1    6.58    0.60
  -4  10   1    6.89    0.48
  -4  10   1    5.62    0.62
   4  10  -1    3.59    2.21
   4  10  -1    6.03    0.69
   4  10  -1    7.49    0.71
  -4  10   1    7.00    0.74
  -4  10   1    4.61    1.43
  -4 -10   1    5.54    0.56
   4 -10  -1    6.94    0.67
  -4 -10   1    6.28    0.73
  -4 -10   1    6.70    0.89
   4 -10  -1    5.88    0.53
  -4  10   0  148.12    4.61
   4  10   0  149.76   13.51
   4  10   0  154.15   11.65
  -4  10   0  146.61    4.38
  -4  10   0  144.09    6.82
   4  10   0  140.01    4.40
   4  10   0  142.65    4.61
  -4  10   0  133.83    6.08
   4  10   0  140.57    4.60
  -4  10   0  142.48    4.37
   4 -10   0  148.42    4.48
  -4 -10   0  145.71    4.81
   4 -10   0  137.28    4.21
  -4 -10   0  147.17    4.60
  -4  10  -1   49.18    1.74
  -4  10  -1   51.47    2.04
   4  10   1   43.83    6.26
   4  10   1   48.20    2.03
   4  10   1   46.85    2.03
  -4  10  -1   47.64    2.75
  -4  10  -1   50.02    3.00
   4  10   1   47.97    1.94
   4 -10   1   49.85    1.93
  -4 -10  -1   46.63    1.95
  -4 -10  -1   46.05    2.07
  -4 -10  -1   47.98    1.94
   4  10   2   48.32    2.10
  -4  10  -2   49.67    3.43
   4  10   2   44.22    6.41
  -4  10  -2   48.99    2.03
   4  10   2   47.60    2.01
  -4  10  -2   48.24    1.60
  -4  10  -2   48.98    3.37
  -4 -10  -2   49.64    1.97
  -4 -10  -2   46.81    7.05
  -4 -10  -2   49.33    2.11
   4  10   3    1.49    0.45
   4  10   3    1.50    2.31
  -4  10  -3    4.02    1.43
  -4 -10  -3    2.24    0.55
   4 -10   3    1.66    1.35
  -4 -10  -3    1.49    2.06
  -4 -10  -3    2.88    0.53
   4  10   4    0.26    0.33
  -4  10  -4    1.42    1.43
   4  10   4   -2.40    2.29
   4  10   4    0.38    0.41
  -4 -10  -4    4.62    2.74
   4 -10   4   -0.84    1.56
  -4 -10  -4    0.69    0.43
  -4 -10  -4    0.09    0.31
  -4  10  -5    5.20    2.34
   4  10   5    1.53    4.17
   4  10   5    4.82    0.73
  -4 -10  -5    2.90    3.59
   4 -10   5    3.63    2.91
  -4 -10  -5    3.49    0.68
   4  10   6    1.65    7.26
   4  10   6   22.42    1.48
  -4  10  -6   19.64    1.84
  -4  10  -6   16.91    4.33
   4 -10   6   16.47    5.26
  -4 -10  -6   10.43    7.70
  -4 -10  -6   21.57    2.43
   4  11  -6    2.58    4.46
  -4  11   6    5.37    1.03
  -4 -11   6    5.27    5.53
   4 -11  -6    3.32    0.69
   4  11  -5    8.14    3.91
  -4  11   5    0.99    0.53
  -4 -11   5   -3.60    3.04
   4 -11  -5    2.25    0.59
  -4 -11   5    1.98    0.32
   4  11  -4    2.03    2.32
  -4  11   4    0.69    0.47
  -4  11   4    1.87    1.94
   4 -11  -4    1.61    1.78
  -4 -11   4    2.89    2.99
   4 -11  -4    0.83    0.45
  -4 -11   4    1.01    0.28
   4  11  -3    6.18    3.43
  -4  11   3   11.57    1.01
  -4 -11   3   12.70    4.84
   4 -11  -3   16.45    3.80
  -4 -11   3   12.28    0.74
   4 -11  -3   12.82    0.97
  -4  11   2    0.55    0.34
   4  11  -2   -0.20    0.21
  -4  11   2   -0.54    0.30
   4  11  -2   -0.01    2.22
   4  11  -2   -2.60    1.33
   4 -11  -2   -0.91    0.94
   4 -11  -2    0.85    0.36
  -4 -11   2    0.36    0.24
  -4 -11   2    0.08    0.37
   4  11  -1   38.18    8.19
  -4  11   1   39.43    1.90
  -4  11   1   43.44    3.74
   4  11  -1   39.47    1.86
   4  11  -1   42.71    1.69
  -4  11   1   41.39    1.79
  -4  11   1   44.30    1.54
  -4  11   1   50.98    5.14
   4  11  -1   51.01    6.84
  -4 -11   1   40.48    1.90
  -4 -11   1   39.60    1.93
  -4 -11   1   43.14    2.07
   4 -11  -1   38.30    1.75
   4 -11  -1   41.67    1.63
   4  11   0   19.15    4.96
  -4  11   0   19.64    1.18
  -4  11   0   19.73    1.05
   4  11   0   11.81    4.62
   4  11   0   18.67    1.16
  -4  11   0   20.53    2.41
  -4  11   0   18.38    0.99
   4  11   0   18.91    1.07
  -4  11   0   14.79    1.91
  -4 -11   0   19.41    1.35
   4 -11   0   21.19    1.14
  -4 -11   0   17.70    1.15
   4 -11   0   18.63    0.91
  -4 -11   0   19.32    1.07
  -4  11  -1    0.47    0.25
  -4  11  -1   -0.15    0.22
   4  11   1    0.05    0.31
   4  11   1    1.50    2.09
  -4  11  -1   -0.02    0.49
  -4  11  -1    0.63    0.67
  -4  11  -1    0.22    0.28
   4  11   1    0.27    0.32
   4  11   1   -1.19    2.53
  -4 -11  -1    0.17    0.30
  -4 -11  -1   -0.11    0.35
   4 -11   1    0.20    0.31
  -4  11  -2   16.77    0.77
  -4  11  -2   16.69    1.98
   4  11   2   17.26    1.13
   4  11   2   23.79    5.58
   4  11   2   15.54    1.47
  -4 -11  -2   15.54    1.03
  -4 -11  -2   16.24    1.18
  -4 -11  -2   17.36    5.17
   4  11   3   -0.05    2.31
   4  11   3    0.76    0.42
   4  11   3    0.66    0.39
  -4 -11  -3    0.22    0.29
  -4 -11  -3   -0.21    0.35
  -4 -11  -3   -0.52    2.62
   4  11   4    8.66    4.32
  -4  11  -4    5.90    2.87
   4  11   4    8.56    0.93
   4  11   4    7.19    0.83
   4 -11   4    7.88    3.08
  -4 -11  -4    9.14    3.84
  -4 -11  -4    7.90    0.93
  -4 -11  -4    8.12    0.81
  -4  11  -5    1.76    2.81
   4  11   5    2.39    0.61
  -4 -11  -5    0.80    4.33
  -4 -11  -5    1.61    0.50
   4 -11   5   -2.92    4.04
  -4 -11  -5    2.09    0.59
  -4  11  -6    7.51    0.98
   4  11   6    7.14    5.91
  -4  11  -6    2.71    4.66
   4  11   6    5.18    0.86
  -4 -11  -6    5.54    0.87
  -4 -11  -6    4.73    0.78
  -4 -11  -6    7.18    4.61
   4 -11   6    4.30    6.28
  -4  12   5    0.44    0.50
   4  12  -5    0.13    3.43
   4 -12  -5    0.79    0.44
  -4 -12   5    2.04    4.18
   4  12  -4   -0.11    2.99
  -4  12   4    1.52    0.58
  -4 -12   4    3.76    4.05
   4 -12  -4    2.68    0.62
  -4 -12   4    2.40    0.37
   4  12  -3    4.68    3.63
  -4  12   3    2.57    0.60
  -4 -12   3    4.94    3.91
   4 -12  -3    1.76    1.76
   4 -12  -3    2.80    0.75
  -4 -12   3    2.77    0.42
   4  12  -2   12.55    4.58
   4  12  -2   12.09    4.65
  -4  12   2   13.10    1.02
   4  12  -2   13.29    0.84
  -4 -12   2    9.37    1.06
   4 -12  -2   16.34    3.48
   4 -12  -2   13.66    1.02
  -4 -12   2   12.48    0.82
  -4  12   1    7.55    0.75
   4  12  -1    3.64    2.66
  -4  12   1    5.07    2.23
   4  12  -1   10.42    4.30
  -4  12   1    6.26    1.83
   4  12  -1    6.01    0.66
  -4 -12   1    6.83    0.65
  -4 -12   1    7.25    0.91
   4 -12  -1    6.81    0.60
   4 -12  -1    6.93    0.75
   4  12   0   -2.30    2.12
   4  12   0    3.52    0.60
  -4  12   0    3.90    0.56
  -4  12   0    4.35    0.52
   4  12   0    2.45    0.50
  -4  12   0    3.31    1.18
   4  12   0    7.37    3.46
  -4  12   0    4.68    1.45
  -4 -12   0    2.99    0.58
   4 -12   0    3.49    0.50
   4 -12   0    3.06    0.56
  -4 -12   0    2.65    0.65
   4  12   1    0.27    0.36
  -4  12  -1    0.80    0.30
  -4  12  -1    0.76    0.79
   4  12   1   -1.64    1.82
  -4  12  -1    0.07    0.31
  -4  12  -1    0.67    0.65
   4  12   1   -0.50    2.55
   4  12   1    0.19    0.35
  -4 -12  -1    0.77    0.39
   4 -12   1    0.24    0.35
  -4  12  -2   15.21    1.99
  -4  12  -2   18.89    2.19
   4  12   2   13.52    3.98
   4  12   2   14.91    1.14
  -4  12  -2   15.26    0.77
   4  12   2   15.67    1.14
  -4 -12  -2   15.61    1.22
  -4 -12  -2   14.89    1.04
  -4  12  -3    9.53    2.00
  -4  12  -3   11.36    2.43
   4  12   3    8.95    0.93
   4  12   3   11.53    1.04
   4  12   3   13.63    5.13
  -4 -12  -3   15.41    1.20
  -4 -12  -3   15.85    4.47
  -4 -12  -3   12.33    0.92
  -4  12  -4   -1.36    1.16
   4  12   4    0.59    0.45
   4  12   4   -0.34    0.40
   4 -12   4    2.30    2.23
  -4 -12  -4    0.38    0.38
  -4 -12  -4    0.24    3.43
  -4 -12  -4    0.31    0.43
   4  12   5    5.47    5.21
  -4  12  -5   15.86    3.78
   4  12   5   17.98    1.56
   4 -12   5    8.99    3.51
  -4 -12  -5   14.47    1.41
  -4 -12  -5   16.14    1.13
  -4 -12  -5   20.82    6.22
  -4  13   5    2.52    0.75
   4  13  -5    7.83    4.83
   4 -13  -5    2.96    0.71
  -4 -13   5    2.08    5.40
   4  13  -4    2.75    3.26
  -4 -13   4    7.27    4.30
   4  13  -3   55.24    8.70
  -4  13   3   62.69    2.66
   4 -13  -3   60.56    2.50
  -4 -13   3   59.09    2.13
   4  13  -2    1.06    0.36
  -4  13   2   -1.45    1.12
   4  13  -2   -1.51    2.57
  -4  13   2    0.74    0.42
  -4 -13   2    0.17    0.45
   4 -13  -2   -0.73    1.52
  -4 -13   2    0.68    0.30
   4 -13  -2    0.76    0.45
  -4  13   1   57.98    6.14
  -4  13   1   57.79    2.13
  -4  13   1   61.18    2.42
  -4  13   1   60.96    5.00
   4  13  -1   60.18    2.28
   4  13  -1   57.92   10.62
   4 -13  -1   59.63    2.66
  -4 -13   1   61.13    2.71
  -4  13   0    0.56    1.07
  -4  13   0    0.45    0.31
   4  13   0    0.29    0.35
  -4  13   0   -0.20    0.78
   4  13   0   -3.05    2.10
  -4  13   0    0.16    0.24
   4 -13   0   -0.11    0.23
  -4 -13   0    0.26    0.35
   4 -13   0    0.78    0.43
  -4 -13   0   -0.32    0.43
  -4  13  -1    4.79    0.56
  -4  13  -1    4.03    1.26
   4  13   1    4.04    3.44
  -4  13  -1    4.41    0.68
  -4  13  -1    2.90    1.23
   4  13   1    3.11    3.25
   4  13   1    4.26    0.67
  -4 -13  -1    4.81    0.84
   4 -13   1    5.87    0.80
  -4 -13  -1    4.65    0.68
  -4  13  -2    1.55    0.35
   4  13   2    1.58    0.53
   4  13   2    2.64    0.62
  -4  13  -2    1.19    0.92
  -4  13  -2    3.07    1.14
   4  13   2    0.57    3.51
  -4 -13  -2    1.05    0.49
  -4 -13  -2    1.54    0.47
   4  13   3   17.97    5.54
   4  13   3   11.28    1.09
  -4  13  -3   17.58    2.67
  -4  13  -3   14.54    2.99
   4  13   3   18.56    1.31
  -4 -13  -3   15.66    1.30
  -4 -13  -3   15.55    1.08
  -4 -13  -3   17.40    5.60
   4  13   4   18.51    6.08
   4  13   4   16.24    1.31
  -4  13  -4   19.74    3.17
  -4 -13  -4    2.85    4.36
  -4 -13  -4   13.89    1.05
  -4 -13  -4   16.80    1.36
  -4  13  -5    9.82    3.28
   4  13   5    8.17    1.05
  -4 -13  -5    7.04    1.01
  -4 -13  -5    7.79    0.82
   4 -13   5    3.75    3.71
  -4  14   4   22.30    1.56
   4  14  -4    8.97    4.71
  -4 -14   4   17.50    0.96
   4 -14  -4   21.08    1.42
   4  14  -3    2.32    2.89
  -4  14   3    0.64    0.48
  -4 -14   3    1.25    0.36
   4 -14  -3    1.54    0.55
   4  14  -2    4.35    3.39
  -4  14   2    0.53    0.41
   4  14  -2   -0.53    0.29
   4  14  -2    4.40    3.53
   4 -14  -2    0.63    0.48
  -4 -14   2    0.67    0.53
  -4 -14   2    0.04    0.32
  -4  14   1    3.79    3.01
   4  14  -1    1.04    3.48
   4  14  -1    6.04    3.27
  -4  14   1    3.11    0.50
  -4  14   1    4.40    1.87
   4  14  -1    3.83    0.60
   4 -14  -1    4.39    0.67
  -4 -14   1    5.20    0.89
  -4  14   0    2.84    0.53
  -4  14   0    2.45    1.16
   4  14   0    1.29    0.45
  -4  14   0    2.41    0.45
   4  14   0    0.77    2.46
  -4  14   0    2.20    1.50
   4  14   0   -2.53    2.55
   4 -14   0    2.56    0.57
  -4 -14   0    1.23    0.58
   4  14   1    7.41    4.45
  -4  14  -1    9.17    1.74
  -4  14  -1   10.09    0.89
  -4  14  -1   10.50    0.79
  -4  14  -1    9.44    1.98
   4  14   1    8.68    3.78
   4  14   1   11.34    0.99
  -4 -14  -1   11.15    1.19
  -4 -14  -1   10.09    0.92
   4 -14   1   10.09    0.94
   4  14   2    5.25    3.33
  -4  14  -2    3.92    1.52
   4  14   2    5.99    5.62
   4  14   2    6.05    0.85
  -4  14  -2    4.10    1.20
  -4  14  -2    4.73    0.52
  -4 -14  -2    5.31    0.75
  -4 -14  -2    4.53    0.82
  -4  14  -3    0.63    1.32
   4  14   3    1.47    3.59
   4  14   3    1.46    0.48
  -4 -14  -3    0.13    0.39
  -4 -14  -3    0.31    0.46
   4  14   4    5.17    0.90
  -4  14  -4    4.98    2.18
  -4 -14  -4    4.43    1.16
  -4 -14  -4    6.01    0.76
  -4  15   4    7.03    1.01
   4 -15  -4    5.10    0.82
  -4  15   3    1.23    0.54
   4  15  -3    2.48    3.79
  -4 -15   3    0.26    0.36
   4 -15  -3    1.17    0.51
  -4  15   2    7.26    0.95
   4  15  -2    7.16    0.80
   4  15  -2    4.53    3.91
   4 -15  -2    7.57    0.92
  -4 -15   2    9.82    1.16
  -4  15   1    4.09    2.54
   4  15  -1    5.86    3.61
   4  15  -1    6.52    0.76
  -4  15   1    6.13    0.84
  -4  15   1    6.50    0.66
   4 -15  -1    6.86    0.85
  -4 -15   1    4.89    0.91
   4  15   0   24.56    1.43
  -4  15   0   19.72    3.15
  -4  15   0   24.89    1.41
  -4  15   0   26.62    1.85
   4 -15   0   28.69    1.55
  -4 -15   0   30.09    1.82
  -4  15  -1    0.02    0.31
  -4  15  -1   -1.49    0.98
   4  15   1    3.26    3.79
   4  15   1    0.73    0.42
  -4 -15  -1    0.35    0.52
   4 -15   1    0.13    0.40
   4  15   2   29.93    1.73
  -4  15  -2   29.69    3.13
  -4  15  -2   27.46    1.25
   4  15   2   27.00    8.19
  -4 -15  -2   27.63    1.56
  -4 -15  -2   27.68    1.82
   4  15   3    2.39    0.72
  -4 -15  -3    3.07    0.61
   4 -16  -3    0.43    0.50
   4  16  -2   -2.25    3.78
  -4  16   2    0.35    0.41
   4  16  -2    0.37    0.41
  -4  16   2   12.52    4.04
  -4 -16   2    0.62    0.88
   4 -16  -2    0.64    0.46
  -4  16   1   -1.24    2.45
   4  16  -1    1.30    3.60
  -4  16   1   -0.54    0.33
   4  16  -1   -0.07    0.38
  -4  16   1    0.16    0.37
   4 -16  -1    0.14    0.45
  -4 -16   1   -0.01    0.50
  -4  16   0   10.73    0.94
  -4  16   0    9.66    0.95
   4  16   0    8.69    0.94
  -4  16   0    6.26    2.17
   4  16   0    8.46    5.57
   4 -16   0   10.35    0.98
  -4 -16   0   12.51    1.29
   4  16   1    8.40    5.26
  -4  16  -1    0.73    0.43
   4  16   1    1.13    0.49
  -4 -16  -1    1.24    0.58
   4 -16   1    0.80    0.46
  -4  16  -2    6.94    1.77
   4  16   2    8.58    1.03
  -4  16  -2    9.39    0.71
   4  16   2    4.70    6.81
  -4 -16  -2    7.32    1.16
  -4 -16  -2    8.87    0.98
   4  17  -1    8.93    0.96
  -4  17   1    9.45    0.63
  -4  17   1    6.65    3.08
  -4  17   1    7.20    0.95
   4 -17  -1    7.86    1.11
  -4 -17   1   10.14    1.23
   4  17   0    2.87    0.63
  -4  17   0    4.71    3.05
  -4  17   0    3.48    0.64
  -4 -17   0    3.31    0.81
   4 -17   0    2.00    0.64
  -4  17  -1   -0.19    0.40
   4  17   1   -0.11    0.41
  -4 -17  -1   -0.09    0.54
  -5   0   8   28.02    1.53
   5   0  -8   26.13    7.51
   5   0  -8   26.74    1.65
   5   0  -7    0.01    0.41
  -5   0   7    1.19    3.17
  -5   0   7    0.15    0.37
   5   0  -7    1.33    3.60
   5   0  -6    3.00    0.50
   5   0  -6   -0.51    2.54
   5   0  -6    3.10    0.56
  -5   0   6    1.88    0.44
  -5   0   6   -1.05    2.32
  -5   0   5    0.51    1.59
   5   0  -5   -0.05    0.24
   5   0  -5   -1.57    1.58
  -5   0   5    0.02    0.24
   5   0  -5    0.18    0.22
  -5   0   4   12.22    3.63
  -5   0   4   10.46    0.73
   5   0  -4   11.62    3.37
   5   0  -4   11.91    0.70
  -5   0   3   -0.95    0.76
  -5   0   3   -0.07    0.17
   5   0  -3   -1.02    0.65
   5   0  -3    0.03    0.13
   5   0  -2   60.73    5.55
   5   0  -2   67.00    2.04
  -5   0   2   62.64    2.07
  -5   0   2   57.44    5.24
  -5   0   1    0.51    0.76
   5   0  -1   -0.24    0.44
   5   0  -1    0.18    0.13
  -5   0   1    0.03    0.14
  -5   0   0    2.59    0.33
   5   0   0    2.49    0.28
   5   0   0    1.84    1.12
   5   0   0    3.83    1.48
  -5   0  -1    0.13    0.13
  -5   0  -1    0.16    0.64
  -5   0  -1    0.13    0.15
   5   0   1    1.25    0.83
  -5   0  -1    0.02    0.10
   5   0   1    0.07    0.12
  -5   0  -2    2.58    0.41
  -5   0  -2    4.09    0.35
   5   0   2    3.58    0.33
  -5   0  -2    4.00    1.36
   5   0   2    1.72    1.09
   5   0   2    3.24    0.38
   5   0   3   -0.01    0.15
  -5   0  -3    0.35    0.17
  -5   0  -3    0.60    0.89
  -5   0  -3    0.06    0.19
  -5   0  -3   -0.06    0.17
   5   0   3   -0.07    0.14
  -5   0  -4  275.38    7.96
  -5   0  -4  275.76    7.74
   5   0   4  273.32   15.27
  -5   0  -4  277.50   14.16
  -5   0  -4  273.98    8.11
   5   0   4  282.75    7.80
   5   0   5    0.15    0.21
  -5   0  -5    0.11    0.20
  -5   0  -5   -0.05    0.29
  -5   0  -5    0.64    1.33
  -5   0  -5    0.09    0.28
   5   0   5    1.61    2.10
  -5   0  -6   11.33    1.05
   5   0   6   13.07    0.76
  -5   0  -6   12.75    1.07
  -5   0  -6   12.21    3.75
  -5   0  -6   12.74    0.80
   5   0   6   11.10    4.66
  -5   0  -7   -0.68    0.29
  -5   0  -7    0.30    0.41
  -5   0  -7   -2.58    2.60
   5   0   7    0.26    3.37
  -5   0  -7   -0.24    0.31
   5   0   7    0.20    0.27
  -5   1   8   37.89    1.84
  -5   1   8   13.74    7.70
   5   1  -8   16.97    6.48
   5   1  -8   34.90    1.92
  -5  -1   8   31.11    1.64
  -5  -1   8   32.01    8.93
   5  -1  -8   38.94    1.83
   5  -1  -8   36.60    1.93
   5  -1  -8   26.82    8.44
   5   1  -7    1.17    0.50
  -5   1   7    1.41    0.50
   5   1  -7   -1.96    3.53
  -5   1   7    0.35    2.88
   5  -1  -7    6.19    4.32
   5  -1  -7    1.98    0.56
  -5  -1   7    6.48    4.26
  -5  -1   7    2.69    0.51
  -5   1   6    0.46    2.31
   5   1  -6    1.28    0.42
  -5   1   6    2.01    0.47
   5   1  -6    3.06    2.77
   5  -1  -6    1.78    0.47
   5  -1  -6    1.21    0.36
   5  -1  -6    2.20    2.59
  -5  -1   6    1.80    0.43
   5   1  -5   15.94    4.44
   5   1  -5   12.84    0.85
  -5   1   5   12.24    0.87
  -5  -1   5   13.22    3.98
   5  -1  -5   12.48    0.78
   5  -1  -5   11.83    0.83
  -5  -1   5   13.57    0.84
   5   1  -4   19.85    4.49
  -5   1   4   19.86    1.03
   5   1  -4   18.57    0.98
  -5   1   4   23.10    4.69
   5  -1  -4   19.48    0.90
   5  -1  -4   19.11    4.53
  -5  -1   4   16.65    4.11
  -5  -1   4   18.94    0.97
   5  -1  -4   19.55    0.93
  -5   1   3   22.07    4.22
   5   1  -3   31.42    4.59
  -5   1   3   27.22    1.19
   5   1  -3   29.13    1.18
   5  -1  -3   25.56    4.06
  -5  -1   3   24.34    3.86
   5  -1  -3   29.02    1.10
   5  -1  -3   28.38    1.06
  -5   1   2  375.39   15.49
   5   1  -2  381.04   10.29
   5   1  -2  380.77   17.00
  -5   1   2  365.62   10.12
   5  -1  -2  365.86   15.77
  -5  -1   2  363.82   10.23
   5  -1  -2  370.01   10.07
   5  -1  -2  365.09    9.94
  -5  -1   2  386.44   16.81
   5   1  -1   32.09    3.93
   5   1  -1   33.21    1.24
  -5   1   1   33.92    3.47
   5   1  -1   32.81    1.03
  -5   1   1   35.66    1.27
   5  -1  -1   34.85    1.19
  -5  -1   1   34.00    4.13
  -5  -1   1   34.30    1.32
   5  -1  -1   31.11    3.23
   5   1   0    9.51    0.59
   5   1   0    8.96    2.55
  -5   1   0    9.11    0.56
   5   1   0    8.98    0.35
   5  -1   0    9.75    0.52
   5  -1   0    8.40    1.92
  -5  -1   0    8.14    0.39
   5  -1   0    9.00    1.89
  -5  -1   0    8.86    0.58
  -5   1  -1   18.15    0.86
   5   1   1   17.46    0.75
  -5   1  -1   16.78    0.73
   5   1   1   16.97    0.84
  -5   1  -1   18.57    2.20
  -5  -1  -1   16.77    0.83
  -5  -1  -1   18.32    0.90
  -5  -1  -1   16.60    2.58
  -5  -1  -1   16.49    0.68
   5  -1   1   18.31    0.84
   5  -1   1   19.16    2.38
  -5   1  -2   18.34    0.95
  -5   1  -2   19.83    0.81
  -5   1  -2   18.15    2.41
   5   1   2   18.89    0.95
   5   1   2   20.33    0.84
   5  -1   2   17.75    0.91
  -5  -1  -2   18.66    0.83
  -5  -1  -2   19.32    2.76
  -5  -1  -2   18.18    0.84
   5  -1   2   22.30    2.98
  -5  -1  -2   19.06    1.02
  -5   1  -3    7.93    2.13
   5   1   3    7.59    0.61
   5   1   3    8.40    0.54
  -5   1  -3    6.92    0.61
   5   1   3    9.81    2.93
   5  -1   3    7.89    2.28
  -5  -1  -3    7.01    0.63
  -5  -1  -3    7.33    0.58
  -5  -1  -3    7.72    0.53
  -5  -1  -3    8.10    2.32
   5  -1   3    8.32    0.47
  -5   1  -4  133.12    4.20
   5   1   4  134.94   10.34
  -5   1  -4  130.78    8.89
  -5   1  -4  129.31    4.28
  -5   1  -4  135.83    3.93
   5   1   4  135.45    3.95
  -5  -1  -4  137.84    9.50
  -5  -1  -4  131.94    4.32
  -5  -1  -4  131.61    4.18
   5  -1   4  132.23    3.83
  -5  -1  -4  133.54    4.03
  -5   1  -5    2.87    1.77
   5   1   5    1.91    2.17
  -5   1  -5    2.04    0.47
  -5   1  -5    2.16    0.53
   5   1   5    2.38    0.38
  -5   1  -5    2.79    0.37
   5  -1   5    3.11    0.45
  -5  -1  -5    1.45    0.44
   5  -1   5    3.23    2.27
  -5  -1  -5    1.99    0.50
  -5  -1  -5    1.09    0.31
  -5  -1  -5    5.27    2.38
   5   1   6   19.30    5.66
  -5   1  -6   17.28    4.45
   5   1   6   19.13    1.01
  -5   1  -6   20.82    1.36
  -5   1  -6   20.44    1.38
  -5   1  -6   19.29    0.96
  -5  -1  -6   19.86    1.32
   5  -1   6   26.51    6.09
   5  -1   6   19.72    0.91
  -5  -1  -6   17.58    4.58
  -5  -1  -6   19.41    1.05
  -5  -1  -6   19.58    1.34
   5   1   7   33.53    1.45
   5   1   7   33.44    8.76
  -5   1  -7   32.27    1.35
  -5   1  -7   32.89    1.91
  -5   1  -7   31.45    1.85
  -5   1  -7   27.25    6.32
   5  -1   7   31.95    1.27
  -5  -1  -7   33.75    1.89
  -5  -1  -7   31.86    1.88
   5  -1   7   27.14    6.66
  -5  -1  -7   33.32    7.42
   5   2  -8    0.28    0.45
  -5   2   8   -3.99    4.02
  -5   2   8   -0.12    0.41
   5   2  -8    7.45    5.94
   5  -2  -8    0.04    4.86
   5  -2  -8    0.19    0.47
   5  -2  -8   -0.19    0.37
  -5  -2   8   -6.19    4.36
  -5   2   7   35.12    1.76
   5   2  -7   22.41    6.60
  -5   2   7   33.37    7.45
  -5  -2   7   35.62    1.59
   5  -2  -7   36.66    1.79
   5  -2  -7   26.10    6.13
  -5  -2   7   39.80    8.74
   5  -2  -7   34.48    1.60
  -5   2   6    2.00    2.62
  -5   2   6    4.18    0.64
   5   2  -6   -0.81    2.75
   5  -2  -6    4.07    0.64
  -5  -2   6    5.24    3.70
   5  -2  -6    4.44    0.53
   5  -2  -6    3.25    2.26
  -5  -2   6    4.29    0.57
  -5   2   5  472.65   13.09
   5   2  -5  455.40   23.98
   5   2  -5  441.59   13.49
  -5   2   5  446.80   22.26
   5  -2  -5  513.24   24.09
  -5  -2   5  490.53   23.88
   5  -2  -5  471.11   12.94
   5  -2  -5  466.45   12.81
  -5  -2   5  467.77   12.90
  -5   2   4    3.17    1.63
   5   2  -4    0.98    0.31
   5   2  -4    1.92    1.80
  -5   2   4    0.79    0.31
  -5  -2   4    0.50    0.23
  -5  -2   4   -0.68    1.05
   5  -2  -4    0.54    0.26
  -5   2   3  200.98   11.25
   5   2  -3  204.27    5.97
  -5   2   3  204.29    5.98
   5   2  -3  215.30   13.28
  -5  -2   3  208.58   12.45
   5  -2  -3  196.29   11.52
   5  -2  -3  217.48    5.77
   5  -2  -3  204.23    5.77
  -5   2   2   24.74    1.06
  -5   2   2   26.89    0.97
   5   2  -2   25.76    1.09
  -5   2   2   29.43    3.38
   5   2  -2   24.63    0.92
   5   2  -2   21.27    4.12
   5  -2  -2   24.01    0.85
  -5  -2   2   27.33    3.93
   5  -2  -2   26.53    3.27
   5  -2  -2   23.80    0.90
  -5  -2   2   25.63    1.12
   5   2  -1   25.50    0.91
  -5   2   1   29.11    1.06
  -5   2   1   23.74    2.63
   5   2  -1   29.99    3.93
   5   2  -1   26.99    1.09
  -5  -2   1   27.03    1.14
   5  -2  -1   27.10    0.96
   5  -2  -1   27.23    0.81
  -5  -2   1   27.42    4.08
   5  -2  -1   22.89    2.59
   5   2   0    0.20    0.14
  -5   2   0    0.19    0.14
  -5   2   0    0.02    0.08
   5   2   0   -0.89    0.48
   5   2   0    0.12    0.09
   5   2   0    0.00    1.05
  -5  -2   0    0.17    0.13
  -5  -2   0    0.04    0.15
   5  -2   0    0.78    0.55
   5  -2   0    0.06    0.11
  -5  -2   0    0.02    0.12
   5  -2   0    0.13    0.46
  -5   2  -1  220.08    6.17
   5   2   1  215.39    5.94
   5   2   1  196.12   11.42
   5   2   1  223.90    6.23
  -5   2  -1  211.16    8.61
   5   2   1  218.08    6.05
  -5  -2  -1  215.27    6.08
   5  -2   1  218.25    6.13
  -5  -2  -1  199.01   10.71
  -5  -2  -1  223.35    5.99
  -5  -2  -1  224.28    6.27
   5  -2   1  220.89    8.77
  -5   2  -2   43.86    1.45
   5   2   2   44.22    1.55
  -5   2  -2   43.77    1.67
  -5   2  -2   45.96    3.64
   5   2   2   45.34    4.95
   5   2   2   43.71    1.69
  -5  -2  -2   44.93    1.55
  -5  -2  -2   49.50    4.81
  -5  -2  -2   43.33    1.71
  -5  -2  -2   41.93    1.56
   5  -2   2   43.91    3.83
   5   2   3    4.45    1.99
  -5   2  -3    2.92    0.44
   5   2   3    3.02    0.40
   5   2   3    2.82    0.45
  -5   2  -3    2.51    0.30
  -5   2  -3    1.32    1.18
   5  -2   3    2.16    1.19
  -5  -2  -3    2.45    0.40
  -5  -2  -3    2.87    0.46
  -5  -2  -3    1.67    1.43
  -5  -2  -3    3.43    0.40
  -5   2  -4   20.94    3.20
  -5   2  -4   19.31    0.88
  -5   2  -4   18.46    1.11
   5   2   4   20.29    0.97
   5   2   4   16.07    4.43
   5  -2   4   19.28    3.97
  -5  -2  -4   18.88    1.14
  -5  -2  -4   17.30    4.09
  -5  -2  -4   19.91    1.08
  -5  -2  -4   19.43    1.00
  -5   2  -5    0.91    0.38
  -5   2  -5    1.40    0.27
  -5   2  -5    0.88    1.45
   5   2   5    0.87    0.31
   5   2   5   -1.15    1.99
  -5  -2  -5    1.07    0.42
   5  -2   5   -0.48    1.45
  -5  -2  -5    0.38    1.65
  -5  -2  -5    1.01    0.41
   5  -2   5    0.52    0.21
  -5  -2  -5    0.51    0.28
  -5   2  -6    1.66    0.31
   5   2   6    1.88    0.42
  -5   2  -6    0.42    0.39
  -5   2  -6    1.34    0.51
  -5   2  -6    1.41    1.77
   5   2   6    2.88    3.20
   5  -2   6    1.18    0.26
  -5  -2  -6    0.68    2.35
   5  -2   6    2.84    3.52
  -5  -2  -6    1.89    0.42
  -5  -2  -6    0.66    0.44
  -5  -2  -6    1.27    0.51
   5   2   7    6.99    5.57
  -5   2  -7    4.15    3.14
  -5   2  -7    3.85    0.72
   5   2   7    2.87    0.54
  -5   2  -7    4.32    0.44
  -5   2  -7    3.26    0.74
  -5  -2  -7    2.61    0.66
   5  -2   7   -2.76    3.30
  -5  -2  -7    4.68    3.69
  -5  -2  -7    3.05    0.71
  -5   3   8    1.19    0.52
   5   3  -8   -4.34    5.12
  -5  -3   8    5.22    6.06
   5  -3  -8   -3.14    3.46
  -5  -3   8    1.28    0.41
   5  -3  -8    0.53    0.39
   5  -3  -8    0.64    0.51
   5   3  -7   -0.44    4.27
  -5   3   7    1.57    0.46
   5  -3  -7    0.07    0.37
  -5  -3   7    1.13    0.38
   5  -3  -7    0.48    0.32
   5  -3  -7    1.22    3.63
   5  -3  -7    1.42    0.51
  -5  -3   7    2.59    3.95
  -5   3   6    2.49    2.58
   5   3  -6    2.75    3.00
  -5   3   6    2.83    0.60
   5  -3  -6    1.74    2.77
  -5  -3   6    0.52    2.70
  -5  -3   6    3.48    0.50
   5  -3  -6    3.62    0.46
   5  -3  -6    3.55    0.60
   5   3  -5    1.89    0.42
  -5   3   5    1.80    0.46
  -5   3   5    4.96    2.20
   5   3  -5   -0.19    2.23
   5  -3  -5    1.35    2.39
   5  -3  -5    1.69    0.41
   5  -3  -5    1.51    0.30
  -5  -3   5    3.59    2.58
  -5  -3   5    2.32    0.41
  -5   3   4    9.89    4.64
   5   3  -4    9.32    3.27
  -5   3   4    8.61    0.72
   5   3  -4    8.63    0.71
  -5  -3   4   11.09    3.55
   5  -3  -4    9.18    0.63
   5  -3  -4    3.74    2.66
   5  -3  -4    9.15    0.52
  -5   3   3    1.24    1.10
   5   3  -3    0.29    0.22
   5   3  -3    0.94    1.40
  -5   3   3    0.58    0.25
   5   3  -3    0.12    0.17
  -5  -3   3    1.87    1.63
   5  -3  -3    0.24    0.17
   5  -3  -3    1.30    1.16
   5  -3  -3    0.37    0.14
   5   3  -2    5.36    2.25
  -5   3   2    3.83    0.40
   5   3  -2    3.62    0.34
  -5   3   2    3.40    1.35
  -5   3   2    4.31    0.30
   5   3  -2    4.04    0.41
   5  -3  -2    2.76    1.25
   5  -3  -2    4.29    0.31
   5  -3  -2    3.86    0.26
  -5  -3   2    1.87    1.48
  -5  -3   2    3.72    0.43
   5   3  -1    5.78    0.37
  -5   3   1    5.74    0.39
  -5   3   1    5.20    0.29
   5   3  -1    3.03    1.78
   5   3  -1    4.30    0.41
  -5   3   1    4.45    1.25
   5  -3  -1    4.79    0.31
  -5  -3   1    4.75    2.32
  -5  -3   1    4.91    0.39
   5  -3  -1    4.18    1.14
   5  -3  -1    5.07    0.28
  -5  -3   1    4.93    0.36
  -5  -3   1    5.09    0.46
  -5   3   0    2.06    0.22
   5   3   0    2.12    0.25
   5   3   0    2.07    0.32
   5   3   0    1.55    1.33
   5   3   0    1.96    0.28
  -5   3   0    2.11    0.29
   5   3   0    4.31    2.10
   5  -3   0    0.96    0.52
  -5  -3   0    1.60    0.26
   5  -3   0    1.81    0.25
  -5  -3   0    2.11    0.35
  -5  -3   0    1.60    0.25
   5  -3   0    1.05    0.59
  -5   3  -1  270.01    7.52
   5   3   1  263.10    7.35
  -5   3  -1  269.08    7.29
   5   3   1  259.17   14.06
   5   3   1  270.72    7.46
  -5   3  -1  259.82    9.44
   5   3   1  266.87    7.60
  -5  -3  -1  274.86    7.65
  -5  -3  -1  263.39    7.48
  -5  -3  -1  265.54   13.38
  -5  -3  -1  277.98    7.43
   5  -3   1  277.67    9.48
   5   3   2  104.81    8.40
   5   3   2  101.36    3.07
   5   3   2   98.96    3.28
  -5   3  -2  100.66    3.21
  -5   3  -2   99.95    2.95
  -5   3  -2   95.56    5.32
   5   3   2  103.31    3.13
   5  -3   2  103.39    5.87
  -5  -3  -2  103.05    3.12
  -5  -3  -2  106.01    7.69
  -5  -3  -2  106.93    3.33
  -5  -3  -2   97.32    3.13
   5   3   3    0.72    0.27
  -5   3  -3    0.78    0.75
   5   3   3    1.27    0.33
   5   3   3   -0.42    1.15
  -5   3  -3    1.21    0.21
  -5   3  -3    1.08    0.29
  -5  -3  -3    1.46    0.35
   5  -3   3    0.54    1.01
  -5  -3  -3    1.19    0.30
  -5  -3  -3    0.14    0.85
  -5  -3  -3    1.04    0.27
   5   3   4  111.89    9.89
   5   3   4  102.42    3.57
  -5   3  -4  106.10    7.52
  -5   3  -4  107.67    3.11
  -5   3  -4  105.73    3.60
   5   3   4  108.99    3.39
  -5  -3  -4  105.70    3.44
  -5  -3  -4  110.17    8.95
  -5  -3  -4  107.36    3.64
  -5  -3  -4  108.41    3.53
   5  -3   4  110.99    8.45
  -5   3  -5    0.51    0.18
   5   3   5    1.36    2.64
  -5   3  -5    0.59    0.36
  -5   3  -5    2.36    1.55
   5   3   5    0.34    0.29
  -5  -3  -5    0.77    0.38
  -5  -3  -5    1.27    1.72
  -5  -3  -5    0.03    0.34
   5  -3   5    0.02    1.59
  -5  -3  -5    0.52    0.31
  -5   3  -6   14.98    4.18
  -5   3  -6   27.19    1.59
   5   3   6   28.32    1.35
   5   3   6   20.97    5.70
  -5  -3  -6   26.55    1.56
  -5  -3  -6   27.60    6.39
   5  -3   6   22.19    5.92
  -5  -3  -6   28.88    1.61
   5   3   7   66.78    2.50
   5   3   7   60.45   11.16
  -5   3  -7   60.38    7.77
  -5   3  -7   67.43    2.96
  -5   3  -7   64.02    2.90
  -5  -3  -7   60.24    9.22
  -5  -3  -7   69.03    2.91
  -5  -3  -7   67.45    2.90
   5   4  -7    3.93    5.08
  -5   4   7    9.32    4.49
  -5   4   7    8.60    0.95
  -5  -4   7   11.07    0.79
   5  -4  -7    7.76    0.68
   5  -4  -7    9.49    4.28
  -5  -4   7    2.81    4.39
   5  -4  -7   10.77    0.96
   5  -4  -7   10.57    0.74
   5   4  -6   10.58    4.57
  -5   4   6    6.56    3.35
  -5   4   6    4.94    0.72
   5  -4  -6    6.61    0.74
   5  -4  -6    6.49    0.53
  -5  -4   6    4.68    0.55
   5  -4  -6    7.45    3.06
  -5  -4   6    5.42    3.47
   5  -4  -6    5.24    0.49
  -5   4   5    7.40    0.77
   5   4  -5    7.91    0.85
  -5   4   5    4.92    2.48
   5   4  -5    5.02    3.04
  -5  -4   5    8.44    3.24
   5  -4  -5    4.13    2.48
   5  -4  -5    6.70    0.64
   5  -4  -5    6.23    0.46
  -5  -4   5    8.01    0.62
   5   4  -4    7.75    1.19
   5   4  -4    7.38    2.98
  -5   4   4    6.69    2.57
   5   4  -4    7.33    0.59
  -5   4   4    6.64    0.68
  -5  -4   4    6.89    2.94
   5  -4  -4    7.59    0.42
   5  -4  -4    7.50    2.66
   5  -4  -4    7.95    0.59
   5   4  -3  150.77   11.55
   5   4  -3  140.79    4.29
  -5   4   3  154.01    9.34
  -5   4   3  143.42    4.45
   5   4  -3  142.71    4.47
  -5  -4   3  138.84   10.91
   5  -4  -3  150.54    4.23
   5  -4  -3  146.12    9.25
  -5   4   2   76.92    2.15
  -5   4   2   74.34    2.47
   5   4  -2   70.71    2.37
  -5   4   2   73.73    2.29
  -5   4   2   73.20    5.29
   5   4  -2   74.76    7.49
   5   4  -2   75.89    2.54
   5  -4  -2   74.43    2.24
  -5  -4   2   77.06    7.52
   5  -4  -2   77.03    2.11
  -5  -4   2   74.97    2.58
   5  -4  -2   73.48    5.38
  -5  -4   2   76.47    2.36
   5   4  -1  121.93    3.62
  -5   4   1  118.97    5.85
  -5   4   1  127.12    3.52
  -5   4   1  122.91    3.55
  -5   4   1  125.87    3.69
   5   4  -1  120.94    9.92
   5   4  -1  125.52    3.78
   5  -4  -1  121.08    5.84
   5  -4  -1  122.49    3.49
  -5  -4   1  123.20    3.83
   5  -4  -1  127.78    3.47
  -5  -4   1  133.81   10.49
  -5  -4   1  119.46    3.64
  -5  -4   1  123.32    3.65
   5   4   0    4.79    0.44
   5   4   0    4.17    2.31
  -5   4   0    4.40    0.35
   5   4   0    3.11    2.25
   5   4   0    4.73    0.37
  -5   4   0    4.78    0.37
   5   4   0    4.21    0.40
   5  -4   0    4.59    0.31
   5  -4   0    4.73    0.52
  -5  -4   0    4.28    0.47
   5  -4   0    3.94    0.58
  -5  -4   0    4.65    0.41
  -5  -4   0    4.73    0.44
  -5   4  -1  532.30   14.65
   5   4   1  547.86   14.96
   5   4   1  537.37   14.71
   5   4   1  522.95   23.52
   5   4   1  549.75   14.98
  -5   4  -1  548.86   14.81
   5  -4   1  556.31   16.31
   5  -4   1  570.10   15.85
  -5  -4  -1  572.30   15.19
  -5  -4  -1  539.34   14.77
  -5  -4  -1  544.85   14.83
  -5  -4  -1  538.45   22.79
  -5   4  -2    0.47    0.21
  -5   4  -2    0.70    0.56
  -5   4  -2    0.59    0.16
   5   4   2    0.63    0.24
   5   4   2    0.51    0.21
   5   4   2    1.08    0.29
   5   4   2   -0.16    1.19
  -5  -4  -2    0.50    0.21
   5  -4   2    0.02    0.59
  -5  -4  -2   -0.08    0.99
  -5  -4  -2    0.72    0.26
   5   4   3   12.43    0.86
  -5   4  -3   12.38    1.99
  -5   4  -3   14.50    0.87
   5   4   3   12.67    0.78
  -5   4  -3   13.47    0.57
   5   4   3   19.52    4.50
   5   4   3   12.93    0.78
  -5  -4  -3   12.64    0.81
   5  -4   3   14.21    2.84
  -5  -4  -3   13.54    0.90
  -5  -4  -3   12.07    3.17
  -5  -4  -3   12.85    0.80
   5   4   4   67.37    2.59
  -5   4  -4   65.45    6.54
  -5   4  -4   67.95    2.59
   5   4   4   71.29    8.02
   5   4   4   69.89    2.45
  -5  -4  -4   70.27    7.20
   5  -4   4   68.83    7.66
  -5  -4  -4   71.58    2.64
  -5  -4  -4   72.28    2.57
  -5  -4  -4   71.45    2.70
   5   4   5    0.37    0.34
   5   4   5    0.39    2.25
  -5   4  -5    0.29    0.33
  -5   4  -5    0.66    1.12
  -5  -4  -5    0.28    0.34
  -5  -4  -5    0.97    0.34
  -5  -4  -5    0.38    0.36
   5  -4   5    1.53    1.66
  -5  -4  -5    0.47    1.91
   5   4   6    3.44    0.58
   5   4   6    0.95    2.58
  -5   4  -6    6.25    2.46
  -5   4  -6    3.17    0.62
   5  -4   6    4.95    3.29
  -5  -4  -6    4.05    0.69
  -5  -4  -6    3.48    2.97
  -5  -4  -6    3.75    0.68
   5   4   7    8.38    6.37
  -5   4  -7   10.87    4.40
   5   4   7    8.04    0.85
  -5   4  -7    8.14    1.02
  -5  -4  -7   17.52    5.79
  -5  -4  -7    8.86    1.01
  -5  -4  -7    9.01    1.04
   5  -4   7    7.35    5.09
  -5   5   7    0.02    0.41
   5   5  -7    5.88    4.65
  -5   5   7   -1.16    3.02
   5  -5  -7   -1.90    3.02
   5  -5  -7   -0.41    0.37
   5  -5  -7    0.11    0.28
  -5  -5   7   -1.56    4.01
  -5  -5   7    0.09    0.28
   5   5  -6   47.86    7.77
  -5   5   6   42.99    2.02
  -5   5   6   44.71    6.73
   5  -5  -6   40.99    1.45
   5  -5  -6   35.63    7.34
  -5  -5   6   42.68    8.12
  -5  -5   6   42.68    1.63
   5   5  -5    4.21    2.54
  -5   5   5    0.74    0.37
  -5   5   5    0.55    1.49
   5  -5  -5    0.40    0.17
  -5  -5   5    0.10    0.22
   5  -5  -5    0.13    0.14
   5  -5  -5   -0.02    0.27
  -5  -5   5    0.50    2.34
   5  -5  -5   -2.64    1.38
   5   5  -4    8.04    0.76
  -5   5   4    8.36    0.77
   5   5  -4    2.48    2.49
  -5   5   4    5.96    2.43
   5   5  -4    7.57    0.64
  -5  -5   4   10.44    3.50
   5  -5  -4    8.68    2.97
  -5  -5   4    8.12    0.56
   5  -5  -4    9.09    0.66
   5   5  -3    0.57    0.24
  -5   5   3   -0.59    1.02
  -5   5   3    0.30    0.19
  -5   5   3    0.17    0.22
   5   5  -3    0.17    0.20
   5   5  -3   -0.76    1.31
   5  -5  -3    1.50    0.95
  -5  -5   3    0.17    0.18
   5  -5  -3    0.50    0.24
  -5  -5   3    2.10    1.70
   5   5  -2  387.16   20.53
  -5   5   2  402.39   15.57
   5   5  -2  382.77   11.09
   5   5  -2  410.87   11.24
  -5   5   2  401.74   11.14
  -5  -5   2  395.14   11.28
  -5  -5   2  437.33   21.19
   5  -5  -2  401.98   10.89
  -5  -5   2  396.76   10.98
   5  -5  -2  424.30   15.99
  -5   5   1    0.25    0.14
   5   5  -1    0.08    0.16
  -5   5   1   -0.13    0.43
  -5   5   1    0.39    0.17
   5   5  -1    0.13    0.17
  -5   5   1    0.23    0.22
   5   5  -1    1.45    1.88
  -5  -5   1   -0.06    0.17
   5  -5  -1    0.20    0.51
   5  -5  -1   -0.03    0.14
  -5  -5   1    0.03    0.16
  -5  -5   1    0.25    0.21
  -5  -5   1   -1.50    1.14
   5   5   0   68.62    2.24
  -5   5   0   63.24    2.05
   5   5   0   63.80    2.21
  -5   5   0   62.94    2.01
   5   5   0   62.86    2.04
   5   5   0   67.52    7.22
   5   5   0   63.25    7.55
  -5   5   0   62.04    2.02
  -5  -5   0   61.32    2.10
  -5  -5   0   58.77    2.17
   5  -5   0   63.97    1.96
  -5  -5   0   65.32    2.28
  -5   5  -1   52.77    1.68
   5   5   1   54.48    1.87
  -5   5  -1   53.56    1.83
   5   5   1   55.44    6.49
   5   5   1   51.46    1.96
   5   5   1   51.11    1.79
  -5  -5  -1   52.64    1.87
  -5  -5  -1   47.76    5.72
  -5  -5  -1   52.80    1.86
  -5  -5  -1   54.66    1.99
   5   5   2   11.58    3.51
   5   5   2   15.29    0.92
  -5   5  -2   15.24    1.66
   5   5   2   14.36    0.82
  -5   5  -2   13.91    0.72
  -5   5  -2   15.42    0.83
   5   5   2   12.87    0.75
   5  -5   2   13.58    1.77
  -5  -5  -2   12.71    0.79
  -5  -5  -2   15.30    3.72
  -5  -5  -2   13.88    0.87
  -5  -5  -2   14.11    0.82
   5   5   3    1.38    1.96
  -5   5  -3    2.24    0.94
   5   5   3    0.67    0.30
  -5   5  -3    0.83    0.28
   5   5   3    0.42    0.28
   5   5   3    0.38    0.27
  -5  -5  -3    0.02    0.24
  -5  -5  -3    0.86    0.30
  -5  -5  -3    1.01    1.56
  -5  -5  -3    0.38    0.29
   5  -5   3    1.55    1.04
   5   5   4   16.20    4.60
   5   5   4   19.22    1.16
   5   5   4   20.69    1.11
  -5   5  -4   20.51    1.18
  -5   5  -4   15.82    3.24
   5  -5   4   18.58    3.73
  -5  -5  -4   21.60    4.97
  -5  -5  -4   20.16    1.11
  -5  -5  -4   21.46    1.22
  -5  -5  -4   19.49    1.16
  -5   5  -5   41.42    1.93
   5   5   5   38.82    1.75
   5   5   5   42.78    8.22
  -5   5  -5   50.76    5.57
  -5  -5  -5   40.61    1.97
   5  -5   5   39.11    5.36
  -5  -5  -5   39.84    1.91
  -5  -5  -5   41.82    6.36
  -5   5  -6    7.24    3.40
   5   5   6    7.32    0.79
  -5   5  -6    5.11    0.79
   5   5   6    0.34    3.87
  -5  -5  -6    5.50    0.83
   5  -5   6    3.11    3.22
  -5  -5  -6    7.74    3.58
  -5  -5  -6    5.83    0.85
  -5   5  -7    4.12    2.91
   5   5   7    0.00    0.38
   5   5   7   -1.88    5.10
   5  -5   7   -2.18    2.81
  -5  -5  -7    0.66    0.81
  -5  -5  -7    0.53    0.48
  -5  -5  -7   -2.38    4.01
   5   6  -7   -2.64    3.80
  -5   6   7   -5.54    4.93
  -5   6   7    1.44    0.57
  -5  -6   7    1.59    0.38
  -5  -6   7    2.41    0.38
   5  -6  -7    2.21    0.57
  -5  -6   7    1.22    4.73
   5   6  -6   14.20    5.19
  -5   6   6   15.40    1.19
   5  -6  -6   14.15    1.05
  -5  -6   6   18.35    5.78
  -5  -6   6   13.58    0.78
  -5  -6   6   14.18    0.80
   5   6  -5    2.32    2.56
  -5   6   5    1.07    1.80
   5  -6  -5   -0.05    0.31
  -5  -6   5    0.70    0.26
   5  -6  -5    0.90    1.92
  -5  -6   5    0.40    0.26
  -5  -6   5   -2.69    2.02
  -5   6   4    9.69    3.02
  -5   6   4   15.03    1.01
   5   6  -4   13.05    0.84
   5   6  -4   12.03    0.92
   5   6  -4    7.53    3.27
   5  -6  -4    6.74    2.90
   5  -6  -4   14.11    0.82
  -5  -6   4   10.00    3.82
  -5  -6   4   12.50    0.70
  -5   6   3    0.40    0.23
   5   6  -3    0.26    1.63
  -5   6   3   -0.87    0.62
  -5   6   3    0.15    0.23
   5   6  -3    0.14    0.26
   5   6  -3    0.23    0.25
   5  -6  -3    0.23    0.22
  -5  -6   3   -0.43    0.15
   5  -6  -3    0.83    1.04
  -5  -6   3   -1.35    1.47
  -5   6   2   11.12    2.30
   5   6  -2   10.83    0.72
  -5   6   2   10.76    0.65
  -5   6   2   10.51    0.72
   5   6  -2   10.81    0.76
   5   6  -2    9.14    3.32
   5  -6  -2   11.04    2.30
  -5  -6   2    9.63    0.78
  -5  -6   2   10.77    0.63
   5  -6  -2   11.38    0.63
  -5  -6   2    8.70    3.19
  -5   6   1  151.03    4.46
   5   6  -1  150.56    4.40
   5   6  -1  153.84    4.49
  -5   6   1  151.87    6.52
   5   6  -1  112.66   10.95
   5   6  -1  150.71    4.58
  -5   6   1  154.11    4.20
  -5  -6   1  163.30   13.10
  -5  -6   1  153.20    4.65
   5  -6  -1  145.85    4.32
  -5  -6   1  141.58    4.55
   5  -6  -1  160.24    6.68
  -5  -6   1  152.25    4.43
   5   6   0    0.02    0.16
   5   6   0    0.29    0.20
   5   6   0    2.22    2.13
  -5   6   0    0.11    0.14
  -5   6   0    0.27    0.17
   5   6   0    0.04    0.18
  -5  -6   0    0.19    0.19
   5  -6   0    0.32    0.17
  -5  -6   0    0.25    0.22
  -5  -6   0    0.33    0.26
  -5   6  -1  198.11    5.62
   5   6   1  202.77    5.82
   5   6   1  199.11   13.36
  -5   6  -1  201.28    5.76
  -5   6  -1  207.46    5.81
   5   6   1  201.12    5.83
   5   6   1  204.49    5.99
  -5  -6  -1  197.24    5.89
  -5  -6  -1  205.28    5.97
  -5  -6  -1  199.40    5.86
   5   6   2    3.18    0.50
  -5   6  -2    2.88    0.27
   5   6   2    1.73    1.88
   5   6   2    2.57    0.42
   5   6   2    2.96    0.42
  -5   6  -2    3.41    0.39
  -5   6  -2    3.32    0.46
  -5   6  -2    2.83    0.79
  -5  -6  -2    2.38    0.41
  -5  -6  -2    2.26    0.39
  -5  -6  -2    3.14    0.49
   5  -6   2    3.93    0.99
  -5  -6  -2    4.33    2.17
  -5   6  -3   66.62    4.71
   5   6   3   69.36    2.66
   5   6   3   71.51    2.66
  -5   6  -3   70.36    2.52
  -5   6  -3   71.27    2.40
   5   6   3   67.19    7.91
   5   6   3   68.90    2.50
  -5  -6  -3   68.25    7.17
  -5  -6  -3   73.23    2.54
   5  -6   3   67.52    5.08
  -5  -6  -3   70.68    2.53
  -5  -6  -3   73.51    2.60
   5   6   4   96.25    9.98
  -5   6  -4   86.15    3.10
   5   6   4   83.97    3.12
   5   6   4   86.16    3.00
  -5   6  -4   85.60    6.43
  -5   6  -4   84.58    2.93
  -5  -6  -4   86.95    3.11
  -5  -6  -4   87.15    3.08
   5  -6   4   92.92    7.12
  -5  -6  -4   93.73    9.11
  -5   6  -5    0.33    0.31
   5   6   5   -1.18    2.56
   5   6   5    0.94    0.60
  -5   6  -5    2.43    1.57
   5  -6   5    1.22    1.83
  -5  -6  -5    0.54    0.37
  -5  -6  -5   -2.32    2.44
  -5  -6  -5    0.28    0.41
  -5   6  -6    0.51    0.39
  -5   6  -6    1.01    2.37
   5   6   6   -0.12    0.34
   5   6   6    3.16    4.44
  -5  -6  -6    0.43    0.46
  -5  -6  -6    5.38    3.41
   5  -6   6    4.12    2.54
  -5  -6  -6    0.04    0.40
   5   6   7    5.61    6.27
  -5   6  -7    2.06    0.60
   5   6   7    3.52    0.70
  -5   6  -7    4.38    3.47
  -5  -6  -7    2.34    0.65
   5  -6   7   -5.14    5.44
  -5  -6  -7    6.03    5.90
  -5  -6  -7    2.30    0.69
  -5   7   7    0.50    0.52
   5   7  -7   -0.85    5.09
  -5  -7   7    1.85    4.99
  -5  -7   7    1.43    0.33
   5  -7  -7    1.83    0.56
  -5   7   6    6.56    3.89
   5   7  -6    5.90    4.48
  -5   7   6    8.42    0.98
  -5  -7   6    7.36    0.58
  -5  -7   6    7.83    0.60
   5  -7  -6    7.90    0.85
  -5  -7   6   10.07    4.48
   5  -7  -6    0.75    3.18
  -5   7   5    2.34    0.58
  -5   7   5    0.90    2.07
   5   7  -5    2.64    2.88
  -5  -7   5    2.80    0.38
   5  -7  -5    2.59    0.49
  -5  -7   5    2.53    2.95
   5  -7  -5    0.68    2.45
  -5   7   4   -0.07    1.18
  -5   7   4    2.98    0.50
   5   7  -4    3.84    0.58
   5   7  -4    1.62    2.52
  -5   7   4    1.36    0.46
   5  -7  -4    6.62    2.67
  -5  -7   4    2.87    0.38
   5  -7  -4    3.52    0.53
  -5  -7   4    5.53    3.33
  -5   7   3    8.08    0.73
  -5   7   3    8.60    2.47
   5   7  -3    7.30    0.69
   5   7  -3    7.65    0.69
  -5   7   3    6.90    0.64
  -5  -7   3    6.28    3.22
   5  -7  -3    8.42    0.62
   5  -7  -3    8.91    2.50
   5  -7  -3    7.59    0.62
  -5  -7   3    8.29    0.57
  -5   7   2   93.78    3.07
  -5   7   2   91.96    5.95
   5   7  -2   82.55    8.95
   5   7  -2   91.02    3.07
   5   7  -2   89.07    3.12
  -5   7   2   91.10    2.96
  -5  -7   2   94.86    9.85
  -5  -7   2   93.00    3.09
  -5  -7   2   90.24    2.87
   5  -7  -2   96.30    6.20
   5   7  -1   45.12    1.78
  -5   7   1   44.00    1.66
  -5   7   1   44.37    3.09
  -5   7   1   45.53    1.41
   5   7  -1   44.39    1.61
  -5   7   1   44.33    1.68
   5   7  -1   45.80    1.74
   5   7  -1   28.41    6.28
   5  -7  -1   44.03    1.59
  -5  -7   1   39.23    1.77
  -5  -7   1   42.44    1.80
  -5  -7   1   45.37    1.65
   5  -7  -1   48.48    3.30
   5   7   0    0.32    0.23
  -5   7   0    0.67    0.19
   5   7   0   -0.63    1.55
   5   7   0    0.24    0.23
  -5   7   0    0.54    0.25
   5   7   0    0.37    0.23
   5   7   0    2.45    2.33
  -5   7   0    0.68    0.21
  -5  -7   0    0.39    0.25
   5  -7   0    0.45    0.21
  -5  -7   0    0.24    0.28
  -5  -7   0    0.53    0.24
  -5   7  -1  137.98    4.14
   5   7   1  135.96    4.28
   5   7   1  135.77    4.16
  -5   7  -1  134.94    3.94
   5   7   1  132.63    4.14
  -5   7  -1  125.02    4.11
   5   7   1  138.70   11.05
  -5  -7  -1  140.98    4.29
  -5  -7  -1  144.48    4.33
  -5  -7  -1  136.73    4.19
  -5   7  -2    4.84    0.48
  -5   7  -2    5.17    0.36
   5   7   2    5.57    0.58
   5   7   2    2.43    2.07
   5   7   2    5.47    0.62
  -5   7  -2    4.56    0.49
  -5   7  -2    5.98    0.89
   5   7   2    4.19    0.51
  -5  -7  -2    3.15    2.07
   5  -7   2    5.53    1.10
  -5  -7  -2    5.22    0.60
  -5  -7  -2    5.56    0.58
  -5  -7  -2    5.75    0.60
  -5   7  -3   27.24    1.38
   5   7   3   29.02    1.39
  -5   7  -3   25.78    1.32
   5   7   3   28.16    1.39
   5   7   3   35.44    5.76
  -5   7  -3   31.93    3.04
   5   7   3   29.93    1.51
  -5  -7  -3   30.26    1.42
  -5  -7  -3   32.85    5.19
  -5  -7  -3   29.13    1.43
   5  -7   3   30.60    3.27
  -5  -7  -3   29.98    1.43
  -5   7  -4   15.72    3.07
   5   7   4   12.53    4.47
   5   7   4   12.87    1.00
   5   7   4   15.25    1.04
  -5   7  -4   17.10    1.07
  -5  -7  -4   15.55    1.07
   5  -7   4   12.91    2.92
  -5  -7  -4   14.96    1.04
  -5  -7  -4   16.79    4.55
  -5   7  -5   -0.12    1.67
  -5   7  -5    0.11    0.27
   5   7   5    0.13    0.34
   5   7   5    0.64    3.27
  -5  -7  -5    1.56    2.73
  -5  -7  -5    0.56    0.40
  -5  -7  -5    0.51    0.43
   5  -7   5    1.38    2.12
   5   7   6    0.31    0.39
  -5   7  -6    0.44    1.93
   5   7   6   -2.88    4.07
  -5   7  -6   -0.03    0.34
   5  -7   6    2.69    2.51
  -5  -7  -6    1.84    3.54
  -5  -7  -6   -0.47    0.40
  -5  -7  -6    0.50    0.44
   5   8  -7   -4.56    4.55
  -5  -8   7   -5.74    5.82
   5  -8  -7    0.66    0.49
  -5   8   6    1.48    0.55
   5   8  -6    5.62    3.44
  -5   8   6    4.32    2.49
  -5  -8   6    1.42    3.81
   5  -8  -6    1.10    0.46
  -5  -8   6    1.16    0.32
  -5  -8   6    1.66    0.32
   5   8  -5   80.30   10.03
  -5   8   5   86.99    3.28
   5  -8  -5   85.13    2.99
  -5  -8   5   81.12    2.63
  -5  -8   5   86.71   10.48
  -5   8   4    1.25    0.43
  -5   8   4   -0.02    1.36
  -5   8   4    0.89    0.37
   5   8  -4    3.72    2.50
   5  -8  -4    0.29    1.46
   5  -8  -4    0.89    0.37
  -5  -8   4   -1.73    2.27
  -5  -8   4    0.63    0.27
  -5   8   3   13.62    0.98
  -5   8   3   13.78    2.94
  -5   8   3   12.42    0.87
   5   8  -3    6.30    3.60
   5   8  -3   13.15    0.94
  -5  -8   3   13.60    0.76
   5  -8  -3   13.44    0.90
   5  -8  -3   13.96    3.16
  -5  -8   3    5.55    3.37
   5  -8  -3   13.71    0.83
   5   8  -2    1.48    1.93
  -5   8   2    1.24    0.33
  -5   8   2    1.28    0.91
  -5   8   2    0.80    0.32
   5   8  -2    0.83    0.32
   5   8  -2    1.45    0.41
   5  -8  -2    0.90    0.99
  -5  -8   2    0.90    0.28
  -5  -8   2    1.11    0.40
  -5  -8   2    0.66    0.33
   5  -8  -2    1.06    0.34
   5  -8  -2    1.29    0.34
  -5  -8   2    0.79    2.53
  -5   8   1    6.32    0.59
   5   8  -1    6.33    0.62
  -5   8   1    8.38    1.33
   5   8  -1    7.97    0.67
   5   8  -1    6.53    0.56
   5   8  -1    5.49    3.37
  -5   8   1    7.46    0.40
  -5   8   1    7.50    0.64
   5   8  -1    6.25    3.22
  -5  -8   1    7.31    0.73
   5  -8  -1    7.63    1.58
  -5  -8   1    6.57    0.69
  -5  -8   1    7.30    0.59
   5  -8  -1    7.47    0.59
   5   8   0    2.99    0.44
  -5   8   0    3.54    0.45
   5   8   0    2.95    2.27
  -5   8   0    3.42    0.49
   5   8   0    1.97    2.38
  -5   8   0    3.78    0.35
   5   8   0    3.28    0.50
   5   8   0    3.30    0.47
  -5  -8   0    2.70    0.53
  -5  -8   0    3.27    0.51
   5  -8   0    3.94    0.43
  -5  -8   0    3.15    0.43
  -5   8  -1  113.66    3.38
   5   8   1  111.02    3.59
   5   8   1  115.31   10.45
   5   8   1  111.43   11.18
   5   8   1  114.73    3.74
   5   8   1  111.28    3.61
  -5   8  -1  109.04    3.44
  -5   8  -1  115.65    3.62
  -5  -8  -1  115.35    3.71
  -5  -8  -1  111.47    3.73
   5   8   2   26.80    5.65
   5   8   2   19.08    1.15
  -5   8  -2   18.16    1.01
  -5   8  -2   17.90    0.97
   5   8   2   19.58    1.08
  -5   8  -2   19.85    1.40
   5   8   2   16.94    1.02
  -5   8  -2   19.23    0.77
  -5  -8  -2   17.82    1.04
  -5  -8  -2   17.45    1.06
  -5  -8  -2   18.75    1.09
  -5  -8  -2   13.63    3.90
  -5   8  -3    0.01    0.23
  -5   8  -3    0.62    0.81
   5   8   3    3.45    2.44
  -5   8  -3    0.01    0.23
   5   8   3    0.13    0.32
  -5  -8  -3    0.07    0.31
   5  -8   3    0.45    0.97
  -5  -8  -3   -0.26    0.24
  -5  -8  -3    2.53    2.64
  -5   8  -4    3.04    1.50
   5   8   4    2.39    2.89
   5   8   4    0.47    0.34
   5   8   4    1.08    0.50
  -5   8  -4    1.66    0.49
  -5  -8  -4    1.42    2.33
  -5  -8  -4    1.60    0.47
   5  -8   4   -0.38    1.33
   5   8   5    0.35    3.45
  -5   8  -5    4.63    0.72
   5   8   5    5.23    0.75
  -5   8  -5    4.94    1.97
  -5  -8  -5    4.29    0.73
  -5  -8  -5    4.00    0.65
  -5  -8  -5    4.81    3.46
   5  -8   5    1.67    2.38
  -5   8  -6   -0.36    0.28
  -5   8  -6   -1.30    2.00
   5   8   6   -3.68    3.71
   5   8   6    0.01    0.38
  -5  -8  -6    0.84    4.15
   5  -8   6   -0.65    2.55
  -5  -8  -6   -0.15    0.46
  -5  -8  -6   -0.08    0.41
   5   9  -6    7.62    4.72
  -5   9   6   14.29    1.25
  -5  -9   6   11.77    0.69
  -5  -9   6    4.81    4.73
   5  -9  -6   12.50    1.04
  -5   9   5    4.17    0.79
  -5   9   5    2.99    2.74
   5   9  -5    7.13    3.59
   5  -9  -5    5.31    0.71
  -5  -9   5    6.79    0.53
  -5  -9   5    5.24    3.86
   5  -9  -5    7.94    3.26
  -5   9   4   40.98    1.92
   5   9  -4   39.26    8.10
  -5  -9   4   36.26    1.43
   5  -9  -4   35.49    5.11
  -5  -9   4   34.86    7.69
   5  -9  -4   38.26    1.65
  -5   9   3   18.48    1.12
  -5   9   3   21.04    1.24
   5   9  -3   19.05    1.29
   5   9  -3   12.45    4.82
  -5  -9   3   21.17    6.06
   5  -9  -3   17.47    1.02
  -5  -9   3   17.21    0.91
   5  -9  -3   24.82    3.54
  -5   9   2  114.11    6.96
   5   9  -2   85.84   10.38
  -5   9   2  117.65    3.80
   5   9  -2  115.70    3.90
   5   9  -2  111.01    3.81
  -5   9   2  111.30    3.75
  -5  -9   2  111.22    3.97
  -5  -9   2  111.12    3.90
   5  -9  -2  123.47    7.38
  -5  -9   2  119.37    3.58
  -5  -9   2  129.83   12.70
   5  -9  -2  113.72    3.60
   5  -9  -2  119.86    3.64
  -5   9   1   11.92    0.84
  -5   9   1   13.34    0.89
   5   9  -1   12.91    0.80
   5   9  -1   10.35    3.84
  -5   9   1   13.19    0.57
   5   9  -1   11.80    0.87
  -5   9   1   13.09    0.63
   5   9  -1    6.72    3.79
  -5   9   1   12.90    1.72
  -5  -9   1   14.15    0.82
  -5  -9   1   12.94    0.95
   5  -9  -1   13.92    0.84
   5  -9  -1   11.11    2.05
  -5  -9   1   12.11    0.99
   5   9   0  185.68    5.65
   5   9   0  221.60    6.82
   5   9   0  212.38   14.62
   5   9   0  184.39    6.22
  -5   9   0  189.49    5.42
  -5   9   0  197.75    5.76
   5   9   0  175.57   14.95
  -5   9   0  183.03    5.58
   5  -9   0  193.65    5.60
  -5  -9   0  180.84    6.47
  -5  -9   0  183.66    5.96
  -5  -9   0  192.64    5.87
   5   9   1   19.51    5.70
   5   9   1   31.57    1.50
   5   9   1   33.32    1.58
   5   9   1   40.05    6.26
   5   9   1   31.97    1.49
  -5   9  -1   33.93    1.31
  -5   9  -1   34.52    1.36
  -5   9  -1   36.08    1.53
  -5  -9  -1   33.84    1.51
  -5  -9  -1   33.56    1.55
  -5  -9  -1   33.38    1.63
  -5   9  -2    0.64    0.34
   5   9   2    0.14    0.27
  -5   9  -2    0.22    0.21
  -5   9  -2    0.67    0.31
   5   9   2    0.28    0.30
  -5   9  -2    0.03    0.16
   5   9   2    2.07    1.74
   5   9   2    0.08    0.36
  -5  -9  -2    0.41    1.65
  -5  -9  -2    0.57    0.38
  -5  -9  -2    0.23    0.28
   5   9   3    4.86    0.68
   5   9   3    1.18    3.59
  -5   9  -3    4.69    0.59
  -5   9  -3    5.42    1.42
   5   9   3    6.22    0.74
  -5  -9  -3    5.31    0.73
   5  -9   3    6.63    1.76
  -5  -9  -3    8.34    4.54
  -5  -9  -3    5.24    0.65
  -5   9  -4    4.59    1.90
  -5   9  -4    3.66    0.61
   5   9   4    4.84    0.72
   5   9   4    0.71    3.21
   5   9   4    1.62    0.50
  -5  -9  -4    2.69    0.55
  -5  -9  -4    2.91    2.95
  -5  -9  -4    2.72    0.58
   5  -9   4    2.37    1.57
   5   9   5    6.73    5.06
  -5   9  -5    6.28    2.20
   5   9   5    6.21    0.84
  -5   9  -5    6.84    0.83
  -5  -9  -5    7.15    0.94
  -5  -9  -5    6.01    0.79
   5  -9   5    4.87    2.88
  -5  -9  -5    7.31    4.58
   5   9   6    7.55    6.11
  -5   9  -6    1.65    2.46
  -5   9  -6    0.11    0.56
  -5  -9  -6    0.04    0.47
  -5  -9  -6    0.05    0.43
   5  -9   6    0.90    3.20
   5  10  -6   -0.92    3.83
  -5  10   6    1.05    0.54
  -5 -10   6    4.82    4.50
   5 -10  -6    0.69    0.44
   5  10  -5   21.27    5.82
  -5  10   5   18.80    1.40
  -5 -10   5   18.66    0.89
   5 -10  -5   18.48    1.20
  -5 -10   5    7.50    5.78
   5  10  -4    3.54    3.10
  -5  10   4    2.14    1.83
  -5  10   4    6.51    0.87
   5 -10  -4    5.44    0.68
  -5 -10   4    4.38    0.47
  -5 -10   4    7.71    4.44
   5 -10  -4    9.06    2.85
  -5  10   3    2.55    0.52
  -5  10   3    2.39    0.53
   5  10  -3    3.19    3.37
  -5 -10   3    6.15    3.99
   5 -10  -3    2.54    0.50
  -5 -10   3    2.41    0.40
  -5  10   2    0.14    0.29
  -5  10   2    0.27    0.35
  -5  10   2   -0.64    0.73
   5  10  -2    0.71    0.40
   5  10  -2   -0.08    2.13
  -5 -10   2    0.40    0.42
   5 -10  -2    0.07    0.29
   5 -10  -2    0.29    0.27
  -5 -10   2   -0.09    0.22
   5 -10  -2   -1.01    0.82
  -5 -10   2    0.06    0.34
  -5  10   1   46.25    1.87
   5  10  -1   45.71   11.78
   5  10  -1   52.19    6.91
   5  10  -1   41.62    1.90
  -5  10   1   45.77    1.94
   5  10  -1   45.31    1.98
   5  10  -1   46.31    1.78
  -5  10   1   49.17    1.58
  -5  10   1   42.75    3.32
  -5  10   1   46.95    1.47
   5 -10  -1   41.87    1.78
  -5 -10   1   43.67    2.01
  -5 -10   1   44.04    2.09
   5 -10  -1   45.20    1.81
   5  10   0    0.20    0.28
   5  10   0    1.23    2.21
   5  10   0    0.50    1.97
  -5  10   0    0.29    0.19
  -5  10   0    0.49    0.27
   5  10   0    0.56    0.34
   5  10   0    0.85    0.35
  -5  10   0    0.08    0.26
  -5 -10   0    0.20    0.39
  -5 -10   0    0.16    0.29
   5 -10   0    0.22    0.26
  -5 -10   0   -0.05    0.26
  -5  10  -1    4.43    0.61
   5  10   1    4.49    0.62
  -5  10  -1    5.82    0.78
   5  10   1    4.18    0.63
   5  10   1    4.41    0.63
   5  10   1    4.82    3.31
   5  10   1    3.46    2.35
  -5 -10  -1    4.18    0.59
   5 -10   1    4.76    0.56
  -5 -10  -1    3.94    0.68
  -5 -10  -1    6.07    1.10
   5  10   2   22.66    1.28
  -5  10  -2   21.18    0.92
  -5  10  -2   23.58    1.26
   5  10   2   22.87    1.36
   5  10   2   19.10    5.22
  -5 -10  -2   24.26    5.63
  -5 -10  -2   21.61    1.25
  -5 -10  -2   23.29    1.37
   5  10   3   12.51    4.20
   5  10   3    4.03    0.66
  -5  10  -3    2.26    1.05
   5  10   3    3.28    0.61
   5 -10   3    4.85    1.72
  -5 -10  -3    3.51    0.73
  -5 -10  -3    2.49    2.58
  -5 -10  -3    4.46    0.65
   5  10   4   45.16    2.07
  -5  10  -4   49.88    6.77
   5  10   4   41.99    8.89
  -5  10  -4   46.13    2.05
  -5 -10  -4   45.71    2.12
  -5 -10  -4   38.15    7.65
  -5 -10  -4   42.58    1.95
   5  10   5    2.79    0.64
   5  10   5    0.05    3.68
  -5  10  -5    2.63    0.64
  -5 -10  -5    1.62    0.52
  -5 -10  -5    2.09    0.60
  -5 -10  -5    2.12    3.58
  -5  10  -6    9.02    1.04
  -5  10  -6    3.75    3.22
   5 -10   6    3.37    3.98
  -5 -10  -6    7.12    1.00
  -5 -10  -6    7.87    0.98
   5  11  -6    6.79    5.24
  -5 -11   6   11.70    8.40
   5  11  -5    5.55    4.05
  -5  11   5    0.52    0.48
  -5 -11   5    0.72    0.29
  -5 -11   5   -1.77    4.19
   5 -11  -5    1.95    0.52
   5  11  -4    0.75    5.32
  -5  11   4   11.07    3.28
  -5  11   4   12.76    1.11
   5 -11  -4    9.99    3.06
   5 -11  -4    9.09    0.89
  -5 -11   4   11.65    0.71
  -5 -11   4   10.09    8.06
   5  11  -3    4.41    3.32
  -5  11   3    4.50    0.69
   5 -11  -3    4.58    2.08
   5 -11  -3    4.38    0.68
  -5 -11   3    3.68    4.21
  -5 -11   3    4.02    0.51
   5  11  -2   37.89    7.67
  -5  11   2   27.36    1.48
   5  11  -2   20.42    5.72
  -5  11   2   26.41    3.41
  -5  11   2   27.15    1.44
  -5 -11   2   22.55    1.51
   5 -11  -2   26.20    1.35
   5 -11  -2   24.62    3.39
  -5  11   1   13.05    0.69
  -5  11   1   13.89    0.62
   5  11  -1   12.39    0.87
  -5  11   1   10.60    2.56
   5  11  -1   12.19    4.79
  -5  11   1   11.24    0.89
  -5  11   1   12.86    1.91
  -5  11   1   13.47    1.01
   5  11  -1   19.80    4.92
   5 -11  -1   13.01    0.91
  -5 -11   1   13.36    1.05
  -5 -11   1   12.61    1.11
  -5 -11   1   13.76    0.88
   5 -11  -1   12.22    0.77
  -5  11   0   -0.09    0.19
  -5  11   0    0.12    0.24
   5  11   0    0.41    0.33
   5  11   0    0.21    0.32
   5  11   0    1.65    2.65
   5  11   0    0.74    2.70
  -5  11   0    0.29    0.19
  -5  11   0    0.39    0.43
  -5  11   0    0.06    0.30
  -5  11   0    0.05    0.31
  -5 -11   0    0.30    0.32
   5 -11   0    0.90    0.35
  -5 -11   0    0.09    0.39
  -5 -11   0   -0.19    0.29
   5  11   1    6.75    3.66
   5  11   1    7.66    0.78
   5  11   1    7.46    0.78
   5  11   1    9.39    5.03
  -5  11  -1    7.41    0.60
  -5  11  -1    7.97    0.74
   5 -11   1    7.02    0.69
  -5 -11  -1    6.61    0.76
  -5 -11  -1    5.97    0.84
   5  11   2   18.24    5.57
   5  11   2   27.75    1.48
  -5  11  -2   27.64    1.09
   5  11   2   27.17    1.54
  -5 -11  -2   27.52    1.45
  -5  11  -3   22.01    2.78
   5  11   3   22.27    1.36
   5  11   3   17.99    5.35
  -5  11  -3   19.65    2.22
   5  11   3   16.04    1.35
  -5 -11  -3   20.85    1.38
  -5 -11  -3   18.98    1.20
  -5 -11  -3   20.00    5.63
   5  11   4   46.81    2.18
  -5  11  -4   48.27    2.15
  -5  11  -4   43.82    4.30
   5  11   4   54.35   10.15
  -5 -11  -4   44.23    2.04
   5 -11   4   60.05    5.76
  -5 -11  -4   52.10    8.30
  -5 -11  -4   44.25    2.16
   5  11   5    1.37    0.56
  -5  11  -5    0.10    1.80
  -5  11  -5    1.82    0.53
  -5 -11  -5    1.55    0.57
   5 -11   5    3.46    2.80
  -5 -11  -5    0.81    3.33
  -5 -11  -5    0.89    0.56
  -5  12   5   59.72    2.75
   5  12  -5   51.20   16.13
  -5 -12   5   55.82    1.94
  -5 -12   5   45.80   17.14
   5 -12  -5   58.10    2.47
  -5  12   4    3.37    0.69
   5  12  -4    1.06    3.73
   5 -12  -4    2.86    0.64
  -5 -12   4    1.15    4.30
  -5 -12   4    2.75    0.43
   5  12  -3   62.00    9.06
  -5  12   3   57.89    2.57
  -5 -12   3   65.54    9.89
   5 -12  -3   65.47    6.40
   5  12  -2   32.73    7.25
   5  12  -2   20.90    5.89
   5  12  -2   29.23    1.37
  -5  12   2   26.84    3.56
   5 -12  -2   28.09    1.47
  -5 -12   2   26.62    1.69
   5 -12  -2   30.68    4.46
  -5 -12   2   28.29    1.32
  -5  12   1    0.57    0.19
  -5  12   1    0.09    0.19
  -5  12   1    0.70    0.94
  -5  12   1    0.25    0.34
   5  12  -1   -2.93    1.72
   5  12  -1    0.24    0.30
  -5 -12   1   -0.10    0.33
   5 -12  -1    0.63    0.37
  -5 -12   1    0.40    0.32
   5  12   0   27.18    1.39
   5  12   0   23.63    5.37
   5  12   0   18.65    7.77
  -5  12   0   25.09    1.81
  -5  12   0   26.74    2.00
  -5  12   0   28.29    1.15
  -5  12   0   27.97    1.36
  -5  12   0   27.02    1.29
  -5 -12   0   31.12    2.49
   5 -12   0   28.58    1.38
  -5 -12   0   26.14    1.52
   5  12   1   22.83    6.75
   5  12   1   18.90    1.76
  -5  12  -1   18.57    0.99
   5  12   1   17.41    5.23
   5 -12   1   18.04    1.10
  -5 -12  -1   18.79    1.23
  -5 -12  -1   19.76    1.40
   5  12   2   30.84    6.82
   5  12   2   10.59    5.34
   5  12   2   27.62    1.49
  -5  12  -2   25.35    1.06
  -5 -12  -2   23.32    1.38
  -5 -12  -2   26.68    1.60
  -5  12  -3    5.33    1.30
   5  12   3    0.35    2.77
  -5  12  -3    4.39    1.24
   5  12   3    4.24    0.72
  -5 -12  -3    4.75    0.66
  -5 -12  -3    4.06    3.26
  -5 -12  -3    3.66    0.73
  -5  12  -4    3.00    1.56
  -5  12  -4    2.61    0.56
   5  12   4    2.53    0.62
  -5 -12  -4    1.82    0.55
  -5 -12  -4    2.51    0.71
  -5 -12  -4    1.50    3.84
  -5  12  -5    0.84    2.03
   5  12   5   -7.84    4.86
   5  12   5    0.27    0.52
  -5  12  -5    0.66    0.46
  -5 -12  -5    1.20    0.64
  -5 -12  -5    2.56    4.91
  -5 -12  -5    0.24    0.43
   5  13  -5   -1.36    3.42
  -5  13   5    0.54    0.49
   5 -13  -5    0.66    0.51
   5  13  -4    0.77    4.74
  -5  13   4    6.47    0.92
  -5 -13   4    7.22    0.64
  -5 -13   4    0.55    4.70
   5 -13  -4    7.18    0.93
  -5  13   3    2.70    0.65
   5  13  -3    8.82    4.68
   5 -13  -3    2.89    0.61
  -5 -13   3    2.96    0.47
   5  13  -2    4.79    0.63
   5  13  -2   -4.22    3.39
  -5  13   2    3.79    0.66
   5 -13  -2    2.70    1.75
  -5 -13   2    3.81    0.81
  -5 -13   2    4.31    0.68
   5 -13  -2    5.17    0.77
  -5  13   1    2.07    0.29
  -5  13   1    2.10    0.48
  -5  13   1    1.27    1.16
  -5  13   1    1.11    1.50
   5  13  -1    2.55    0.53
  -5  13   1    2.48    0.56
   5  13  -1    2.83    3.77
  -5 -13   1    2.48    0.67
   5 -13  -1    2.08    0.53
  -5 -13   1    2.40    0.66
   5  13   0    9.05    4.90
  -5  13   0    7.07    0.57
  -5  13   0    6.58    0.66
  -5  13   0    6.32    1.15
  -5  13   0    5.40    1.03
   5  13   0    4.87    3.50
  -5  13   0    7.96    0.76
  -5 -13   0    6.82    0.99
   5 -13   0    6.79    0.80
  -5 -13   0    6.76    0.86
   5  13   1    3.67    0.63
  -5  13  -1    2.72    0.48
   5  13   1    0.03    3.21
  -5  13  -1    3.34    0.59
   5  13   1    7.16    4.49
  -5 -13  -1    4.18    0.71
  -5 -13  -1    3.98    0.82
   5 -13   1    4.94    0.71
   5  13   2    9.63    0.97
   5  13   2   -0.06    3.93
  -5 -13  -2    7.41    0.82
  -5 -13  -2    8.92    1.04
   5  13   3    3.18    4.24
   5  13   3    1.21    0.51
  -5  13  -3    1.04    0.74
  -5  13  -3    0.99    0.84
  -5 -13  -3    3.36    3.65
  -5 -13  -3    1.66    0.63
  -5 -13  -3    1.53    0.49
  -5  13  -4    3.86    0.69
   5  13   4    4.41    0.80
   5  13   4    6.36    5.51
  -5  13  -4    2.41    1.63
  -5 -13  -4   -4.26    3.55
  -5 -13  -4    2.62    0.64
  -5 -13  -4    4.25    0.87
  -5  14   4    6.99    1.11
   5  14  -4   10.03    5.76
   5 -14  -4    8.41    0.96
   5  14  -3   -3.17    3.45
  -5  14   3    0.06    0.47
   5 -14  -3    0.34    0.44
  -5 -14   3    0.17    0.33
  -5  14   2    7.99    0.94
   5  14  -2    7.98    0.80
   5  14  -2    5.00    3.28
   5  14  -2    4.37    4.05
  -5  14   2   12.93    3.92
   5 -14  -2    8.06    0.91
  -5 -14   2    6.79    1.07
  -5  14   1    5.78    0.58
  -5  14   1    7.07    0.82
  -5  14   1    5.51    1.66
  -5  14   1    2.19    1.87
  -5  14   1    6.55    0.46
   5  14  -1    2.19    3.40
   5  14  -1    3.56    4.31
  -5 -14   1    6.61    1.00
   5 -14  -1    7.66    0.81
  -5  14   0    3.33    0.46
  -5  14   0    3.21    1.06
  -5  14   0    3.14    0.55
   5  14   0    2.46    0.57
  -5  14   0    3.39    0.62
  -5  14   0    2.61    0.88
   5  14   0    2.21    4.20
   5  14   0    0.25    2.73
  -5 -14   0    1.69    0.58
  -5 -14   0    2.74    0.75
   5 -14   0    3.19    0.60
   5  14   1   28.44    1.58
  -5  14  -1   27.09    1.34
   5  14   1   26.88    7.05
  -5  14  -1   29.61    1.55
   5 -14   1   28.35    1.51
  -5 -14  -1   24.30    1.76
  -5 -14  -1   28.59    1.82
   5  14   2    2.77    3.88
   5  14   2    3.42    3.79
   5  14   2    2.43    0.59
  -5 -14  -2    2.33    0.70
  -5 -14  -2    1.56    0.84
   5  14   3    1.98    4.75
   5  14   3    2.02    0.59
  -5 -14  -3    3.19    0.72
  -5  14  -4    3.84    0.70
   5  14   4    3.45    0.77
  -5  14  -4    1.31    1.55
  -5 -14  -4    3.24    0.80
  -5 -14  -4    2.97    0.62
   5  15  -3   -4.20    3.99
  -5  15   3    1.72    0.58
   5  15  -2    5.85    5.48
  -5  15   2    5.95    0.86
  -5  15   2    4.20    3.12
  -5 -15   2    9.87    1.19
   5 -15  -2    7.51    0.91
  -5  15   1    4.81    0.42
  -5  15   1    3.25    2.01
  -5  15   1    4.08    0.71
   5  15  -1    2.99    4.10
  -5  15   1    4.58    0.54
   5  15  -1    4.23    0.67
   5 -15  -1    4.27    0.71
  -5 -15   1    5.64    0.97
  -5  15   0    3.62    0.47
  -5  15   0    2.86    0.55
  -5  15   0    1.00    1.13
   5  15   0    2.80    0.61
  -5  15   0    3.37    0.57
   5  15   0    5.75    4.19
   5 -15   0    3.28    0.63
  -5 -15   0    3.19    0.80
  -5 -15   0    1.09    0.59
  -5  15  -1    0.29    0.31
   5  15   1    0.55    0.44
   5 -15   1    0.39    0.37
  -5 -15  -1    1.49    0.53
  -5 -15  -1    1.80    0.70
   5  15   2    8.66    1.02
  -5  15  -2    8.15    0.67
   5  15   2    5.67    6.05
  -5 -15  -2    7.75    0.93
  -5 -15  -2    9.72    1.21
   5  15   3   10.02    7.26
   5  15   3    4.28    0.82
  -5 -15  -3    4.48    0.85
  -5 -15  -3    3.22    0.68
   5  16  -2   -0.32    4.74
  -5  16   2    3.67    0.68
  -5  16   2    1.18    3.35
   5 -16  -2    3.58    0.74
  -5 -16   2    1.89    1.20
   5  16  -1    0.48    5.22
   5  16  -1    6.21    0.81
  -5  16   1    4.76    0.77
  -5  16   1    4.57    0.64
  -5  16   1    2.78    2.07
  -5  16   1    4.85    0.94
  -5 -16   1    3.96    0.89
   5 -16  -1    5.04    0.77
  -5  16   0    6.72    0.63
   5  16   0    4.87    0.75
  -5  16   0    6.39    0.78
  -5  16   0    6.10    0.79
   5  16   0    5.41    5.37
  -5  16   0    5.28    1.66
   5 -16   0    5.48    0.79
  -5 -16   0    6.94    1.07
   5  16   1    0.58    5.04
  -5  16  -1    6.95    0.75
  -5  16  -1    6.98    0.74
   5  16   1    6.15    0.88
  -5 -16  -1    4.37    0.79
   5  16   2    1.05    0.58
  -5  16  -2    0.82    0.32
  -5 -16  -2   -0.36    0.56
  -5 -16  -2    0.13    0.44
   6   0  -8   23.72    1.51
  -6   0   8   18.72    1.31
  -6   0   8   25.87    8.17
   6   0  -7   -2.63    2.68
  -6   0   7   -2.95    3.02
   6   0  -7    0.35    0.40
  -6   0   7    0.32    0.37
   6   0  -6    7.99    0.79
   6   0  -6    9.13    0.76
  -6   0   6    6.39    3.86
   6   0  -6    7.72    4.04
  -6   0   6    9.64    0.84
   6   0  -5   -0.23    0.22
  -6   0   5   -2.01    1.46
  -6   0   5    0.42    0.29
   6   0  -5   -2.26    1.03
   6   0  -5   -0.10    0.23
  -6   0   4  211.64    6.21
   6   0  -4  211.37   13.85
   6   0  -4  211.08    6.11
  -6   0   4  209.63   13.25
  -6   0   3   -0.08    0.17
   6   0  -3    0.12    1.09
   6   0  -3    0.09    0.17
  -6   0   3    0.42    1.00
   6   0  -2  183.60   10.75
  -6   0   2  189.72    5.42
  -6   0   2  183.92   10.62
   6   0  -2  185.90    5.33
  -6   0   1    0.01    0.17
  -6   0   1    1.20    0.81
   6   0  -1   -0.80    0.58
   6   0  -1   -0.02    0.13
   6   0   0  311.27   13.91
   6   0   0  290.98    8.26
   6   0   0  297.79   14.04
  -6   0   0  294.29    8.37
   6   0   1   -0.22    0.65
  -6   0  -1   -0.31    0.60
  -6   0  -1    0.18    0.18
  -6   0  -1    0.07    0.14
   6   0   1   -0.06    0.12
  -6   0  -1    0.22    0.12
   6   0   2  653.07   24.22
  -6   0  -2  642.53   17.75
  -6   0  -2  651.97   17.51
  -6   0  -2  660.05   17.44
  -6   0  -2  633.97   22.92
   6   0   2  658.76   17.73
  -6   0  -3    0.16    0.20
  -6   0  -3    0.68    0.91
  -6   0  -3    0.09    0.18
  -6   0  -3   -0.10    0.18
   6   0   3   -0.63    0.64
   6   0   3   -0.18    0.16
   6   0   3    0.37    0.22
   6   0   4   43.24    1.57
  -6   0  -4   46.36    5.29
  -6   0  -4   46.79    1.84
  -6   0  -4   43.69    1.65
  -6   0  -4   44.19    1.96
  -6   0  -5   -0.80    1.25
   6   0   5   -1.19    1.67
  -6   0  -5    0.41    0.35
   6   0   5    0.41    0.23
  -6   0  -5   -0.12    0.29
  -6   0  -6    8.81    0.72
  -6   0  -6    9.50    0.99
   6   0   6    8.85    0.66
   6   0   6    5.74    3.54
  -6   0  -6   10.95    0.99
  -6   0  -6    9.66    3.85
  -6   0  -7    0.03    0.37
   6   0   7   -0.40    0.26
   6   0   7    9.46    4.63
  -6   0  -7   -3.23    2.57
  -6   0  -7    0.60    0.35
   6   1  -7   92.88   11.75
  -6   1   7   96.17   11.07
   6   1  -7  110.10    3.78
  -6   1   7  108.90    3.77
   6  -1  -7   96.68   11.56
  -6  -1   7  102.42   11.52
   6  -1  -7  106.74    3.72
  -6  -1   7  102.99    4.43
   6   1  -6    1.90    0.46
  -6   1   6    3.66    2.82
   6   1  -6    5.04    3.92
  -6   1   6    3.36    0.59
   6   1  -6    1.66    0.46
  -6  -1   6    2.15    0.46
  -6  -1   6   -0.16    2.40
   6  -1  -6    2.73    0.52
   6  -1  -6    2.58    0.45
   6  -1  -6    4.12    2.92
   6   1  -5   38.10    1.60
  -6   1   5   35.50    1.64
   6   1  -5   39.10    8.34
  -6   1   5   28.60    6.07
   6  -1  -5   36.68    1.49
  -6  -1   5   41.89    6.75
   6  -1  -5   25.30    5.61
   6  -1  -5   36.96    1.54
  -6  -1   5   38.31    1.62
   6   1  -4   12.57    0.78
  -6   1   4   11.96    0.84
  -6   1   4    8.13    2.75
   6   1  -4   10.86    3.56
   6  -1  -4   12.33    0.71
   6  -1  -4   11.70    0.70
   6  -1  -4   10.16    3.09
  -6  -1   4   12.67    0.81
  -6  -1   4   11.98    3.71
  -6   1   3    8.13    0.63
  -6   1   3    9.14    2.83
   6   1  -3    8.21    0.59
  -6   1   3    7.33    0.57
   6   1  -3   10.08    3.20
   6  -1  -3    9.11    2.73
  -6  -1   3    5.91    2.49
   6  -1  -3    8.43    0.49
   6  -1  -3    9.03    0.55
  -6  -1   3    6.12    0.73
  -6   1   2    3.66    0.38
   6   1  -2    3.09    0.26
   6   1  -2    3.41    0.38
   6   1  -2    4.07    1.99
  -6   1   2    3.49    1.57
   6  -1  -2    3.40    0.24
   6  -1  -2    3.62    0.34
  -6  -1   2    3.49    1.71
  -6  -1   2    3.37    0.41
   6  -1  -2    3.09    1.37
   6   1  -1    7.14    2.31
  -6   1   1    4.35    0.44
   6   1  -1    4.59    0.41
   6   1  -1    4.94    0.25
  -6   1   1    5.61    1.81
   6  -1  -1    3.02    1.31
   6  -1  -1    4.68    0.37
  -6  -1   1    4.66    0.48
  -6  -1   1    5.32    2.13
  -6   1   0   16.59    0.86
   6   1   0   15.81    3.51
   6   1   0   17.14    0.56
   6   1   0   18.00    0.85
   6  -1   0   17.38    0.81
  -6  -1   0   15.70    0.77
   6  -1   0   16.91    2.61
  -6  -1   0   17.91    0.92
  -6  -1   0   15.43    0.61
   6  -1   0   17.99    2.50
  -6   1  -1   28.48    1.13
  -6   1  -1   30.49    1.28
   6   1   1   30.46    1.28
  -6   1  -1   29.75    1.00
   6  -1   1   30.30    3.32
  -6  -1  -1   32.34    3.82
  -6  -1  -1   30.50    1.17
  -6  -1  -1   28.93    1.03
  -6  -1  -1   22.32    1.76
   6  -1   1   31.40    1.25
   6   1   2  163.37    4.90
  -6   1  -2  157.68    4.89
  -6   1  -2  162.32    4.63
  -6   1  -2  150.78    8.18
  -6   1  -2  163.58    4.66
   6   1   2  169.77    4.77
  -6  -1  -2  147.85    8.96
  -6  -1  -2  161.82    4.71
   6  -1   2  163.35    4.86
   6  -1   2  167.42    9.25
  -6  -1  -2  160.04    4.64
  -6  -1  -2  161.53    4.94
   6   1   3   20.58    1.12
   6   1   3   21.35    0.94
   6   1   3   20.75    4.38
  -6   1  -3   20.37    0.99
  -6   1  -3   19.84    0.91
  -6   1  -3   20.61    3.01
  -6   1  -3   20.08    1.13
  -6  -1  -3   22.57    3.36
  -6  -1  -3   19.92    0.96
  -6  -1  -3   21.19    1.16
  -6  -1  -3   18.83    0.98
   6  -1   3   16.05    3.32
  -6   1  -4    0.00    0.19
  -6   1  -4    0.38    0.31
   6   1   4   -0.06    1.51
  -6   1  -4   -0.17    0.99
   6   1   4    0.22    0.23
  -6   1  -4    0.16    0.26
   6  -1   4    0.27    0.20
  -6  -1  -4    0.30    0.24
   6  -1   4    2.09    1.12
  -6  -1  -4    0.28    0.29
  -6  -1  -4   -0.20    0.23
  -6  -1  -4    0.78    1.44
   6   1   5    0.82    2.25
  -6   1  -5    3.92    0.49
  -6   1  -5    3.14    0.58
   6   1   5    4.39    0.53
  -6   1  -5    1.56    1.41
  -6  -1  -5    4.29    0.64
  -6  -1  -5    2.34    0.56
   6  -1   5    3.79    0.41
  -6  -1  -5    4.49    0.55
  -6  -1  -5    3.02    1.93
  -6   1  -6    0.03    0.38
  -6   1  -6    0.39    0.36
   6   1   6    0.54    2.84
  -6   1  -6   -0.25    0.23
   6   1   6    0.02    0.25
  -6   1  -6    2.80    2.38
  -6  -1  -6   -0.38    0.31
   6  -1   6    1.79    2.54
   6  -1   6    0.18    0.22
  -6  -1  -6    0.50    0.42
  -6  -1  -6   -0.06    0.35
  -6  -1  -6   -0.26    2.18
  -6   1  -7    1.64    3.59
  -6   1  -7    3.36    0.52
   6   1   7    4.74    0.60
  -6   1  -7    3.78    0.76
  -6   1  -7    5.41    0.88
   6  -1   7    4.69    0.50
  -6  -1  -7    3.95    0.73
  -6  -1  -7   -0.49    3.64
   6  -1   7    3.79    4.16
  -6  -1  -7    3.55    0.74
  -6   2   7    0.59    0.46
   6   2  -7   -1.82    3.88
   6   2  -7    1.05    0.47
   6  -2  -7   -0.37    3.45
  -6  -2   7    1.48    0.49
   6  -2  -7    1.25    0.41
   6  -2  -7    0.95    0.45
  -6  -2   7    9.04    4.45
  -6   2   6    0.46    0.43
  -6   2   6    1.20    2.61
   6   2  -6    0.86    3.36
   6  -2  -6    2.14    2.52
  -6  -2   6    0.05    0.29
   6  -2  -6    0.31    0.36
   6  -2  -6   -0.12    0.25
  -6  -2   6    3.49    3.31
   6   2  -5   10.62    3.94
   6   2  -5   10.75    0.84
  -6   2   5    7.94    3.18
  -6   2   5   12.07    0.91
  -6  -2   5   10.41    0.79
   6  -2  -5    8.12    3.56
   6  -2  -5   11.06    0.78
   6  -2  -5   10.05    0.68
  -6  -2   5   15.23    4.63
  -6   2   4   79.51    2.80
  -6   2   4   79.48    7.47
   6   2  -4   78.36    2.74
   6   2  -4   74.71    8.36
   6  -2  -4   78.86    2.56
  -6  -2   4   87.07    8.45
   6  -2  -4   78.79    7.70
   6  -2  -4   84.23    2.57
  -6   2   3    8.40    2.49
   6   2  -3    7.60    0.60
   6   2  -3    4.14    2.38
  -6   2   3    8.13    0.63
   6   2  -3    7.09    0.47
   6  -2  -3    5.12    2.28
  -6  -2   3    6.66    0.62
  -6  -2   3    5.27    2.59
   6  -2  -3    7.17    0.46
   6  -2  -3    6.99    0.45
  -6   2   2    2.19    0.31
   6   2  -2    1.16    0.21
  -6   2   2    0.68    0.91
   6   2  -2    0.83    0.24
   6   2  -2    1.37    1.31
   6  -2  -2    1.09    0.17
  -6  -2   2    1.68    0.34
   6  -2  -2    1.18    0.21
  -6  -2   2    0.18    1.17
   6  -2  -2    1.39    1.02
   6   2  -1   21.79    4.47
   6   2  -1   24.27    0.87
   6   2  -1   27.12    1.13
  -6   2   1   27.78    1.12
  -6   2   1   22.91    2.95
   6  -2  -1   23.18    2.78
  -6  -2   1   27.68    4.47
  -6  -2   1   25.39    1.06
  -6  -2   1   27.92    1.23
   6  -2  -1   26.27    0.99
   6   2   0   59.03    1.75
   6   2   0   55.17    6.04
   6   2   0   61.98    6.38
  -6   2   0   62.12    2.07
   6   2   0   59.74    2.07
   6  -2   0   65.40    4.93
   6  -2   0   58.94    2.02
  -6  -2   0   66.11    2.20
  -6  -2   0   54.33    1.82
   6  -2   0   61.68    4.26
  -6  -2   0   56.34    1.96
   6   2   1   41.71    1.61
  -6   2  -1   40.34    1.57
  -6   2  -1   41.32    1.45
   6   2   1   39.97    4.98
   6   2   1   41.47    1.34
   6   2   1   41.68    1.91
   6  -2   1   41.78    3.69
  -6  -2  -1   42.40    1.68
   6  -2   1   42.07    1.55
  -6  -2  -1   40.39    1.37
  -6  -2  -1   33.71    4.35
  -6  -2  -1   39.75    1.49
   6   2   2    5.77    0.55
  -6   2  -2    5.51    1.55
  -6   2  -2    6.67    0.53
   6   2   2    6.81    0.51
   6   2   2    5.86    2.36
  -6   2  -2    6.40    0.57
  -6  -2  -2    7.47    0.54
  -6  -2  -2    8.33    2.40
   6  -2   2    6.77    0.57
   6  -2   2    4.87    1.60
  -6  -2  -2    5.90    0.59
  -6  -2  -2    6.35    0.48
   6   2   3   42.75    5.59
   6   2   3   46.16    1.67
  -6   2  -3   39.77    4.07
  -6   2  -3   47.08    1.59
  -6   2  -3   41.83    1.82
   6   2   3   46.23    1.88
  -6  -2  -3   45.60    1.71
  -6  -2  -3   45.11    1.72
  -6  -2  -3   47.92    5.15
   6  -2   3   53.01    5.10
  -6  -2  -3   44.66    1.90
   6   2   4   24.49    1.14
  -6   2  -4   23.56    3.46
   6   2   4   25.91    1.37
  -6   2  -4   27.43    1.41
  -6   2  -4   25.07    1.05
   6   2   4   20.69    4.96
  -6  -2  -4   26.77    4.24
   6  -2   4   32.73    4.45
  -6  -2  -4   26.73    1.24
  -6  -2  -4   25.85    1.40
  -6  -2  -4   25.45    1.29
  -6   2  -5  102.58    3.22
  -6   2  -5  106.81    3.79
  -6   2  -5   99.41    8.32
   6   2   5  110.97   10.75
   6   2   5  105.77    3.38
  -6   2  -5  110.66    3.71
  -6  -2  -5   93.59    8.71
  -6  -2  -5  109.49    3.69
   6  -2   5  110.41    9.71
  -6  -2  -5  108.32    3.82
  -6  -2  -5  103.56    3.47
  -6   2  -6   16.38    4.18
   6   2   6   13.89    0.92
  -6   2  -6   14.61    1.17
  -6   2  -6   12.38    1.13
   6   2   6   13.12    4.83
  -6   2  -6   14.18    0.76
  -6  -2  -6   12.03    1.13
   6  -2   6   15.93    5.02
  -6  -2  -6   13.53    4.73
  -6  -2  -6   14.59    1.15
   6   2   7    0.60    0.38
  -6   2  -7    1.34    0.55
  -6   2  -7    1.15    0.32
  -6   2  -7    0.95    0.50
  -6   2  -7    1.73    3.05
   6   2   7   -0.19    4.25
  -6  -2  -7    0.28    0.46
  -6  -2  -7    0.87    0.54
  -6  -2  -7   -2.55    3.28
  -6   3   7   38.98    8.30
   6   3  -7   42.52    9.15
  -6   3   7   54.09    2.42
   6  -3  -7   69.42    9.32
  -6  -3   7   55.74    2.18
   6  -3  -7   51.78    2.03
   6  -3  -7   54.58    2.05
  -6  -3   7   59.97   11.00
   6  -3  -7   56.73    2.34
  -6   3   6   -0.65    2.36
  -6   3   6    2.40    0.58
   6   3  -6    5.83    3.62
   6  -3  -6    2.25    0.51
   6  -3  -6    2.61    0.41
  -6  -3   6    5.01    3.54
  -6  -3   6    2.46    0.47
   6  -3  -6    5.92    3.14
   6   3  -5   24.29    1.29
   6   3  -5   15.70    4.94
  -6   3   5   25.05    5.22
  -6   3   5   22.59    1.30
   6  -3  -5   24.28    5.20
  -6  -3   5   23.08    1.17
   6  -3  -5   22.21    1.13
   6  -3  -5   22.54    1.00
  -6  -3   5   19.92    5.13
  -6   3   4    0.16    0.25
   6   3  -4   -0.28    1.78
   6   3  -4    0.11    0.21
   6  -3  -4    0.24    0.22
   6  -3  -4    0.18    0.16
  -6  -3   4    0.47    1.42
   6  -3  -4    0.51    1.56
   6   3  -3   57.71    1.96
  -6   3   3   61.29    5.73
   6   3  -3   54.77    6.90
   6   3  -3   58.82    2.16
  -6   3   3   60.26    2.17
   6  -3  -3   60.21    1.84
   6  -3  -3   59.75    1.89
   6  -3  -3   57.95    5.68
  -6  -3   3   58.40    6.74
  -6  -3   3   59.45    2.27
  -6   3   2    3.83    0.35
  -6   3   2    0.95    1.10
   6   3  -2    3.85    0.42
  -6   3   2    3.76    0.43
   6   3  -2    2.86    2.04
   6   3  -2    3.62    0.35
  -6  -3   2    3.12    2.01
   6  -3  -2    3.44    0.28
   6  -3  -2    3.45    0.28
  -6  -3   2    2.70    0.45
   6  -3  -2    4.30    1.49
   6   3  -1  638.13   26.61
   6   3  -1  633.82   17.17
  -6   3   1  643.20   21.42
   6   3  -1  628.43   16.88
  -6   3   1  644.19   16.74
  -6  -3   1  653.08   16.90
  -6  -3   1  618.80   17.04
  -6  -3   1  541.38   18.19
   6  -3  -1  658.79   21.22
  -6  -3   1  688.68   28.17
   6  -3  -1  650.31   16.93
   6  -3  -1  619.89   16.74
   6   3   0   50.26    1.85
   6   3   0   52.54    6.18
   6   3   0   49.45    1.57
  -6   3   0   52.49    1.54
  -6   3   0   50.80    1.78
   6   3   0   48.46    5.95
  -6  -3   0   51.30    1.77
  -6  -3   0   48.67    1.69
  -6  -3   0   46.33    2.21
   6  -3   0   57.57    3.75
   6  -3   0   56.23    3.46
   6   3   1    1.23    0.28
   6   3   1    0.64    1.30
   6   3   1    0.75    0.24
   6   3   1    0.95    0.20
  -6   3  -1    1.15    0.19
  -6   3  -1    1.18    0.27
  -6  -3  -1    0.97    0.26
   6  -3   1    0.88    0.24
   6  -3   1    1.18    0.60
  -6  -3  -1    0.91    0.23
  -6  -3  -1   -1.09    0.70
  -6  -3  -1    1.00    0.29
  -6   3  -2   30.45    1.15
  -6   3  -2   28.64    2.81
   6   3   2   30.99    1.24
  -6   3  -2   30.15    1.33
   6   3   2   29.41    1.17
   6   3   2   33.63    4.89
   6   3   2   30.48    1.39
  -6  -3  -2   29.24    1.39
  -6  -3  -2   32.19    4.30
  -6  -3  -2   29.79    1.21
  -6  -3  -2   29.09    1.26
   6  -3   2   30.99    3.11
   6   3   3   12.63    0.76
  -6   3  -3   11.22    2.38
  -6   3  -3   12.92    0.64
  -6   3  -3   12.53    0.84
   6   3   3   16.59    4.23
   6   3   3   11.61    0.85
  -6  -3  -3   14.61    3.50
  -6  -3  -3   13.24    0.92
   6  -3   3   12.33    2.81
  -6  -3  -3   11.32    0.75
  -6  -3  -3   11.17    0.76
  -6   3  -4   16.61    1.08
   6   3   4   16.16    0.92
   6   3   4   16.53    1.09
  -6   3  -4   15.39    3.09
   6   3   4   15.10    5.43
  -6   3  -4   17.06    0.83
  -6  -3  -4   16.53    1.12
   6  -3   4   19.91    4.02
  -6  -3  -4   16.70    1.02
  -6  -3  -4   13.50    5.12
  -6   3  -5   14.18    1.08
   6   3   5   15.30    0.93
  -6   3  -5   12.73    3.16
   6   3   5   10.82    4.18
   6  -3   5   12.60    3.57
  -6  -3  -5   13.98    1.10
  -6  -3  -5   15.34    1.07
  -6  -3  -5   17.35    4.57
  -6  -3  -5   16.38    0.98
  -6   3  -6   -0.25    0.32
  -6   3  -6   -1.19    1.47
  -6   3  -6   -0.20    0.28
  -6   3  -6    0.01    0.23
   6   3   6   -4.87    2.70
   6   3   6   -0.06    0.30
  -6  -3  -6   -0.26    0.33
  -6  -3  -6    2.07    2.64
   6  -3   6   -1.15    2.40
  -6  -3  -6    0.29    0.35
  -6   3  -7    1.87    0.61
  -6   3  -7    0.86    0.62
   6   3   7    0.83    0.42
  -6   3  -7    3.89    2.81
   6   3   7   -2.39    4.96
   6  -3   7    4.26    4.14
  -6  -3  -7    2.41    4.07
  -6  -3  -7    0.76    0.54
  -6  -3  -7    1.47    0.57
  -6   4   7    9.05    1.00
   6   4  -7   15.89    6.03
  -6   4   7    0.79    3.80
   6  -4  -7    7.41    3.77
   6  -4  -7    8.61    0.66
  -6  -4   7    3.94    4.54
   6  -4  -7    9.72    0.92
   6  -4  -7    8.34    0.67
  -6  -4   7    8.66    0.80
  -6   4   6   24.89    6.16
  -6   4   6   17.76    1.27
   6   4  -6   18.02    5.48
   6  -4  -6   16.38    0.86
   6  -4  -6   18.07    5.50
  -6  -4   6   18.77    5.95
   6  -4  -6   18.53    0.87
  -6  -4   6   18.13    1.04
   6  -4  -6   19.06    1.13
   6   4  -5    4.73    3.47
   6   4  -5    7.47    0.66
  -6   4   5    7.32    0.80
  -6   4   5    4.06    2.27
   6  -4  -5   11.51    3.83
   6  -4  -5    8.03    0.68
  -6  -4   5    8.37    0.69
   6  -4  -5    7.17    0.48
  -6  -4   5    4.25    3.03
   6   4  -4   76.65    8.82
   6   4  -4   85.73    2.97
  -6   4   4   81.64    7.46
   6   4  -4   81.14    2.74
  -6   4   4   79.73    2.94
   6  -4  -4   89.64    2.71
  -6  -4   4   86.78    8.82
   6  -4  -4   80.16    7.57
   6  -4  -4   84.80    2.46
   6   4  -3   34.33    1.52
  -6   4   3   31.93    4.13
   6   4  -3   39.23    5.85
   6   4  -3   32.82    1.33
  -6   4   3   33.87    1.49
   6  -4  -3   34.44    1.25
  -6  -4   3   29.58    4.87
  -6  -4   3   36.45    1.64
   6  -4  -3   36.85    4.25
   6  -4  -3   35.09    1.11
  -6   4   2   20.21    0.77
   6   4  -2   17.03    0.95
  -6   4   2   17.76    0.93
   6   4  -2   18.22    0.85
  -6   4   2   16.69    0.73
  -6   4   2   19.10    2.69
   6   4  -2   16.54    4.15
  -6  -4   2   17.24    0.85
   6  -4  -2   17.41    0.71
  -6  -4   2   20.63    4.90
   6  -4  -2   18.06    2.70
  -6  -4   2   17.61    1.01
   6  -4  -2   17.95    0.67
  -6   4   1  168.36    4.67
   6   4  -1  162.21   12.03
   6   4  -1  163.96    5.02
  -6   4   1  166.55    4.92
  -6   4   1  173.48    7.82
   6   4  -1  164.84    4.79
  -6   4   1  173.48    4.86
  -6  -4   1  170.91    5.14
   6  -4  -1  175.52    7.68
  -6  -4   1  169.47    4.83
  -6  -4   1  166.77    4.91
   6  -4  -1  176.50    4.75
  -6  -4   1  170.95   13.02
   6  -4  -1  164.92    4.65
   6   4   0   57.58    6.62
   6   4   0   45.11    1.77
  -6   4   0   49.90    1.54
  -6   4   0   49.09    1.67
   6   4   0   46.28    1.55
   6   4   0   48.04    1.69
   6   4   0   47.33    6.15
  -6  -4   0   43.16    1.66
   6  -4   0   47.95    2.60
   6  -4   0   50.18    2.82
  -6  -4   0   47.26    1.70
  -6  -4   0   46.74    1.85
   6   4   1    2.35    0.32
  -6   4  -1    2.61    0.29
   6   4   1    2.33    0.36
   6   4   1    3.49    1.84
  -6   4  -1    2.57    0.37
   6   4   1    2.89    0.42
   6  -4   1    2.37    0.68
   6  -4   1    2.90    0.74
  -6  -4  -1    2.68    0.37
  -6  -4  -1    2.09    0.34
  -6  -4  -1    2.82    0.46
  -6   4  -2   94.34    2.84
   6   4   2   97.51    3.22
   6   4   2   92.26    2.92
  -6   4  -2   94.16    3.08
   6   4   2   85.00    8.50
  -6   4  -2   93.92    5.02
   6   4   2   95.09    3.02
  -6   4  -2   96.02    2.83
  -6  -4  -2   93.09    3.20
  -6  -4  -2   94.27    8.11
  -6  -4  -2   91.00    3.03
   6  -4   2   98.69    5.44
  -6  -4  -2   92.01    2.97
   6   4   3    5.21    2.53
  -6   4  -3    3.33    0.33
   6   4   3    2.80    0.44
  -6   4  -3    2.50    1.29
   6   4   3    3.90    0.59
  -6   4  -3    3.39    0.50
  -6  -4  -3    2.00    1.73
  -6  -4  -3    3.08    0.48
  -6  -4  -3    3.58    0.56
  -6  -4  -3    2.97    0.43
   6  -4   3    2.45    1.32
  -6   4  -4    1.55    0.24
  -6   4  -4    1.77    0.44
   6   4   4   -1.60    1.72
   6   4   4    1.53    0.41
  -6   4  -4    2.06    1.26
   6   4   4    1.58    0.40
  -6  -4  -4    2.00    0.48
   6  -4   4    1.11    1.59
  -6  -4  -4    4.74    2.28
  -6  -4  -4    2.23    0.49
  -6  -4  -4    1.46    0.37
   6   4   5   41.45    8.09
   6   4   5   31.47    1.46
  -6   4  -5   29.61    4.41
  -6   4  -5   31.92    1.68
  -6  -4  -5   30.25    2.00
   6  -4   5   34.48    6.17
  -6  -4  -5   29.95    1.66
  -6  -4  -5   30.77    6.04
   6   4   6    3.91    0.61
   6   4   6    2.47    4.40
  -6   4  -6   -2.39    1.93
  -6   4  -6    3.47    0.67
  -6  -4  -6    1.81    3.28
  -6  -4  -6    2.60    0.61
  -6  -4  -6    2.93    0.64
   6  -4   6    3.57    3.03
  -6   4  -7   -0.10    0.46
  -6   4  -7    1.22    2.50
   6   4   7   15.32    6.52
  -6  -4  -7   -3.80    3.43
   6  -4   7    3.51    4.00
  -6  -4  -7    0.45    0.42
   6   5  -7   -4.20    4.16
  -6   5   7    1.54    0.60
  -6   5   7    0.47    4.23
   6  -5  -7    0.77    0.46
   6  -5  -7    0.71    0.27
  -6  -5   7    0.34    0.36
   6  -5  -7    0.42    0.30
  -6  -5   7    1.08    5.05
  -6   5   6    0.24    0.38
   6   5  -6   -0.61    2.81
   6  -5  -6    0.68    0.63
   6  -5  -6   -0.07    0.16
   6  -5  -6    0.00    0.17
  -6  -5   6    0.03    0.27
  -6  -5   6   -2.70    2.51
   6   5  -5   28.27    6.87
  -6   5   5   30.27    1.84
  -6   5   5   32.94    5.29
  -6  -5   5   27.75    6.53
   6  -5  -5   32.78    6.38
   6  -5  -5   32.89    1.43
  -6  -5   5   30.36    1.39
   6   5  -4    6.58    3.10
  -6   5   4   11.93    3.29
   6   5  -4   15.21    1.02
  -6   5   4   14.63    1.02
   6   5  -4   15.04    0.89
   6  -5  -4   16.71    0.86
  -6  -5   4   14.97    0.82
  -6  -5   4   18.83    4.72
   6  -5  -4   14.75    3.89
  -6   5   3   -0.14    1.06
   6   5  -3    1.71    1.93
   6   5  -3    1.30    0.40
   6   5  -3    1.45    0.33
  -6   5   3    1.00    0.33
  -6  -5   3    1.22    0.39
  -6  -5   3    1.82    0.32
   6  -5  -3    1.09    1.19
  -6  -5   3   -0.22    1.52
   6  -5  -3    1.39    0.30
   6   5  -2    8.33    0.67
   6   5  -2    7.88    0.58
  -6   5   2    7.49    0.62
  -6   5   2    8.03    0.41
  -6   5   2    7.87    0.50
  -6   5   2    5.34    1.71
   6   5  -2    8.17    3.50
  -6  -5   2    8.48    0.58
  -6  -5   2    4.75    2.77
   6  -5  -2    7.46    0.47
  -6  -5   2    8.07    0.69
   6  -5  -2    8.18    0.36
   6  -5  -2   11.82    2.41
  -6   5   1    8.82    0.50
   6   5  -1    8.30    0.65
  -6   5   1    9.31    0.53
  -6   5   1    8.59    0.61
  -6   5   1   10.66    1.55
   6   5  -1    9.55    3.59
   6   5  -1    8.20    0.55
   6  -5  -1    8.45    0.47
  -6  -5   1   12.35    4.27
  -6  -5   1    8.90    0.62
   6  -5  -1    9.39    1.42
  -6  -5   1    8.69    0.70
  -6  -5   1    8.04    0.57
   6   5   0    2.85    0.33
   6   5   0    2.46    0.41
  -6   5   0    2.53    0.31
   6   5   0    2.05    2.17
   6   5   0    2.36    0.36
   6   5   0    3.91    2.30
  -6   5   0    2.55    0.34
  -6   5   0    2.83    0.33
  -6  -5   0    2.52    0.40
  -6  -5   0    2.50    0.39
  -6  -5   0    1.76    0.39
  -6   5  -1    8.64    0.84
   6   5   1   10.60    0.62
   6   5   1   11.04    0.69
   6   5   1   11.77    3.67
   6   5   1   10.26    0.75
  -6  -5  -1   10.91    0.79
  -6  -5  -1   10.81    0.69
  -6  -5  -1    9.45    0.67
  -6   5  -2   50.68    1.69
   6   5   2   51.75    1.84
  -6   5  -2   51.00    1.75
   6   5   2   38.69    5.92
   6   5   2   49.98    1.89
  -6   5  -2   47.81    3.08
   6   5   2   55.61    2.11
  -6   5  -2   51.63    1.93
  -6  -5  -2   42.89    5.46
  -6  -5  -2   52.70    1.94
  -6  -5  -2   52.82    1.91
   6  -5   2   50.17    3.36
  -6  -5  -2   51.29    2.05
  -6   5  -3   -0.63    0.59
  -6   5  -3    0.28    0.16
   6   5   3    0.48    0.25
   6   5   3   -0.22    0.29
  -6   5  -3    0.04    0.21
   6   5   3   -0.40    1.38
   6   5   3    0.03    0.27
  -6  -5  -3    0.24    0.28
  -6  -5  -3    0.08    0.25
  -6  -5  -3   -0.01    0.23
   6  -5   3    0.31    0.82
  -6  -5  -3    0.11    1.55
   6   5   4    1.34    2.69
  -6   5  -4    6.37    1.95
   6   5   4    6.42    0.72
   6   5   4    7.46    0.71
  -6   5  -4    5.22    0.65
   6  -5   4    5.70    2.11
  -6  -5  -4    6.38    0.73
  -6  -5  -4    5.68    0.70
  -6  -5  -4    4.88    0.69
  -6  -5  -4    9.92    3.21
  -6   5  -5    3.10    1.78
   6   5   5    3.79    0.59
  -6   5  -5    3.52    0.64
   6   5   5    2.56    3.37
  -6  -5  -5    4.37    0.73
  -6  -5  -5    9.60    3.23
   6  -5   5    2.28    2.29
  -6  -5  -5    3.82    0.68
  -6   5  -6   25.24    4.97
  -6   5  -6   27.89    1.68
   6   5   6   30.26    7.73
   6   5   6   25.99    1.43
  -6  -5  -6   29.54    1.72
  -6  -5  -6   26.91    6.24
  -6  -5  -6   28.04    1.64
   6  -5   6   17.37    5.02
   6   5   7    3.50    0.66
   6   5   7    9.25    6.80
  -6   5  -7    4.51    0.85
  -6  -5  -7    3.85    0.75
  -6  -5  -7    4.62    5.52
  -6  -5  -7    4.38    0.81
  -6   6   7    3.45    0.76
   6   6  -7    1.75    5.32
  -6  -6   7   -0.64    4.95
  -6  -6   7    4.48    0.56
   6  -6  -7    2.45    0.60
  -6  -6   7    4.66    0.54
  -6   6   6   13.80    1.22
   6   6  -6   10.89    5.55
  -6   6   6   11.68    4.28
   6  -6  -6    9.04    4.22
  -6  -6   6   15.95    0.93
  -6  -6   6   14.73    0.88
  -6  -6   6   16.00    5.89
   6  -6  -6   15.49    1.07
  -6   6   5    8.45    3.20
   6   6  -5   13.59    5.34
  -6   6   5    6.13    0.84
  -6  -6   5    8.36    3.96
  -6  -6   5    7.00    0.60
   6  -6  -5    3.38    2.70
   6  -6  -5    8.00    0.72
  -6   6   4  245.80   13.79
  -6   6   4  242.52    7.24
   6   6  -4  236.67   17.01
   6   6  -4  230.44    7.01
   6  -6  -4  245.01    6.87
   6  -6  -4  239.17   13.97
  -6  -6   4  241.06   16.73
  -6  -6   4  240.98    6.82
  -6   6   3   14.01    0.94
   6   6  -3   13.31    0.94
  -6   6   3   13.27    0.78
   6   6  -3   13.42    4.36
  -6   6   3   14.18    3.03
   6   6  -3   14.36    0.88
   6  -6  -3   14.99    3.21
  -6  -6   3   13.15    4.23
  -6  -6   3   13.66    1.03
   6  -6  -3   13.15    0.73
  -6  -6   3   13.64    0.76
  -6   6   2    7.92    0.55
   6   6  -2    8.93    0.72
   6   6  -2    7.71    2.94
   6   6  -2    8.75    0.65
  -6   6   2    7.68    0.64
  -6   6   2    6.78    1.77
   6  -6  -2    8.49    0.54
  -6  -6   2    9.53    0.78
   6  -6  -2    9.64    2.18
  -6  -6   2    7.57    3.32
  -6  -6   2    9.01    0.61
  -6   6   1    5.47    1.25
   6   6  -1    8.31    3.62
  -6   6   1    6.00    0.54
   6   6  -1    5.94    0.56
  -6   6   1    5.70    0.46
   6   6  -1    6.13    0.51
  -6   6   1    5.81    0.41
  -6  -6   1    5.42    0.51
  -6  -6   1    6.00    0.64
   6  -6  -1    6.06    1.25
  -6  -6   1    5.25    0.59
   6  -6  -1    5.79    0.44
   6   6   0   11.04    0.65
   6   6   0    9.49    0.72
  -6   6   0   10.57    0.61
   6   6   0   16.53    4.56
   6   6   0   10.37    0.68
   6   6   0    9.71    3.43
   6  -6   0   10.68    0.57
  -6  -6   0    9.75    0.78
  -6  -6   0    8.19    0.80
  -6  -6   0   10.79    0.71
  -6   6  -1    1.00    0.24
  -6   6  -1    1.07    0.28
   6   6   1    0.92    0.27
  -6   6  -1    0.80    0.24
   6   6   1    0.53    0.27
   6   6   1    0.91    0.31
   6   6   1    0.78    1.84
  -6  -6  -1    1.09    0.33
  -6  -6  -1    0.62    0.26
  -6  -6  -1    1.68    0.39
  -6   6  -2    9.55    1.17
  -6   6  -2   10.34    0.64
  -6   6  -2    9.69    0.52
   6   6   2   10.19    0.69
   6   6   2   11.41    0.84
  -6   6  -2   10.29    0.72
   6   6   2   10.52    0.75
   6   6   2    8.51    3.56
  -6  -6  -2   14.01    3.65
  -6  -6  -2   10.42    0.75
  -6  -6  -2    9.22    0.78
   6  -6   2   11.68    1.34
  -6  -6  -2    8.52    0.79
   6   6   3   39.78    1.69
   6   6   3   41.57    1.74
   6   6   3   42.57    1.92
  -6   6  -3   46.04    3.62
   6   6   3   35.85    7.12
  -6   6  -3   44.38    1.65
  -6   6  -3   42.40    1.79
  -6  -6  -3   41.42    5.79
   6  -6   3   39.98    3.71
  -6  -6  -3   41.28    1.75
  -6  -6  -3   42.26    1.79
  -6  -6  -3   42.77    1.87
  -6   6  -4   18.09    1.16
  -6   6  -4   16.86    2.60
   6   6   4   17.59    5.39
   6   6   4   18.87    1.10
   6   6   4   17.83    1.42
  -6  -6  -4   17.13    1.11
  -6  -6  -4   17.54    1.19
  -6  -6  -4   18.21    4.18
   6  -6   4   21.06    3.40
   6   6   5    9.03    0.86
   6   6   5    8.44    4.44
  -6   6  -5    8.21    2.39
  -6   6  -5    9.02    0.91
  -6  -6  -5    9.35    0.93
   6  -6   5    6.98    2.80
  -6  -6  -5    8.80    0.89
  -6  -6  -5    7.51    4.31
  -6   6  -6   14.46    1.19
   6   6   6   13.98    1.06
  -6   6  -6   12.85    3.58
   6   6   6   20.60    6.84
  -6  -6  -6   16.58    5.81
  -6  -6  -6   12.38    1.17
   6  -6   6   18.77    5.05
  -6  -6  -6   13.22    1.19
  -6   7   7    9.34    1.10
  -6  -7   7   12.25   11.19
  -6  -7   7    7.91    0.68
   6  -7  -7    7.88    0.90
   6   7  -6   -4.51    3.28
  -6   7   6    3.70    3.09
  -6   7   6    2.34    0.63
   6  -7  -6   -0.44    3.15
  -6  -7   6    1.76    0.36
  -6  -7   6    2.17    0.42
  -6  -7   6    2.66    3.43
   6  -7  -6    2.25    0.53
   6   7  -5   27.30    7.58
  -6   7   5   23.19    1.48
   6  -7  -5   21.96    1.19
  -6  -7   5   23.37    1.08
   6  -7  -5   20.21    5.89
  -6  -7   5   27.63    6.70
  -6   7   4    1.91    1.51
   6   7  -4    0.59    0.35
  -6   7   4    0.78    0.40
   6   7  -4   -0.18    1.83
   6  -7  -4    0.08    1.17
   6  -7  -4    1.07    0.34
  -6  -7   4    1.41    0.33
  -6  -7   4   -1.59    2.07
  -6   7   3  177.58   10.05
   6   7  -3  141.21   12.88
  -6   7   3  171.27    5.11
  -6   7   3  172.21    5.34
   6   7  -3  169.04    5.25
   6   7  -3  169.16    5.40
  -6  -7   3  165.92    5.52
  -6  -7   3  177.63   14.50
  -6  -7   3  175.02    5.03
   6  -7  -3  183.71   10.54
   6  -7  -3  174.99    5.01
  -6   7   2    4.13    0.45
  -6   7   2    3.61    0.54
   6   7  -2    4.55    0.63
   6   7  -2    3.87    0.53
  -6   7   2    2.36    1.13
   6  -7  -2    4.58    0.45
   6  -7  -2    2.44    1.29
  -6  -7   2    3.79    0.54
  -6  -7   2    4.74    3.20
  -6  -7   2    2.77    0.52
  -6  -7   2    3.93    0.47
  -6   7   1  207.63    5.56
  -6   7   1  199.29    5.74
   6   7  -1  198.27   15.19
   6   7  -1  193.82    5.97
   6   7  -1  216.61   14.89
   6   7  -1  200.72    5.79
   6   7  -1  205.88    5.84
  -6   7   1  198.21    5.83
   6  -7  -1  169.37   10.08
  -6  -7   1  189.97    5.94
  -6  -7   1  210.09    5.83
   6  -7  -1  196.31    5.65
   6   7   0    6.23    0.62
   6   7   0    5.47    0.55
  -6   7   0    6.43    0.48
  -6   7   0    6.93    0.53
   6   7   0    7.35    0.58
  -6   7   0    7.63    0.57
   6   7   0    8.05    3.88
   6   7   0    8.25    3.16
  -6  -7   0    6.75    0.68
  -6  -7   0    7.29    0.69
  -6  -7   0    7.49    0.61
   6  -7   0    7.22    0.50
  -6   7  -1    8.73    0.62
   6   7   1    7.91    0.62
   6   7   1   11.74    4.27
   6   7   1    7.82    0.72
  -6   7  -1    8.48    0.54
  -6   7  -1    8.08    0.60
   6   7   1    5.68    3.24
   6   7   1    9.28    0.71
  -6  -7  -1    8.10    0.71
  -6  -7  -1    8.63    0.76
  -6   7  -2   56.59    2.13
   6   7   2   62.46    2.73
   6   7   2   61.00    2.17
  -6   7  -2   57.61    1.84
   6   7   2   59.93    2.19
  -6   7  -2   57.10    2.06
   6   7   2   62.49    7.88
  -6  -7  -2   56.54    2.20
  -6  -7  -2   58.57    2.30
  -6  -7  -2   48.24    6.52
  -6  -7  -2   58.00    2.19
  -6   7  -3   19.66    2.22
  -6   7  -3   18.42    1.09
   6   7   3   20.52    1.14
   6   7   3   17.14    1.04
  -6   7  -3   18.90    1.00
   6   7   3   19.17    1.22
   6   7   3   18.24    5.28
  -6  -7  -3   19.01    4.95
  -6  -7  -3   17.71    1.15
  -6  -7  -3   19.08    1.13
   6  -7   3   17.73    2.42
   6   7   4    0.63    0.51
  -6   7  -4    1.12    0.42
  -6   7  -4    0.83    1.08
   6   7   4    2.92    2.95
  -6  -7  -4    0.53    0.39
  -6  -7  -4   -0.43    2.11
  -6  -7  -4    2.06    0.51
   6  -7   4    0.21    1.31
  -6   7  -5   51.54    5.43
   6   7   5   44.12    1.98
   6   7   5   63.09    9.35
  -6   7  -5   46.99    2.16
  -6  -7  -5   37.37    2.82
   6  -7   5   48.99    5.92
  -6  -7  -5   46.45    2.12
  -6  -7  -5   31.59    6.63
  -6   7  -6    1.76    0.54
  -6   7  -6   -1.12    1.95
   6   7   6    2.25    0.55
   6   7   6   -2.86    4.84
  -6  -7  -6    1.18    0.55
   6  -7   6    0.10    2.68
  -6  -7  -6    1.20    0.53
  -6  -7  -6    2.28    4.49
  -6   8   7   -1.00    0.41
   6   8  -7   -1.10    5.31
  -6  -8   7   -2.75    6.09
  -6  -8   7    0.05    0.27
   6  -8  -7    0.16    0.46
  -6   8   6    7.00    0.95
   6   8  -6    0.95    3.75
   6  -8  -6    6.75    0.78
  -6  -8   6    5.13    0.59
  -6  -8   6   -1.40    3.89
  -6  -8   6    5.70    0.58
   6   8  -5    2.48    3.09
  -6   8   5   -0.56    0.36
  -6   8   5    4.13    2.29
  -6  -8   5    0.80    0.32
   6  -8  -5    1.33    2.03
  -6  -8   5    5.06    3.52
   6  -8  -5    0.22    0.34
  -6   8   4    8.25    0.76
   6   8  -4    6.60    3.65
  -6   8   4   11.25    0.97
   6  -8  -4   11.41    0.80
  -6  -8   4   11.14    0.72
   6  -8  -4    7.06    2.69
  -6  -8   4    5.83    3.92
  -6   8   3    6.62    0.66
   6   8  -3    2.91    2.61
   6   8  -3    8.43    0.75
  -6   8   3    7.69    0.79
  -6  -8   3    7.65    0.61
   6  -8  -3    9.11    2.52
   6  -8  -3    8.21    0.64
  -6  -8   3    8.22    3.90
  -6   8   2   49.66    1.91
   6   8  -2   50.33    2.12
   6   8  -2   50.21    2.01
  -6   8   2   49.46    4.23
  -6   8   2   51.74    2.04
   6   8  -2   41.93    8.23
   6  -8  -2   58.21    4.57
  -6  -8   2   52.05    1.89
  -6  -8   2   51.03    2.06
   6  -8  -2   50.97    1.83
  -6  -8   2   48.36    7.75
   6   8  -1   91.70    9.93
  -6   8   1   84.88    2.87
   6   8  -1   83.92    2.87
  -6   8   1   86.77    2.82
  -6   8   1   88.90    2.55
   6   8  -1   84.08    2.80
   6   8  -1   83.87    3.00
   6   8  -1   78.87    9.66
  -6   8   1   88.53    4.34
   6  -8  -1   86.52    2.74
   6  -8  -1   86.51    4.40
  -6  -8   1   82.29    3.02
  -6  -8   1   85.61    2.84
  -6  -8   1   78.33    3.02
  -6   8   0    0.57    0.27
   6   8   0    0.67    0.35
   6   8   0   -0.15    2.00
  -6   8   0    1.21    0.33
   6   8   0    1.20    1.95
   6   8   0    0.13    0.27
   6   8   0    1.23    0.33
  -6   8   0    1.18    0.24
  -6  -8   0    0.23    0.29
  -6  -8   0    0.72    0.37
   6  -8   0    0.39    0.24
  -6   8  -1   21.98    1.05
  -6   8  -1   22.22    0.98
   6   8   1   22.64    1.16
   6   8   1   19.77    5.88
  -6   8  -1   24.35    1.14
   6   8   1   25.65    5.90
   6   8   1   21.61    1.12
   6   8   1   21.39    1.69
  -6  -8  -1   21.56    1.24
  -6  -8  -1   21.20    1.15
  -6  -8  -1   22.08    1.25
   6   8   2    4.66    0.61
  -6   8  -2    4.78    0.53
   6   8   2    4.93    0.58
   6   8   2    6.27    0.71
   6   8   2   -0.17    2.24
  -6   8  -2    5.30    0.41
  -6   8  -2    5.50    0.57
  -6  -8  -2    7.35    3.18
  -6  -8  -2    5.18    0.66
  -6  -8  -2    5.11    0.64
  -6   8  -3    0.34    0.27
   6   8   3    0.04    0.34
  -6   8  -3    0.44    0.64
  -6   8  -3    0.08    0.28
   6   8   3    0.63    2.33
   6   8   3    0.14    0.33
  -6  -8  -3   -0.04    0.34
  -6  -8  -3   -2.09    1.81
   6  -8   3    1.14    0.93
  -6  -8  -3    0.10    0.36
   6   8   4   23.50    1.35
  -6   8  -4   19.97    2.94
  -6   8  -4   23.44    1.35
   6   8   4   23.68    6.26
  -6  -8  -4   23.66    1.39
   6  -8   4   22.99    3.55
  -6  -8  -4   20.29    1.34
  -6  -8  -4   18.45    5.44
  -6   8  -5   29.50    1.64
   6   8   5   25.95    1.50
   6   8   5   22.47    7.36
  -6   8  -5   26.29    4.00
  -6  -8  -5   19.57    5.67
  -6  -8  -5   28.71    1.74
  -6  -8  -5   28.98    1.65
   6  -8   5   25.18    4.75
  -6   8  -6    6.04    3.27
  -6   8  -6   10.91    1.28
   6   8   6   15.08    7.17
   6   8   6   10.09    0.99
  -6  -8  -6    3.15    4.27
  -6  -8  -6   10.64    1.06
  -6  -8  -6    9.31    1.09
   6  -8   6   11.34    3.98
   6   9  -6   -0.85    4.80
  -6   9   6    4.76    0.85
   6  -9  -6    7.43    0.85
  -6  -9   6    6.21    0.60
  -6  -9   6    6.97    0.61
  -6  -9   6   -5.69    4.86
   6   9  -5   -2.49    2.67
  -6   9   5    2.54    2.62
  -6   9   5    2.30    0.60
  -6  -9   5    1.40    0.36
   6  -9  -5    1.66    2.77
  -6  -9   5    2.75    3.60
   6   9  -4    8.91    4.10
  -6   9   4   -0.26    2.48
  -6   9   4    2.56    0.60
  -6   9   4    2.04    0.64
   6  -9  -4    1.79    0.44
  -6  -9   4   -3.01    2.71
   6  -9  -4    2.33    1.88
  -6  -9   4    2.38    0.42
   6   9  -3   16.71    5.41
  -6   9   3   15.81    1.11
   6  -9  -3   12.84    3.20
   6  -9  -3   14.27    0.91
  -6  -9   3   15.03    0.87
  -6  -9   3   12.74    4.59
  -6   9   2    2.38    0.44
  -6   9   2    3.25    1.42
   6   9  -2    7.16    3.43
   6   9  -2    2.87    0.53
  -6   9   2    2.79    0.51
  -6  -9   2    8.35    3.86
   6  -9  -2    4.60    1.46
  -6  -9   2    2.41    0.44
  -6  -9   2    2.48    0.54
   6  -9  -2    3.19    0.48
  -6  -9   2    3.53    0.63
   6   9  -1   17.07    1.09
   6   9  -1   19.17    5.26
   6   9  -1   17.31    1.17
  -6   9   1   19.36    0.78
   6   9  -1   19.63    5.69
   6   9  -1   18.92    1.00
  -6   9   1   18.62    1.79
  -6   9   1   19.16    1.04
  -6   9   1   18.11    1.04
  -6  -9   1   18.06    1.11
  -6  -9   1   17.12    1.17
  -6  -9   1   17.03    1.16
   6  -9  -1   18.24    1.96
   6  -9  -1   18.88    0.97
   6   9   0   49.08    7.01
   6   9   0   48.46    1.94
  -6   9   0   50.65    1.89
  -6   9   0   50.50    1.75
   6   9   0   56.55    8.24
  -6   9   0   53.80    1.97
   6   9   0   49.68    2.17
   6   9   0   46.30    2.04
  -6  -9   0   49.05    2.17
  -6  -9   0   52.15    2.00
   6  -9   0   52.27    1.84
  -6  -9   0   50.78    2.13
   6   9   1   27.82    1.37
   6   9   1   28.07    1.38
  -6   9  -1   28.84    1.35
   6   9   1   30.11    7.21
  -6   9  -1   29.13    1.26
   6   9   1   30.44    1.51
   6   9   1   32.49    7.23
  -6   9  -1   28.50    1.27
  -6  -9  -1   28.17    1.49
  -6  -9  -1   30.18    1.50
  -6  -9  -1   26.54    1.43
   6   9   2   12.77    1.36
   6   9   2   10.84    0.88
   6   9   2   11.99    0.95
   6   9   2    5.20    3.30
  -6   9  -2   11.55    0.63
  -6   9  -2   11.53    0.80
  -6   9  -2   11.37    0.83
  -6  -9  -2    9.50    4.09
  -6  -9  -2    9.79    0.92
  -6  -9  -2   10.44    0.91
  -6   9  -3    3.72    0.57
  -6   9  -3    2.77    0.84
   6   9   3    2.93    0.67
   6   9   3    5.12    4.85
   6   9   3    2.54    0.55
   6  -9   3    2.48    1.13
  -6  -9  -3    2.74    0.55
  -6  -9  -3    2.10    0.54
   6   9   4   -2.35    2.85
  -6   9  -4   -0.12    0.28
  -6   9  -4    0.65    1.13
   6   9   4    0.14    0.36
  -6  -9  -4    0.69    0.43
  -6  -9  -4    0.14    0.37
   6  -9   4    0.84    1.47
  -6  -9  -4    1.60    2.79
  -6   9  -5    4.53    0.76
   6   9   5    4.28    0.70
  -6   9  -5    4.11    2.10
   6   9   5    9.85    5.45
  -6  -9  -5    2.69    0.63
  -6  -9  -5    3.94    4.72
   6  -9   5    2.53    2.83
  -6  -9  -5    2.59    0.63
   6   9   6   16.61    8.68
   6   9   6   24.98    1.56
  -6   9  -6   27.65    1.71
  -6   9  -6   20.09    4.51
  -6  -9  -6   27.81    2.26
   6  -9   6   19.34    4.66
  -6  -9  -6   24.33    1.59
  -6  -9  -6   22.04    6.70
   6  10  -6   37.44    9.61
  -6  10   6   34.10    3.08
   6 -10  -6   38.18    1.84
  -6 -10   6   41.10   10.13
  -6 -10   6   37.30    1.46
  -6  10   5   10.21    1.07
   6  10  -5    6.68    4.34
   6 -10  -5    8.78    0.90
  -6 -10   5   13.21    6.01
  -6 -10   5    9.21    0.70
  -6  10   4   86.11    7.78
   6  10  -4   82.22   11.11
  -6  10   4   89.58    3.39
  -6 -10   4   69.06   10.77
  -6 -10   4   83.79    2.83
   6 -10  -4   89.59    8.06
   6 -10  -4   91.18    3.08
  -6  10   3   11.31    0.89
  -6  10   3   11.13    0.99
   6  10  -3    9.00    4.07
   6 -10  -3   11.51    0.87
  -6 -10   3    6.07    4.78
   6 -10  -3   11.81    2.92
   6  10  -2    3.64    3.29
  -6  10   2    0.44    0.33
  -6  10   2    0.03    0.88
  -6 -10   2    0.22    0.28
  -6 -10   2    0.47    0.39
  -6 -10   2    0.28    0.38
   6 -10  -2   -1.06    0.92
   6 -10  -2    0.54    0.31
  -6  10   1    0.78    0.32
  -6  10   1    0.76    0.22
   6  10  -1    0.02    2.94
  -6  10   1    0.42    0.57
  -6  10   1    0.67    0.34
   6  10  -1    0.71    0.33
   6  10  -1   -1.40    2.13
   6  10  -1    0.60    0.33
  -6  10   1    0.46    0.17
   6 -10  -1    0.30    0.29
  -6 -10   1    0.36    0.29
  -6 -10   1    0.38    0.35
  -6 -10   1    0.49    0.42
   6  10   0   41.53    1.80
   6  10   0   47.55    7.59
   6  10   0   44.44    2.02
   6  10   0   48.45    7.46
  -6  10   0   39.06    1.98
   6  10   0   44.57    1.89
  -6  10   0   41.77    1.74
  -6  10   0   48.36    1.88
   6 -10   0   46.36    1.73
  -6 -10   0   45.63    2.01
  -6 -10   0   43.56    1.87
  -6 -10   0   45.99    2.12
   6  10   1    3.04    0.55
   6  10   1    2.91    2.70
  -6  10  -1    4.68    0.49
  -6  10  -1    5.64    0.60
   6  10   1    5.58    3.70
  -6  10  -1    4.71    0.51
   6  10   1    5.08    0.66
  -6 -10  -1    3.63    0.67
  -6 -10  -1    3.96    0.64
  -6  10  -2   83.76    2.65
   6  10   2   82.89    3.34
  -6  10  -2   84.87    2.95
  -6  10  -2   86.46    3.04
   6  10   2   86.06    9.84
  -6 -10  -2   87.02    3.16
  -6 -10  -2   88.38    3.22
  -6  10  -3    0.80    0.53
  -6  10  -3    0.45    0.33
   6  10   3   -0.19    0.31
   6  10   3   -3.05    2.66
  -6 -10  -3    0.43    0.37
  -6 -10  -3    0.49    0.40
  -6 -10  -3   -3.44    2.09
   6  10   4    5.92    0.81
  -6  10  -4    7.82    1.79
  -6  10  -4    5.90    0.75
   6  10   4    3.27    3.97
  -6 -10  -4    4.37    0.67
  -6 -10  -4    6.10    0.85
  -6 -10  -4    8.52    3.56
   6 -10   4    5.57    2.02
   6  10   5    9.95    6.44
   6  10   5    9.89    1.01
  -6  10  -5    8.48    0.94
  -6  10  -5    7.58    2.28
  -6 -10  -5    7.76    0.96
  -6 -10  -5    6.77    0.90
  -6 -10  -5    5.37    3.93
   6 -10   5    8.20    2.93
  -6  11   6    1.67    0.58
  -6 -11   6    0.53    0.29
   6 -11  -6    0.49    0.47
  -6  11   5    5.10    0.89
   6  11  -5   -0.57    3.84
  -6 -11   5    6.38    0.60
   6 -11  -5    5.23    0.74
  -6 -11   5   10.44    5.28
   6  11  -4   10.54    4.83
  -6  11   4    8.59    1.07
  -6 -11   4   10.18    5.21
   6  11  -3    8.22    4.41
  -6  11   3    8.92    0.94
  -6 -11   3    8.95    0.72
   6 -11  -3   14.35    3.10
   6 -11  -3   11.63    0.89
  -6 -11   3    8.40    4.77
  -6  11   2    1.08    0.42
  -6  11   2    0.29    0.98
  -6  11   2    1.93    0.47
   6  11  -2    4.37    3.17
   6  11  -2    0.70    3.45
  -6 -11   2    2.01    0.44
   6 -11  -2   -0.49    1.03
  -6 -11   2    1.09    0.52
  -6 -11   2    0.94    0.52
   6 -11  -2    1.69    0.44
  -6  11   1   -0.16    0.31
  -6  11   1    0.74    0.84
  -6  11   1   -0.03    0.54
  -6  11   1   -0.35    0.26
   6  11  -1    1.55    3.00
   6  11  -1    0.65    0.37
  -6  11   1   -0.13    0.18
  -6  11   1    0.38    0.17
   6  11  -1    1.36    2.75
   6 -11  -1   -0.07    0.27
  -6 -11   1    0.03    0.40
  -6 -11   1    0.54    0.33
  -6 -11   1   -0.25    0.33
   6  11   0    7.62    3.87
  -6  11   0    2.72    0.39
  -6  11   0    2.22    0.47
  -6  11   0    2.48    0.50
   6  11   0    9.91    4.07
   6  11   0    2.08    0.46
  -6 -11   0    1.76    0.48
  -6 -11   0    2.83    0.63
   6 -11   0    2.25    0.45
  -6  11  -1    2.16    0.40
   6  11   1    3.60    0.77
  -6  11  -1    1.96    0.39
   6  11   1    5.00    3.58
  -6  11  -1    2.47    0.53
   6  11   1   -1.39    2.38
  -6 -11  -1    2.33    0.63
  -6 -11  -1    1.82    0.52
  -6  11  -2   41.12    1.75
   6  11   2   40.43    1.89
  -6  11  -2   40.65    1.50
   6  11   2   44.60    7.17
  -6 -11  -2   40.27    1.91
  -6 -11  -2   41.28    2.02
  -6  11  -3   30.30    1.51
   6  11   3   25.65    1.51
   6  11   3   34.80    7.92
  -6 -11  -3   25.75    6.11
  -6 -11  -3   26.12    1.59
  -6 -11  -3   26.88    1.51
   6  11   4   10.00    1.04
   6  11   4    7.36    5.20
  -6  11  -4    8.66    0.90
  -6  11  -4    8.86    1.81
  -6 -11  -4   10.36    1.06
  -6 -11  -4    7.20    1.50
  -6 -11  -4   10.43    5.00
   6 -11   4    7.60    2.27
   6  11   5   11.76    1.30
  -6  11  -5   16.09    1.26
  -6  11  -5   12.44    3.00
  -6 -11  -5   12.82    5.94
   6 -11   5   15.45    3.53
  -6 -11  -5   13.79    1.12
  -6 -11  -5   13.15    1.23
   6  12  -5   -0.71    4.01
   6 -12  -5    0.09    0.44
  -6 -12   5    0.49    4.70
  -6  12   4    0.69    0.49
   6  12  -4    2.72    4.25
  -6 -12   4    0.32    0.29
  -6 -12   4   -3.21    3.91
   6 -12  -4   -0.32    0.38
  -6  12   3    3.19    2.18
  -6  12   3    1.46    0.49
   6  12  -3    3.67    4.02
  -6 -12   3    1.24    0.37
   6 -12  -3    0.68    0.46
   6 -12  -3    0.17    1.40
   6  12  -2   12.83    5.22
  -6  12   2   21.75    3.00
   6  12  -2   21.28    7.16
  -6  12   2   22.55    1.38
   6 -12  -2   22.89    1.28
  -6 -12   2   20.87    1.47
   6 -12  -2   21.36    3.18
   6  12  -1    7.13    4.24
   6  12  -1    6.35    0.73
  -6  12   1    4.67    1.33
  -6  12   1    3.61    1.08
  -6  12   1    4.14    0.67
  -6  12   1    7.16    0.45
   6  12  -1    5.59    3.59
  -6  12   1    5.29    0.48
  -6 -12   1    5.09    0.81
  -6 -12   1    6.37    0.96
   6 -12  -1    5.57    0.67
   6  12   0    0.07    0.41
  -6  12   0    0.32    0.29
  -6  12   0    0.27    0.21
   6  12   0    1.49    2.48
   6  12   0    4.31    3.95
   6 -12   0    0.10    0.28
  -6 -12   0    0.16    0.34
  -6 -12   0    0.78    0.60
  -6  12  -1    0.57    0.32
   6  12   1    2.86    3.12
   6  12   1    0.90    0.43
   6  12   1   -1.21    3.79
  -6  12  -1    1.54    0.37
  -6 -12  -1    1.90    0.60
  -6 -12  -1    1.93    0.51
   6  12   2   11.48    1.02
  -6  12  -2   11.11    0.87
   6  12   2   12.57    6.02
   6  12   2   12.59    5.68
  -6  12  -2   10.98    0.79
  -6 -12  -2   13.26    1.05
  -6 -12  -2   13.88    1.18
   6  12   3   17.70    1.28
  -6  12  -3   19.70    1.21
   6  12   3   12.83    5.55
  -6 -12  -3   17.91    1.37
  -6 -12  -3   24.14    6.64
  -6 -12  -3   15.96    1.40
   6  12   4    0.26    0.46
  -6  12  -4    0.39    0.37
  -6 -12  -4    0.06    0.47
  -6 -12  -4    0.51    0.41
  -6 -12  -4   -1.96    4.02
   6  12   5    6.05    0.90
   6  12   5    0.10    6.09
  -6  12  -5    9.70    1.03
  -6 -12  -5    7.47    1.01
  -6 -12  -5    4.02    5.56
  -6 -12  -5    6.71    0.94
  -6  13   5    1.48    0.65
   6 -13  -5    1.98    0.58
   6  13  -4    5.11    5.48
  -6  13   4    4.57    0.83
  -6 -13   4    3.86    0.53
  -6 -13   4    1.66    6.29
   6 -13  -4    3.42    0.64
  -6  13   3   19.43    1.37
   6  13  -3    7.01    5.05
   6  13  -3    8.22    4.70
   6 -13  -3   16.87    1.21
  -6  13   2    6.95    2.08
   6  13  -2    9.73    5.93
  -6  13   2   12.66    1.08
   6  13  -2   15.66    5.75
   6 -13  -2    9.56    1.27
  -6 -13   2   11.14    1.15
  -6  13   1   53.34    1.72
  -6  13   1   50.90    2.33
   6  13  -1   60.88    9.86
  -6  13   1   50.76    3.30
  -6  13   1   51.88    3.70
  -6 -13   1   53.97    2.54
   6 -13  -1   51.05    2.14
  -6  13   0   11.79    0.92
  -6  13   0   11.73    0.73
   6  13   0   12.38    5.31
   6  13   0   11.46    0.97
  -6  13   0   13.31    0.88
   6  13   0   21.16    6.83
  -6 -13   0   10.04    1.16
   6 -13   0   11.32    0.90
  -6 -13   0   10.81    1.05
   6  13   1    8.43    4.63
  -6  13  -1    6.26    0.65
  -6  13  -1    6.06    0.71
  -6  13  -1    7.53    0.66
   6  13   1    6.61    0.83
   6  13   1   15.11    6.02
  -6 -13  -1    5.63    0.92
  -6 -13  -1    6.28    0.82
   6  13   2    6.00    5.13
   6  13   2    1.00    0.46
  -6  13  -2   -0.01    0.21
  -6  13  -2    0.57    0.35
  -6 -13  -2    0.24    0.38
  -6 -13  -2    0.53    0.49
  -6  13  -3   -0.01    0.29
   6  13   3   -0.68    4.17
   6  13   3    0.07    0.41
  -6 -13  -3    0.32    0.41
  -6 -13  -3    0.32    0.51
   6  13   4    1.48    0.60
   6  13   4    6.37    5.49
  -6  13  -4    1.82    0.53
  -6 -13  -4    4.91    5.46
  -6 -13  -4    0.73    0.68
  -6 -13  -4    0.94    0.51
   6  14  -4    6.50    5.35
   6  14  -3   10.44    5.53
   6  14  -2   -6.32    3.41
  -6  14   2   -1.15    2.04
   6  14  -2    0.62    3.51
  -6  14   2    0.33    0.36
  -6 -14   2   -0.35    0.44
   6 -14  -2    0.03    0.38
  -6  14   1    1.66    0.41
  -6  14   1    1.86    0.29
  -6  14   1    1.13    0.45
  -6  14   1    0.57    1.08
  -6  14   1    1.55    0.84
   6  14  -1    2.02    0.51
   6  14  -1    0.60    3.86
   6  14  -1    5.76    3.81
   6 -14  -1    1.60    0.47
  -6 -14   1    2.35    0.71
  -6 -14   1    0.41    0.49
   6  14   0   37.98    1.84
  -6  14   0   40.02    1.74
  -6  14   0   38.17    1.78
   6  14   0   41.26    8.01
  -6  14   0   40.63    1.54
   6  14   0   38.16    8.89
   6 -14   0   36.75    1.75
  -6 -14   0   32.46    1.93
  -6 -14   0   40.91    2.20
   6  14   1    8.28    4.79
   6  14   1    2.97    4.94
   6  14   2   22.85    1.46
  -6  14  -2   23.38    1.29
   6  14   2    9.73    5.62
   6  14   2   10.88    5.88
  -6  14  -2   19.49    0.99
  -6 -14  -2   20.25    1.56
  -6 -14  -2   20.04    1.37
   6  14   3   -1.51    4.84
  -6  14  -3    5.34    0.76
   6  14   3    5.70    1.11
   6  14   3    7.57    6.88
  -6 -14  -3    5.18    0.91
  -6 -14  -3    3.95    0.74
   6  15  -3    2.50    5.41
  -6  15   3    0.61    0.50
   6 -15  -3    0.05    0.44
   6  15  -2    9.94    5.73
  -6  15   2    9.56    3.24
  -6  15   2    7.30    0.96
  -6 -15   2    8.33    1.15
   6 -15  -2    8.54    0.92
   6  15  -1    1.25    0.48
  -6  15   1   -0.07    1.22
  -6  15   1    2.07    0.29
  -6  15   1    0.86    0.46
  -6  15   1    1.38    0.39
   6  15  -1    1.75    4.80
  -6 -15   1    0.99    0.60
   6 -15  -1    1.32    0.46
   6  15   0    0.94    4.49
  -6  15   0    1.51    0.35
  -6  15   0    2.31    0.56
   6  15   0    1.84    0.51
   6 -15   0    1.31    0.47
  -6 -15   0    0.51    0.60
  -6 -15   0    1.20    0.57
  -6  15  -1    1.80    0.44
  -6  15  -1    0.93    0.40
   6  15   1    2.72    0.63
   6  15   1    5.82    5.41
  -6 -15  -1    2.38    0.69
  -6 -15  -1    0.68    0.48
   6  15   2    6.37    0.93
  -6  15  -2    5.81    0.77
   6  15   2   -3.81    6.07
  -6  15  -2    5.48    0.58
  -6 -15  -2    4.86    0.81
  -6 -15  -2    4.93    0.91
   6  15   3   -1.80   10.19
   6  15   3    0.99    0.49
  -6  15  -3    0.17    0.34
  -6 -15  -3   -0.29    0.40
  -6 -15  -3    0.08    0.53
  -6  16   2    1.17    0.55
  -6 -16   2    0.65    0.56
   6 -16  -2    0.50    0.45
   6  16  -1    3.40    0.65
   6  16  -1    0.19    5.44
  -6  16   1    2.72    0.59
   6 -16  -1    3.06    0.63
   6  16   0    1.12    5.40
   6  16   0    0.54    0.42
  -6  16   0    0.43    0.40
   6 -16   0    0.47    0.41
  -6 -16   0    1.42    1.07
   6  16   1    9.61    1.04
  -6  16  -1    8.28    0.81
   6  16   1   13.42    7.46
  -6 -16  -1    8.98    1.05
  -6 -16  -1    5.57    1.06
   7   0  -7    2.57    3.50
   7   0  -6    1.81    3.09
  -7   0   6    3.21    3.05
  -7   0   5    0.02    1.47
  -7   0   5    0.07    0.28
   7   0  -5    0.40    1.93
   7   0  -5    0.65    0.31
   7   0  -5   -0.23    0.20
  -7   0   4   16.36    1.01
  -7   0   4   17.78    4.32
   7   0  -4   17.35    0.86
   7   0  -4   18.14    0.95
   7   0  -4   18.05    4.67
   7   0  -3    0.02    0.14
  -7   0   3   -0.26    1.11
   7   0  -3    0.05    0.18
   7   0  -3    0.41    1.08
  -7   0   3   -0.01    0.20
  -7   0   2   71.77    2.45
  -7   0   2   71.55    6.69
   7   0  -2   69.05    2.01
   7   0  -2   69.63    2.00
   7   0  -2   63.45    6.28
   7   0  -2   71.51    2.32
  -7   0   1    0.44    0.26
   7   0  -1    0.06    0.16
   7   0  -1    0.96    1.04
  -7   0   1    1.27    1.05
   7   0   0  400.53   17.44
   7   0   0  422.72   18.11
   7   0   0  400.91   11.17
  -7   0   0  409.69   11.14
  -7   0   0  397.40   11.46
   7   0   1    0.15    0.18
  -7   0  -1   -0.07    0.16
  -7   0  -1   -0.16    0.10
   7   0   1    0.64    0.96
   7   0   1    0.61    1.07
  -7   0  -1   -0.19    0.16
  -7   0  -2    6.76    2.12
  -7   0  -2    8.79    0.72
  -7   0  -2    8.69    0.61
   7   0   2    5.11    2.06
   7   0   2   10.32    0.73
  -7   0  -2    9.51    0.57
   7   0   3    0.27    0.23
   7   0   3    0.59    1.27
  -7   0  -3   -0.87    0.92
  -7   0  -3   -0.24    0.19
  -7   0  -3   -0.08    0.20
  -7   0  -3    0.03    0.21
   7   0   4    0.82    0.26
  -7   0  -4    1.32    0.39
  -7   0  -4    1.19    1.35
   7   0   4    0.23    1.70
  -7   0  -4    1.49    0.32
  -7   0  -4    1.20    0.39
  -7   0  -5    0.19    1.78
  -7   0  -5   -0.03    0.33
   7   0   5   -0.23    0.20
  -7   0  -5   -0.01    0.34
  -7   0  -5    0.37    0.29
   7   0   6   26.48    6.49
  -7   0  -6   24.00    5.68
  -7   0  -6   25.19    1.26
  -7   0  -6   26.38    1.56
   7   0   6   26.36    1.17
  -7   0  -6   26.06    1.66
  -7   0  -7    0.20    3.42
  -7   0  -7    0.79    0.63
  -7   0  -7   -0.22    0.41
   7   0   7   -0.33    0.25
   7   1  -7    1.06    3.48
  -7   1   7    8.66    0.97
   7   1  -7   10.89    0.98
   7  -1  -7    7.71    6.84
   7  -1  -7   10.92    0.96
  -7  -1   7    3.20    4.64
  -7  -1   7   10.70    1.00
   7   1  -6   48.96    2.01
  -7   1   6   50.38    7.70
   7   1  -6   52.03    9.41
   7  -1  -6   40.59    2.20
   7  -1  -6   48.45    1.97
  -7  -1   6   50.44    2.09
   7  -1  -6   62.55    8.34
  -7  -1   6   39.47    8.05
  -7   1   5    8.39    0.81
   7   1  -5    4.75    2.97
  -7   1   5    5.13    2.81
   7   1  -5    6.68    1.13
   7  -1  -5    8.92    0.69
   7  -1  -5    8.78    0.69
  -7  -1   5    7.66    3.20
   7  -1  -5    6.32    3.34
  -7  -1   5    7.04    0.76
   7   1  -4   72.37    2.48
  -7   1   4   62.29    6.77
   7   1  -4   60.33    7.45
  -7   1   4   68.33    2.51
   7  -1  -4   71.60    2.40
   7  -1  -4   66.58    7.44
   7  -1  -4   69.31    2.32
  -7  -1   4   63.02    7.28
  -7  -1   4   67.61    2.48
   7   1  -3    1.11    1.34
   7   1  -3    0.03    0.18
  -7   1   3    0.02    0.20
  -7   1   3   -0.14    1.34
   7  -1  -3    0.16    1.27
  -7  -1   3    0.02    0.20
  -7  -1   3    0.47    1.25
   7  -1  -3   -0.02    0.15
   7  -1  -3    0.00    0.14
  -7   1   2   82.29    6.73
  -7   1   2   72.42    2.47
   7   1  -2   72.67    2.14
   7   1  -2   70.73    2.43
   7   1  -2   77.52    7.21
   7  -1  -2   79.54    6.68
   7  -1  -2   70.41    2.05
  -7  -1   2   75.09    7.14
   7  -1  -2   71.61    2.34
   7   1  -1   28.94    4.22
   7   1  -1   29.06    1.24
  -7   1   1   31.32    1.35
  -7   1   1   26.88    3.80
  -7  -1   1   31.31    1.49
   7  -1  -1   27.53    3.56
  -7  -1   1   29.11    4.65
   7  -1  -1   31.46    1.20
   7   1   0  255.30   13.76
   7   1   0  252.23    7.32
  -7   1   0  250.35    7.38
   7  -1   0  282.26   12.85
   7  -1   0  258.54    7.28
  -7  -1   0  253.83    6.94
  -7  -1   0  264.47    7.49
   7  -1   0  264.05   12.24
  -7  -1   0  246.55    7.24
  -7   1  -1   16.86    0.67
   7   1   1   13.49    3.56
  -7   1  -1   17.92    0.98
   7   1   1   18.83    3.86
   7   1   1   17.63    0.95
  -7   1  -1   16.62    0.83
  -7  -1  -1   18.29    1.01
   7  -1   1   16.43    3.34
  -7  -1  -1   17.26    0.87
   7  -1   1   17.73    2.73
  -7  -1  -1   16.76    0.71
   7  -1   1   17.49    0.91
   7   1   2    2.96    0.46
  -7   1  -2    2.68    0.35
  -7   1  -2    2.75    0.47
  -7   1  -2    2.91    0.40
  -7   1  -2    1.98    1.23
   7  -1   2    4.52    1.78
  -7  -1  -2    3.15    0.37
   7  -1   2    2.76    0.43
  -7  -1  -2    2.78    1.54
  -7  -1  -2    3.50    0.46
  -7  -1  -2    2.61    0.48
  -7   1  -3   39.26    1.53
  -7   1  -3   34.59    4.02
  -7   1  -3   38.64    1.49
   7   1   3   39.02    1.46
   7   1   3   36.97    1.70
  -7   1  -3   38.56    1.74
  -7  -1  -3   37.85    1.53
   7  -1   3   39.68    1.70
  -7  -1  -3   32.97    4.34
  -7  -1  -3   38.62    1.55
  -7  -1  -3   38.34    1.76
   7  -1   3   40.12    4.80
  -7   1  -4    1.65    1.49
  -7   1  -4    3.55    0.55
  -7   1  -4    3.71    0.47
   7   1   4    3.36    0.44
   7   1   4    2.19    2.05
  -7   1  -4    2.28    0.51
  -7  -1  -4    3.62    0.63
   7  -1   4    3.77    2.32
  -7  -1  -4    2.87    0.46
  -7  -1  -4    3.45    0.53
  -7  -1  -4    0.29    1.45
  -7   1  -5   20.22    1.03
  -7   1  -5   16.87    4.10
   7   1   5   19.04    1.00
   7   1   5   21.97    5.37
  -7   1  -5   20.67    1.37
  -7   1  -5   18.87    1.21
  -7  -1  -5   20.40    1.25
  -7  -1  -5   19.29    1.33
  -7  -1  -5   22.28    4.68
   7  -1   5   20.18    4.82
  -7  -1  -5   20.47    1.10
   7   1   6    0.19    0.27
  -7   1  -6    0.35    0.41
  -7   1  -6   -0.46    0.35
  -7   1  -6    1.30    1.87
   7   1   6    1.46    2.84
  -7   1  -6    0.42    0.32
  -7  -1  -6    0.87    0.44
  -7  -1  -6    0.27    0.39
  -7  -1  -6    0.87    0.37
  -7  -1  -6   -3.42    2.09
  -7   1  -7   11.85    1.17
   7   1   7    9.67    0.78
  -7   1  -7    8.25    4.72
   7   1   7    5.48    8.08
  -7  -1  -7   10.52    1.14
  -7  -1  -7   11.34    1.18
  -7  -1  -7   10.00    4.86
  -7   2   7   -0.14    0.39
  -7   2   7    2.99    4.35
   7   2  -7    1.79    3.41
   7   2  -7    0.24    0.39
  -7  -2   7    0.70    0.44
   7  -2  -7   -0.13    3.82
   7  -2  -7    1.07    0.41
  -7  -2   7   -1.79    3.35
   7  -2  -7    1.13    0.48
   7   2  -6    2.08    3.28
  -7   2   6   -0.35    2.26
  -7   2   6    1.65    0.53
   7  -2  -6    1.49    0.45
  -7  -2   6    1.06    0.42
   7  -2  -6    1.73    0.38
   7  -2  -6    7.45    3.17
  -7  -2   6   -0.08    3.14
   7   2  -5   12.24    0.88
   7   2  -5   10.32    4.16
  -7   2   5   13.94    1.01
  -7   2   5    9.30    3.43
   7  -2  -5   13.58    0.79
   7  -2  -5   12.03    0.81
  -7  -2   5    8.68    3.65
  -7  -2   5   13.00    0.94
   7  -2  -5   17.16    4.79
  -7   2   4    1.54    0.43
   7   2  -4    1.41    0.37
   7   2  -4   -0.72    2.13
  -7   2   4    3.41    2.06
  -7  -2   4    3.55    2.51
   7  -2  -4    2.14    0.34
   7  -2  -4    1.90    0.33
   7  -2  -4    1.98    1.99
   7   2  -3  127.20    3.82
  -7   2   3  124.49    3.70
   7   2  -3  119.83    3.53
  -7   2   3  115.79    3.80
  -7   2   3  123.60    9.64
   7   2  -3  120.36   10.14
  -7  -2   3  121.28    3.94
  -7  -2   3  110.54    9.44
   7  -2  -3  119.65    3.45
   7  -2  -3  108.93    9.67
   7  -2  -3  118.42    3.81
  -7   2   2   24.85    3.44
   7   2  -2   21.30    4.64
  -7   2   2   25.31    1.11
   7   2  -2   22.61    0.89
   7   2  -2   24.62    1.14
  -7  -2   2   24.05    1.22
   7  -2  -2   23.23    3.46
   7  -2  -2   24.77    0.79
  -7  -2   2   20.03    4.51
   7  -2  -2   24.33    1.02
  -7   2   1   39.51    1.54
   7   2  -1   46.62    5.78
   7   2  -1   35.84    1.16
  -7   2   1   30.44    3.77
   7   2  -1   38.17    1.52
  -7  -2   1   43.53    5.97
  -7  -2   1   35.52    1.44
  -7  -2   1   42.04    1.68
   7  -2  -1   38.35    1.38
   7  -2  -1   35.79    3.73
   7   2   0    4.81    2.22
   7   2   0    4.53    2.28
   7   2   0    3.50    0.42
   7   2   0    3.87    0.26
  -7   2   0    3.76    0.45
  -7  -2   0    3.76    0.42
  -7  -2   0    4.05    0.34
   7  -2   0    3.34    0.38
   7  -2   0    3.53    1.22
   7  -2   0    5.16    1.69
  -7  -2   0    4.17    0.52
   7   2   1   42.09    1.66
   7   2   1   41.49    1.34
  -7   2  -1   40.12    1.63
  -7   2  -1   38.78    1.48
   7   2   1   42.62    5.27
   7   2   1   40.69    5.48
   7  -2   1   33.44    3.82
   7  -2   1   44.17    3.88
  -7  -2  -1   40.30    1.38
   7  -2   1   39.84    1.57
  -7  -2  -1   39.35    1.53
  -7  -2  -1   38.56    1.70
  -7   2  -2   42.49    1.76
  -7   2  -2   34.52    3.57
   7   2   2   40.34    1.74
   7   2   2   33.18    4.96
   7   2   2   42.96    1.57
  -7   2  -2   43.44    1.56
   7  -2   2   42.24    1.70
  -7  -2  -2   41.30    4.74
  -7  -2  -2   43.03    1.54
  -7  -2  -2   43.54    1.65
  -7  -2  -2   42.17    1.83
   7  -2   2   40.89    4.06
   7   2   3   15.23    3.89
  -7   2  -3   11.21    2.78
  -7   2  -3   12.76    0.72
  -7   2  -3   12.22    0.90
   7   2   3   13.24    0.77
   7   2   3   12.31    0.91
   7  -2   3   15.26    3.71
  -7  -2  -3   12.90    0.81
  -7  -2  -3   10.00    2.74
  -7  -2  -3   12.22    0.78
  -7  -2  -3   12.75    0.94
   7   2   4   19.69    4.77
  -7   2  -4   15.58    3.34
  -7   2  -4   18.00    1.19
  -7   2  -4   19.64    1.09
   7   2   4   19.61    1.00
  -7   2  -4   18.76    0.92
   7  -2   4   15.76    3.94
  -7  -2  -4   18.31    1.23
  -7  -2  -4   19.22    1.11
  -7  -2  -4   13.25    3.36
  -7   2  -5   25.43    4.04
  -7   2  -5   21.76    1.32
  -7   2  -5   22.72    1.43
   7   2   5   16.50    5.23
   7   2   5   21.70    1.11
  -7   2  -5   21.67    1.03
  -7  -2  -5   21.63    1.40
  -7  -2  -5   22.47    1.43
  -7  -2  -5   21.86    1.20
  -7  -2  -5   24.86    5.31
   7  -2   5   20.11    4.93
   7   2   6   23.19    8.78
   7   2   6   23.89    1.23
  -7   2  -6   26.53    1.57
  -7   2  -6   25.13    1.13
  -7   2  -6   26.97    5.37
  -7   2  -6   26.65    1.65
   7  -2   6   25.70    5.99
  -7  -2  -6   19.63    6.49
  -7  -2  -6   24.80    1.53
  -7  -2  -6   24.37    1.59
  -7   2  -7   20.45    1.55
  -7   2  -7    7.48    7.25
  -7   2  -7   19.86    1.51
   7   2   7   18.42    1.12
  -7  -2  -7   17.38    1.46
  -7  -2  -7   27.89    6.92
  -7  -2  -7   22.42    2.26
   7   3  -7    2.71    3.99
  -7   3   7    2.58    3.53
  -7  -3   7   -0.04    3.64
   7  -3  -7    2.58    3.94
   7   3  -6    0.66    3.11
  -7   3   6    1.44    0.48
   7  -3  -6    0.38    0.27
   7  -3  -6   -0.03    0.31
  -7  -3   6    0.42    0.32
   7  -3  -6   -0.12    3.01
  -7  -3   6    1.95    3.35
   7   3  -5   -1.39    2.78
   7   3  -5    5.81    0.84
  -7   3   5    0.11    1.71
  -7  -3   5    1.85    3.75
   7  -3  -5    3.30    2.27
   7   3  -4   23.49    1.07
   7   3  -4   23.65    1.25
  -7   3   4   16.46    3.88
  -7   3   4   23.06    1.27
   7   3  -4   20.33    5.13
   7  -3  -4   24.02    4.88
   7  -3  -4   24.04    1.05
  -7  -3   4   23.16    5.12
   7  -3  -4   23.83    1.02
   7   3  -3   44.85    1.81
   7   3  -3   43.06    1.56
  -7   3   3   41.09    1.76
   7   3  -3   49.82    6.47
  -7   3   3   43.71    1.59
  -7   3   3   43.37    4.98
  -7  -3   3   55.85    6.71
   7  -3  -3   44.30    1.49
   7  -3  -3   43.48    5.06
  -7  -3   3   44.44    1.90
   7  -3  -3   45.13    1.48
   7   3  -2  154.66   11.78
  -7   3   2  144.83    4.49
   7   3  -2  143.89    4.26
  -7   3   2  154.53    4.42
  -7   3   2  154.95    8.91
   7   3  -2  150.85    4.56
   7  -3  -2  148.26    8.85
  -7  -3   2  146.18   11.35
   7  -3  -2  148.44    4.24
  -7  -3   2  152.38    4.70
  -7  -3   2  145.95    4.43
   7  -3  -2  144.66    4.08
   7   3  -1   19.91    1.01
   7   3  -1   21.94    4.99
   7   3  -1   18.92    0.74
  -7   3   1   19.85    2.81
  -7   3   1   18.78    0.95
  -7  -3   1   19.51    0.94
  -7  -3   1   19.61    1.10
   7  -3  -1   19.22    0.89
  -7  -3   1   20.73    4.84
  -7  -3   1   19.86    0.77
   7  -3  -1   21.86    2.62
   7   3   0  140.07   10.75
   7   3   0  141.85    4.43
  -7   3   0  146.65    4.38
   7   3   0  148.77   11.19
   7   3   0  137.19    4.04
  -7  -3   0  139.25    4.32
  -7  -3   0  148.71    4.57
  -7  -3   0  140.67    4.17
   7  -3   0  150.48    7.00
   7  -3   0  157.32    7.51
   7  -3   0  146.55    4.27
   7   3   1   44.21    5.86
   7   3   1   40.15    1.67
   7   3   1   39.86    1.54
   7   3   1   39.18    5.47
  -7   3  -1   39.45    1.62
   7   3   1   40.71    1.48
  -7   3  -1   40.25    1.31
   7  -3   1   42.50    3.71
  -7  -3  -1   39.05    1.43
  -7  -3  -1   40.96    1.59
   7  -3   1   42.68    1.60
   7  -3   1   46.07    3.46
  -7  -3  -1   42.05    1.77
  -7   3  -2   49.37    1.69
   7   3   2   51.80    6.29
  -7   3  -2   43.95    3.72
  -7   3  -2   46.80    1.88
   7   3   2   48.73    1.95
   7   3   2   47.63    1.74
  -7  -3  -2   46.77    1.97
  -7  -3  -2   42.84    5.16
  -7  -3  -2   46.30    1.83
  -7  -3  -2   47.17    1.80
   7  -3   2   42.29    3.83
   7   3   3  137.27    4.12
  -7   3  -3  130.15    4.33
  -7   3  -3  136.63    7.79
   7   3   3  133.49   11.03
   7   3   3  135.35    4.42
  -7   3  -3  132.25    3.98
  -7  -3  -3  137.36    4.47
  -7  -3  -3  129.37    9.53
  -7  -3  -3  133.78    4.20
   7  -3   3  133.58    8.36
  -7  -3  -3  133.39    4.14
   7   3   4   22.06    1.12
  -7   3  -4   20.99    3.27
   7   3   4   24.77    5.93
  -7   3  -4   22.51    0.98
  -7   3  -4   23.25    1.32
  -7  -3  -4   19.05    1.12
  -7  -3  -4   19.95    4.67
   7  -3   4   25.80    4.14
  -7  -3  -4   22.44    1.21
  -7  -3  -4   19.48    1.29
   7   3   5    3.02    2.78
   7   3   5    1.80    0.44
  -7   3  -5    0.99    0.27
  -7   3  -5    1.04    0.44
  -7  -3  -5    1.18    0.48
  -7  -3  -5    0.77    2.35
  -7  -3  -5    1.72    0.63
  -7   3  -6    0.48    0.24
  -7   3  -6   -3.49    1.80
  -7   3  -6    0.93    0.48
  -7   3  -6    0.64    0.45
   7   3   6   -3.42    3.31
  -7  -3  -6   -4.06    2.27
  -7  -3  -6    0.43    0.44
   7  -3   6    4.79    2.86
  -7  -3  -6    0.45    0.41
  -7   3  -7    2.86    0.68
  -7   3  -7    2.50    1.01
   7   3   7    1.14    0.44
  -7  -3  -7    2.47    0.65
  -7  -3  -7   10.46    4.88
   7   4  -7   71.20   11.10
  -7   4   7   54.41    2.54
   7  -4  -7   57.11    2.32
   7  -4  -7   54.47    1.94
   7  -4  -7   51.38    1.92
  -7  -4   7   64.61   11.69
  -7  -4   7   53.24    2.20
  -7   4   6    4.46    0.75
   7   4  -6    0.85    2.62
   7  -4  -6    4.31    0.43
  -7  -4   6    5.57    0.66
   7  -4  -6    5.53    3.94
   7  -4  -6    3.28    0.55
  -7  -4   6   -4.69    2.96
   7   4  -5   33.96    7.40
   7   4  -5   31.69    1.43
  -7   4   5   28.16    5.76
  -7  -4   5   32.38    6.68
  -7  -4   5   31.90    1.51
   7  -4  -5   32.82    1.40
   7  -4  -5   30.74    1.16
   7  -4  -5   37.80    7.01
  -7   4   4    1.08    0.40
  -7   4   4    0.28    1.56
   7   4  -4    1.03    2.31
   7   4  -4    1.54    0.35
   7   4  -4    0.79    0.33
   7  -4  -4    0.83    0.29
   7  -4  -4    0.90    0.20
   7  -4  -4    2.60    1.81
  -7  -4   4   -0.21    1.75
   7   4  -3  197.09    5.80
   7   4  -3  186.28    5.46
   7   4  -3  181.54   13.90
  -7   4   3  187.86   10.85
  -7   4   3  185.09    5.69
   7  -4  -3  189.49   11.11
  -7  -4   3  188.82    5.87
  -7  -4   3  188.79    5.52
   7  -4  -3  192.09    5.30
   7  -4  -3  191.34    5.22
  -7  -4   3  178.03   13.30
  -7   4   2    8.84    0.68
   7   4  -2    8.01    3.28
   7   4  -2    9.00    0.70
  -7   4   2    9.08    2.29
   7   4  -2    8.32    0.56
  -7   4   2   10.01    0.60
  -7  -4   2    7.94    0.60
  -7  -4   2    1.73    2.35
  -7  -4   2    8.88    0.75
   7  -4  -2    9.34    0.46
   7  -4  -2    5.77    1.86
   7  -4  -2    9.17    0.48
  -7   4   1    8.08    1.83
   7   4  -1    9.55    0.70
  -7   4   1    9.49    0.42
  -7   4   1    8.95    0.62
   7   4  -1    8.73    0.50
   7   4  -1   10.58    3.62
   7  -4  -1    9.70    0.41
   7  -4  -1    9.70    1.89
  -7  -4   1    9.08    0.55
  -7  -4   1    8.91    3.60
  -7  -4   1    9.58    0.65
  -7  -4   1    9.53    0.76
   7  -4  -1    8.62    0.52
   7   4   0   45.40    6.16
  -7   4   0   48.39    1.48
   7   4   0   44.27    1.80
   7   4   0   47.83    6.41
   7   4   0   43.24    1.51
  -7   4   0   46.90    1.72
   7  -4   0   47.73    3.01
  -7  -4   0   46.01    1.90
   7  -4   0   51.84    3.27
  -7  -4   0   46.97    1.68
   7  -4   0   46.37    1.64
  -7  -4   0   45.69    1.73
   7   4   1   14.84    0.84
   7   4   1   10.72    3.82
   7   4   1   13.47    0.89
   7   4   1   14.58    4.16
   7   4   1   15.42    0.73
  -7   4  -1   14.53    0.86
  -7   4  -1   16.18    0.68
  -7  -4  -1   14.81    0.98
  -7  -4  -1   14.41    0.85
  -7  -4  -1   15.03    0.79
   7  -4   1   16.07    1.69
   7  -4   1   16.31    1.85
  -7   4  -2    4.88    0.53
   7   4   2    3.97    0.52
  -7   4  -2    4.42    0.43
  -7   4  -2    5.06    1.27
   7   4   2    5.11    2.55
   7   4   2    3.91    0.50
   7   4   2    3.78    0.42
  -7   4  -2    4.56    0.39
  -7  -4  -2    4.99    0.50
   7  -4   2    5.27    1.35
  -7  -4  -2    3.76    0.59
  -7  -4  -2    4.29    0.51
  -7  -4  -2    4.14    2.18
   7   4   3   50.55    2.14
  -7   4  -3   46.38    4.12
  -7   4  -3   51.76    1.75
   7   4   3   44.05   12.37
   7   4   3   49.77    1.91
  -7   4  -3   47.60    2.03
  -7  -4  -3   50.60    2.14
  -7  -4  -3   50.81    1.93
  -7  -4  -3   48.87    1.96
   7  -4   3   52.80    4.69
  -7  -4  -3   58.61   12.12
   7   4   4   15.64    0.98
  -7   4  -4   15.55    3.15
   7   4   4   19.44    5.05
  -7   4  -4   16.54    1.10
   7  -4   4   20.88    3.34
  -7  -4  -4   15.39    1.03
  -7  -4  -4   10.19    3.33
  -7  -4  -4   15.63    1.04
  -7  -4  -4   16.36    1.18
  -7   4  -5   10.02    0.58
   7   4   5    8.86    4.43
  -7   4  -5    7.69    2.84
   7   4   5   10.34    0.84
  -7   4  -5   11.47    0.99
  -7  -4  -5    9.81    0.93
   7  -4   5    3.71    2.29
  -7  -4  -5   10.29    1.02
  -7  -4  -5    4.01    2.91
  -7   4  -6   17.01    4.35
  -7   4  -6   20.95    1.46
   7   4   6   16.77    6.34
   7   4   6   18.16    1.16
  -7  -4  -6   16.70    1.35
  -7  -4  -6   17.53    5.17
   7  -4   6    8.30    4.11
  -7  -4  -6   19.03    1.35
   7   5  -7    3.28    5.51
  -7  -5   7    3.27    4.63
  -7   5   6   82.03    3.25
   7   5  -6   71.35   11.16
  -7   5   6   84.13    9.19
   7  -5  -6   79.50    9.43
  -7  -5   6   80.53    2.87
  -7  -5   6   80.12   10.22
   7  -5  -6   80.37    2.89
  -7   5   5    4.41    3.08
   7   5  -5    1.04    3.28
  -7   5   5    3.75    0.70
  -7  -5   5    0.99    3.01
  -7  -5   5    5.13    0.57
   7  -5  -5    4.60    0.57
   7   5  -4    6.13    0.59
   7   5  -4    4.55    3.12
  -7   5   4    7.68    0.78
  -7   5   4    6.86    2.71
   7  -5  -4    5.87    0.54
  -7  -5   4    6.45    0.58
   7  -5  -4    5.04    2.35
  -7  -5   4    5.51    3.29
   7   5  -3   23.76    1.14
  -7   5   3   24.94    3.80
   7   5  -3   24.40    1.32
   7   5  -3   21.34    5.62
  -7   5   3   24.63    1.28
   7  -5  -3   23.77    3.64
   7  -5  -3   25.55    1.01
  -7  -5   3   25.52    1.40
  -7  -5   3   23.58    5.86
  -7  -5   3   25.57    1.15
  -7   5   2    3.81    1.38
   7   5  -2    3.30    0.43
  -7   5   2    3.48    0.34
   7   5  -2    1.19    2.16
   7   5  -2    2.92    0.47
  -7   5   2    2.76    0.45
  -7   5   2    3.53    0.35
   7  -5  -2    3.40    0.32
   7  -5  -2    2.86    0.26
   7  -5  -2    2.23    1.10
  -7  -5   2    2.92    2.43
  -7  -5   2    3.65    0.60
  -7  -5   2    2.44    0.38
   7   5  -1    6.55    0.47
  -7   5   1    5.82    1.45
  -7   5   1    5.52    0.53
  -7   5   1    6.15    0.40
  -7   5   1    6.43    0.51
   7   5  -1    6.97    0.63
   7   5  -1   10.93    4.03
   7  -5  -1    6.42    0.39
  -7  -5   1    5.78    0.54
  -7  -5   1    5.72    0.64
   7  -5  -1    5.01    1.27
   7  -5  -1    6.78    0.43
  -7  -5   1    6.10    0.52
   7   5   0   13.52    4.19
   7   5   0   15.80    0.76
   7   5   0   15.34    4.41
  -7   5   0   17.98    0.76
  -7   5   0   15.40    0.83
   7   5   0   16.22    0.89
  -7   5   0   16.88    0.84
   7   5   0   16.90    0.97
   7  -5   0   18.32    1.11
   7  -5   0   16.46    1.03
  -7  -5   0   15.78    0.90
  -7  -5   0   16.92    1.04
  -7  -5   0   17.87    0.94
   7   5   1   41.19    1.57
   7   5   1   27.34    6.04
   7   5   1   40.52    1.70
   7   5   1   41.48    7.84
   7   5   1   39.56    1.43
  -7   5  -1   38.22    1.56
  -7  -5  -1   39.51    1.59
  -7  -5  -1   39.17    1.75
  -7  -5  -1   35.27    1.64
   7   5   2  101.91    3.30
  -7   5  -2  106.59    5.23
   7   5   2  110.99    3.77
  -7   5  -2  109.82    3.51
  -7   5  -2  102.40    3.21
   7   5   2  101.22   10.05
   7   5   2  107.23    3.43
  -7   5  -2  105.40    3.22
  -7  -5  -2  108.16    3.39
   7  -5   2  112.10    5.40
  -7  -5  -2   98.22    8.73
  -7  -5  -2  106.61    3.65
  -7  -5  -2  105.98    3.47
  -7   5  -3    6.77    0.68
   7   5   3    6.84    0.73
   7   5   3    7.49    0.69
  -7   5  -3    6.78    0.55
   7   5   3    7.16    0.69
  -7   5  -3    6.99    1.75
   7   5   3    4.54    2.86
  -7  -5  -3    1.61    2.02
   7  -5   3    4.79    1.64
  -7  -5  -3    6.26    0.76
  -7  -5  -3    6.36    0.65
  -7  -5  -3    6.38    0.65
  -7   5  -4   65.54    5.51
   7   5   4   63.43    2.40
   7   5   4   58.18    8.61
  -7   5  -4   65.55    2.03
  -7  -5  -4   73.40    7.96
  -7  -5  -4   65.35    2.67
  -7  -5  -4   65.86    2.50
   7  -5   4   62.87    5.92
  -7   5  -5    2.17    1.54
   7   5   5   -0.25    3.29
  -7   5  -5    2.15    0.53
   7   5   5    1.74    0.46
   7  -5   5   -0.48    1.81
  -7  -5  -5    6.45    3.33
  -7  -5  -5    0.53    0.43
  -7  -5  -5    1.25    0.52
   7   5   6   13.84    6.36
  -7   5  -6   21.09    4.73
   7   5   6   22.19    1.30
  -7   5  -6   20.33    1.45
  -7  -5  -6   19.25    1.47
   7  -5   6   24.00    5.20
  -7  -5  -6   21.15    1.43
  -7  -5  -6   13.68    4.51
   7   6  -7   -1.93    4.91
  -7  -6   7   -0.82    5.53
  -7   6   6    0.11    0.42
   7   6  -6   -0.89    4.67
  -7   6   6   -0.18    2.54
  -7  -6   6    0.35    0.32
   7  -6  -6    0.92    0.47
  -7  -6   6    3.46    3.69
   7  -6  -6    1.92    2.94
  -7  -6   6    0.11    0.33
  -7   6   5   96.18    3.56
   7   6  -5   75.58   10.92
  -7  -6   5   95.24    3.10
   7  -6  -5  107.01   11.91
  -7  -6   5   94.15   10.75
   7  -6  -5   96.49    3.16
   7   6  -4   -0.20    0.29
   7   6  -4    1.76    2.12
  -7   6   4    1.95    1.87
  -7   6   4    0.66    0.34
   7  -6  -4    0.13    0.26
   7  -6  -4    1.03    1.33
  -7  -6   4   -2.34    1.95
  -7  -6   4   -0.11    0.23
  -7   6   3   52.26    1.86
  -7   6   3   56.01    5.24
   7   6  -3   51.03    1.99
   7   6  -3   53.03    2.18
  -7   6   3   51.98    2.12
   7   6  -3   48.27    7.08
  -7  -6   3   49.41    2.24
   7  -6  -3   56.77    5.51
  -7  -6   3   53.32    1.92
  -7  -6   3   51.13    7.68
   7   6  -2    0.35    0.22
  -7   6   2   -0.57    0.67
   7   6  -2    0.17    0.24
  -7   6   2    0.18    0.17
   7   6  -2   -1.26    2.00
  -7   6   2    0.12    0.24
  -7   6   2    0.25    0.15
  -7  -6   2    0.42    1.77
  -7  -6   2    0.31    0.29
   7  -6  -2    0.12    0.90
  -7  -6   2   -0.11    0.20
   7  -6  -2    0.23    0.18
   7   6  -1    7.10    3.48
  -7   6   1    5.57    0.55
   7   6  -1    5.47    0.47
  -7   6   1    5.22    0.42
  -7   6   1    5.76    0.46
  -7   6   1    3.51    1.12
   7   6  -1    5.52    0.68
   7  -6  -1    5.92    0.41
  -7  -6   1    5.22    0.61
  -7  -6   1    6.57    0.58
   7  -6  -1    4.04    1.10
  -7   6   0   34.08    1.36
   7   6   0   36.80    1.47
  -7   6   0   38.28    1.34
   7   6   0   34.04    1.33
  -7   6   0   33.51    1.36
   7   6   0   34.88    1.57
   7   6   0   31.26    6.41
   7   6   0   34.97    6.78
  -7  -6   0   33.74    1.46
  -7  -6   0   34.35    1.64
  -7   6  -1   16.30    0.89
  -7   6  -1   15.21    0.84
   7   6   1   15.61    0.91
   7   6   1   16.67    4.71
   7   6   1   14.70    0.80
  -7   6  -1   15.89    0.79
   7   6   1   15.25    4.93
  -7  -6  -1   15.80    1.05
  -7  -6  -1   14.00    0.90
  -7  -6  -1   15.12    0.92
   7   6   2   40.98    6.52
  -7   6  -2   36.26    1.40
  -7   6  -2   34.35    1.26
  -7   6  -2   35.85    1.55
   7   6   2   33.95    1.44
   7   6   2   34.43    1.68
   7   6   2   36.13    1.56
  -7  -6  -2   31.74    4.98
  -7  -6  -2   36.42    1.59
   7  -6   2   38.55    2.22
  -7  -6  -2   33.69    1.67
  -7  -6  -2   35.29    1.52
  -7   6  -3    4.62    0.65
   7   6   3    3.89    2.44
   7   6   3    3.97    0.60
  -7   6  -3    3.02    1.18
  -7   6  -3    3.86    0.39
   7   6   3    4.79    0.67
  -7   6  -3    4.11    0.47
  -7  -6  -3    4.16    0.62
  -7  -6  -3    5.40    0.65
   7  -6   3    4.54    1.47
  -7  -6  -3    4.38    2.68
  -7   6  -4   36.21    1.73
   7   6   4   25.83    6.68
  -7   6  -4   31.00    3.66
   7   6   4   37.15    1.66
  -7  -6  -4   31.97    1.62
  -7  -6  -4   34.24    1.80
   7  -6   4   31.44    4.10
  -7   6  -5    1.03    0.47
   7   6   5    1.58    0.46
   7   6   5    4.61    4.34
  -7   6  -5   -0.86    1.40
  -7  -6  -5    1.20    0.50
  -7  -6  -5    0.59    0.46
   7  -6   5    2.37    2.20
  -7  -6  -5    2.93    2.81
  -7   6  -6   66.19    6.87
  -7   6  -6   71.46    3.00
   7   6   6   67.92    2.66
   7   6   6   67.18   12.24
  -7  -6  -6   73.88    9.97
   7  -6   6   72.67    8.33
  -7  -6  -6   66.69    2.88
  -7  -6  -6   64.12    2.91
  -7   7   7   10.08    1.28
   7   7  -7    4.64    5.76
  -7  -7   7    6.36    6.65
   7  -7  -7    8.36    0.94
  -7  -7   7    7.56    0.74
   7   7  -6   25.64    7.94
  -7   7   6   30.60    1.84
   7  -7  -6   30.33    1.52
  -7  -7   6   30.91    1.37
  -7  -7   6   30.55    1.46
  -7  -7   6   26.66    8.30
  -7   7   5   24.94    1.55
   7   7  -5   23.27    6.22
  -7   7   5   25.48    5.13
  -7  -7   5   25.50    1.18
   7  -7  -5   24.91    1.26
   7  -7  -5   18.48    4.52
  -7  -7   5   16.08    5.78
   7   7  -4    6.44    0.69
   7   7  -4    4.15    3.95
  -7   7   4    9.39    3.95
  -7   7   4    6.06    0.82
  -7  -7   4    6.40    3.82
   7  -7  -4    6.59    0.61
   7   7  -3   33.43    7.22
   7   7  -3   38.84    1.69
  -7   7   3   39.91    1.56
  -7   7   3   40.13    1.81
   7  -7  -3   39.54    1.51
  -7  -7   3   39.59    1.60
  -7  -7   3   36.98    1.91
  -7  -7   3   50.93    7.70
   7  -7  -3   47.56    4.94
   7   7  -2   -0.09    0.23
  -7   7   2   -0.16    0.20
   7   7  -2    0.45    2.23
   7   7  -2   -0.38    0.19
  -7   7   2    0.19    0.21
  -7   7   2    0.53    0.84
  -7  -7   2   -0.15    0.24
   7  -7  -2   -0.15    0.74
   7  -7  -2    0.29    0.21
  -7  -7   2   -0.03    2.60
  -7  -7   2    0.13    0.26
  -7   7   1    0.64    0.55
   7   7  -1    0.02    2.18
  -7   7   1    0.73    0.23
  -7   7   1    0.41    0.27
   7   7  -1    0.44    0.27
   7   7  -1   -0.84    1.81
   7   7  -1    0.58    0.25
  -7   7   1    0.68    0.23
   7  -7  -1    0.64    0.22
  -7  -7   1    0.39    0.32
  -7  -7   1    0.15    0.28
   7  -7  -1    0.32    0.55
  -7  -7   1    0.33    0.28
  -7   7   0   42.64    1.63
   7   7   0   43.79    1.62
  -7   7   0   44.12    1.60
   7   7   0   45.87    7.03
  -7   7   0   42.85    1.58
   7   7   0   42.59    1.70
   7   7   0   41.14    1.82
   7   7   0   40.06    7.78
  -7  -7   0   41.24    1.81
  -7  -7   0   43.30    1.91
  -7  -7   0   42.60    1.73
  -7   7  -1   20.30    0.99
  -7   7  -1   20.23    1.02
  -7   7  -1   19.87    1.02
   7   7   1   20.53    1.01
   7   7   1   20.42    1.20
   7   7   1   21.15    1.11
   7   7   1   22.95    5.76
   7   7   1   21.24    5.84
  -7  -7  -1   20.67    1.15
  -7  -7  -1   19.87    1.10
  -7  -7  -1   18.95    1.21
  -7   7  -2    0.12    0.18
   7   7   2    0.78    0.35
  -7   7  -2    0.25    0.24
   7   7   2   -0.52    1.95
   7   7   2   -0.12    0.27
  -7   7  -2    0.57    0.26
  -7  -7  -2   -0.14    0.27
  -7  -7  -2   -0.88    1.63
  -7  -7  -2    0.25    0.33
   7   7   3   37.96    8.06
  -7   7  -3   33.71    1.60
   7   7   3   31.59    1.80
  -7   7  -3   33.34    1.16
  -7   7  -3   34.67    1.46
  -7   7  -3   33.78    1.24
   7   7   3   36.41    1.63
  -7   7  -3   35.67    2.89
  -7  -7  -3   34.85    1.74
  -7  -7  -3   34.06    1.60
  -7  -7  -3   27.01    5.83
   7  -7   3   36.08    3.14
   7   7   4    2.98    0.58
   7   7   4    3.54    3.65
  -7   7  -4    2.99    1.43
  -7   7  -4    4.00    0.65
  -7  -7  -4    4.08    0.67
   7  -7   4    5.31    1.94
  -7  -7  -4   -0.26    2.67
   7   7   5    0.07    4.74
  -7   7  -5    0.58    0.39
  -7   7  -5    0.41    1.71
   7   7   5    0.48    0.43
  -7  -7  -5    3.95    3.32
  -7  -7  -5   -0.09    0.42
   7  -7   5    1.89    2.18
  -7  -7  -5    0.04    0.41
   7   7   6    3.75    5.35
   7   7   6    3.25    0.66
  -7   7  -6    2.36    1.17
  -7   7  -6    4.93    2.71
  -7  -7  -6    2.71    0.66
   7  -7   6    3.34    3.29
  -7  -7  -6    2.89    0.67
  -7  -7  -6    3.58    4.59
  -7   8   6    0.24    0.44
   7   8  -6   -7.03    5.13
  -7  -8   6    1.30    0.36
  -7  -8   6   -0.07    0.34
  -7  -8   6    5.17    5.26
   7  -8  -6    0.96    0.42
  -7   8   5   24.12    1.57
   7   8  -5   15.29    5.99
  -7   8   5   20.15    4.91
   7  -8  -5   24.81    5.17
  -7  -8   5   24.40    7.02
   7  -8  -5   22.76    1.21
  -7  -8   5   20.35    1.09
  -7   8   4    1.11    0.36
   7   8  -4    2.77    3.14
  -7   8   4    0.35    0.41
  -7  -8   4    3.06    2.92
   7  -8  -4    1.27    0.40
  -7  -8   4    0.12    0.29
  -7   8   3   46.11    1.77
  -7   8   3   46.95    2.01
   7   8  -3   24.38    6.38
   7   8  -3   42.72    1.88
  -7  -8   3   41.47    2.11
  -7  -8   3   46.81    1.92
   7  -8  -3   46.39    4.77
  -7  -8   3   40.72    8.37
   7  -8  -3   45.01    1.71
   7   8  -2    1.88    0.41
  -7   8   2    1.66    1.05
  -7   8   2    1.91    0.46
  -7   8   2    1.73    0.35
   7   8  -2   -4.13    2.04
  -7  -8   2    1.53    0.42
  -7  -8   2    1.70    0.45
   7  -8  -2    1.66    0.35
  -7  -8   2    2.46    3.36
  -7  -8   2    1.47    0.48
   7  -8  -2    1.54    1.07
  -7   8   1   37.35    1.33
   7   8  -1   35.55    1.50
  -7   8   1   35.73    1.45
   7   8  -1   34.48    1.67
   7   8  -1   32.16    7.01
  -7   8   1   37.73    2.34
   7   8  -1   37.74    7.61
  -7   8   1   36.26    1.56
  -7  -8   1   36.89    1.68
  -7  -8   1   35.86    1.56
   7  -8  -1   38.35    2.28
   7   8   0   23.71    1.16
   7   8   0   23.76    1.32
  -7   8   0   24.49    1.09
  -7   8   0   26.66    1.15
   7   8   0   23.87    1.23
   7   8   0   31.48    6.92
  -7   8   0   24.57    1.16
   7   8   0   29.31    6.72
  -7  -8   0   24.57    1.36
   7  -8   0   24.83    1.06
  -7  -8   0   26.79    1.42
  -7  -8   0   24.18    1.25
   7   8   1   55.43    2.29
  -7   8  -1   54.15    1.92
   7   8   1   56.65    8.42
  -7   8  -1   57.26    2.04
   7   8   1   55.49    2.13
   7   8   1   55.60    2.40
   7   8   1   59.59    8.51
  -7   8  -1   54.66    2.01
  -7  -8  -1   52.51    2.29
  -7  -8  -1   55.54    2.22
  -7  -8  -1   55.05    2.42
   7   8   2   19.81    5.27
  -7   8  -2   14.08    0.92
   7   8   2   15.53    1.10
  -7   8  -2   15.55    0.73
   7   8   2   12.30    0.96
  -7   8  -2   13.75    0.86
   7   8   2   13.50    0.89
  -7  -8  -2   14.73    1.07
  -7  -8  -2    6.16    3.48
  -7  -8  -2   13.23    0.98
   7   8   3   66.26    2.59
  -7   8  -3   63.43    3.49
   7   8   3   58.88    8.92
  -7   8  -3   64.14    2.50
  -7   8  -3   63.38    2.36
  -7  -8  -3   65.36    8.17
   7  -8   3   70.98    3.94
  -7  -8  -3   63.98    2.51
  -7  -8  -3   63.12    2.63
  -7   8  -4   36.47    1.82
  -7   8  -4   34.61    3.52
   7   8   4   40.24    9.07
   7   8   4   38.09    1.80
  -7  -8  -4   38.30    1.84
   7  -8   4   33.15    3.89
  -7  -8  -4   34.01    6.80
   7   8   5    0.35    0.40
  -7   8  -5   -1.09    1.72
  -7   8  -5    0.28    0.40
   7   8   5    2.33    5.21
  -7  -8  -5   -0.02    3.79
  -7  -8  -5    0.67    0.47
   7  -8   5    2.39    2.22
  -7  -8  -5   -0.09    0.41
  -7   8  -6   -2.71    2.02
   7   8   6   -4.13    5.60
   7   8   6    0.42    0.45
  -7   8  -6   -0.12    0.31
  -7  -8  -6    0.19    0.46
  -7  -8  -6    0.93    4.80
   7  -8   6    1.74    3.05
  -7   9   6   32.29    2.14
   7   9  -6   26.86    8.11
   7  -9  -6   32.46    1.64
  -7  -9   6   29.83    1.44
  -7  -9   6   38.08    9.59
  -7  -9   6   32.61    1.43
  -7   9   5    0.87    0.50
   7   9  -5    6.62    5.16
  -7  -9   5    0.01    0.32
  -7  -9   5    1.33    3.93
  -7   9   4   13.89    1.13
   7   9  -4    5.84    4.50
  -7   9   4   12.04    0.92
   7  -9  -4   17.78    4.15
  -7  -9   4   13.86    0.87
  -7  -9   4   10.25    4.75
   7  -9  -4   12.30    0.88
  -7   9   3   10.09    0.92
  -7  -9   3    9.50    1.02
   7  -9  -3   11.87    0.80
  -7  -9   3   11.31    0.80
   7  -9  -3   10.71    2.81
  -7  -9   3    5.20    3.85
   7   9  -2   25.57    6.71
  -7   9   2   33.27    1.46
  -7   9   2   31.63    1.58
   7   9  -2   32.35    1.55
  -7   9   2   31.85    3.37
   7  -9  -2   33.74    3.42
  -7  -9   2   33.73    1.48
   7  -9  -2   34.09    1.41
  -7  -9   2   33.17    1.77
  -7  -9   2   36.37    1.66
   7   9  -1    0.58    0.34
  -7   9   1    0.12    0.24
  -7   9   1   -0.20    0.22
   7   9  -1   -0.43    0.20
  -7   9   1    0.04    0.34
   7   9  -1   -0.82    2.51
  -7   9   1    0.08    0.15
   7   9  -1   -2.24    2.37
  -7  -9   1    0.18    0.34
  -7  -9   1    0.45    0.36
   7  -9  -1    0.14    0.23
  -7  -9   1    0.19    0.25
  -7   9   0    0.13    0.23
   7   9   0    2.38    2.47
   7   9   0    0.26    0.29
  -7   9   0    0.55    0.27
   7   9   0    0.95    2.57
  -7   9   0    0.39    0.36
   7   9   0    0.44    0.29
  -7  -9   0   -0.17    0.34
  -7  -9   0   -0.45    0.26
   7  -9   0    0.66    0.26
  -7  -9   0   -0.01    0.36
   7   9   1    3.23    3.10
   7   9   1    0.71    0.33
  -7   9  -1    0.76    0.31
   7   9   1    0.83    0.37
  -7   9  -1    0.80    0.28
  -7   9  -1    0.63    0.26
   7   9   1    0.70    2.61
  -7  -9  -1    0.50    0.39
  -7  -9  -1    0.45    0.39
   7   9   2    0.60    2.96
  -7   9  -2    5.33    0.60
   7   9   2    6.63    1.18
  -7   9  -2    6.06    0.48
  -7   9  -2    6.11    0.62
  -7  -9  -2    7.02    0.80
  -7  -9  -2    5.98    0.80
   7   9   3   13.37    5.45
   7   9   3   23.08    1.33
  -7   9  -3   21.46    1.34
  -7  -9  -3   27.08    6.83
  -7  -9  -3   19.70    1.32
  -7   9  -4    9.67    2.01
   7   9   4    7.12    0.90
   7   9   4   14.07    6.28
  -7   9  -4    8.85    0.88
  -7  -9  -4    7.96    0.89
  -7  -9  -4    8.69    0.95
   7  -9   4    5.43    1.97
  -7  -9  -4    7.59    3.69
  -7   9  -5   -1.16    1.71
   7   9   5    1.97    0.56
   7   9   5    9.87    5.36
  -7   9  -5    2.34    0.60
  -7  -9  -5   -0.55    4.60
  -7  -9  -5    1.28    0.57
  -7  -9  -5    1.44    0.54
   7  -9   5    1.46    2.20
   7  10  -6   -1.41    6.52
  -7  10   6    0.77    0.57
   7 -10  -6    1.66    0.52
  -7 -10   6    0.13    0.32
  -7 -10   6   -0.65    6.03
   7  10  -5    5.53    4.76
  -7  10   5   13.10    1.23
  -7 -10   5    9.46    6.22
  -7 -10   5   11.64    0.84
   7 -10  -5   12.37    0.99
  -7  10   4    6.80    0.93
  -7  10   4    5.94    3.03
   7  10  -4    4.15    4.27
   7 -10  -4    0.37    1.97
   7 -10  -4    5.76    0.71
  -7 -10   4   10.31    5.28
  -7 -10   4    5.19    0.62
  -7  10   3    5.04    0.66
   7  10  -3    5.40    3.08
  -7  10   3    5.30    0.78
  -7 -10   3    5.78    0.65
  -7 -10   3   11.12    5.65
   7 -10  -3    6.98    2.22
   7 -10  -3    6.15    0.66
  -7  10   2   41.64    1.95
   7  10  -2   27.54    7.05
  -7  10   2   42.34    1.89
  -7  10   2   44.07    3.87
  -7 -10   2   41.10    1.94
   7 -10  -2   40.97    1.67
  -7 -10   2   39.42    1.70
   7 -10  -2   43.00    3.82
  -7 -10   2   36.24    1.99
  -7  10   1    4.46    0.57
   7  10  -1    3.07    0.54
   7  10  -1    2.31    2.68
  -7  10   1    4.76    0.40
  -7  10   1    3.65    0.56
   7  10  -1    3.23    3.50
   7  10  -1    4.72    0.61
   7 -10  -1    4.91    0.58
  -7 -10   1    4.89    0.76
  -7 -10   1    3.89    0.67
   7  10   0   40.90    8.14
   7  10   0   34.38    1.60
  -7  10   0   37.69    1.58
  -7  10   0   36.90    1.57
   7  10   0   38.11    8.29
  -7  10   0   34.15    1.40
   7  10   0   36.22    1.74
  -7 -10   0   35.94    1.82
   7 -10   0   36.84    1.47
  -7 -10   0   35.39    1.84
  -7  10  -1   12.43    0.84
  -7  10  -1   11.45    0.77
   7  10   1   19.77    5.95
   7  10   1   12.55    1.06
  -7  10  -1   10.81    0.74
   7  10   1    2.55    3.59
  -7 -10  -1   10.59    0.97
  -7 -10  -1   12.97    1.08
   7  10   2   -1.84    3.15
   7  10   2   -0.34    0.31
  -7  10  -2   -0.02    0.21
  -7  10  -2    0.34    0.29
   7  10   2   -2.52    3.24
  -7  10  -2    0.27    0.27
  -7 -10  -2    0.07    0.42
  -7 -10  -2   -0.64    0.29
   7  10   3    9.90    0.94
   7  10   3   -1.60    3.78
  -7  10  -3    7.61    0.80
  -7 -10  -3    8.26    0.93
  -7 -10  -3    8.27    0.98
  -7 -10  -3    4.57    3.69
   7  10   4   18.64    6.92
   7  10   4   20.28    1.35
  -7  10  -4   21.90    2.33
  -7  10  -4   22.53    1.40
   7 -10   4   23.07    2.86
  -7 -10  -4   17.19    6.04
  -7 -10  -4   20.42    1.40
  -7 -10  -4   19.49    1.37
  -7  10  -5   14.45    2.72
   7  10   5   11.61    1.09
   7  10   5    9.23    6.49
  -7  10  -5   14.67    1.23
  -7 -10  -5   12.19    1.19
   7 -10   5   10.20    3.01
  -7 -10  -5   11.71    1.15
  -7 -10  -5   11.01    6.25
   7  11  -5   13.21    6.07
  -7 -11   5    9.78    6.96
   7  11  -4   17.03    6.39
  -7  11   4   19.81    1.41
  -7 -11   4   17.16    1.02
  -7 -11   4   10.62    5.71
  -7  11   3    3.62    1.79
  -7  11   3    3.45    0.70
   7  11  -3    2.78    3.96
  -7 -11   3    6.13    4.48
   7 -11  -3    2.73    1.89
   7 -11  -3    4.05    0.61
   7  11  -2   37.46    8.64
   7  11  -2   66.16    9.53
  -7  11   2   62.05    2.35
  -7  11   2   58.16    2.68
  -7  11   2   49.83    6.68
  -7 -11   2   58.86    2.55
   7 -11  -2   61.37    6.55
   7 -11  -2   61.16    2.25
  -7 -11   2   56.99    2.64
  -7  11   1    4.72    0.67
  -7  11   1    5.69    0.66
   7  11  -1    5.19    3.76
  -7  11   1    4.70    0.40
  -7  11   1    4.35    0.42
   7  11  -1    4.74    0.64
   7  11  -1    6.39    3.78
  -7 -11   1    3.88    0.71
  -7 -11   1    4.12    0.74
   7 -11  -1    5.12    0.60
   7  11   0   71.62    9.54
  -7  11   0   66.84    2.43
   7  11   0   44.26    9.32
  -7  11   0   69.19    2.24
   7  11   0   61.06    2.72
  -7  11   0   67.06    2.46
  -7 -11   0   65.58    2.78
  -7 -11   0   59.59    2.78
   7 -11   0   67.44    2.33
   7  11   1    1.77    4.34
  -7  11  -1    3.93    0.53
   7  11   1    4.43    0.65
  -7  11  -1    3.93    0.53
  -7  11  -1    4.91    0.65
   7  11   1    4.89    2.94
  -7 -11  -1    4.17    0.76
  -7 -11  -1    3.78    0.69
   7  11   2   10.61    5.15
   7  11   2    5.59    0.78
   7  11   2    0.35    4.89
  -7  11  -2    6.26    0.68
  -7 -11  -2    4.95    0.95
  -7 -11  -2    7.21    0.93
   7  11   3   -0.43    3.10
  -7  11  -3    3.98    0.63
   7  11   3    3.38    0.64
  -7 -11  -3    4.05    0.73
  -7 -11  -3    8.67    4.53
  -7 -11  -3    4.07    0.78
   7  11   4    0.27    0.43
  -7  11  -4    0.48    0.77
   7  11   4   -1.74    4.87
  -7  11  -4    0.87    0.41
  -7 -11  -4    1.28    3.31
  -7 -11  -4   -0.05    0.49
  -7 -11  -4    0.20    0.42
  -7  11  -5    2.41    0.74
   7  11   5    2.40    0.62
  -7 -11  -5    1.81    0.62
  -7 -11  -5    3.07    0.96
  -7 -11  -5    3.09    4.74
   7  12  -5   17.18    6.77
  -7  12   5   14.90    1.40
   7 -12  -5   14.18    1.17
  -7 -12   5   19.43    8.24
  -7  12   4    6.36    0.92
   7  12  -4    8.92    5.21
   7 -12  -4    5.05    0.73
  -7 -12   4   -0.87    4.92
   7  12  -3    7.51    4.53
  -7  12   3    4.29    0.78
   7 -12  -3    3.19    0.63
   7  12  -2    1.44    3.04
  -7  12   2    1.58    0.53
  -7  12   2   -0.43    1.09
   7  12  -2   -2.96    3.94
   7 -12  -2    0.56    1.12
   7 -12  -2    1.27    0.43
  -7 -12   2    1.15    0.53
  -7 -12   2    0.40    0.49
  -7  12   1    5.70    0.77
  -7  12   1    5.02    0.42
   7  12  -1   10.18    4.60
   7  12  -1    4.58    3.66
  -7  12   1    5.79    0.55
  -7 -12   1    4.36    0.79
  -7 -12   1    4.98    0.87
   7 -12  -1    4.69    0.63
   7  12   0   11.92    5.50
  -7  12   0   11.19    0.87
   7  12   0   13.20    1.00
   7  12   0    7.73    4.07
  -7  12   0   12.15    0.73
  -7 -12   0   11.57    1.16
  -7 -12   0    9.92    1.01
   7 -12   0   11.52    0.84
  -7  12  -1   19.30    1.05
   7  12   1   12.55    5.34
   7  12   1   19.84    1.28
   7  12   1    8.64    5.04
  -7  12  -1   18.80    1.04
  -7 -12  -1   16.71    1.36
  -7 -12  -1   16.44    1.28
   7  12   2    3.66    0.68
   7  12   2    0.98    4.67
  -7  12  -2    4.83    0.61
  -7  12  -2    3.81    0.47
   7  12   2    4.73    4.55
  -7 -12  -2    4.56    0.78
  -7 -12  -2    3.85    0.69
   7  12   3    1.93    0.57
  -7  12  -3    2.71    0.54
   7  12   3   -1.36    4.11
  -7 -12  -3    1.33    0.54
  -7 -12  -3    2.88    0.73
  -7  12  -4    1.34    0.51
  -7 -12  -4    3.93    3.71
  -7 -12  -4    0.38    0.57
  -7 -12  -4    0.65    0.48
   7  13  -4   -3.94    5.35
  -7  13   4    0.29    0.50
   7 -13  -4    0.25    0.43
  -7 -13   4   -6.30    5.39
   7  13  -3   -3.23    3.99
   7  13  -3    1.67    3.98
  -7  13   3   -0.08    0.44
   7 -13  -3    0.58    0.43
  -7  13   2   12.05    3.85
  -7  13   2   19.73    1.34
   7  13  -2   11.72    5.80
   7  13  -2   10.46    5.54
  -7 -13   2   17.13    1.40
  -7  13   1    6.44    0.84
  -7  13   1    5.87    0.45
   7  13  -1    5.26    0.73
   7  13  -1    2.04    4.88
   7 -13  -1    5.35    0.68
  -7 -13   1    4.75    0.83
  -7 -13   1    6.51    0.95
  -7  13   0    6.84    0.58
   7  13   0   -2.84    4.22
   7  13   0    4.17    4.61
  -7  13   0    6.55    0.79
   7  13   0    8.25    0.87
  -7  13   0    6.57    0.70
  -7 -13   0    6.77    0.96
  -7 -13   0    7.25    0.92
   7 -13   0    7.88    0.74
   7  13   1   56.79   15.56
   7  13   1   40.85   10.12
   7  13   1   41.88    1.99
  -7  13  -1   43.11    1.77
  -7  13  -1   41.08    1.75
  -7 -13  -1   39.20    2.18
  -7 -13  -1   40.80    2.07
  -7  13  -2    7.84    0.77
  -7  13  -2    6.73    0.59
   7  13   2    6.64    0.87
  -7 -13  -2    7.56    0.92
  -7 -13  -2    8.64    1.08
   7  13   3   34.53    1.86
   7  13   3   26.51    9.58
   7  13   3   36.01    9.50
  -7  13  -3   31.92    1.69
  -7 -13  -3   31.46    1.91
  -7 -13  -3   31.60    1.79
  -7  13  -4    0.27    0.36
   7  13   4   -9.36    4.98
   7  13   4   -0.35    0.42
  -7 -13  -4    0.39    0.56
  -7 -13  -4   -2.32    4.64
  -7 -13  -4   -0.51    0.44
  -7  14   4   -0.72    0.37
   7 -14  -4   -0.24    0.47
   7  14  -3   13.58    7.15
  -7  14   3   17.60    1.40
   7 -14  -3   18.45    1.30
  -7  14   2    3.58    1.91
   7  14  -2    4.48    4.89
   7  14  -2    3.09    4.54
  -7  14   2    4.92    0.79
   7 -14  -2    3.48    0.62
  -7 -14   2    3.61    0.77
  -7  14   1    1.56    0.48
  -7  14   1    1.37    0.26
   7  14  -1    0.85    0.45
   7  14  -1    1.25    3.53
  -7 -14   1   -0.38    0.43
   7 -14  -1    0.76    0.40
  -7 -14   1   -0.10    0.41
   7  14   0    1.11    4.02
  -7  14   0    1.85    0.37
   7  14   0   -3.51    3.19
  -7  14   0    1.72    0.45
  -7  14   0    1.33    0.42
   7  14   0    1.47    0.52
  -7 -14   0    1.47    0.64
  -7 -14   0    1.74    0.58
   7 -14   0    2.60    0.54
  -7  14  -1    0.98    0.37
   7  14   1   -3.41    4.12
  -7  14  -1    0.66    0.38
   7  14   1    0.17    0.39
   7  14   1   14.95    5.92
  -7 -14  -1    1.63    0.63
  -7 -14  -1    0.81    0.51
   7  14   2    9.31    5.45
   7  14   2    1.83    0.57
  -7  14  -2    1.44    0.45
  -7  14  -2    1.41    0.34
   7  14   2   -4.48    4.64
  -7 -14  -2    1.00    0.52
  -7 -14  -2    2.21    0.73
   7  14   3   -5.09    6.50
   7  14   3    0.20    7.55
  -7  14  -3    0.14    0.36
   7  14   3    0.25    0.46
  -7 -14  -3    0.49    0.47
   7 -15  -3    4.09    0.77
  -7  15   2   21.45    3.39
  -7  15   2   25.56    1.60
   7  15  -2    9.64    7.42
   7 -15  -2   26.21    1.49
  -7 -15   2   27.76    1.81
   7  15  -1    4.45    0.68
  -7  15   1    3.11    0.66
   7  15  -1   -0.07    5.25
  -7 -15   1    2.48    0.77
  -7 -15   1    2.70    0.73
   7 -15  -1    3.50    0.63
  -7  15   0    7.98    1.00
  -7  15   0    5.07    0.75
   7  15   0   13.40    7.61
   7  15   0    6.49    0.91
  -7  15   0    5.98    0.57
  -7 -15   0    4.65    0.84
  -7 -15   0    5.94    0.98
   7 -15   0    6.93    0.78
  -7  15  -1    1.20    0.43
   7  15   1    0.15    0.45
   7  15   1    0.13    5.39
  -7  15  -1    1.02    0.40
  -7 -15  -1    0.23    0.43
  -7 -15  -1    0.44    0.56
  -7  15  -2    0.97    0.30
  -7  15  -2    1.46    0.46
   7  15   2    1.15    0.55
   7  15   2    2.82    7.00
  -7 -15  -2    0.89    0.48
  -7  16   1    2.98    0.65
   7  16  -1    3.55    0.64
  -7 -16   1    1.63    0.71
   7 -16  -1    2.95    0.59
  -7  16   0   11.49    0.77
   7  16   0   11.13    1.08
  -7  16   0   11.42    1.00
  -7 -16   0   12.11    1.33
   7 -16   0   10.32    0.95
  -7 -16   0    7.48    1.11
   8   0  -7    0.53    0.44
   8   0  -7   -1.00    3.93
  -8   0   7   -0.12    0.39
  -8   0   7    0.22    3.80
   8   0  -6  144.51    4.65
   8   0  -6  147.79    4.59
  -8   0   6  133.24   12.37
  -8   0   6  146.34    4.84
   8   0  -6  153.37   14.11
  -8   0   5    0.66    0.41
   8   0  -5   -0.20    0.25
   8   0  -5   -0.09    0.26
  -8   0   5    0.11    2.02
   8   0  -5   -2.27    1.80
   8   0  -4  154.24    4.63
  -8   0   4  137.48   11.17
  -8   0   4  152.34    4.78
   8   0  -4  152.76   12.07
  -8   0   3    0.12    0.24
  -8   0   3   -2.31    1.04
   8   0  -3   -0.60    1.40
   8   0  -3    0.21    0.21
   8   0  -3    0.07    0.15
   8   0  -2  296.10    8.23
  -8   0   2  292.16   15.45
  -8   0   2  293.97    8.44
   8   0  -2  279.97   15.06
   8   0  -1    0.17    0.19
  -8   0   1   -0.02    0.23
  -8   0   1    0.54    1.02
   8   0  -1    1.05    1.02
   8   0   0    3.88    0.45
   8   0   0    6.50    2.42
  -8   0   0    4.12    0.58
  -8   0   0    3.76    0.43
   8   0   0    3.15    1.85
   8   0   1   -0.84    0.76
   8   0   1   -0.03    0.16
  -8   0  -1   -0.08    0.17
  -8   0  -1    0.17    0.25
  -8   0  -1    0.27    0.15
   8   0   2    1.20    0.43
  -8   0  -2    1.01    0.35
   8   0   2    1.28    1.35
  -8   0  -2    1.18    0.32
  -8   0  -2    1.37    0.28
  -8   0  -2    0.46    1.00
  -8   0  -3   -0.45    0.18
  -8   0  -3   -0.45    0.21
   8   0   3   -0.85    1.01
  -8   0  -3    1.15    1.24
   8   0   3   -0.12    0.17
  -8   0  -3   -0.16    0.23
  -8   0  -4    1.43    1.49
  -8   0  -4    2.75    0.48
  -8   0  -4    1.31    0.36
  -8   0  -4    1.90    0.50
   8   0   4    1.30    1.92
  -8   0  -5   -0.03    0.34
  -8   0  -5   -0.66    0.25
  -8   0  -5    0.38    0.39
  -8   0  -5   -0.44    1.63
   8   0   5    2.00    2.14
  -8   0  -6    1.87    0.42
  -8   0  -6   -0.76    1.80
  -8   0  -6    1.24    0.51
  -8   0  -6    0.63    0.45
   8   1  -7    8.25    7.57
  -8   1   7    0.45    0.43
  -8   1   7    4.20    4.01
   8   1  -7    0.57    0.42
   8  -1  -7    0.07    0.42
   8  -1  -7    4.33    4.16
  -8  -1   7   -8.85    5.73
  -8  -1   7    0.39    0.43
  -8   1   6    3.76    0.68
  -8   1   6    3.13    4.31
   8   1  -6   14.77    4.53
   8   1  -6    3.17    0.54
  -8  -1   6    3.93    3.46
   8  -1  -6    3.17    0.51
  -8  -1   6    2.58    0.59
   8  -1  -6    7.32    3.88
   8  -1  -6    3.63    0.57
  -8   1   5    0.85    1.95
   8   1  -5    0.11    3.06
   8   1  -5    0.80    0.32
   8   1  -5    1.14    0.41
  -8   1   5    0.88    0.41
   8  -1  -5    1.99    2.42
  -8  -1   5    2.92    2.40
  -8  -1   5    0.86    0.40
   8  -1  -5    0.88    0.31
   8  -1  -5    0.97    0.35
   8   1  -4   19.84    5.32
  -8   1   4   20.71    1.23
  -8   1   4   18.64    4.58
   8   1  -4   20.80    1.12
   8  -1  -4   22.36    1.04
  -8  -1   4   17.17    4.50
   8  -1  -4   21.78    5.25
   8  -1  -4   21.15    1.04
   8   1  -3   51.90    1.96
   8   1  -3   50.82    1.67
  -8   1   3   57.40    6.35
   8  -1  -3   50.87    1.85
   8  -1  -3   49.50    6.01
   8  -1  -3   52.37    1.63
  -8  -1   3   52.22    2.10
   8   1  -2   62.36    2.23
   8   1  -2   63.91    6.63
  -8   1   2   68.75   10.05
   8   1  -2   60.29    1.84
  -8   1   2   64.99    2.35
  -8  -1   2   56.26    6.55
   8  -1  -2   54.63   10.53
   8  -1  -2   65.52    2.16
  -8  -1   2   65.17    2.41
   8   1  -1   29.02    4.37
  -8   1   1   26.15    4.01
   8   1  -1   24.27    1.16
   8  -1  -1   26.35    3.68
   8  -1  -1   25.26    1.10
  -8  -1   1   24.68    1.30
  -8  -1   1   23.79    5.02
   8   1   0   12.29    3.31
  -8   1   0   12.40    0.85
   8   1   0   11.76    0.76
   8   1   0   12.49    3.21
   8  -1   0   12.93    0.76
   8  -1   0    8.34    2.42
  -8  -1   0   12.81    0.88
   8  -1   0   10.54    2.48
  -8  -1   0   12.02    0.74
   8   1   1    0.99    1.15
   8   1   1   -0.95    0.92
  -8   1  -1    0.93    0.32
   8   1   1    0.11    0.22
  -8   1  -1    0.50    0.23
  -8   1  -1    0.27    0.15
  -8  -1  -1    0.14    0.16
  -8  -1  -1    0.49    0.25
   8  -1   1    0.01    1.00
   8  -1   1    0.37    0.23
  -8  -1  -1    0.49    0.29
  -8   1  -2   12.10    0.75
   8   1   2   11.12    0.84
   8   1   2    9.51    3.07
  -8   1  -2   12.01    2.70
  -8   1  -2   10.81    0.63
  -8   1  -2   12.44    0.88
  -8  -1  -2    8.77    2.58
  -8  -1  -2   11.51    0.91
   8  -1   2   13.43    3.07
  -8  -1  -2   11.35    0.78
  -8  -1  -2   11.12    0.66
   8   1   3   58.76    2.40
  -8   1  -3   61.75    2.15
  -8   1  -3   57.25    5.41
  -8   1  -3   56.61    2.37
   8   1   3   43.32    7.00
  -8   1  -3   59.82    2.10
  -8  -1  -3   61.71    2.13
  -8  -1  -3   58.31    2.41
  -8  -1  -3   60.72    6.05
   8  -1   3   56.64    2.37
   8  -1   3   59.12    6.13
  -8  -1  -3   60.57    2.20
  -8   1  -4   44.97    2.43
   8   1   4   44.44    1.69
  -8   1  -4   37.13    4.81
  -8   1  -4   44.17    1.75
  -8   1  -4   46.01    1.85
  -8  -1  -4   45.28    2.00
  -8  -1  -4   44.05    1.84
   8  -1   4   39.86    5.59
  -8  -1  -4   43.13    5.56
  -8  -1  -4   42.83    2.07
  -8   1  -5   38.40    1.94
  -8   1  -5   36.32    5.19
   8   1   5   38.71    1.55
  -8   1  -5   39.26    2.01
   8   1   5   37.41    7.39
  -8   1  -5   37.23    1.60
   8  -1   5   41.64    6.45
  -8  -1  -5   35.78    1.97
  -8  -1  -5   32.35    5.14
  -8  -1  -5   39.74    1.74
  -8   1  -6   31.13    1.89
  -8   1  -6   34.19    1.80
  -8   1  -6   30.79    5.93
   8   1   6   23.43    5.52
   8   1   6   30.81    1.40
  -8   1  -6   31.88    1.68
   8  -1   6   29.60    6.95
  -8  -1  -6   35.47    1.82
  -8  -1  -6   29.33    6.20
  -8  -1  -6   33.69    1.93
   8   2  -7    2.04    0.54
  -8   2   7    2.99    0.67
   8   2  -7    5.30    4.05
  -8   2   7   -1.48    4.55
  -8  -2   7    2.44    0.62
   8  -2  -7    7.06    5.83
   8  -2  -7    1.35    0.51
   8  -2  -7    1.60    0.48
  -8   2   6    8.21    0.95
   8   2  -6    3.85    3.43
  -8  -2   6    7.89    4.38
   8  -2  -6    5.60    3.81
   8  -2  -6    8.08    0.68
   8  -2  -6    7.73    0.76
   8   2  -5   -3.09    1.86
   8   2  -5    1.23    0.39
  -8   2   5    0.78    0.46
  -8   2   5   -0.89    1.58
   8  -2  -5    0.57    0.32
  -8  -2   5    0.62    0.39
   8  -2  -5    0.76    0.28
   8  -2  -5   -0.26    2.03
  -8  -2   5    2.21    2.37
   8   2  -4    4.17    0.73
  -8   2   4    4.17    2.37
   8   2  -4    4.14    0.46
   8   2  -4    6.51    3.07
  -8   2   4    4.51    0.64
   8  -2  -4    5.00    0.52
   8  -2  -4    4.33    0.48
  -8  -2   4    4.04    2.80
  -8   2   3   60.02    2.14
  -8   2   3   58.35    2.22
   8   2  -3   54.98    2.16
  -8   2   3   68.16    6.59
   8   2  -3   56.50    1.92
   8   2  -3   63.88    7.39
  -8  -2   3   55.41    6.97
   8  -2  -3   58.21    1.97
   8  -2  -3   58.12    1.79
   8  -2  -3   62.64    6.39
  -8  -2   3   55.93    2.30
  -8   2   2   -0.36    0.94
   8   2  -2    0.35    0.15
   8   2  -2   -0.73    1.37
   8   2  -2    0.23    0.22
  -8   2   2    0.06    0.23
   8  -2  -2   -0.69    0.85
   8  -2  -2    0.03    0.14
  -8  -2   2    0.26    0.26
   8   2  -1   73.90    2.15
  -8   2   1   77.77    2.68
   8   2  -1   73.60    7.66
   8   2  -1   72.39    2.59
  -8   2   1   84.20    6.86
   8  -2  -1   80.48    6.04
  -8  -2   1   73.37    2.54
   8  -2  -1   74.90    2.46
  -8  -2   1   72.03    8.19
  -8  -2   1   80.93    2.84
   8   2   0   70.12    2.09
   8   2   0   70.56    7.51
  -8   2   0   72.27    2.57
   8   2   0   72.63    2.54
   8   2   0   79.33    7.73
  -8  -2   0   73.66    2.18
   8  -2   0   74.67    5.78
  -8  -2   0   70.43    2.46
  -8  -2   0   71.88    2.68
   8  -2   0   73.03    5.46
   8  -2   0   75.09    2.45
  -8   2  -1   40.31    1.57
  -8   2  -1   42.69    1.33
   8   2   1   42.56    1.74
   8   2   1   37.68    5.43
  -8   2  -1   41.56    1.73
   8  -2   1   45.64    4.20
  -8  -2  -1   41.62    1.64
   8  -2   1   38.71    4.19
  -8  -2  -1   40.72    1.41
   8  -2   1   40.59    1.65
  -8  -2  -1   40.74    1.82
  -8   2  -2   29.62    1.13
  -8   2  -2   28.22    1.40
  -8   2  -2   29.73    3.40
  -8   2  -2   27.24    1.22
   8   2   2   17.57    4.14
   8   2   2   27.47    1.39
  -8  -2  -2   30.63    1.33
   8  -2   2   24.18    1.80
  -8  -2  -2   29.95    1.19
  -8  -2  -2   28.84    1.48
  -8  -2  -2   16.99    3.60
   8  -2   2   28.14    3.62
  -8   2  -3   92.78    3.35
   8   2   3   96.00    3.06
   8   2   3   89.28    3.93
  -8   2  -3   97.25    3.07
  -8   2  -3   90.53    6.64
  -8   2  -3   97.53    3.08
   8   2   3   94.52    9.13
  -8  -2  -3   95.50    3.09
  -8  -2  -3   95.49    3.46
   8  -2   3   92.90    7.28
  -8  -2  -3   88.38    7.86
  -8   2  -4   10.42    0.79
   8   2   4    9.06    3.76
   8   2   4    9.54    0.72
  -8   2  -4    9.83    0.69
  -8   2  -4    6.66    1.33
  -8   2  -4    7.55    2.64
  -8  -2  -4    9.08    0.92
   8  -2   4   13.32    3.84
  -8  -2  -4    6.87    2.74
  -8  -2  -4    9.09    0.77
  -8  -2  -4    8.38    0.76
  -8   2  -5   47.92    1.85
  -8   2  -5   49.01    2.53
  -8   2  -5   48.48    2.31
   8   2   5   48.99    1.89
   8   2   5   49.76    7.94
  -8   2  -5   49.24    5.82
  -8  -2  -5   39.60    6.13
  -8  -2  -5   51.92    2.24
   8  -2   5   44.08    6.24
  -8  -2  -5   46.82    2.31
  -8   2  -6   -0.12    0.31
   8   2   6    0.34    3.70
  -8   2  -6    2.79    2.38
   8   2   6   -0.02    0.32
  -8   2  -6   -0.03    0.37
  -8   2  -6   -0.17    0.36
  -8  -2  -6   -3.37    2.45
   8  -2   6    0.67    3.10
  -8  -2  -6   -0.26    0.33
  -8  -2  -6    0.21    0.41
   8   3  -7   22.56    6.84
  -8   3   7   36.14    2.00
  -8  -3   7   39.22    1.86
  -8  -3   7   26.40    8.97
   8  -3  -7   33.91    1.82
   8  -3  -7   36.86    1.74
   8   3  -6    6.53    4.24
  -8   3   6    4.63    0.79
  -8   3   6   -1.72    2.81
   8  -3  -6    1.89    2.73
   8  -3  -6    5.01    0.63
  -8  -3   6    2.17    3.42
  -8  -3   6    3.57    0.64
  -8   3   5  106.10    3.79
   8   3  -5  122.83   12.42
  -8   3   5   96.76    9.47
   8   3  -5  106.62    3.44
  -8  -3   5  105.85    3.65
  -8  -3   5  108.77   10.88
   8  -3  -5  101.75    3.26
   8  -3  -5  109.22    3.37
   8  -3  -5  111.57   10.19
  -8   3   4   31.22    4.78
   8   3  -4   27.02    1.40
  -8   3   4   28.64    1.47
   8   3  -4   27.49    5.96
   8   3  -4   25.58    1.16
   8  -3  -4   32.33    4.94
   8  -3  -4   27.28    1.11
  -8  -3   4   24.52    5.71
  -8   3   3   80.17    2.86
   8   3  -3   87.79    9.16
   8   3  -3   80.13    2.55
   8   3  -3   85.57    3.00
  -8   3   3   82.26    7.23
  -8   3   3   80.86    2.67
   8  -3  -3   81.59    2.64
  -8  -3   3   78.18    8.65
  -8  -3   3   79.16    2.99
   8  -3  -3   69.50    6.72
   8  -3  -3   82.38    2.41
   8   3  -2   22.92    1.17
   8   3  -2   24.57    5.39
  -8   3   2   22.01    3.35
  -8   3   2   22.07    1.12
   8   3  -2   22.05    0.89
   8  -3  -2   24.74    0.98
   8  -3  -2   25.46    3.45
  -8  -3   2   18.13    4.89
  -8  -3   2   22.39    1.10
  -8  -3   2   22.40    1.27
  -8   3   1   53.20    2.02
  -8   3   1   50.64    6.28
   8   3  -1   52.89    2.03
   8   3  -1   48.54    6.36
   8   3  -1   53.01    1.64
  -8  -3   1   62.10    7.73
  -8  -3   1   54.84    1.97
   8  -3  -1   53.93    1.84
  -8  -3   1   57.74    2.24
   8  -3  -1   45.80    5.50
   8   3   0   20.38    4.57
   8   3   0   20.84    1.10
  -8   3   0   20.27    1.07
   8   3   0   19.91    0.77
   8   3   0   18.80    4.41
   8  -3   0   22.00    2.75
  -8  -3   0   20.42    1.03
   8  -3   0   19.52    2.44
  -8  -3   0   19.38    1.17
  -8  -3   0   20.72    0.88
   8  -3   0   18.96    0.95
  -8   3  -1   26.77    0.95
   8   3   1   28.30    5.71
  -8   3  -1   29.88    1.35
   8   3   1   27.20    1.34
   8   3   1   27.49    5.56
  -8  -3  -1   26.72    1.42
  -8  -3  -1   26.89    1.10
  -8  -3  -1   28.71    1.29
   8  -3   1   28.70    1.27
   8  -3   1   27.89    2.89
   8  -3   1   24.68    2.91
   8   3   2    1.49    0.37
  -8   3  -2    1.66    0.33
   8   3   2    1.71    0.38
   8   3   2    0.84    1.30
  -8   3  -2    1.38    0.39
  -8   3  -2   -0.46    0.84
  -8  -3  -2    1.81    0.46
  -8  -3  -2    0.92    1.25
   8  -3   2    0.74    0.87
  -8  -3  -2    1.59    0.39
  -8   3  -3    5.96    0.54
  -8   3  -3    4.77    1.76
  -8   3  -3    5.55    0.66
   8   3   3    6.21    3.39
   8   3   3    4.91    0.58
  -8  -3  -3    4.72    2.19
   8  -3   3    4.05    1.83
  -8  -3  -3    5.93    0.62
  -8  -3  -3    6.08    0.62
  -8  -3  -3    5.38    0.76
  -8   3  -4    8.20    0.84
   8   3   4    8.96    0.74
   8   3   4    7.36    3.82
  -8   3  -4   10.97    2.82
  -8   3  -4    8.48    0.63
  -8  -3  -4    5.91    0.99
  -8  -3  -4    8.39    0.79
  -8  -3  -4    7.98    1.11
  -8  -3  -4    2.98    2.07
   8  -3   4    7.57    2.84
  -8   3  -5    1.21    0.48
  -8   3  -5    1.48    1.75
   8   3   5    1.22    3.33
   8   3   5    1.96    0.43
  -8   3  -5    1.61    0.35
  -8  -3  -5    1.30    0.53
  -8  -3  -5    3.44    2.47
   8  -3   5    3.05    2.26
  -8  -3  -5    2.37    0.54
  -8   3  -6    6.08    0.55
   8   3   6    4.62    4.78
  -8   3  -6    1.79    2.89
   8   3   6    4.11    0.63
  -8   3  -6    4.59    0.83
  -8   3  -6    4.60    0.79
  -8  -3  -6    3.07    0.72
  -8  -3  -6   -1.74    3.11
   8  -3   6    6.92    3.78
  -8  -3  -6    4.50    0.75
   8   4  -7    9.68    5.94
  -8   4   7   18.61    1.43
  -8  -4   7   14.27    6.41
  -8  -4   7   16.70    1.20
   8  -4  -7   15.62    1.14
   8  -4  -7   16.97    0.89
   8   4  -6   31.83    8.64
  -8   4   6   44.90    2.18
  -8   4   6   34.11    7.22
  -8  -4   6   49.35    9.57
   8  -4  -6   41.05    7.91
  -8  -4   6   44.21    1.97
   8  -4  -6   40.09    1.51
   8  -4  -6   43.87    1.81
  -8   4   5   31.79    1.70
   8   4  -5   35.63    8.24
   8   4  -5   28.54    1.39
  -8  -4   5   45.98    7.22
   8  -4  -5   36.70    5.65
   8  -4  -5   30.99    1.36
  -8   4   4   64.33    2.55
   8   4  -4   61.37    2.24
  -8   4   4   68.92    6.98
   8   4  -4   67.79   10.21
   8   4  -4   63.40    2.87
   8  -4  -4   67.24    2.16
  -8  -4   4   61.96    9.00
   8  -4  -4   75.97    7.44
   8  -4  -4   65.51    2.05
  -8   4   3    0.14    0.20
   8   4  -3    0.76    0.33
  -8   4   3    0.68    0.34
   8   4  -3   -0.25    1.44
  -8   4   3    1.00    1.28
   8   4  -3    0.55    0.26
  -8  -4   3    0.55    0.34
   8  -4  -3    0.55    0.17
  -8  -4   3    0.12    1.74
   8  -4  -3    1.34    1.40
   8  -4  -3    0.77    0.22
  -8  -4   3    0.57    0.28
   8   4  -2   56.33    1.87
   8   4  -2   58.04    2.44
  -8   4   2   57.94    2.05
   8   4  -2   56.75    7.17
  -8   4   2   54.90    5.02
  -8   4   2   57.16    2.13
  -8  -4   2   52.28    7.38
  -8  -4   2   56.85    2.07
   8  -4  -2   54.54    1.69
  -8  -4   2   58.74    2.36
   8  -4  -2   50.54    4.83
   8  -4  -2   59.15    1.85
   8   4  -1    7.80    3.15
   8   4  -1    6.69    0.42
  -8   4   1    5.50    1.81
   8   4  -1    6.33    0.59
  -8   4   1    6.00    0.57
  -8  -4   1    6.98    0.47
   8  -4  -1    5.89    1.63
  -8  -4   1    6.89    0.72
   8  -4  -1    7.12    0.49
  -8  -4   1    5.98    0.57
   8   4   0   10.07    3.58
  -8   4   0   16.42    0.61
  -8   4   0   13.58    0.87
   8   4   0   13.64    3.96
   8   4   0   15.74    0.76
   8   4   0   15.01    0.94
   8  -4   0   15.75    0.81
  -8  -4   0   15.53    1.05
   8  -4   0   16.57    2.00
  -8  -4   0   16.67    0.83
  -8  -4   0   14.77    0.88
   8   4   1   73.89    2.35
  -8   4  -1   74.99    2.27
   8   4   1   71.02    8.20
   8   4   1   74.77    8.28
   8   4   1   77.48    2.58
  -8   4  -1   73.62    2.62
   8   4   1   71.32    2.93
   8  -4   1   78.06    2.57
   8  -4   1   80.86    4.46
   8  -4   1   76.35    4.50
  -8  -4  -1   75.29    2.45
  -8  -4  -1   69.84    2.78
  -8   4  -2   40.04    1.41
  -8   4  -2   39.09    1.53
  -8   4  -2   40.03    1.74
   8   4   2   39.95    1.63
   8   4   2   34.69    5.60
   8   4   2   40.56    1.82
   8   4   2   40.00    1.51
  -8  -4  -2   38.02    5.43
  -8  -4  -2   39.40    1.85
  -8  -4  -2   37.79    1.67
  -8  -4  -2   40.44    1.58
   8  -4   2   39.27    3.43
  -8   4  -3    0.61    0.97
   8   4   3   -0.11    1.87
   8   4   3    0.33    0.31
  -8   4  -3    0.79    0.26
  -8   4  -3    1.24    0.38
  -8  -4  -3    0.65    0.31
  -8  -4  -3    1.49    1.80
   8  -4   3    0.55    1.15
  -8  -4  -3    0.52    0.39
  -8  -4  -3    0.58    0.31
  -8   4  -4   12.96    1.03
   8   4   4   12.62    5.32
  -8   4  -4   13.36    2.99
  -8   4  -4   12.03    0.72
   8   4   4   12.38    0.89
  -8  -4  -4   11.46    0.93
   8  -4   4   11.24    3.11
  -8  -4  -4   18.85    4.36
   8   4   5    1.72    0.46
  -8   4  -5    1.61    0.30
  -8   4  -5    4.07    1.77
   8   4   5    5.72    3.96
  -8   4  -5    2.24    0.59
  -8  -4  -5   -0.33    2.52
  -8  -4  -5    1.63    0.50
   8  -4   5   -0.46    1.96
  -8  -4  -5    1.84    0.58
  -8   4  -6   -0.37    0.29
  -8   4  -6    0.10    0.43
   8   4   6    1.89    3.80
   8   4   6    0.55    0.37
  -8   4  -6   -0.59    2.33
  -8  -4  -6    0.07    0.42
  -8  -4  -6   -0.26    0.42
   8  -4   6   -0.47    2.88
  -8  -4  -6    7.57    3.91
   8   5  -7   -0.62    5.87
  -8   5   7    2.52    0.71
   8  -5  -7    2.39    0.59
  -8  -5   7    8.39    6.00
  -8  -5   7    2.60    0.61
  -8   5   6   -3.62    2.33
  -8   5   6    0.77    0.50
   8   5  -6    3.99    3.69
  -8  -5   6   -0.77    3.88
  -8  -5   6    0.38    0.38
   8  -5  -6    1.51    2.98
   8  -5  -6    0.85    0.40
  -8   5   5    2.53    0.64
   8   5  -5    1.92    4.05
  -8  -5   5    3.85    3.30
   8  -5  -5    4.95    4.53
   8  -5  -5    3.42    0.50
  -8   5   4    0.78    0.41
   8   5  -4    0.61    0.30
   8   5  -4    0.25    2.58
   8  -5  -4    0.52    1.52
  -8  -5   4    3.25    2.56
   8  -5  -4    1.06    0.30
  -8  -5   4    0.76    0.30
  -8   5   3   14.36    0.69
  -8   5   3   19.45    3.73
   8   5  -3   19.80    5.67
   8   5  -3   14.30    0.98
  -8   5   3   12.62    0.96
   8   5  -3   13.77    0.84
  -8  -5   3   13.55    1.07
  -8  -5   3    9.60    4.05
   8  -5  -3   15.30    0.61
  -8  -5   3   14.14    0.87
   8  -5  -3   14.59    0.70
   8  -5  -3   14.92    3.31
  -8   5   2    0.39    0.82
  -8   5   2    1.45    0.32
  -8   5   2    1.00    0.20
   8   5  -2    1.11    0.35
  -8   5   2    0.88    0.35
   8   5  -2    0.74    2.36
   8   5  -2    1.40    0.30
  -8  -5   2    1.30    0.41
   8  -5  -2    1.78    1.20
   8  -5  -2    1.30    0.23
   8  -5  -2    1.18    0.22
  -8  -5   2    4.35    2.55
   8   5  -1    0.02    0.23
   8   5  -1   -0.36    1.66
   8   5  -1    0.41    0.20
  -8   5   1    0.16    0.22
  -8   5   1    0.38    0.24
  -8   5   1    1.09    0.91
  -8   5   1    0.22    0.15
  -8  -5   1    0.23    0.28
   8  -5  -1   -0.26    0.63
   8  -5  -1    0.34    0.14
   8  -5  -1    0.62    0.19
  -8  -5   1    0.49    0.24
   8   5   0  105.82    3.62
  -8   5   0  106.90    3.45
  -8   5   0  112.68    3.16
   8   5   0  103.65   10.08
   8   5   0  107.36    3.25
   8   5   0  119.06   10.93
  -8  -5   0  108.75    3.78
  -8  -5   0  105.46    3.68
   8  -5   0  117.38    4.61
  -8  -5   0  108.72    3.43
   8   5   1   25.71    5.66
  -8   5  -1   23.31    1.18
   8   5   1   23.41    1.28
   8   5   1   23.07    1.15
   8   5   1   23.53    1.02
   8   5   1   20.91    5.36
   8  -5   1   24.03    1.51
  -8  -5  -1   24.00    1.36
  -8  -5  -1   22.12    1.18
   8  -5   1   24.13    1.55
  -8  -5  -1   24.11    1.28
   8   5   2  146.48    4.42
   8   5   2  147.84    4.70
   8   5   2  144.71    4.28
  -8   5  -2  147.40    4.55
  -8   5  -2  141.59    4.26
   8   5   2  130.99   12.02
  -8   5  -2  141.15    4.16
  -8  -5  -2  143.01    4.71
  -8  -5  -2  139.66    4.33
  -8  -5  -2  138.04    4.48
   8  -5   2  140.10    6.47
   8  -5   2  139.87    7.03
  -8  -5  -2  129.00   10.65
  -8   5  -3    6.24    0.55
  -8   5  -3    4.39    1.50
   8   5   3    8.56    0.75
  -8   5  -3    8.07    0.77
   8   5   3    5.46    3.62
  -8   5  -3    6.95    0.56
  -8  -5  -3    7.32    0.69
  -8  -5  -3    9.31    3.05
   8  -5   3    8.36    2.23
  -8  -5  -3    5.47    0.78
  -8   5  -4   59.96    2.00
  -8   5  -4   60.89    5.33
   8   5   4   60.05    2.33
   8   5   4   57.93    8.74
  -8   5  -4   60.93    2.52
  -8  -5  -4   59.50    2.70
  -8  -5  -4   60.37    2.37
  -8  -5  -4   57.73    7.17
   8  -5   4   56.18    5.65
  -8   5  -5    7.69    0.90
   8   5   5    1.46    3.93
   8   5   5    7.35    0.76
  -8   5  -5    4.25    2.05
  -8  -5  -5    7.15    0.85
  -8  -5  -5    7.17    3.18
  -8  -5  -5    6.33    0.91
   8  -5   5    5.16    3.01
  -8   5  -6   12.96    1.39
  -8   5  -6    7.30    3.24
   8   5   6   13.45    6.87
   8   5   6    9.99    0.93
  -8  -5  -6   12.04    1.15
  -8  -5  -6   13.59    5.65
   8  -5   6   12.46    4.70
  -8  -5  -6   11.72    1.19
  -8   6   7    2.84    0.68
   8   6  -7    1.21    5.31
  -8  -6   7    0.95    0.48
  -8  -6   7    5.90    6.35
   8   6  -6    2.97    5.63
  -8   6   6   13.45    1.21
  -8  -6   6   16.71    5.91
  -8  -6   6   12.78    1.00
   8   6  -5   -3.41    2.71
  -8   6   5   -0.22    0.37
  -8  -6   5    0.09    3.68
   8  -6  -5    2.19    1.99
   8  -6  -5    0.51    0.33
  -8   6   4    1.10    0.45
   8   6  -4   -3.62    2.46
   8   6  -4    2.19    0.46
   8  -6  -4    0.34    1.54
  -8  -6   4    1.28    0.36
  -8  -6   4    2.47    3.26
   8  -6  -4    1.72    0.36
   8   6  -3    3.93    2.78
   8   6  -3    4.11    0.54
  -8   6   3    4.26    0.64
  -8  -6   3    4.62    0.54
  -8  -6   3    0.21    2.81
   8  -6  -3    3.98    1.79
   8  -6  -3    4.20    0.44
  -8  -6   3    3.95    0.72
   8   6  -2    0.68    0.31
   8   6  -2    2.31    3.30
  -8   6   2    1.00    0.27
  -8   6   2    0.33    0.95
  -8   6   2    0.71    0.25
  -8   6   2    0.98    0.33
   8   6  -2    0.69    0.26
  -8  -6   2    0.72    0.29
   8  -6  -2    1.08    0.25
  -8  -6   2   -1.07    2.72
   8  -6  -2   -0.05    0.82
  -8  -6   2    0.93    0.41
  -8   6   1   51.24    1.85
   8   6  -1   48.82    2.05
  -8   6   1   48.56    3.77
   8   6  -1   56.17    8.24
   8   6  -1   50.56    1.76
  -8   6   1   51.29    1.66
  -8   6   1   49.40    1.92
   8   6  -1   63.66    8.12
  -8  -6   1   50.62    2.19
   8  -6  -1   51.88    1.60
  -8  -6   1   50.80    2.07
  -8  -6   1   49.05    1.94
   8  -6  -1   53.11    3.44
  -8   6   0  105.73    3.31
   8   6   0  110.04   10.87
  -8   6   0  102.10    3.31
   8   6   0  109.51   10.94
   8   6   0   96.56    3.50
  -8   6   0  109.33    3.12
   8   6   0  104.98    3.20
  -8  -6   0  106.87    3.71
  -8  -6   0  105.36    3.43
  -8  -6   0  101.82    3.43
  -8   6  -1    4.30    0.54
   8   6   1    4.02    0.56
  -8   6  -1    4.22    0.42
   8   6   1    1.20    2.43
  -8   6  -1    4.35    0.45
   8   6   1    4.33    0.62
   8   6   1    3.99    0.44
   8   6   1    4.97    3.19
  -8  -6  -1    4.91    0.59
  -8  -6  -1    3.65    0.62
  -8  -6  -1    2.77    0.48
   8   6   2   32.83    7.21
   8   6   2   40.60    1.71
  -8   6  -2   41.12    1.54
   8   6   2   36.90    2.34
   8   6   2   38.42    1.57
  -8   6  -2   38.68    1.72
  -8   6  -2   39.58    1.50
   8  -6   2   40.68    2.36
  -8  -6  -2   38.76    1.89
   8  -6   2   40.81    2.17
  -8  -6  -2   26.34    5.62
  -8  -6  -2   40.96    1.67
  -8   6  -3    0.01    0.87
   8   6   3    0.26    0.27
   8   6   3    0.36    0.34
  -8   6  -3    0.37    0.25
  -8   6  -3    0.95    0.36
   8   6   3   -0.25    2.59
   8  -6   3    2.00    0.89
  -8  -6  -3    0.27    0.32
  -8  -6  -3    0.81    0.42
  -8  -6  -3    1.88    2.39
  -8   6  -4    4.39    0.70
  -8   6  -4    3.87    1.77
   8   6   4    4.19    0.64
   8   6   4    1.93    2.65
  -8   6  -4    3.75    0.38
  -8  -6  -4    0.39    2.85
   8  -6   4    4.90    2.09
  -8  -6  -4    3.61    0.62
  -8  -6  -4    3.56    0.68
  -8   6  -5    8.21    2.45
  -8   6  -5    7.46    0.89
   8   6   5    7.59    5.38
   8   6   5    7.97    0.85
  -8  -6  -5    2.02    3.17
  -8  -6  -5    6.78    0.96
   8  -6   5    7.23    2.58
  -8  -6  -5    6.98    0.89
  -8   6  -6    5.07    2.68
   8   6   6    4.69    6.15
  -8   6  -6    1.97    0.63
   8   6   6    2.46    0.60
  -8  -6  -6    0.39    0.53
   8  -6   6    7.79    3.77
  -8  -6  -6    2.91    4.24
  -8  -6  -6    1.95    0.67
  -8   7   6    0.02    0.44
   8   7  -6   -3.23    4.34
  -8  -7   6    0.34    0.36
   8  -7  -6    0.45    0.38
  -8  -7   6   -4.60    3.94
   8   7  -5    8.03    7.32
  -8   7   5   28.42    1.70
  -8   7   5   33.69    6.26
   8  -7  -5   25.30    5.00
  -8  -7   5    8.03    8.27
   8  -7  -5   27.96    1.31
   8   7  -4    6.84    0.73
  -8   7   4    8.18    0.89
   8   7  -4    5.42    3.99
   8  -7  -4    6.65    3.74
   8  -7  -4    6.32    0.60
  -8  -7   4    6.39    0.66
  -8  -7   4    6.20    3.91
  -8   7   3   16.69    1.15
   8   7  -3   18.97    1.18
  -8   7   3   18.14    0.92
   8   7  -3   16.03    5.16
  -8  -7   3   19.53    1.04
   8  -7  -3   20.97    3.18
  -8  -7   3   13.89    5.19
  -8  -7   3   17.71    1.27
   8  -7  -3   17.79    0.90
  -8   7   2   22.11    1.20
  -8   7   2   20.23    0.90
   8   7  -2   15.14    4.57
   8   7  -2   22.25    1.09
  -8   7   2   26.06    3.01
  -8   7   2   21.34    0.96
  -8  -7   2   27.35    6.83
  -8  -7   2   22.20    1.14
   8  -7  -2   21.55    0.93
   8  -7  -2   25.80    3.06
  -8  -7   2   18.97    1.28
   8   7  -1   94.84    3.49
  -8   7   1  107.25    3.21
  -8   7   1  105.25    3.38
  -8   7   1   99.47    4.97
  -8   7   1  107.57    3.12
   8   7  -1  113.27   11.24
   8   7  -1   99.50    3.19
   8   7  -1  108.95   11.60
   8  -7  -1  104.42    3.03
   8  -7  -1  101.37    4.45
  -8  -7   1  102.67    3.40
  -8  -7   1   98.96    3.33
  -8  -7   1   96.92    3.62
   8   7   0    1.28    0.37
  -8   7   0    1.13    0.32
  -8   7   0    1.49    0.33
   8   7   0    3.86    2.76
   8   7   0    1.18    0.37
  -8   7   0    1.61    0.30
   8   7   0    1.42    0.32
   8   7   0    1.72    2.64
  -8  -7   0    1.03    0.42
  -8  -7   0    1.02    0.39
  -8  -7   0    1.06    0.35
   8   7   1   77.09    2.68
  -8   7  -1   75.27    2.46
  -8   7  -1   75.78    2.62
  -8   7  -1   78.40    2.48
   8   7   1   70.28    9.07
   8   7   1   75.52    2.52
   8   7   1   71.22    9.19
   8   7   1   72.07    2.84
  -8  -7  -1   74.01    2.69
  -8  -7  -1   69.68    2.86
   8   7   2    1.26    0.41
   8   7   2    0.88    0.33
  -8   7  -2    0.99    0.36
   8   7   2   -0.17    2.35
  -8   7  -2    2.06    0.37
  -8  -7  -2    2.23    0.54
  -8  -7  -2    1.68    0.44
  -8   7  -3    3.62    1.11
  -8   7  -3    4.93    0.64
  -8   7  -3    5.44    0.42
   8   7   3   12.75    4.97
  -8   7  -3    5.24    0.54
  -8   7  -3    5.71    0.47
   8   7   3    4.17    0.66
  -8  -7  -3    7.42    3.64
   8  -7   3    3.23    1.15
  -8  -7  -3    5.72    0.72
  -8  -7  -3    4.89    0.75
   8   7   4   29.51    1.57
  -8   7  -4   33.55    1.71
  -8   7  -4   31.01    3.45
   8   7   4   22.83    7.44
  -8  -7  -4   25.18    6.10
   8  -7   4   26.21    3.66
  -8  -7  -4   32.74    1.67
  -8  -7  -4   30.15    1.76
  -8   7  -5    5.13    0.79
  -8   7  -5    7.05    2.48
   8   7   5    4.67    0.71
   8   7   5    4.10    4.67
  -8  -7  -5    5.46    0.83
  -8  -7  -5    1.46    3.85
  -8  -7  -5    4.25    0.73
   8  -7   5    0.51    1.85
   8   7   6   -9.07    6.03
  -8   7  -6    1.26    0.54
  -8   7  -6   -2.20    2.08
   8   7   6    0.68    0.49
  -8  -7  -6    9.37    6.37
  -8  -7  -6    1.20    0.64
   8  -7   6    1.71    3.25
  -8  -7  -6    0.02    0.51
  -8   8   6    4.30    0.86
   8   8  -6    4.03    5.79
   8  -8  -6    3.74    0.61
  -8  -8   6    2.89    0.57
  -8  -8   6   -2.17    5.21
   8   8  -5   -3.08    4.08
  -8   8   5   14.17    1.24
  -8  -8   5    8.99    5.36
  -8   8   4    1.51    0.51
   8   8  -4    2.26    4.22
   8  -8  -4    2.00    0.44
  -8  -8   4    1.01    0.38
   8  -8  -4   -1.45    1.62
  -8  -8   4   -2.66    2.95
  -8   8   3   -0.05    0.22
  -8   8   3   -0.56    0.39
   8   8  -3   -2.00    2.43
   8   8  -3    0.28    0.32
   8  -8  -3    0.00    0.26
   8  -8  -3   -0.56    1.25
  -8  -8   3   -0.03    0.26
  -8  -8   3    0.29    0.39
  -8  -8   3    0.71    2.99
  -8   8   2   18.50    2.56
  -8   8   2   14.81    1.03
   8   8  -2   13.12    5.17
  -8   8   2   15.47    0.85
   8   8  -2   16.32    1.06
  -8  -8   2    9.86    4.87
  -8  -8   2   15.56    0.96
   8  -8  -2   14.08    2.12
   8  -8  -2   14.29    0.80
  -8  -8   2   15.56    1.18
   8   8  -1   17.23    0.94
  -8   8   1   18.76    0.89
  -8   8   1   17.82    0.88
  -8   8   1   16.16    1.01
   8   8  -1   12.15    4.45
   8   8  -1   14.85    4.97
  -8  -8   1   16.46    1.02
   8  -8  -1   17.15    0.81
  -8  -8   1   14.25    1.14
  -8  -8   1   16.98    1.06
   8   8   0   37.35    1.64
   8   8   0   37.29    1.53
  -8   8   0   36.97    1.50
  -8   8   0   38.88    1.47
  -8   8   0   38.57    1.56
   8   8   0   48.48    9.25
   8   8   0   34.53    7.23
  -8  -8   0   37.88    1.76
  -8  -8   0   36.22    1.83
   8   8   1   12.04    4.64
  -8   8  -1   13.31    0.79
   8   8   1    9.80    4.29
  -8   8  -1   13.53    0.80
   8   8   1   12.87    0.88
   8   8   1   15.45    0.99
  -8   8  -1   13.58    0.87
  -8  -8  -1   14.13    1.00
  -8  -8  -1   13.19    1.10
  -8   8  -2   29.77    1.57
   8   8   2   38.32    8.36
  -8   8  -2   26.46    1.27
   8   8   2   27.23    1.33
  -8   8  -2   28.68    1.40
  -8  -8  -2   27.96    1.58
  -8  -8  -2   26.82    1.44
  -8   8  -3   31.35    1.15
  -8   8  -3   31.13    1.43
   8   8   3   21.82    6.34
  -8   8  -3   30.51    1.36
   8   8   3   31.70    1.61
  -8  -8  -3   29.56    6.88
  -8  -8  -3   32.03    1.59
  -8   8  -4    8.05    0.88
  -8   8  -4   10.08    2.05
   8   8   4    5.52    5.02
   8   8   4    8.64    0.92
   8  -8   4    9.68    2.30
  -8  -8  -4   12.09    4.28
  -8  -8  -4    7.18    0.88
  -8  -8  -4    8.14    0.97
   8   8   5   24.67    8.28
  -8   8  -5   19.96    3.46
   8   8   5   20.33    1.33
  -8   8  -5   20.12    1.41
   8  -8   5   13.41    3.50
  -8  -8  -5   21.93    1.47
  -8  -8  -5   15.84    6.46
  -8  -8  -5   21.54    1.50
   8   9  -6    0.38    6.77
  -8   9   6    2.30    0.75
  -8  -9   6    2.42    0.54
   8  -9  -6    2.31    0.59
  -8  -9   6    8.84    7.21
  -8   9   5    1.39    0.59
   8   9  -5   -3.93    4.63
   8  -9  -5    1.04    0.43
  -8  -9   5    6.50    5.34
  -8   9   4    3.33    2.22
   8   9  -4   -2.00    3.96
  -8  -9   4    0.91    4.04
   8  -9  -4    5.90    2.34
  -8   9   3   57.90    5.58
  -8   9   3   52.82    2.27
  -8   9   3   49.37    1.93
   8   9  -3   38.38    8.83
  -8  -9   3   74.05   10.72
  -8  -9   3   42.15    2.33
   8  -9  -3   50.36    4.89
   8  -9  -3   53.01    1.92
  -8   9   2    3.33    0.58
   8   9  -2    3.61    0.57
   8   9  -2   -2.68    2.64
  -8   9   2    2.69    1.27
  -8   9   2    2.95    0.46
   8  -9  -2    3.87    1.35
  -8  -9   2    3.45    0.71
  -8  -9   2    3.87    0.61
   8  -9  -2    3.59    0.47
  -8   9   1    9.21    0.78
  -8   9   1   10.83    0.64
   8   9  -1   10.26    5.26
  -8   9   1    8.53    0.67
   8   9  -1    5.68    3.77
   8   9  -1    8.02    0.71
  -8  -9   1    9.97    0.88
  -8  -9   1    8.82    0.92
   8  -9  -1    9.74    0.62
   8   9   0   31.18    1.45
  -8   9   0   29.07    1.26
  -8   9   0   29.01    1.34
  -8   9   0   30.09    1.29
   8   9   0   22.67    6.50
   8   9   0   27.83    1.33
   8   9   0   36.00    7.79
  -8  -9   0   27.90    1.55
  -8  -9   0   25.53    1.56
   8   9   1    7.36    3.55
   8   9   1    3.11    0.50
  -8   9  -1    3.87    0.52
  -8   9  -1    4.06    0.50
  -8   9  -1    3.87    0.49
   8   9   1    5.18    3.88
  -8  -9  -1    3.65    0.65
  -8  -9  -1    3.21    0.64
   8   9   2   63.66    9.78
  -8   9  -2   75.18    2.69
  -8   9  -2   72.19    2.58
   8   9   2   52.36   13.75
  -8   9  -2   74.43    2.38
   8   9   2   73.71    2.76
  -8  -9  -2   67.56    2.90
  -8  -9  -2   72.76    2.81
   8   9   3   23.39    1.39
  -8   9  -3   21.16    1.28
   8   9   3   22.94    6.82
  -8   9  -3   21.50    0.88
  -8  -9  -3   17.78    5.35
  -8  -9  -3   21.65    1.45
  -8  -9  -3   19.92    1.32
  -8   9  -4    5.86    1.53
   8   9   4    0.47    4.79
  -8   9  -4    8.66    0.89
   8   9   4    6.33    0.83
   8  -9   4    6.87    1.63
  -8  -9  -4    7.17    0.89
  -8  -9  -4    5.91    0.87
  -8   9  -5    4.95    0.78
  -8   9  -5    4.42    1.95
   8   9   5    2.76    0.62
   8   9   5   -9.32    6.00
  -8  -9  -5    3.89    0.73
  -8  -9  -5    4.28    0.77
  -8  -9  -5    8.64    5.26
   8  -9   5    0.79    2.07
  -8  10   5    0.40    0.48
   8  10  -5    0.36    4.83
  -8 -10   5   -0.88    5.90
   8 -10  -5    0.57    0.39
  -8  10   4   49.33    2.33
   8  10  -4   32.31    8.50
  -8 -10   4   44.66   10.59
   8 -10  -4   45.78    1.91
  -8  10   3    4.12    1.91
  -8  10   3    2.32    0.60
  -8  10   3    1.39    0.43
   8  10  -3    2.35    3.55
   8 -10  -3    2.58    0.49
   8 -10  -3    2.25    1.54
  -8 -10   3   -1.74    3.83
  -8 -10   3    1.27    0.56
   8  10  -2   18.41    6.43
  -8  10   2   32.19    3.12
  -8  10   2   29.74    1.36
   8  10  -2   23.34    6.61
  -8 -10   2   29.15    1.55
   8 -10  -2   26.59    2.81
  -8 -10   2   26.96    1.70
   8 -10  -2   26.75    1.27
  -8  10   1    1.89    0.47
   8  10  -1    0.73    2.90
  -8  10   1    1.84    0.31
   8  10  -1   -3.25    2.96
  -8 -10   1    2.03    0.54
  -8 -10   1    0.74    0.48
   8 -10  -1    1.98    0.38
  -8  10   0    0.91    0.36
   8  10   0   -5.76    3.11
   8  10   0    5.17    3.37
  -8  10   0    1.23    0.30
  -8  10   0    1.27    0.37
  -8 -10   0    1.67    0.55
  -8  10  -1   11.58    0.82
   8  10   1   13.27    5.32
   8  10   1   10.54    0.94
  -8  10  -1   10.76    0.76
  -8  10  -1   11.89    0.82
  -8 -10  -1   12.23    1.07
   8  10   2   -3.70    4.58
   8  10   2    0.96    0.43
   8  10   2    0.85    3.70
  -8  10  -2    1.41    0.42
  -8  10  -2    1.76    0.44
  -8  10  -2    1.31    0.33
  -8 -10  -2    1.52    0.56
  -8  10  -3    0.42    0.34
   8  10   3    5.58    4.54
   8  10   3    0.69    0.43
  -8 -10  -3   -2.91    3.27
  -8 -10  -3   -0.32    0.37
  -8 -10  -3    0.22    0.44
   8  10   4   -7.33    4.70
   8  10   4    0.41    0.40
  -8  10  -4    0.41    0.37
  -8 -10  -4   -0.11    0.40
  -8 -10  -4   -0.20    0.41
  -8 -10  -4    5.01    4.65
  -8  10  -5    1.30    0.61
  -8  10  -5    2.02    1.94
   8  10   5   14.26    7.92
   8  10   5    1.61    0.58
  -8 -10  -5    0.64    0.54
   8 -10   5    2.58    2.67
  -8 -10  -5    0.18    0.50
  -8 -10  -5   -0.10    4.63
   8  11  -5    4.47    6.21
  -8  11   5    3.10    0.85
  -8 -11   5    5.82    7.14
   8 -11  -5    1.87    0.60
   8  11  -4    8.89    5.25
  -8  11   4    8.10    1.05
   8 -11  -4    9.03    0.86
  -8 -11   4   -1.79    6.05
   8  11  -3    3.16    4.56
  -8  11   3   14.02    1.20
   8 -11  -3   15.05    1.00
   8  11  -2   22.00    6.39
  -8  11   2   23.74    2.66
   8  11  -2   17.92    7.67
  -8  11   2   20.98    1.38
  -8  11   2   24.25    1.28
   8 -11  -2   24.48    1.21
  -8 -11   2   23.09    1.56
  -8 -11   2   24.40    2.10
   8  11  -1   47.43    9.49
   8  11  -1   47.35    9.42
  -8  11   1   51.67    2.16
  -8  11   1   50.99    1.74
  -8  11   1   53.13    2.04
   8 -11  -1   49.57    1.89
  -8 -11   1   47.65    2.36
  -8 -11   1   52.61    2.33
   8  11   0    0.82    0.43
  -8  11   0    0.57    0.25
  -8  11   0    0.19    0.31
   8  11   0    1.00    3.52
  -8  11   0    0.04    0.28
   8  11   0    2.99    3.74
  -8 -11   0    0.38    0.40
   8 -11   0    0.69    0.31
  -8 -11   0    0.41    0.48
   8  11   1   20.23    6.87
  -8  11  -1   14.46    0.92
   8  11   1   11.71    5.36
  -8  11  -1   15.67    1.00
   8  11   1   15.27    1.12
  -8  11  -1   13.20    0.89
  -8 -11  -1   13.34    1.15
  -8  11  -2   10.35    0.86
   8  11   2    8.03    4.27
  -8  11  -2   10.20    0.70
   8  11   2   12.52    7.49
   8  11   2   11.46    1.02
  -8 -11  -2   11.94    1.11
  -8 -11  -2    9.62    1.01
  -8  11  -3    1.14    0.41
   8  11   3    2.90    3.97
   8  11   3    0.67    0.45
  -8 -11  -3    1.07    0.57
  -8 -11  -3    0.70    0.53
   8  11   4    8.75    6.70
   8  11   4    7.15    0.93
  -8  11  -4    8.42    0.91
  -8 -11  -4    9.74    1.06
  -8 -11  -4    4.56    4.61
  -8 -11  -4    5.45    0.91
   8  12  -4   -3.84    5.16
  -8  12   4    1.08    0.52
  -8 -12   4   -8.88    5.05
   8 -12  -4    1.54    0.51
  -8  12   3    6.51    0.92
   8  12  -3    6.40    5.46
   8 -12  -3    3.86    0.64
  -8  12   2    9.94    0.98
   8  12  -2   18.45    5.98
   8  12  -2   14.67    6.28
  -8  12   2    7.94    1.62
  -8 -12   2    9.53    1.05
  -8 -12   2    7.92    1.02
   8 -12  -2    8.33    0.77
  -8  12   1   18.60    1.36
  -8  12   1   18.13    0.82
   8  12  -1   16.96    6.33
   8  12  -1    9.26    5.20
   8 -12  -1   18.44    1.02
  -8 -12   1   17.81    1.32
  -8 -12   1   15.39    1.34
   8  12   0    7.61    4.67
  -8  12   0    2.98    0.54
   8  12   0    2.46    3.79
  -8  12   0    3.67    0.49
   8  12   0    2.82    0.57
  -8 -12   0    3.25    0.72
  -8 -12   0    3.48    0.71
   8 -12   0    2.58    0.49
   8  12   1   -4.32    3.70
   8  12   1    0.03    0.40
  -8  12  -1    0.18    0.25
   8  12   1    0.89    4.05
  -8  12  -1    0.43    0.30
  -8 -12  -1    0.50    0.50
  -8 -12  -1    0.41    0.46
   8  12   2    0.53    0.43
  -8  12  -2    0.01    0.22
  -8  12  -2    0.67    0.35
   8  12   2    3.43    5.05
   8  12   2   -4.31    3.76
  -8 -12  -2    0.13    0.48
  -8 -12  -2   -0.30    0.36
  -8  12  -3    6.64    0.76
   8  12   3    5.58    6.50
   8  12   3    3.47    5.39
   8  12   3    5.52    0.82
  -8 -12  -3    6.19    0.93
  -8  12  -4    4.86    0.77
   8  12   4    6.21    0.90
  -8 -12  -4    4.52    0.89
  -8 -12  -4    4.31    0.80
  -8 -12  -4   -1.92    6.36
  -8  13   4    0.67    0.55
   8  13  -4    1.84    5.89
   8 -13  -4    0.84    0.51
   8  13  -3   -3.19    4.02
   8  13  -3   -4.57    5.20
   8 -13  -3    1.75    0.50
   8  13  -2   -3.06    4.98
   8  13  -2   -2.53    3.69
  -8  13   2    1.87    0.56
  -8 -13   2    1.29    0.62
  -8 -13   2    2.61    0.71
   8  13  -1    2.29    0.58
  -8  13   1    2.18    0.57
  -8  13   1    2.09    0.32
   8  13  -1    2.52    5.23
  -8 -13   1    1.80    0.64
   8 -13  -1    1.89    0.45
  -8 -13   1    1.73    0.63
  -8  13   0    3.70    0.63
   8  13   0    4.15    0.72
   8  13   0    2.66    5.29
  -8  13   0    3.74    0.50
  -8  13   0    3.08    0.52
  -8 -13   0    2.37    0.71
  -8 -13   0    4.17    0.83
   8 -13   0    4.96    0.61
   8  13   1    1.65    0.53
  -8  13  -1    1.45    0.42
   8  13   1    0.36    4.93
  -8  13  -1    1.08    0.37
  -8 -13  -1    2.41    0.76
  -8 -13  -1    1.78    0.58
  -8  13  -2    6.09    0.60
   8  13   2    6.88    0.91
  -8  13  -2    5.93    0.71
  -8 -13  -2    4.14    0.79
  -8 -13  -2    5.90    0.92
   8  13   3    6.18    8.09
   8  13   3   14.58    1.31
   8  13   3   28.00    8.97
  -8  13  -3   14.16    1.09
  -8 -13  -3   12.39    1.18
  -8 -13  -3   12.79    1.31
  -8  14   3    0.20    0.46
   8  14  -3   -5.33    7.00
   8 -14  -3    0.60    0.44
  -8  14   2    9.02    1.04
   8  14  -2   -2.98    7.90
   8  14  -2    7.46    6.36
  -8 -14   2   10.67    1.18
   8 -14  -2   11.81    0.95
   8  14  -1   18.89    8.05
   8  14  -1   18.22    1.25
  -8  14   1   19.05    1.28
  -8 -14   1   17.62    1.41
  -8 -14   1   12.97    1.37
   8 -14  -1   16.61    1.08
   8  14   0   -7.97    4.82
  -8  14   0    0.17    0.54
  -8  14   0    0.40    0.24
   8  14   0    6.38    4.36
   8  14   0    0.30    0.40
  -8  14   0   -0.15    0.33
  -8 -14   0    0.28    0.42
  -8 -14   0    0.96    0.57
   8 -14   0    0.19    0.33
  -8  14  -1   20.71    1.20
   8  14   1   15.82    8.19
   8  14   1   21.89    1.43
   8  14   1   15.69    6.56
  -8  14  -1   22.32    1.20
  -8 -14  -1   23.81    1.71
  -8 -14  -1   17.80    1.44
   8  14   2    3.33    1.20
  -8  14  -2    5.04    0.57
   8  14   2    9.97    6.47
  -8  14  -2    5.22    0.72
  -8 -14  -2    4.01    0.84
  -8 -14  -2    2.71    0.81
   8  15  -2    3.73    7.12
  -8  15   2    1.28    0.54
  -8 -15   2    1.51    0.62
   8 -15  -2    0.58    0.46
   8  15  -1   -0.77    5.11
  -8  15   1    0.77    0.42
   8 -15  -1    0.23    0.36
  -8 -15   1   -0.03    0.53
  -8 -15   1   -0.09    0.46
   8  15   0   15.58    8.15
  -8  15  -1    2.91    0.55
  -8  15  -1    3.11    0.56
   8  15   1    2.67    0.85
   8  15   1   -0.49    5.59
  -8 -15  -1    3.45    0.74
  -8 -15  -1    3.56    0.87
  -9   0   7   -7.60    3.72
  -9   0   7    0.24    0.42
   9   0  -7   -0.93    0.37
   9   0  -7   -2.42    5.68
  -9   0   6   35.45    1.84
   9   0  -6   32.37    1.52
   9   0  -5    1.36    3.02
  -9   0   5   -1.35    1.91
  -9   0   5    0.06    0.38
   9   0  -5    0.00    0.25
   9   0  -5    0.10    0.26
  -9   0   4   56.82    6.96
   9   0  -4   62.43    7.40
   9   0  -4   57.87    1.90
   9   0  -4   55.56    2.14
  -9   0   4   57.90    2.32
  -9   0   4   57.68    2.40
   9   0  -3    0.27    1.51
   9   0  -3    0.14    0.15
  -9   0   3    2.28    1.89
  -9   0   3    0.06    0.30
   9   0  -3    0.12    0.14
   9   0  -3    0.40    0.25
   9   0  -2   19.05    4.43
   9   0  -2   18.55    0.99
  -9   0   2   17.73    4.51
  -9   0   2   20.62    1.21
   9   0  -1   -0.25    0.17
   9   0  -1    0.36    1.16
  -9   0   1   -0.22    1.33
  -9   0   1    0.42    0.34
  -9   0   0    1.18    0.33
  -9   0   0    1.16    0.39
   9   0   0    1.64    0.34
   9   0   0    0.42    1.21
   9   0   0    2.10    1.44
   9   0   1    1.69    1.46
  -9   0  -1    0.28    0.28
  -9   0  -1    0.01    0.14
   9   0   1    0.20    1.06
  -9   0  -1    0.13    0.23
   9   0   2    4.43    0.57
   9   0   2    3.79    1.91
  -9   0  -2    4.56    0.60
  -9   0  -2    4.65    0.43
  -9   0  -2    3.66    0.61
  -9   0  -3    0.01    0.24
  -9   0  -3   -0.02    0.30
   9   0   3    1.08    1.71
  -9   0  -3   -1.25    1.07
  -9   0  -4  138.74   10.09
  -9   0  -4  142.80    4.46
  -9   0  -4  136.81    4.79
   9   0   4  129.52   10.84
  -9   0  -4  140.86    4.41
  -9   0  -5   -0.30    0.32
   9   0   5    0.69    2.32
  -9   0  -5   -0.23    0.33
  -9   0  -5    0.14    1.96
  -9   0  -5    0.15    0.34
  -9   0  -6   14.62    4.34
   9   0   6    6.22    4.68
  -9   0  -6   14.35    1.30
  -9   0  -6   14.91    1.21
   9   1  -7    6.15    0.83
   9   1  -7   11.96    4.70
  -9   1   7    4.50    0.86
  -9  -1   7    4.87    0.81
  -9  -1   7    8.60    4.73
   9  -1  -7    5.28    0.74
   9   1  -6   29.56    1.40
   9   1  -6   32.55    7.96
  -9   1   6   27.88    1.65
  -9   1   6   25.83    6.64
   9  -1  -6   24.81    6.25
   9  -1  -6   25.56    1.34
   9  -1  -6   28.12    1.36
  -9  -1   6   27.46    1.61
   9   1  -5   22.38    1.09
  -9   1   5   18.50    5.05
   9   1  -5   21.82    1.24
  -9   1   5   21.61    1.37
   9   1  -5   15.35    5.27
  -9  -1   5   23.41    6.11
   9  -1  -5   17.20    4.96
   9  -1  -5   22.96    1.07
   9  -1  -5   21.82    1.14
   9   1  -4   20.67    1.63
  -9   1   4   22.40    1.30
   9   1  -4   20.73    5.50
   9   1  -4   22.99    0.98
  -9   1   4   18.65    4.64
   9  -1  -4   17.17    4.49
   9  -1  -4   21.91    0.95
   9  -1  -4   24.15    1.15
  -9  -1   4   24.91    1.44
  -9  -1   4   20.12    5.31
   9   1  -3   10.09    0.75
   9   1  -3   11.97    3.92
  -9   1   3    6.35    2.68
   9   1  -3   10.17    0.54
  -9   1   3   11.04    0.86
   9  -1  -3   10.87    0.49
  -9  -1   3   12.87    3.78
   9  -1  -3   10.14    0.70
   9  -1  -3    9.85    3.28
  -9  -1   3   10.01    0.88
  -9   1   2   51.29    6.16
   9   1  -2   60.47    6.80
   9   1  -2   60.98    2.22
  -9   1   2   61.46    2.39
   9  -1  -2   59.62    2.12
  -9  -1   2   59.66    2.41
  -9  -1   2   58.22    7.13
   9  -1  -2   62.02    6.13
   9   1  -1    0.23    0.20
   9   1  -1    1.25    1.58
  -9   1   1   -0.44    0.22
  -9   1   1    0.91    1.22
   9  -1  -1    0.28    1.08
  -9  -1   1    0.02    0.30
   9  -1  -1   -0.07    0.18
  -9  -1   1    1.16    1.60
  -9   1   0   17.40    1.09
   9   1   0   17.85    1.01
   9   1   0   19.46    4.38
   9   1   0   24.46    3.96
  -9  -1   0   17.61    0.97
   9  -1   0   19.59    3.19
  -9  -1   0   17.37    1.13
   9  -1   0   17.23    0.96
   9  -1   0   21.60    3.53
   9   1   1  147.31   10.76
   9   1   1  160.75   11.03
  -9   1  -1  139.39    4.42
   9   1   1  143.10    4.57
  -9   1  -1  142.24    4.66
  -9   1  -1  145.20    4.03
   9  -1   1  143.01    4.52
  -9  -1  -1  145.05    4.09
   9  -1   1  144.80    9.52
   9  -1   1  145.65    9.70
  -9  -1  -1  141.87    4.48
  -9  -1  -1  149.27    4.76
  -9   1  -2    0.49    0.31
  -9   1  -2    1.04    0.32
   9   1   2   -0.89    0.96
  -9   1  -2    0.69    0.23
   9  -1   2    0.45    1.16
   9  -1   2    1.04    0.33
  -9  -1  -2    1.02    0.27
  -9  -1  -2    1.51    0.46
  -9   1  -3   42.92    1.66
   9   1   3   40.25    5.98
  -9   1  -3   41.30    1.75
  -9   1  -3   42.90    1.99
  -9  -1  -3   44.00    1.68
  -9  -1  -3   44.49    1.83
  -9  -1  -3   39.75    1.99
  -9  -1  -3   38.08    4.99
  -9   1  -4    2.75    0.52
  -9   1  -4    5.17    1.91
  -9   1  -4    1.94    0.52
   9   1   4    7.11    3.05
  -9   1  -4    2.82    0.55
  -9  -1  -4    3.45    0.55
  -9  -1  -4    2.30    0.48
  -9  -1  -4    1.16    1.47
   9  -1   4   -1.93    1.88
  -9  -1  -4    3.02    0.65
  -9   1  -5   24.30    4.98
  -9   1  -5   25.10    1.53
  -9   1  -5   25.05    1.29
  -9   1  -5   23.42    1.56
  -9  -1  -5   18.48    4.57
  -9  -1  -5   23.29    1.59
  -9  -1  -5   24.30    1.41
   9  -1   5   19.44    5.01
  -9   1  -6    0.49    0.42
   9   1   6    6.47    4.10
  -9   1  -6    0.05    0.35
  -9   1  -6    1.93    2.89
  -9   1  -6    0.91    0.42
  -9  -1  -6   -0.12    0.43
   9  -1   6   -1.99    3.25
  -9  -1  -6    2.30    2.85
  -9  -1  -6    0.90    0.48
  -9   2   7    0.75    0.48
  -9  -2   7   -0.46    0.41
   9  -2  -7    0.97    0.44
  -9  -2   7    1.12    5.28
  -9   2   6    3.86    0.74
   9   2  -6    1.30    2.96
  -9   2   6    2.09    3.25
   9   2  -6    2.91    0.53
  -9  -2   6    2.15    3.13
   9  -2  -6    5.66    3.73
  -9  -2   6    2.46    0.62
   9  -2  -6    3.70    0.52
   9  -2  -6    3.46    0.56
  -9   2   5  115.89    4.03
   9   2  -5  117.33   12.03
   9   2  -5  103.81    3.66
   9  -2  -5  113.89    3.58
   9  -2  -5  113.71   10.89
  -9  -2   5  116.02    3.97
  -9  -2   5  114.11   11.19
   9  -2  -5  115.42    3.51
   9   2  -4    2.39    0.46
  -9   2   4    0.93    2.06
  -9   2   4    3.40    0.59
   9   2  -4    5.41    3.48
   9   2  -4    3.92    0.43
  -9  -2   4    2.20    2.16
   9  -2  -4    2.74    0.41
  -9  -2   4    2.88    0.62
   9  -2  -4    3.08    0.37
   9  -2  -4    3.09    1.97
  -9   2   3   39.74    1.76
  -9   2   3   40.78    1.76
   9   2  -3   40.88    1.54
   9   2  -3   40.85    6.02
  -9   2   3   38.65    5.30
   9  -2  -3   39.00    5.19
  -9  -2   3   42.53    6.17
   9  -2  -3   40.80    1.29
  -9  -2   3   39.09    1.90
   9  -2  -3   41.23    1.56
   9   2  -2   63.86    1.96
  -9   2   2   70.77    2.55
   9   2  -2   69.04    7.54
   9   2  -2   69.53    2.47
  -9   2   2   60.19    6.17
  -9  -2   2   72.55    8.12
   9  -2  -2   66.15    2.26
  -9  -2   2   68.51    2.66
   9  -2  -2   60.02    5.93
  -9   2   1    3.66    0.56
  -9   2   1    0.53    1.45
   9   2  -1    3.18    0.49
   9   2  -1    2.94    2.74
  -9  -2   1    0.45    2.06
   9  -2  -1    3.37    0.45
  -9  -2   1    3.40    0.51
  -9  -2   1    3.62    0.62
   9  -2  -1    6.10    2.08
   9   2   0   19.51    4.47
  -9   2   0   25.06    1.31
   9   2   0   24.11    1.23
  -9  -2   0   23.22    1.36
   9  -2   0   29.06    3.56
   9  -2   0   27.32    3.33
  -9  -2   0   25.11    0.90
   9  -2   0   25.57    1.18
  -9   2  -1  151.58    4.16
   9   2   1  148.99    4.73
   9   2   1  167.79   11.91
  -9   2  -1  150.69    4.78
  -9   2  -1  146.84    4.12
  -9   2  -1  150.63    4.57
   9  -2   1  152.79    4.65
   9  -2   1  147.67    8.94
  -9  -2  -1  148.25    4.27
  -9  -2  -1  145.92    4.86
   9  -2   1  160.74    8.99
  -9  -2  -1  136.52    4.84
  -9   2  -2   15.95    0.93
  -9   2  -2   14.37    0.75
   9   2   2   14.70    1.01
  -9   2  -2   15.31    1.05
   9  -2   2   18.41    3.51
  -9  -2  -2   15.99    0.83
  -9  -2  -2   15.65    0.98
  -9  -2  -2   15.97    1.13
   9  -2   2   14.47    0.97
  -9   2  -3   48.14    4.91
  -9   2  -3   49.82    1.94
  -9   2  -3   49.22    1.85
  -9   2  -3   48.35    2.16
  -9  -2  -3   49.73    2.03
   9  -2   3   47.49    5.36
  -9  -2  -3   50.31    2.29
  -9  -2  -3   49.74    5.87
  -9  -2  -3   50.76    1.91
   9   2   4   10.37    0.78
  -9   2  -4    7.98    2.63
  -9   2  -4   12.63    1.04
  -9   2  -4   10.55    0.80
  -9   2  -4   10.87    0.83
   9   2   4    7.88    3.99
   9  -2   4   12.89    3.56
  -9  -2  -4   10.51    0.86
  -9  -2  -4    7.08    3.18
  -9  -2  -4   11.01    1.06
   9   2   5    7.68    0.71
  -9   2  -5    8.93    2.93
   9   2   5    6.54    4.11
  -9   2  -5    8.81    0.74
  -9   2  -5    8.77    0.87
  -9   2  -5    6.98    0.92
  -9  -2  -5    9.05    1.03
  -9  -2  -5    8.38    0.85
  -9  -2  -5    5.77    2.37
   9  -2   5   10.52    3.68
   9   2   6   -5.18    3.39
   9   2   6    0.37    0.35
  -9   2  -6    0.61    0.47
  -9   2  -6    0.45    0.39
  -9   2  -6    1.07    2.78
   9  -2   6   -0.52    3.17
  -9  -2  -6   -0.23    0.39
  -9  -2  -6   -1.86    2.84
  -9  -2  -6    0.31    0.43
   9   3  -7   -0.36    5.34
  -9   3   7    0.13    0.47
   9   3  -7    1.42    0.50
  -9  -3   7    1.11    0.51
   9  -3  -7    1.24    0.47
  -9  -3   7    3.59    4.10
  -9   3   6   46.07    7.20
   9   3  -6   34.31    7.80
  -9   3   6   38.85    2.03
   9  -3  -6   39.40    1.65
   9  -3  -6   26.32    6.23
  -9  -3   6   40.08    1.94
  -9  -3   6   32.17    7.35
   9  -3  -6   35.66    1.49
   9   3  -5   17.25    5.57
  -9   3   5   17.56    1.28
   9   3  -5   18.21    0.99
  -9  -3   5   15.01    4.87
   9  -3  -5   18.14    0.94
   9  -3  -5   20.30    6.54
   9  -3  -5   16.11    0.87
  -9  -3   5   16.16    1.16
  -9   3   4   21.73    4.60
   9   3  -4   23.88    1.09
   9   3  -4   15.88    4.99
   9   3  -4   23.19    1.43
  -9   3   4   21.90    1.41
   9  -3  -4   25.24    1.00
   9  -3  -4   28.03    5.48
   9  -3  -4   23.15    1.03
  -9  -3   4   19.45    5.30
  -9  -3   4   24.24    1.51
   9   3  -3   16.15    4.72
   9   3  -3   22.69    0.99
   9   3  -3   24.22    1.27
  -9   3   3   24.93    1.20
  -9   3   3   25.24    1.31
  -9   3   3   20.38    4.18
  -9  -3   3   16.12    4.90
  -9  -3   3   25.96    1.47
   9  -3  -3   22.46    1.00
   9  -3  -3   13.33    3.42
   9  -3  -3   23.23    0.84
  -9   3   2    4.39    1.94
   9   3  -2    4.57    0.36
   9   3  -2    4.67    0.60
  -9   3   2    4.70    0.60
   9   3  -2    6.55    3.14
  -9  -3   2    5.11    0.58
  -9  -3   2    6.23    0.74
   9  -3  -2    5.31    2.24
   9  -3  -2    4.88    0.45
  -9  -3   2    4.35    3.03
  -9   3   1   17.92    3.66
  -9   3   1   16.00    1.01
   9   3  -1   15.74    0.64
   9   3  -1   19.00    7.29
  -9  -3   1   18.24    1.19
  -9  -3   1   15.98    0.95
   9  -3  -1   16.86    2.65
   9  -3  -1   16.54    0.86
  -9   3   0    0.92    0.34
   9   3   0    0.30    0.24
   9   3   0    0.85    1.69
   9   3   0    0.39    1.52
   9   3   0    1.34    0.21
   9  -3   0    1.26    1.08
  -9  -3   0    0.84    0.39
   9  -3   0    0.52    1.12
  -9  -3   0    1.28    0.26
   9  -3   0    0.90    0.27
  -9  -3   0    0.93    0.32
   9   3   1  103.33    3.56
  -9   3  -1  102.62    3.52
  -9   3  -1  106.94    3.02
   9   3   1  111.55   10.08
  -9   3  -1  104.96    2.99
  -9   3  -1  105.94    3.39
   9   3   1  101.67    3.10
   9   3   1   98.91    9.53
   9  -3   1  104.90    3.43
  -9  -3  -1  103.18    3.46
  -9  -3  -1  104.07    3.17
   9  -3   1  109.29    6.80
  -9  -3  -1  103.26    3.71
   9  -3   1  113.31    6.64
  -9   3  -2    1.11    0.35
   9   3   2    3.35    2.70
  -9   3  -2    1.32    0.35
  -9  -3  -2    1.10    0.45
   9  -3   2    2.55    1.40
  -9  -3  -2    0.70    0.32
  -9  -3  -2    1.13    0.38
   9  -3   2   -0.13    1.00
   9  -3   2    1.23    0.35
  -9   3  -3   10.31    0.92
   9   3   3   15.40    4.47
   9   3   3   10.99    0.81
  -9   3  -3    8.82    2.46
  -9   3  -3   12.09    0.77
  -9   3  -3   11.76    0.81
  -9  -3  -3   11.82    1.04
  -9  -3  -3    7.06    2.74
   9  -3   3   12.00    2.90
  -9  -3  -3   10.88    0.79
  -9   3  -4   -0.58    1.43
  -9   3  -4    0.32    0.30
  -9   3  -4    1.67    0.42
  -9   3  -4    0.67    0.39
   9   3   4    1.56    2.72
   9   3   4   -0.40    0.25
  -9  -3  -4    0.27    0.34
   9  -3   4    1.38    1.92
  -9  -3  -4    1.56    2.21
  -9  -3  -4    0.06    0.40
  -9   3  -5    6.00    3.05
   9   3   5    4.50    3.82
  -9   3  -5    5.85    0.61
   9   3   5    6.27    0.71
  -9   3  -5    7.63    0.84
  -9   3  -5    8.40    0.94
  -9  -3  -5    6.30    0.95
  -9  -3  -5    7.76    0.86
   9  -3   5    7.33    3.27
  -9  -3  -5    4.85    2.59
  -9   3  -6    2.95    0.63
   9   3   6   -1.22    5.15
  -9   3  -6   -0.89    2.34
   9   3   6    1.69    0.46
  -9  -3  -6    1.25    0.60
  -9  -3  -6    1.32    0.49
  -9  -3  -6   -0.87    4.21
   9  -3   6    5.82    3.26
   9   4  -7   27.16   10.97
  -9   4   7   18.72    2.18
  -9  -4   7   17.52    1.28
  -9  -4   7    2.12    6.10
   9  -4  -7   14.93    1.06
   9  -4  -7   15.22    1.12
  -9   4   6    0.53    0.45
   9   4  -6    3.94    4.00
  -9  -4   6    1.39    0.51
   9  -4  -6    0.84    0.27
   9  -4  -6    0.22    0.34
  -9  -4   6    1.40    3.75
  -9   4   5   27.86    5.53
   9   4  -5   28.40    7.32
  -9   4   5   29.07    1.68
   9   4  -5   26.49    1.30
  -9  -4   5   25.96    6.56
   9  -4  -5   30.47    1.28
   9  -4  -5   27.79    1.11
   9  -4  -5   30.06    5.94
   9   4  -4    0.98    2.65
   9   4  -4   -0.21    0.25
  -9   4   4    0.14    0.29
   9  -4  -4   -2.19    1.21
  -9  -4   4   -1.84    1.59
  -9  -4   4    0.02    0.34
   9   4  -3   12.03    4.22
   9   4  -3    9.60    0.63
  -9   4   3    7.33    2.47
   9   4  -3    9.21    0.81
  -9   4   3    8.29    0.80
  -9   4   3    9.25    0.68
  -9  -4   3    9.59    0.93
  -9  -4   3    6.85    3.25
   9  -4  -3    9.34    0.49
   9  -4  -3    9.77    0.57
  -9  -4   3    7.19    0.69
   9  -4  -3   10.66    3.12
   9   4  -2   25.26    9.64
  -9   4   2   30.66    1.46
   9   4  -2   31.00    1.52
  -9   4   2   33.10    1.50
  -9   4   2   31.27    3.94
   9   4  -2   30.15    1.23
  -9  -4   2   33.20    1.44
   9  -4  -2   33.44    1.25
  -9  -4   2   18.50    7.33
  -9  -4   2   34.55    1.73
   9  -4  -2   30.16    3.77
   9   4  -1   22.99    5.96
  -9   4   1   24.24    3.37
   9   4  -1   20.79    0.82
  -9   4   1   23.68    1.80
   9   4  -1   17.96    1.11
   9  -4  -1   20.57    0.96
   9  -4  -1   19.33    2.87
  -9  -4   1   18.73    1.07
  -9  -4   1   21.62    1.32
  -9  -4   1   21.50    0.86
   9   4   0   26.07    6.03
   9   4   0   21.02    1.20
  -9   4   0   23.55    1.21
   9  -4   0   21.30    1.06
  -9  -4   0   21.60    1.16
  -9  -4   0   21.35    1.33
   9  -4   0   23.78    2.56
   9  -4   0   28.58    2.83
  -9  -4   0   24.10    1.03
   9   4   1    0.04    1.26
  -9   4  -1    0.09    0.15
   9   4   1    0.22    0.24
   9   4   1    0.28    0.19
  -9   4  -1    0.45    0.27
   9   4   1    3.89    2.55
   9  -4   1    0.55    0.78
  -9  -4  -1    0.07    0.27
   9  -4   1    0.52    0.92
  -9  -4  -1   -0.10    0.25
   9  -4   1    0.12    0.20
  -9  -4  -1    0.22    0.23
  -9   4  -2    0.35    0.25
   9   4   2    0.03    0.26
  -9   4  -2    0.16    0.18
  -9   4  -2    0.11    0.28
   9   4   2    2.77    2.37
   9  -4   2   -0.12    1.05
  -9  -4  -2    0.51    0.31
  -9  -4  -2    0.24    0.28
  -9  -4  -2    0.50    0.36
   9  -4   2    0.01    0.71
   9   4   3   20.88    5.68
  -9   4  -3   11.34    0.96
  -9   4  -3   12.65    2.52
   9   4   3   12.87    0.89
  -9   4  -3   12.20    0.82
  -9  -4  -3   11.38    1.08
   9  -4   3    9.40    2.57
  -9  -4  -3    8.12    3.09
  -9  -4  -3   13.40    0.89
  -9   4  -4   67.72    5.99
  -9   4  -4   67.85    2.33
   9   4   4   70.66   10.84
  -9   4  -4   66.99    2.78
  -9  -4  -4   48.64    7.81
  -9  -4  -4   64.60    2.84
   9  -4   4   61.56    6.36
  -9  -4  -4   67.80    2.54
  -9   4  -5   15.93    0.89
   9   4   5   16.67    1.08
  -9   4  -5   19.35    4.26
  -9   4  -5   16.79    1.29
  -9   4  -5   17.24    1.19
   9   4   5   14.93    6.07
  -9  -4  -5   17.63    1.24
   9  -4   5   12.37    3.85
  -9  -4  -5   15.90    1.34
  -9  -4  -5   14.87    4.63
  -9   4  -6   11.32    3.80
  -9   4  -6   12.64    1.23
  -9   4  -6   11.63    1.07
   9   4   6    6.39    5.59
   9   4   6   11.32    0.95
  -9  -4  -6   19.73    6.10
  -9  -4  -6   13.46    1.31
   9  -4   6    7.40    4.08
  -9  -4  -6   10.94    1.09
   9   5  -6    3.48    4.81
  -9   5   6    4.15    0.79
  -9  -5   6    3.33    0.68
   9  -5  -6    4.51    0.62
  -9  -5   6    3.70    4.86
   9   5  -5   -2.45    3.85
  -9   5   5    4.29    2.91
  -9   5   5    1.65    0.55
   9  -5  -5   -0.68    2.48
   9  -5  -5    2.07    0.43
  -9  -5   5    3.29    4.05
  -9   5   4    5.82    0.83
   9   5  -4    0.06    2.87
   9   5  -4    4.50    0.58
  -9  -5   4    5.81    4.06
   9  -5  -4    4.53    0.34
   9  -5  -4    4.39    0.47
  -9  -5   4    3.57    0.75
   9  -5  -4    5.38    2.40
  -9   5   3    1.05    0.28
   9   5  -3   -0.16    2.95
  -9   5   3    2.11    0.49
   9   5  -3    1.49    0.35
  -9  -5   3    1.13    0.48
  -9  -5   3    0.86    2.77
   9  -5  -3    3.21    1.62
   9  -5  -3    1.43    0.26
   9  -5  -3    1.02    0.21
  -9  -5   3    0.47    0.28
   9   5  -2  219.71    6.75
  -9   5   2  229.87    6.68
  -9   5   2  220.01   11.48
   9   5  -2  219.33    6.29
  -9   5   2  206.33    6.51
   9   5  -2  248.82   17.36
  -9  -5   2  224.18    7.00
  -9  -5   2  222.56    6.59
  -9  -5   2  229.81   17.49
   9  -5  -2  223.12   11.11
   9  -5  -2  218.38    6.06
   9  -5  -2  235.93    6.27
   9   5  -1   18.38    5.45
   9   5  -1   13.43    0.97
  -9   5   1   15.72    0.95
   9   5  -1   15.88    0.75
   9   5  -1   17.87    4.91
  -9   5   1   15.05    2.97
  -9   5   1   15.77    0.95
   9  -5  -1   16.09    0.80
  -9  -5   1   14.56    1.12
  -9  -5   1   17.30    0.81
   9  -5  -1   17.58    2.33
  -9  -5   1   16.43    0.99
   9   5   0   68.23   10.69
   9   5   0   91.52    9.69
   9   5   0   75.74    2.44
  -9   5   0   79.77    2.30
  -9   5   0   80.80    2.76
   9  -5   0   84.54    4.22
   9  -5   0   77.68    2.61
  -9  -5   0   77.68    3.04
  -9  -5   0   73.28    2.74
  -9  -5   0   80.90    2.62
   9  -5   0   76.43    4.02
  -9   5  -1    1.73    0.28
  -9   5  -1    1.57    0.39
   9   5   1    1.50    0.45
   9   5   1    2.97    2.74
   9   5   1    1.39    0.29
   9   5   1    2.61    2.00
  -9  -5  -1    1.79    0.44
   9  -5   1    1.63    0.68
  -9  -5  -1    1.76    0.50
  -9  -5  -1    0.69    0.31
   9  -5   1    1.13    0.56
  -9   5  -2   15.20    0.76
  -9   5  -2   13.48    0.83
   9   5   2    8.53    3.94
   9   5   2   15.06    0.98
  -9   5  -2   14.80    1.02
   9   5   2   15.39    0.85
  -9  -5  -2   14.11    1.15
   9  -5   2   14.30    2.12
   9  -5   2   16.19    1.98
  -9  -5  -2   14.40    0.89
  -9   5  -3   12.37    0.81
   9   5   3    5.62    3.59
   9   5   3   11.73    0.90
  -9   5  -3   12.60    2.46
  -9   5  -3   11.56    0.98
  -9   5  -3   12.90    0.76
  -9  -5  -3    6.90    3.26
   9  -5   3   11.85    2.52
  -9  -5  -3   12.67    0.92
   9   5   4    6.21    0.76
  -9   5  -4    5.53    0.81
   9   5   4   -1.61    2.97
  -9   5  -4    6.73    0.56
  -9  -5  -4    5.65    0.75
   9  -5   4    3.26    1.94
  -9  -5  -4    5.06    0.84
  -9  -5  -4    6.13    3.55
  -9   5  -5    3.72    0.41
  -9   5  -5    3.02    0.69
  -9   5  -5   -0.82    1.74
   9   5   5    2.31    0.52
  -9  -5  -5    2.38    0.68
  -9  -5  -5    3.28    0.68
  -9  -5  -5    2.47    3.01
   9  -5   5   -0.10    2.08
  -9   5  -6    0.78    2.91
  -9   5  -6    0.99    0.54
  -9   5  -6    1.59    0.53
   9   5   6   -0.75    6.05
   9   5   6    1.43    0.49
  -9  -5  -6    1.71    4.10
   9  -5   6   -3.96    3.19
  -9  -5  -6    0.53    0.52
  -9  -5  -6    0.48    0.49
  -9   6   6    0.98    0.53
   9   6  -6   -4.57    4.47
  -9  -6   6   -6.14    3.73
  -9  -6   6    0.07    0.37
   9  -6  -6   -0.47    0.31
  -9   6   5    0.89    0.55
  -9   6   5   -0.73    2.31
   9   6  -5   -4.72    3.27
   9  -6  -5    1.15    0.36
  -9  -6   5   -1.07    3.40
   9  -6  -5    1.80    2.42
  -9   6   4    0.13    1.61
   9   6  -4    0.77    3.31
  -9   6   4    0.98    0.43
   9   6  -4    1.51    0.41
   9  -6  -4    1.52    1.99
  -9  -6   4    3.21    3.61
   9  -6  -4    1.20    0.33
  -9   6   3   15.67    1.14
   9   6  -3   14.42    0.89
  -9  -6   3   16.47    1.27
   9  -6  -3   14.76    0.74
   9  -6  -3   15.84    3.46
  -9   6   2   90.66    3.32
  -9   6   2  110.32    7.22
  -9   6   2  109.73    3.12
   9   6  -2  104.34    3.29
   9   6  -2  116.08   11.96
  -9   6   2  109.36    3.61
   9  -6  -2  106.13    3.08
  -9  -6   2  103.20   12.05
  -9  -6   2  104.91    3.87
  -9  -6   2  113.24    3.61
   9  -6  -2  115.45    7.01
   9   6  -1   -0.36    2.17
   9   6  -1    0.51    0.23
  -9   6   1    0.49    0.30
  -9   6   1    0.50    0.28
  -9   6   1    0.08    0.14
   9   6  -1   -3.44    1.69
  -9  -6   1    0.60    0.38
  -9  -6   1    0.25    0.32
  -9  -6   1    0.42    0.29
   9  -6  -1   -0.19    0.60
  -9   6   0   64.97    2.30
  -9   6   0   65.51    2.35
   9   6   0   60.60    8.42
   9   6   0   59.98    8.59
   9   6   0   64.13    2.16
  -9   6   0   67.58    2.03
  -9  -6   0   63.60    2.69
  -9  -6   0   66.19    2.35
  -9   6  -1    1.84    0.41
   9   6   1    1.70    0.35
   9   6   1    1.97    0.44
   9   6   1    4.12    3.16
   9   6   1    5.26    3.15
  -9   6  -1    2.36    0.34
  -9  -6  -1    1.63    0.41
  -9  -6  -1    2.26    0.56
  -9   6  -2   49.03    1.85
   9   6   2   47.37    1.86
  -9   6  -2   50.67    2.09
   9   6   2   52.68    2.06
   9   6   2   39.20    8.26
  -9   6  -2   48.52    1.77
  -9  -6  -2   49.60    1.96
  -9  -6  -2   47.03    2.25
   9  -6   2   49.73    2.21
   9  -6   2   51.52    2.20
   9   6   3    2.67    3.52
   9   6   3    1.14    0.42
  -9   6  -3    0.75    0.50
  -9   6  -3    1.03    0.31
  -9  -6  -3    2.21    0.47
  -9  -6  -3    2.53    2.89
   9  -6   3    1.72    1.19
  -9  -6  -3    1.32    0.52
   9   6   4   24.31    7.03
  -9   6  -4   36.60    1.87
  -9   6  -4   37.91    4.38
  -9   6  -4   33.87    1.35
   9   6   4   35.13    1.67
   9  -6   4   29.58    4.12
  -9  -6  -4   38.32    2.01
  -9  -6  -4   30.29    1.86
  -9  -6  -4   23.08    5.79
  -9   6  -5    0.72    0.45
   9   6   5    0.50    0.41
  -9   6  -5    0.59    2.28
   9   6   5    0.71    5.23
  -9  -6  -5    0.53    0.44
  -9  -6  -5    2.57    4.05
   9  -6   5    1.13    2.44
  -9  -6  -5    0.67    0.55
   9   7  -6    0.13    5.19
  -9   7   6    1.77    0.66
   9  -7  -6    0.70    0.44
  -9  -7   6    0.27    0.41
  -9  -7   6   -0.24    5.58
  -9   7   5    1.29    0.59
   9   7  -5    9.15    5.47
  -9  -7   5    2.18    4.53
   9  -7  -5    1.25    0.40
   9   7  -4   -1.16    3.36
  -9  -7   4    0.04    3.65
   9  -7  -4    0.11    2.11
   9   7  -3   10.04    0.85
  -9   7   3    9.88    0.92
   9   7  -3    4.61    3.77
   9  -7  -3    9.56    2.42
  -9  -7   3   13.61    5.82
  -9  -7   3    9.27    1.02
  -9   7   2    2.79    1.38
  -9   7   2    4.88    0.43
  -9   7   2    3.40    0.46
   9   7  -2    1.06    2.53
  -9   7   2    4.46    0.64
   9   7  -2    4.47    0.52
   9  -7  -2    4.56    0.42
  -9  -7   2    7.74    3.79
   9  -7  -2    3.02    1.32
  -9  -7   2    4.72    0.74
   9   7  -1    5.55    3.88
  -9   7   1    2.56    0.43
  -9   7   1    3.38    0.48
   9   7  -1    2.83    0.41
  -9   7   1    3.27    0.54
   9   7  -1    0.43    2.41
  -9  -7   1    2.01    0.53
   9  -7  -1    2.43    0.68
   9  -7  -1    2.56    0.31
  -9  -7   1    2.98    0.48
   9   7   0   12.81    4.87
  -9   7   0    9.09    0.73
   9   7   0    7.81    4.29
   9   7   0   10.72    0.69
  -9   7   0   11.75    0.77
  -9   7   0   10.78    0.61
  -9  -7   0   12.27    1.03
  -9  -7   0   10.08    0.84
   9   7   1   36.32    8.13
   9   7   1   19.81    5.67
  -9   7  -1   30.42    1.30
   9   7   1   29.44    1.29
  -9   7  -1   28.27    1.40
  -9   7  -1   30.85    1.23
   9   7   1   31.94    1.49
  -9  -7  -1   31.22    1.47
  -9  -7  -1   30.20    1.70
   9   7   2    0.99    3.19
  -9   7  -2    5.09    0.65
  -9   7  -2    4.98    0.53
  -9   7  -2    5.41    0.50
  -9   7  -2    5.08    0.53
   9   7   2    3.60    3.27
   9   7   2    6.08    0.79
   9   7   2    5.73    0.61
  -9  -7  -2    4.88    0.81
  -9  -7  -2    4.66    0.63
   9   7   3   12.08    0.98
  -9   7  -3   10.77    0.77
   9   7   3    5.60    3.95
  -9   7  -3   10.22    0.71
  -9   7  -3   11.93    1.00
   9  -7   3   11.38    1.50
  -9  -7  -3   12.22    4.14
   9  -7   3   11.66    1.76
  -9  -7  -3   11.01    1.08
  -9  -7  -3   11.36    0.93
   9   7   4    0.33    3.99
  -9   7  -4    6.25    0.79
   9   7   4    3.87    0.65
  -9   7  -4    6.50    1.91
  -9  -7  -4    5.55    0.76
  -9  -7  -4    4.86    0.86
  -9  -7  -4    8.02    4.65
   9  -7   4    5.05    1.83
  -9   7  -5    0.28    1.58
   9   7   5    1.28    0.47
  -9   7  -5    0.01    0.38
   9   7   5    0.69    5.95
  -9  -7  -5   -0.17    0.38
  -9  -7  -5    0.05    0.45
   9  -7   5    1.10    2.13
   9   8  -6   -2.43    7.43
  -9  -8   6    2.43    0.63
  -9  -8   6   -2.67    6.19
  -9   8   5   90.93    3.58
   9   8  -5   77.06   11.80
   9  -8  -5   87.66    2.98
  -9  -8   5   81.57   12.12
  -9   8   4   30.09    4.67
   9   8  -4   20.38    7.58
  -9   8   4   32.81    1.81
   9  -8  -4   27.80    4.34
  -9  -8   4   28.84    7.72
   9  -8  -4   33.19    1.41
   9   8  -3   68.67    2.55
   9   8  -3   77.68   10.92
  -9   8   3   71.53    2.82
  -9   8   3   72.40    2.40
  -9   8   3   70.68    6.22
  -9  -8   3   64.32    2.97
   9  -8  -3   71.62    2.36
  -9  -8   3   66.46   10.68
   9  -8  -3   76.31    6.35
  -9   8   2   16.90    2.58
  -9   8   2   16.83    1.14
  -9   8   2   17.04    0.86
   9   8  -2    9.94    4.36
   9  -8  -2   17.10    0.87
   9  -8  -2   21.05    2.53
  -9  -8   2   18.01    1.32
  -9   8   1   31.60    1.30
  -9   8   1   28.27    1.42
   9   8  -1   28.76    1.28
   9   8  -1   25.51    6.48
  -9   8   1   29.69    1.19
   9   8  -1   31.36    7.36
   9  -8  -1   29.74    1.12
  -9  -8   1   26.49    1.65
  -9  -8   1   31.05    1.43
   9   8   0   22.24    1.12
  -9   8   0   23.86    1.21
   9   8   0   24.25    6.50
  -9   8   0   25.64    1.06
   9   8   0   24.83    6.85
  -9   8   0   22.90    1.14
  -9  -8   0   23.38    1.47
  -9  -8   0   23.00    1.32
  -9   8  -1    8.06    0.62
  -9   8  -1    8.78    0.66
   9   8   1    8.80    0.95
   9   8   1   15.80    5.60
  -9   8  -1    8.40    0.73
   9   8   1   12.53    4.70
   9   8   1    7.54    0.67
  -9  -8  -1    8.11    0.82
  -9  -8  -1    7.66    0.94
  -9   8  -2    6.67    0.55
  -9   8  -2    5.16    0.57
   9   8   2    2.53    4.09
   9   8   2    6.62    0.79
  -9   8  -2    7.38    0.74
   9   8   2    0.48    3.11
  -9  -8  -2    7.05    0.81
  -9  -8  -2    5.17    0.77
   9   8   3    2.58    3.71
   9   8   3    0.62    0.41
  -9   8  -3    0.87    0.28
  -9   8  -3    1.34    0.31
  -9   8  -3    0.84    0.38
  -9   8  -3    0.59    0.32
  -9  -8  -3   -0.30    3.41
  -9  -8  -3    0.78    0.46
  -9  -8  -3    0.54    0.48
  -9   8  -4    0.50    0.36
  -9   8  -4    1.59    1.11
   9   8   4    4.87    5.58
  -9  -8  -4    5.21    4.90
   9  -8   4    0.07    1.08
  -9  -8  -4    0.15    0.42
  -9  -8  -4    1.20    0.50
  -9   8  -5   -0.75    1.56
   9   8   5    0.51    0.41
   9   8   5    8.56   12.12
  -9   8  -5    0.17    0.38
  -9  -8  -5    1.13    0.57
   9  -8   5    1.90    1.92
  -9  -8  -5    4.23    5.54
  -9  -8  -5    0.70    0.50
   9   9  -5   -2.40    4.75
  -9   9   5    2.98    0.72
  -9  -9   5    2.27    5.59
   9  -9  -5    2.93    0.55
   9   9  -4    5.92    5.18
  -9  -9   4   -1.03    4.31
  -9   9   3    6.15    0.84
   9   9  -3    7.19    4.81
  -9   9   3    4.50    2.16
  -9   9   3    4.92    0.55
   9  -9  -3    5.45    2.04
   9  -9  -3    6.19    0.60
  -9  -9   3    3.60    0.74
  -9  -9   3    2.96    3.79
   9   9  -2   22.57    7.30
  -9   9   2   25.41    1.50
   9   9  -2   21.67    6.53
   9   9  -2   24.83    1.26
  -9   9   2   28.98    3.04
  -9   9   2   24.57    1.14
   9  -9  -2   26.05    2.71
   9  -9  -2   24.69    1.09
  -9  -9   2   22.71    1.56
  -9   9   1    5.67    0.54
  -9   9   1    5.49    0.70
   9   9  -1    5.24    0.60
   9   9  -1    3.58    4.65
   9   9  -1    7.96    4.89
  -9   9   1    5.48    0.54
   9  -9  -1    5.94    0.49
  -9  -9   1    4.85    0.78
  -9  -9   1    5.10    0.72
   9   9   0   25.98    1.42
  -9   9   0   26.82    1.33
   9   9   0   29.17    7.49
  -9   9   0   29.45    1.29
   9   9   0   32.68    7.86
  -9   9   0   27.68    1.20
   9   9   0   25.65    1.28
  -9  -9   0   26.89    1.50
  -9  -9   0   28.68    1.68
   9   9   1   37.47    1.77
   9   9   1   35.56    1.77
  -9   9  -1   37.82    1.56
  -9   9  -1   39.36    1.57
  -9   9  -1   37.34    1.65
   9   9   1   41.57    9.28
   9   9   1   26.63    7.61
  -9  -9  -1   40.19    1.87
  -9  -9  -1   37.95    1.99
   9   9   2   -3.55    3.99
   9   9   2    1.28    0.49
  -9   9  -2    1.14    0.35
   9   9   2   -0.96    3.39
  -9   9  -2    1.22    0.39
  -9   9  -2    0.83    0.29
  -9  -9  -2    1.39    0.49
  -9  -9  -2    0.52    0.46
   9   9   3    6.98    5.69
  -9   9  -3   16.13    1.15
  -9   9  -3   15.85    0.77
   9   9   3   17.02    1.18
  -9   9  -3   13.57    0.82
  -9  -9  -3   15.97    1.19
  -9  -9  -3   12.40    1.20
  -9   9  -4   13.29    1.12
   9   9   4   10.01    6.61
   9   9   4   14.81    1.15
  -9  -9  -4   13.27    1.14
  -9  -9  -4   16.52    6.14
  -9  -9  -4   12.43    1.19
  -9   9  -5   23.34    3.57
  -9   9  -5   27.41    1.69
   9   9   5    8.16    8.75
  -9  -9  -5    5.82    5.84
   9  -9   5   26.42    3.78
  -9  -9  -5   21.73    1.57
  -9  -9  -5   22.90    1.54
   9  10  -5   -6.48    4.77
  -9  10   5    0.23    0.72
  -9 -10   5   -5.83    5.96
   9 -10  -5    0.10    0.38
  -9  10   4    0.69    0.51
   9 -10  -4    1.22    0.46
   9  10  -3   21.98    7.55
  -9  10   3   33.80    4.55
  -9  10   3   27.57    1.63
  -9  10   3   26.05    1.29
  -9 -10   3   25.17    1.78
   9 -10  -3   28.91    1.30
   9 -10  -3   19.31    4.08
  -9 -10   3   17.35    7.53
  -9  10   2    9.85    0.95
  -9  10   2    9.06    1.95
  -9  10   2    9.86    0.73
   9  10  -2   11.29    6.40
   9  10  -2   19.61    6.01
   9 -10  -2   10.81    0.72
   9 -10  -2    9.31    1.92
  -9 -10   2   10.78    0.94
  -9 -10   2    9.29    1.07
   9  10  -1   13.96    5.49
  -9  10   1   16.25    0.84
  -9  10   1   14.21    0.87
  -9  10   1   13.88    1.03
   9  10  -1    9.54    5.64
  -9 -10   1   15.70    1.14
  -9 -10   1   15.37    1.25
   9 -10  -1   16.27    0.85
  -9  10   0   30.06    1.35
   9  10   0   20.75    7.13
   9  10   0   31.91    1.60
  -9  10   0   31.50    1.50
  -9  10   0   33.17    1.39
   9  10   0   43.18    9.11
  -9 -10   0   28.82    1.75
  -9 -10   0   33.27    1.74
   9  10   1   21.72    1.32
  -9  10  -1   20.87    1.11
   9  10   1   19.55    5.94
  -9  10  -1   21.11    1.24
  -9  10  -1   21.73    1.19
   9  10   1   23.24    7.58
  -9 -10  -1   22.17    1.42
  -9 -10  -1   19.14    1.43
  -9  10  -2    2.61    0.56
   9  10   2    3.31    0.64
   9  10   2    1.35    3.71
  -9  10  -2    2.74    0.52
   9  10   2    2.98    4.33
  -9  10  -2    3.27    0.46
  -9 -10  -2    3.26    0.67
  -9 -10  -2    1.80    0.59
   9  10   3    8.28    5.44
  -9  10  -3    1.62    0.49
   9  10   3    2.31    0.58
  -9  10  -3    1.42    0.33
  -9  10  -3    1.63    0.32
  -9 -10  -3    1.08    0.56
  -9 -10  -3    2.17    0.64
   9  10   4   16.93    7.84
  -9  10  -4   14.96    1.16
   9  10   4   12.96    1.16
  -9 -10  -4   14.82    1.21
  -9 -10  -4    7.27    5.07
  -9 -10  -4   10.85    1.19
  -9  11   5    0.34    0.52
   9  11  -5    0.74    7.06
   9 -11  -5    1.37    0.49
  -9 -11   5    3.42    7.04
   9  11  -4    3.55    7.04
  -9  11   4    7.01    1.00
  -9 -11   4   20.46    8.39
   9 -11  -4    6.92    0.77
  -9  11   3   -0.72    0.33
  -9  11   3   -0.34    0.40
   9  11  -3   -3.44    5.26
   9 -11  -3   -0.08    0.31
  -9 -11   3    0.56    0.55
  -9  11   2    2.44    0.62
   9  11  -2   -1.91    3.58
  -9  11   2    1.76    1.01
   9  11  -2    5.71    4.49
  -9  11   2    2.51    0.46
   9 -11  -2    1.83    0.86
   9 -11  -2    2.33    0.45
  -9 -11   2    1.51    0.64
  -9 -11   2    1.51    0.57
  -9  11   1   15.53    0.83
   9  11  -1   23.15    7.44
  -9  11   1   16.41    1.07
  -9  11   1   15.74    1.16
   9  11  -1   23.58    6.91
  -9 -11   1   14.21    1.29
  -9 -11   1   15.65    1.23
   9 -11  -1   15.52    0.89
   9  11   0    0.59    0.39
  -9  11   0    1.18    0.33
  -9  11   0    0.51    0.36
  -9  11   0    0.95    0.36
   9  11   0   -4.44    3.88
   9  11   0   -1.53    3.51
  -9 -11   0    1.52    0.89
  -9 -11   0    1.68    0.63
  -9  11  -1    9.84    0.80
  -9  11  -1   11.29    0.85
  -9  11  -1    9.64    0.78
   9  11   1   10.99    0.97
   9  11   1    1.10    4.71
   9  11   1    8.86    5.03
  -9 -11  -1    8.88    1.02
  -9 -11  -1    9.53    1.07
   9  11   2    8.47    4.87
   9  11   2    3.12    4.81
  -9  11  -3   15.56    0.82
   9  11   3    6.81    5.67
   9  11   3   17.10    1.27
  -9  11  -3   16.73    1.18
   9  11   3    4.82    6.25
  -9 -11  -3   15.91    1.30
  -9 -11  -3   14.27    1.29
   9  11   4  -10.75    5.18
   9  11   4    0.79    0.47
  -9  11  -4    1.10    0.50
  -9 -11  -4   -4.39    4.51
  -9 -11  -4    0.40    0.50
  -9 -11  -4    0.96    0.56
   9  12  -4    2.99    6.20
  -9  12   4    7.37    1.71
   9 -12  -4    7.20    0.85
  -9 -12   4   13.07    8.18
  -9  12   3   19.76    1.47
   9  12  -3   30.27    9.37
   9 -12  -3   20.42    1.20
   9  12  -2   -1.11    3.53
   9  12  -2    8.38    5.70
  -9  12   2    0.61    0.43
  -9 -12   2    0.70    0.47
  -9 -12   2   -0.15    0.39
   9 -12  -2    0.00    0.31
  -9  12   1    1.02    0.44
  -9  12   1    1.38    0.31
   9  12  -1   -0.81    4.00
  -9  12   1    1.15    0.45
  -9  12   1    1.48    0.29
   9  12  -1    4.96    3.98
   9 -12  -1    0.89    0.35
  -9 -12   1    0.05    0.43
  -9 -12   1    0.68    0.50
   9  12   0    0.84    0.44
   9  12   0   -3.05    3.01
  -9  12   0    0.97    0.41
  -9  12   0    0.67    0.30
   9  12   0   -1.69    3.75
  -9 -12   0    0.42    0.49
  -9 -12   0    0.82    0.53
   9  12   1   22.97    1.41
  -9  12  -1   21.61    1.20
   9  12   1   20.46    7.38
   9  12   1   23.40    7.61
  -9  12  -1   19.29    1.15
  -9 -12  -1   23.23    1.58
  -9 -12  -1   18.77    1.46
   9  12   2    3.97    0.68
   9  12   2   -2.82    4.93
  -9  12  -2    3.21    0.49
  -9  12  -2    4.75    0.69
   9  12   2    1.10    5.78
  -9 -12  -2    3.96    0.79
  -9 -12  -2    3.95    0.75
  -9  12  -3   18.01    1.22
   9  12   3   16.34    8.15
   9  12   3   14.72    1.64
   9  12   3    0.69    5.79
  -9 -12  -3   17.91    1.39
  -9 -12  -3   15.23    1.33
  -9  13   3   17.93    1.41
   9  13  -3   15.41    6.91
   9  13  -3   27.69   10.13
   9 -13  -3   17.11    1.15
   9  13  -2   -0.94    3.99
  -9  13   2    2.48    0.67
   9  13  -2   -5.85    4.86
   9 -13  -2    1.72    0.47
  -9 -13   2    2.16    0.62
  -9 -13   2    0.90    0.55
  -9  13   1    3.32    0.46
   9  13  -1    4.23    5.55
  -9  13   1    3.35    0.41
  -9  13   1    2.70    0.60
  -9 -13   1    4.81    0.79
  -9 -13   1    3.42    0.78
   9 -13  -1    3.47    0.54
  -9  13   0    1.74    0.51
   9  13   0    0.88    0.48
   9  13   0    1.78    4.95
  -9  13   0    1.27    0.33
  -9 -13   0    0.25    0.42
  -9 -13   0    1.44    0.60
   9  13   1    9.61    0.98
  -9  13  -1    8.62    0.80
  -9  13  -1    9.19    0.80
   9  13   1   11.28    6.55
  -9 -13  -1    9.57    1.08
  -9 -13  -1    5.98    0.97
  -9  13  -2    4.73    0.72
  -9  13  -2    4.08    0.54
   9  13   2   -0.25    7.39
  -9 -13  -2    3.87    0.83
  -9 -13  -2    2.98    0.74
  -9  13  -3   12.51    1.05
   9  13   3   20.55    8.91
   9  13   3   15.85    7.84
   9  13   3   13.32    1.22
  -9 -13  -3   13.26    1.35
  -9 -13  -3   12.56    1.19
  -9  14   2    3.54    0.65
   9  14  -2   18.24    7.12
   9 -14  -2    2.74    0.54
  -9 -14   2    1.46    0.77
  -9 -14   2    2.23    0.68
   9  14  -1    9.81    5.40
   9  14  -1   -1.40    5.09
  -9  14   1    2.15    0.52
   9 -14  -1    1.11    0.41
  -9 -14   1    0.54    0.48
  -9 -14   1    0.45    0.55
  -9  14   0    1.06    0.46
   9  14   0   11.48    6.60
   9  14   0    2.32    4.96
   9  14   0    1.28    0.51
  -9  14   0    1.28    0.37
  -9 -14   0    0.63    0.52
  -9 -14   0    1.99    0.66
  -9  14  -1    4.61    0.64
   9  14   1   -2.78    5.61
   9  14   1    8.73    7.32
  -9  14  -1    5.20    0.70
  -9 -14  -1    4.56    0.88
  -9 -14  -1    3.31    0.78
  -9  14  -2    3.87    0.56
   9  14   2   16.46    7.69
  -9 -14  -2    4.05    0.86
  10   0  -7    0.95    0.44
 -10   0   7    0.38    0.49
 -10   0   6    9.05    4.36
  10   0  -6   10.21    0.83
 -10   0   6   10.14    1.07
  10   0  -6    3.92    4.23
  10   0  -5    2.79    2.88
 -10   0   4   38.95    7.31
  10   0  -4   39.74    6.55
  10   0  -4   41.31    1.94
  10   0  -4   44.59    1.51
  10   0  -4   45.13    1.51
 -10   0   4   46.53    2.12
  10   0  -3    0.69    1.22
 -10   0   3   -0.05    0.29
  10   0  -3    0.32    0.29
 -10   0   2    2.69    2.10
  10   0  -2    4.12    2.18
  10   0  -2    4.40    0.59
 -10   0   2    4.75    0.70
  10   0  -1    0.58    1.13
  10   0  -1   -0.06    0.21
 -10   0   1    0.08    0.30
  10   0   0    3.32    1.85
 -10   0   0    2.70    0.47
 -10   0   0    2.48    0.55
  10   0   0    2.06    1.87
  10   0   0    3.76    0.55
  10   0   1   -1.29    1.18
 -10   0  -1   -0.12    0.27
  10   0   1    0.33    1.40
  10   0   1    0.16    0.23
 -10   0  -1    0.04    0.22
 -10   0  -1   -0.03    0.14
 -10   0  -2   40.29    1.45
  10   0   2   36.52    5.25
 -10   0  -2   39.07    1.93
 -10   0  -2   39.04    1.74
  10   0   2   41.95    5.43
 -10   0  -3   -0.18    0.28
  10   0   3   -2.50    1.58
 -10   0  -3    1.42    1.83
 -10   0  -3   -0.18    0.21
 -10   0  -3    0.52    0.38
 -10   0  -4    0.50    0.34
 -10   0  -4   -0.19    0.33
 -10   0  -4   -1.99    1.52
  10   0   4   -0.05    1.63
 -10   0  -4   -0.63    0.33
  10   0   5    1.94    2.49
 -10   0  -5   -0.22    0.31
 -10   0  -5   -3.52    2.07
 -10   0  -5   -0.17    0.36
 -10   0  -6   11.38    1.06
 -10   0  -6   10.63    1.18
  10   1  -7   29.04    1.50
  10  -1  -7   26.36    1.44
 -10  -1   7   26.16    1.71
  10   1  -6    2.37    0.50
 -10   1   6    2.23    3.33
 -10   1   6    1.31    0.60
  10   1  -6   -2.49    2.79
  10  -1  -6    1.34    0.43
 -10  -1   6    4.85    4.69
  10  -1  -6    1.38    0.44
  10  -1  -6    6.30    4.13
 -10  -1   6    1.88    0.60
  10   1  -5    1.27    0.34
  10   1  -5   -1.52    2.56
  10   1  -5    1.04    0.33
 -10   1   5    0.79    0.49
  10  -1  -5    0.44    0.41
  10  -1  -5    0.89    0.32
 -10  -1   5    1.16    0.45
 -10  -1   5   -2.98    2.14
 -10   1   4   16.17    4.76
  10   1  -4   13.19    0.69
 -10   1   4   13.65    1.13
 -10   1   4   13.04    1.04
  10   1  -4   10.00    4.07
  10   1  -4   13.47    0.94
  10   1  -4   13.18    0.69
  10  -1  -4   13.39    0.87
  10  -1  -4   11.26    3.45
 -10  -1   4   11.60    1.08
  10  -1  -4   12.45    0.64
 -10  -1   4   12.17    4.76
  10   1  -3   16.94    4.63
  10   1  -3   13.70    0.59
 -10   1   3    7.32    3.23
 -10   1   3   13.86    1.05
  10   1  -3   14.71    0.94
  10   1  -3   13.27    0.60
 -10  -1   3   14.88    4.20
  10  -1  -3   14.94    3.81
  10  -1  -3   15.34    0.89
 -10  -1   3   13.42    1.11
  10   1  -2   -1.96    1.12
 -10   1   2   -0.95    1.44
 -10   1   2    0.13    0.31
  10   1  -2    1.11    0.51
 -10  -1   2   -0.52    1.67
 -10  -1   2    0.02    0.33
  10  -1  -2   -0.10    0.20
  10  -1  -2   -1.90    0.88
  10   1  -1   89.92    8.40
  10   1  -1   87.02    3.54
 -10   1   1   94.63    3.35
 -10  -1   1   93.83    3.40
 -10  -1   1   88.71    3.10
  10  -1  -1   89.33    7.41
  10  -1  -1   91.88    3.05
  10   1   0   -0.08    0.21
 -10   1   0   -0.10    0.23
  10   1   0    1.10    1.58
  10   1   0    3.09    1.98
 -10   1   0    0.10    0.29
  10  -1   0   -0.59    1.06
  10  -1   0    0.50    0.27
  10  -1   0   -1.22    1.10
 -10  -1   0    0.58    0.38
 -10  -1   0   -0.01    0.22
 -10   1  -1   25.07    1.27
  10   1   1   26.27    5.31
  10   1   1   24.50    1.32
  10   1   1   23.74    5.01
 -10   1  -1   25.41    1.44
 -10   1  -1   25.41    0.88
 -10  -1  -1   25.66    1.46
 -10  -1  -1   25.64    0.95
 -10  -1  -1   26.56    1.32
  10  -1   1   25.80    3.93
  10  -1   1   27.67    4.07
  10  -1   1   25.64    1.31
 -10   1  -2  167.76    5.49
  10   1   2  176.65   12.37
  10   1   2  158.88   12.38
 -10   1  -2  167.47    4.84
 -10   1  -2  167.72    5.21
  10  -1   2  176.15   10.95
 -10  -1  -2  172.53    5.29
 -10  -1  -2  168.48    5.54
  10  -1   2  170.17   11.56
 -10  -1  -2  166.90    4.88
  10   1   3    5.94    3.23
 -10   1  -3    6.84    2.39
 -10   1  -3    6.56    0.69
 -10   1  -3    6.99    0.81
 -10   1  -3    5.88    0.58
 -10  -1  -3    4.65    2.39
 -10  -1  -3    6.54    0.85
  10  -1   3    6.58    2.64
 -10  -1  -3    7.18    0.63
 -10  -1  -3    8.63    0.86
 -10   1  -4    0.89    0.36
  10   1   4    5.48    3.42
 -10   1  -4    1.51    0.43
 -10   1  -4    0.70    0.41
 -10   1  -4   -0.56    1.63
 -10  -1  -4    1.44    0.44
 -10  -1  -4    0.65    0.43
 -10  -1  -4    0.87    1.73
  10  -1   4    1.96    1.99
  10   1   5    3.48    4.07
 -10   1  -5    4.68    3.10
 -10   1  -5    3.86    0.64
 -10   1  -5    3.84    0.75
 -10  -1  -5    3.63    0.78
 -10  -1  -5    3.60    0.64
 -10  -1  -5   -0.91    2.30
  10  -1   5    8.86    3.57
 -10   1  -6   -0.57    0.34
 -10   1  -6   -0.27    0.35
 -10  -1  -6    0.24    0.43
 -10  -1  -6   -0.31    0.37
 -10   2   6    3.97    0.80
  10   2  -6    0.93    3.25
  10   2  -6    6.17    0.70
  10  -2  -6    4.84    0.81
 -10  -2   6    2.61    0.65
 -10  -2   6    7.01    4.54
  10  -2  -6    4.43    0.58
  10   2  -5    1.90    0.39
  10   2  -5    5.60    3.68
 -10   2   5    1.76    2.96
 -10   2   5    2.92    0.65
  10  -2  -5    4.49    3.07
  10  -2  -5    1.66    0.40
  10  -2  -5    2.60    0.41
 -10  -2   5    1.79    0.53
 -10  -2   5    3.48    3.50
  10   2  -4   57.92    8.32
  10   2  -4   53.45    1.87
 -10   2   4   56.70    9.33
 -10   2   4   56.05    2.30
 -10   2   4   54.83    2.35
  10   2  -4   51.67    3.08
 -10  -2   4   58.18    2.57
 -10  -2   4   54.87    7.84
  10  -2  -4   56.41    1.79
  10  -2  -4   53.70    2.00
  10  -2  -4   49.31    6.57
 -10   2   3    2.10    2.34
  10   2  -3    7.46    0.71
  10   2  -3   15.85    4.64
 -10   2   3    7.46    0.77
  10   2  -3    6.21    0.43
 -10  -2   3    3.85    3.09
 -10  -2   3    6.75    0.86
  10  -2  -3    6.42    0.58
  10  -2  -3    5.22    2.52
 -10   2   2    6.95    0.78
  10   2  -2    1.93    2.20
 -10   2   2    6.52    2.58
  10   2  -2    7.01    0.69
 -10  -2   2    9.12    3.17
  10  -2  -2    7.50    0.60
  10  -2  -2    5.37    2.35
 -10  -2   2    8.14    0.88
 -10   2   1  178.95    5.68
  10   2  -1  173.50   12.47
  10   2  -1  176.40    5.55
 -10  -2   1  182.23    5.51
  10  -2  -1  181.58    5.40
  10  -2  -1  175.91   10.37
 -10  -2   1  192.82    5.92
  10   2   0    2.49    2.42
 -10   2   0    6.37    0.73
  10   2   0    6.91    0.67
  10  -2   0    8.16    2.23
  10  -2   0    4.55    1.82
  10  -2   0    6.96    0.61
 -10  -2   0    6.96    0.68
 -10  -2   0    8.28    0.86
  10   2   1   23.41    1.45
 -10   2  -1   25.42    0.89
 -10   2  -1   26.78    1.39
  10   2   1   25.64    5.43
 -10   2  -1   28.82    1.49
  10  -2   1   29.01    3.89
 -10  -2  -1   26.68    1.03
  10  -2   1   29.04    3.88
 -10  -2  -1   26.70    1.35
 -10  -2  -1   26.36    1.54
  10  -2   1   24.90    1.29
  10   2   2    2.52    2.40
 -10   2  -2    1.73    0.31
 -10   2  -2    1.03    0.42
  10  -2   2    1.33    1.63
 -10  -2  -2    2.66    0.58
  10  -2   2    0.33    1.43
 -10  -2  -2    1.25    0.45
 -10   2  -3    7.07    2.51
 -10   2  -3    8.72    0.87
 -10   2  -3    8.85    0.89
 -10   2  -3    8.67    0.66
 -10  -2  -3    8.24    3.13
 -10  -2  -3    8.75    0.71
 -10  -2  -3    8.42    0.95
  10  -2   3    7.24    2.79
 -10   2  -4    1.05    0.48
 -10   2  -4    1.30    0.38
 -10   2  -4   -0.13    1.65
 -10   2  -4   -0.10    0.28
 -10  -2  -4    0.62    0.36
 -10  -2  -4    2.93    2.03
  10  -2   4   -2.59    1.62
 -10  -2  -4   -0.11    0.41
 -10   2  -5   25.37    1.45
 -10   2  -5   28.15    5.23
 -10   2  -5   28.07    1.41
  10   2   5   23.25    6.81
 -10   2  -5   25.89    1.68
 -10  -2  -5   21.60    5.30
 -10  -2  -5   27.45    1.51
 -10  -2  -5   27.77    1.80
  10  -2   5   20.14    4.96
 -10   2  -6   -0.24    0.38
 -10   2  -6   -0.07    0.37
 -10  -2  -6    0.25    0.49
 -10  -2  -6   -0.60    0.36
 -10   3   6    8.61    1.02
 -10  -3   6    8.28    0.98
  10  -3  -6    8.19    0.68
  10  -3  -6   10.05    0.80
  10   3  -5    3.68    3.34
 -10   3   5   -1.28    1.94
 -10   3   5    0.93    0.47
  10   3  -5    0.53    0.36
  10  -3  -5    0.33    0.26
 -10  -3   5   -1.32    3.31
  10  -3  -5    0.70    0.31
  10  -3  -5    0.00    2.21
 -10   3   4   15.26    1.15
  10   3  -4   10.94    4.25
  10   3  -4   14.19    0.81
 -10  -3   4    7.48    4.36
 -10  -3   4   15.81    1.28
  10  -3  -4   12.90    0.79
  10  -3  -4   12.00    3.54
  10  -3  -4   14.89    0.70
 -10   3   3   -0.07    1.75
  10   3  -3    3.09    0.58
  10   3  -3    3.75    0.39
 -10   3   3    3.52    0.60
  10   3  -3    0.54    2.46
 -10   3   3    2.96    0.54
  10  -3  -3    5.78    1.99
  10  -3  -3    3.38    0.44
 -10  -3   3    2.91    0.66
 -10  -3   3    2.42    2.92
  10   3  -2   11.36    0.88
 -10   3   2   10.53    0.91
  10   3  -2   10.25    3.97
  10   3  -2   12.04    0.54
 -10   3   2   12.93    3.36
 -10  -3   2   10.60    4.24
  10  -3  -2   12.94    2.98
 -10  -3   2   13.21    1.09
  10  -3  -2   13.29    0.77
  10   3  -1   83.98    8.88
  10   3  -1   76.22    2.22
 -10   3   1   78.48    2.87
  10   3  -1   76.45    8.47
  10   3  -1   71.99    2.78
  10  -3  -1   77.96    2.60
  10  -3  -1   82.86    6.31
 -10  -3   1   73.35    2.84
 -10  -3   1   79.17    3.09
 -10   3   0   36.13    1.68
  10   3   0   34.89    5.74
  10   3   0   34.52    1.63
  10   3   0   29.81    4.91
  10   3   0   35.46    1.18
  10  -3   0   36.23    1.52
 -10  -3   0   35.36    1.62
 -10  -3   0   36.87    1.25
 -10  -3   0   34.31    1.80
  10  -3   0   33.99    3.81
  10  -3   0   36.62    3.85
  10   3   1    0.24    2.01
 -10   3  -1    2.13    0.25
 -10   3  -1    2.13    0.49
  10   3   1    3.59    2.61
 -10   3  -1    1.70    0.22
  10  -3   1    1.09    1.15
 -10  -3  -1    2.09    0.56
  10  -3   1    3.06    1.47
 -10  -3  -1    1.91    0.33
  10  -3   1    1.99    0.42
 -10   3  -2   13.38    0.65
  10   3   2    8.81    3.95
  10   3   2   10.85    3.86
 -10   3  -2   13.15    0.70
 -10   3  -2   12.68    0.94
 -10   3  -2   12.76    1.00
 -10  -3  -2   12.78    0.76
 -10  -3  -2   11.18    1.04
  10  -3   2    8.29    2.56
  10  -3   2   10.33    2.56
 -10   3  -3    6.35    0.78
 -10   3  -3    6.96    2.15
  10   3   3    0.13    2.34
 -10   3  -3    6.79    0.71
 -10   3  -3    5.78    0.57
  10  -3   3    9.11    2.70
 -10  -3  -3    5.67    0.84
 -10  -3  -3    5.83    2.84
 -10  -3  -3    6.79    0.65
 -10   3  -4    2.69    0.50
  10   3   4    4.45    3.69
 -10   3  -4    1.32    0.40
 -10   3  -4    3.93    2.05
 -10   3  -4    2.49    0.59
 -10  -3  -4    1.56    0.57
  10  -3   4    3.65    2.26
 -10  -3  -4    2.76    0.54
 -10  -3  -4    1.87    2.65
 -10   3  -5   -1.03    1.83
 -10   3  -5    1.09    0.55
  10   3   5    0.53    0.40
  10   3   5   -4.30    2.96
 -10   3  -5    1.74    0.50
 -10   3  -5    1.19    0.51
 -10  -3  -5    1.78    0.68
 -10  -3  -5    1.50    0.50
 -10  -3  -5    2.81    2.91
 -10   3  -6    5.47    0.91
  10   3   6    4.92    0.68
 -10   3  -6    5.12    0.81
 -10  -3  -6    3.20    0.80
 -10  -3  -6    3.98    0.75
 -10   4   6    1.90    0.57
 -10  -4   6    1.51    0.59
  10  -4  -6    1.70    0.38
  10  -4  -6    1.75    0.43
 -10   4   5    6.16    3.63
  10   4  -5    2.07    0.43
 -10   4   5    0.92    0.49
  10   4  -5    3.54    3.93
  10  -4  -5    0.09    2.60
 -10  -4   5    6.41    4.37
  10  -4  -5    1.38    0.36
  10  -4  -5    1.70    0.31
 -10   4   4   67.10    2.70
  10   4  -4   63.74    2.28
 -10   4   4   44.76   10.74
  10   4  -4   65.00    9.28
 -10  -4   4   66.10    2.97
 -10  -4   4   69.81    9.24
  10  -4  -4   66.26    2.14
  10  -4  -4   53.78    7.21
  10  -4  -4   69.18    2.09
 -10   4   3    9.09    0.76
  10   4  -3    7.99    0.58
  10   4  -3    6.40    3.45
 -10  -4   3   12.29    4.56
  10  -4  -3   11.37    2.98
  10  -4  -3    8.85    0.58
 -10  -4   3    9.73    0.99
 -10   4   2   26.85    1.37
 -10   4   2   24.15    1.36
  10   4  -2   35.61    7.44
 -10  -4   2   24.57    6.86
  10  -4  -2   32.09    3.97
  10  -4  -2   27.21    1.15
 -10  -4   2   25.97    1.59
  10   4  -1   16.49    1.28
 -10   4   1   18.31    1.12
  10   4  -1   18.07    0.75
  10   4  -1   10.78    3.92
  10   4  -1   18.94    5.29
  10  -4  -1   18.17    0.93
 -10  -4   1   18.22    1.29
  10  -4  -1   17.07    2.70
  10   4   0    1.01    2.05
 -10   4   0    0.11    0.27
 -10  -4   0   -0.25    0.34
 -10  -4   0   -0.17    0.19
  10  -4   0    0.39    0.22
  10  -4   0    1.74    0.88
  10  -4   0    0.91    0.89
  10   4   1    5.67    3.44
  10   4   1    6.80    0.50
  10   4   1    7.19    3.44
 -10   4  -1    6.92    0.42
 -10   4  -1    6.91    0.72
 -10  -4  -1    7.61    0.59
 -10  -4  -1    6.51    0.83
  10  -4   1    6.44    1.55
  10  -4   1    7.03    0.63
  10  -4   1    5.49    1.52
 -10   4  -2    5.55    0.62
 -10   4  -2    5.70    0.45
  10   4   2    3.31    2.57
  10   4   2   -0.14    2.98
 -10   4  -2    6.17    0.72
 -10  -4  -2    5.50    0.83
  10  -4   2    2.77    1.48
 -10  -4  -2    6.48    0.59
  10  -4   2    6.08    1.91
 -10   4  -3    0.35    0.24
 -10   4  -3    0.69    0.35
  10   4   3   -4.11    2.16
 -10   4  -3    0.65    0.41
 -10  -4  -3    3.04    2.40
 -10  -4  -3    0.77    0.48
  10  -4   3    1.42    1.44
 -10  -4  -3    1.15    0.39
 -10   4  -4    1.11    0.48
  10   4   4    0.28    0.34
 -10   4  -4    0.74    0.37
 -10   4  -4    3.43    1.90
 -10   4  -4    2.08    0.42
  10   4   4   -0.49    3.10
 -10  -4  -4    5.45    2.99
  10  -4   4   -0.70    1.84
 -10  -4  -4    0.28    0.37
 -10  -4  -4    1.35    0.58
  10   4   5   74.16    2.77
 -10   4  -5   76.57    2.63
 -10   4  -5   77.09    2.91
 -10   4  -5   75.63    7.25
  10   4   5   49.23   15.52
 -10   4  -5   76.87    3.24
  10  -4   5   67.61    7.54
 -10  -4  -5   65.88   10.73
 -10  -4  -5   76.77    2.95
 -10  -4  -5   75.97    3.32
  10   5  -6    7.81    6.18
 -10   5   6   18.11    1.42
 -10  -5   6   15.56    1.25
  10  -5  -6   15.04    0.98
  10   5  -5   -2.19    3.57
  10   5  -5   -0.22    0.34
 -10   5   5    0.10    0.40
  10  -5  -5    0.21    0.31
 -10  -5   5    7.47    4.04
 -10   5   4  100.68    8.81
  10   5  -4   90.86    3.12
  10   5  -4  108.37   12.17
 -10   5   4   99.51    3.58
  10  -5  -4   93.82    8.55
 -10  -5   4   96.51    3.87
 -10  -5   4   95.36   11.65
  10  -5  -4   93.38    2.83
  10  -5  -4   93.97    2.94
  10   5  -3   38.86    8.08
 -10   5   3   31.29    1.59
  10   5  -3   28.62    1.23
 -10   5   3   29.77    1.32
 -10  -5   3   24.11    6.62
  10  -5  -3   29.07    1.04
  10  -5  -3   30.59    1.14
  10  -5  -3   33.84    4.39
 -10  -5   3   28.52    1.75
 -10   5   2   41.64    1.91
  10   5  -2   47.09    1.62
  10   5  -2   40.63    8.02
 -10   5   2   49.85    2.03
 -10   5   2   52.72    5.16
 -10  -5   2   52.17    2.37
 -10  -5   2   45.49    8.77
  10  -5  -2   46.38    4.61
  10  -5  -2   48.64    1.69
 -10   5   1    5.43    0.63
 -10   5   1    6.40    0.66
  10   5  -1    5.62    0.44
  10   5  -1    4.79    3.54
  10   5  -1   12.48    4.66
 -10  -5   1    6.19    0.48
  10  -5  -1    5.66    0.51
 -10  -5   1    4.35    0.75
  10  -5  -1    6.03    1.63
  10   5   0    2.17    2.67
  10   5   0    0.32    0.23
  10   5   0   -0.17    2.14
 -10   5   0    0.78    0.33
 -10  -5   0    0.78    0.43
  10  -5   0    0.89    0.76
  10  -5   0    0.60    0.74
 -10  -5   0    0.70    0.29
  10  -5   0    0.90    0.29
 -10   5  -1   19.79    0.82
 -10   5  -1   20.10    1.18
  10   5   1   19.34    0.92
  10   5   1   21.06    5.79
 -10  -5  -1   17.87    1.33
  10  -5   1   20.74    1.97
 -10  -5  -1   20.26    1.03
 -10   5  -2   85.03    2.63
  10   5   2   81.39   16.76
  10   5   2   86.12   10.37
 -10   5  -2   84.59    3.10
  10   5   2   82.53    2.75
 -10   5  -2   83.33    2.88
 -10  -5  -2   83.02    2.81
  10  -5   2   82.56    5.08
 -10  -5  -2   80.43    3.71
  10  -5   2   82.75    6.39
  10   5   3    3.68    0.62
 -10   5  -3    3.34    0.54
  10   5   3    6.20    4.24
 -10   5  -3    4.36    0.53
 -10   5  -3    3.78    0.66
 -10  -5  -3   -1.50    2.08
 -10  -5  -3    3.64    0.59
 -10  -5  -3    2.99    0.71
  10   5   4    7.50    0.80
 -10   5  -4    7.45    0.90
  10   5   4    7.71    5.12
 -10   5  -4    7.02    0.65
 -10  -5  -4    4.40    3.45
 -10  -5  -4    7.59    1.06
  10   5   5    6.77    5.22
 -10   5  -5   -0.04    0.34
 -10   5  -5    0.04    0.39
  10   5   5   -0.54    0.28
 -10   5  -5   -0.21    2.29
 -10   5  -5    0.01    0.31
 -10  -5  -5    0.07    0.43
 -10  -5  -5   -0.42    3.50
  10   6  -6   23.21    8.17
  10  -6  -6   12.34    0.90
 -10  -6   6    4.10    9.13
 -10  -6   6   10.92    1.09
  10   6  -5   -3.20    3.71
 -10   6   5    2.85    0.67
  10  -6  -5    2.02    0.43
 -10  -6   5    0.72    3.46
  10   6  -4   70.68   10.81
 -10   6   4   85.99    3.20
 -10   6   4   86.57    7.89
  10   6  -4   76.41    2.76
  10  -6  -4   80.64    7.84
 -10  -6   4   76.92    3.43
  10  -6  -4   81.18    2.55
 -10  -6   4   67.20   10.60
 -10   6   3    2.72    0.40
 -10   6   3    2.08    0.52
  10   6  -3    1.67    0.36
  10   6  -3    2.00    2.82
 -10  -6   3    1.96    2.91
  10  -6  -3    2.54    0.33
 -10  -6   3    2.65    0.68
  10  -6  -3    2.75    0.30
 -10   6   2    3.60    0.60
 -10   6   2    2.77    0.51
  10   6  -2   -1.34    2.97
  10   6  -2    3.48    0.42
 -10   6   2    1.40    1.51
  10  -6  -2    3.90    0.38
 -10  -6   2    3.49    4.56
  10  -6  -2    4.60    1.64
 -10  -6   2    3.54    0.68
 -10   6   1    1.09    0.39
  10   6  -1    3.95    3.18
 -10   6   1    1.86    0.41
  10   6  -1    1.47    0.29
  10   6  -1   -0.43    2.13
  10  -6  -1    2.70    1.11
  10  -6  -1   -0.13    0.56
 -10  -6   1    0.65    0.29
 -10  -6   1    1.05    0.46
 -10   6   0    3.38    0.54
  10   6   0    2.15    0.37
 -10   6   0    2.85    0.30
 -10   6   0    3.23    0.52
  10   6   0    3.82    2.99
  10   6   0    4.95    3.53
 -10  -6   0    2.15    0.61
 -10  -6   0    3.23    0.48
 -10   6  -1    1.16    0.39
  10   6   1    0.69    2.74
  10   6   1    2.18    3.29
  10   6   1    2.02    0.37
 -10   6  -1    1.77    0.29
 -10  -6  -1    1.28    0.51
 -10  -6  -1    1.80    0.41
 -10   6  -2   24.68    1.40
  10   6   2   25.34    1.38
 -10   6  -2   24.80    1.10
  10   6   2   20.79    5.80
  10   6   2   31.35    7.38
 -10   6  -2   23.60    1.22
 -10  -6  -2   23.47    1.57
 -10  -6  -2   25.15    1.28
 -10   6  -3   26.74    1.30
  10   6   3   17.96    6.49
 -10   6  -3   25.59    1.52
 -10   6  -3   26.78    1.32
  10   6   3   29.37    1.48
 -10  -6  -3   27.31    1.40
 -10  -6  -3   25.09    5.21
  10  -6   3   25.65    3.17
  10  -6   3   24.38    2.81
 -10  -6  -3   26.16    1.70
  10   6   4    9.44    6.12
 -10   6  -4    7.58    0.63
 -10   6  -4    7.37    0.89
 -10   6  -4    8.89    2.23
  10   6   4    7.34    0.85
  10  -6   4    3.37    2.14
 -10  -6  -4    7.19    1.03
 -10  -6  -4    4.39    3.97
 -10  -6  -4    6.62    0.83
  10   6   5   14.59    8.02
 -10   6  -5   12.73    3.51
  10   6   5   16.21    1.14
 -10   6  -5   18.71    1.49
 -10  -6  -5   14.33    1.38
 -10  -6  -5   18.09    1.28
 -10  -6  -5   17.48    5.01
  10  -6   5   15.09    3.50
  10   7  -6   12.59    7.32
 -10   7   6    2.02    0.68
 -10  -7   6    1.72    0.58
 -10  -7   6    0.87    6.37
 -10   7   5   31.65    1.88
  10   7  -5   42.61    9.12
 -10  -7   5   21.54    7.66
  10  -7  -5   32.00    1.40
  10   7  -4    2.48    0.51
  10   7  -4    4.56    4.29
 -10   7   4    1.91    0.53
 -10  -7   4    2.55    0.77
 -10  -7   4   -0.07    3.59
  10  -7  -4    3.77    0.48
  10   7  -3    0.01    0.30
 -10   7   3    0.28    1.92
 -10   7   3    0.48    0.40
  10   7  -3    1.20    3.43
 -10  -7   3   -3.35    2.96
  10  -7  -3    0.29    0.22
  10  -7  -3    1.10    1.52
 -10  -7   3   -0.22    0.36
 -10   7   2    0.23    0.17
  10   7  -2    2.40    3.35
  10   7  -2    0.58    0.26
 -10   7   2    1.24    1.15
 -10   7   2    0.03    0.27
 -10  -7   2    0.34    0.40
  10  -7  -2    1.25    1.02
  10  -7  -2    0.23    0.18
  10   7  -1    8.75    4.95
 -10   7   1    9.81    0.52
  10   7  -1    9.18    0.65
 -10   7   1   11.18    0.78
  10   7  -1    4.59    3.52
 -10   7   1    8.88    0.81
 -10  -7   1    9.50    0.71
  10  -7  -1   10.11    1.31
  10  -7  -1   10.62    1.23
 -10  -7   1   11.07    1.20
  10   7   0    7.46    4.78
 -10   7   0   12.07    0.86
  10   7   0    7.15    4.17
 -10   7   0   11.89    0.76
 -10   7   0   12.91    0.88
  10   7   0   12.34    0.76
 -10  -7   0   10.89    1.65
 -10  -7   0   11.82    0.87
  10   7   1   -0.27    2.89
  10   7   1    1.60    0.36
 -10   7  -1    2.23    0.34
 -10   7  -1    1.86    0.46
 -10   7  -1    1.92    0.39
  10   7   1    3.64    3.19
 -10  -7  -1    1.45    0.44
 -10  -7  -1    1.04    0.52
  10   7   2   24.32    7.02
  10   7   2   22.82    1.32
 -10   7  -2   22.27    1.07
 -10   7  -2   21.95    1.31
  10   7   2   20.39    1.12
 -10   7  -2   22.62    1.14
  10   7   2   20.54    5.98
 -10   7  -2   22.73    1.07
 -10  -7  -2   21.47    1.26
 -10  -7  -2   22.18    1.54
  10   7   3   13.54    1.07
  10   7   3    9.35    5.62
 -10   7  -3   12.72    0.72
 -10   7  -3   11.76    0.80
 -10   7  -3   12.13    0.83
 -10   7  -3   11.28    1.01
 -10  -7  -3    9.63    1.11
 -10  -7  -3   12.58    0.99
  10   7   4    1.16    5.16
 -10   7  -4    0.65    0.43
  10   7   4    0.77    0.43
 -10   7  -4    0.61    0.28
 -10  -7  -4    0.54    0.42
  10  -7   4    0.21    1.31
 -10  -7  -4   -0.05    0.45
  10   7   5    8.62    0.94
  10   7   5   22.80    8.23
 -10   7  -5    9.33    1.11
 -10   7  -5    8.88    2.77
  10  -7   5    3.40    2.37
 -10  -7  -5    9.85    1.00
 -10  -7  -5    8.44    5.40
 -10  -7  -5    8.82    1.11
  10   8  -5   12.69    6.32
 -10   8   5    2.35    0.66
  10  -8  -5    2.30    0.48
 -10  -8   5    0.29    5.20
 -10   8   4   22.10    1.53
  10   8  -4   13.65    7.54
 -10  -8   4   19.39    6.90
  10  -8  -4   23.01    1.11
 -10   8   3    2.11    1.78
  10   8  -3   -1.30    4.25
 -10   8   3    2.51    0.56
  10   8  -3    2.05    0.43
 -10  -8   3    1.84    0.61
  10  -8  -3    2.39    0.37
  10  -8  -3    1.77    1.52
 -10  -8   3    0.73    4.53
 -10   8   2   22.64    0.91
 -10   8   2   16.71    0.96
 -10   8   2   20.25    1.25
 -10   8   2   17.79    3.25
  10   8  -2   17.69    6.53
  10   8  -2   16.69    5.44
 -10  -8   2   18.63    1.44
  10  -8  -2   17.82    2.53
  10  -8  -2   20.25    0.84
 -10   8   1   57.88    1.90
  10   8  -1   50.71    9.67
 -10   8   1   60.88    2.18
 -10   8   1   61.84    2.35
  10   8  -1   57.47    2.09
  10   8  -1   61.60    9.52
 -10  -8   1   50.73    2.54
 -10  -8   1   60.02    2.19
  10   8   0   -0.08    3.27
 -10   8   0   -0.25    0.19
 -10   8   0   -0.20    0.22
  10   8   0    9.79    4.90
 -10   8   0    0.02    0.28
 -10  -8   0    0.09    0.38
 -10  -8   0   -0.23    0.30
  10   8   1    7.37    0.66
 -10   8  -1    8.04    0.60
  10   8   1    0.73    3.58
 -10   8  -1    8.92    0.70
  10   8   1    5.21    3.83
 -10   8  -1    8.55    0.76
  10   8   1    8.68    0.87
 -10  -8  -1    9.16    1.06
 -10  -8  -1    7.24    0.82
 -10   8  -2    3.76    0.63
 -10   8  -2    3.49    0.49
  10   8   2    2.03    3.49
 -10   8  -2    3.36    0.49
  10   8   2    5.69    4.21
 -10   8  -2    3.80    0.50
  10   8   2    2.17    0.52
 -10  -8  -2    3.26    0.62
 -10  -8  -2    2.72    0.68
 -10   8  -3   -0.10    0.28
  10   8   3   -0.34    0.30
  10   8   3    0.89    4.67
 -10   8  -3    0.30    0.22
 -10   8  -3    0.52    0.36
 -10  -8  -3   -0.29    0.35
 -10  -8  -3    0.07    0.46
 -10   8  -4    3.69    0.70
  10   8   4    3.85    0.65
  10   8   4   -3.64    5.16
 -10  -8  -4    3.89    0.73
  10  -8   4    1.68    1.08
 -10  -8  -4    3.70    0.79
 -10  -8  -4    5.38    4.47
  10   8   5   39.82   14.33
  10   8   5   33.51    2.10
 -10   8  -5   37.39    4.61
 -10   8  -5   37.53    2.06
 -10  -8  -5   34.84    1.87
 -10  -8  -5   31.87    2.16
  10  -8   5   24.68    4.59
 -10   9   5    0.63    0.60
  10   9  -5   -1.36    5.04
 -10  -9   5   -6.31    5.67
  10  -9  -5    0.73    0.37
  10   9  -4   12.02    6.43
 -10   9   4   15.47    1.29
 -10  -9   4    8.53    5.34
  10  -9  -4   16.49    0.96
 -10   9   3    0.12    0.23
 -10   9   3   -0.33    0.31
  10   9  -3   -2.53    4.47
 -10  -9   3    0.10    4.92
  10  -9  -3    0.46    0.30
 -10  -9   3   -0.14    0.38
 -10   9   2   16.58    1.15
  10   9  -2   11.68    5.30
  10   9  -2   15.06    0.96
 -10   9   2   15.52    0.83
  10   9  -2   22.41    6.73
 -10   9   2   16.09    2.40
  10  -9  -2   16.97    0.80
  10  -9  -2   15.11    1.99
 -10  -9   2   14.14    1.32
  10   9  -1   21.63    6.92
  10   9  -1   28.80    7.39
 -10   9   1   28.44    1.47
 -10   9   1   25.19    1.57
 -10   9   1   26.49    1.12
  10   9  -1   26.63    1.27
 -10  -9   1   27.26    1.37
 -10  -9   1   24.98    1.68
  10   9   0   -1.43    3.08
 -10   9   0    5.23    0.57
  10   9   0    9.85    4.49
  10   9   0    4.73    0.58
 -10   9   0    5.39    0.63
 -10   9   0    4.42    0.47
 -10  -9   0    4.19    0.68
 -10  -9   0    4.50    0.83
 -10   9  -1    0.66    0.30
  10   9   1   -1.73    3.64
  10   9   1    0.13    0.38
  10   9   1    2.33    3.50
 -10   9  -1    0.56    0.26
 -10   9  -1    0.25    0.31
 -10  -9  -1    0.13    0.41
 -10  -9  -1    0.68    0.52
 -10   9  -2   10.74    0.78
  10   9   2   14.30    5.64
  10   9   2    8.52    5.44
  10   9   2   11.36    1.02
 -10   9  -2    9.50    0.69
 -10   9  -2    9.77    0.94
 -10  -9  -2    8.18    1.03
 -10  -9  -2   10.34    0.98
 -10   9  -3    4.85    0.49
 -10   9  -3    6.21    0.85
  10   9   3    0.69    5.13
  10   9   3    0.67    5.57
  10   9   3    3.78    0.68
 -10   9  -3    4.83    0.59
 -10  -9  -3    7.31    0.90
 -10  -9  -3    4.71    0.85
  10   9   4    5.41    6.95
  10   9   4    3.43    0.71
 -10   9  -4    4.21    0.76
 -10  -9  -4    3.37    0.68
 -10  -9  -4    5.72    5.17
 -10  -9  -4    4.33    0.81
  10  10  -5    8.22    7.94
 -10 -10   5   12.17    8.88
  10  10  -4    2.17    5.23
 -10 -10   4    1.50    6.78
  10  10  -3   -0.30    4.64
 -10  10   3    1.69    0.56
 -10  10   3    1.81    0.47
 -10 -10   3    1.15    0.57
  10 -10  -3    2.96    0.46
 -10  10   2    0.16    0.91
 -10  10   2   -0.19    0.31
 -10  10   2    0.14    0.24
  10  10  -2   -1.45    3.50
  10 -10  -2    0.07    0.67
 -10 -10   2   -0.35    0.35
  10 -10  -2    0.13    0.24
  10  10  -1   -3.59    2.84
 -10  10   1    3.47    0.61
  10  10  -1    4.61    3.79
 -10 -10   1    1.95    0.65
 -10 -10   1    3.83    0.65
 -10  10   0   19.63    1.07
 -10  10   0   19.09    0.98
  10  10   0   16.51    6.55
  10  10   0   16.99    5.75
 -10  10   0   17.60    1.12
 -10 -10   0   19.97    1.29
 -10 -10   0   16.98    1.38
 -10  10  -1    2.91    0.53
  10  10   1    6.74    4.80
  10  10   1    0.55    3.44
  10  10   1    2.00    0.54
 -10  10  -1    2.43    0.47
 -10 -10  -1    2.21    0.59
 -10 -10  -1    2.29    0.65
  10  10   2   17.42    8.02
 -10  10  -2   23.03    1.13
 -10  10  -2   24.93    1.40
  10  10   2   27.62    8.14
 -10  10  -2   22.99    1.37
  10  10   2   25.83    1.49
 -10 -10  -2   18.99    1.50
 -10 -10  -2   21.55    1.43
  10  10   3   27.83    1.63
 -10  10  -3   27.57    1.16
 -10  10  -3   26.46    1.25
 -10  10  -3   26.89    1.58
  10  10   3   27.38    9.09
  10  10   3   12.79    6.43
 -10 -10  -3   27.39    1.79
 -10 -10  -3   28.05    1.68
  10  10   4    1.83    0.57
 -10  10  -4    0.76    0.49
  10  10   4    1.05    7.67
 -10 -10  -4    0.59    0.53
 -10 -10  -4    0.62    0.52
  10  11  -4    0.67    5.79
 -10 -11   4  -10.55    7.63
  10  11  -3    2.09    5.55
  10  11  -3    4.16    5.08
  10  11  -2    3.99    4.11
 -10  11   2    5.10    0.80
 -10  11   2    6.28    0.77
  10  11  -2    1.79    5.09
 -10 -11   2    2.87    0.71
  10 -11  -2    3.56    0.48
 -10  11   1    0.03    0.49
  10  11  -1   -4.57    3.32
  10  11  -1    0.54    5.26
 -10  11   1    0.66    0.40
 -10  11   1    0.03    0.31
 -10 -11   1    1.04    0.50
  10  11   0    0.56    4.58
 -10  11   0    0.62    0.34
 -10  11   0    0.64    0.32
 -10  11   0    1.22    0.39
  10  11   0   -4.25    4.30
 -10 -11   0    0.37    0.46
 -10 -11   0    0.35    0.51
  10  11   1   13.22    5.91
  10  11   1    3.97    0.71
 -10  11  -1    4.46    0.62
 -10  11  -1    5.17    0.68
  10  11   1    2.00    4.25
 -10  11  -1    3.60    0.52
 -10 -11  -1    4.21    0.80
 -10 -11  -1    4.41    0.78
 -10  11  -2   28.13    1.53
  10  11   2   27.34    7.79
 -10  11  -2   27.68    1.27
  10  11   2   26.33    1.56
  10  11   2   25.73    8.53
 -10 -11  -2   23.92    1.70
 -10 -11  -2   26.79    1.67
  10  11   3    0.34    0.80
 -10  11  -3    0.72    0.40
  10  11   3   -4.97    5.17
  10  11   3    6.35    6.81
 -10  11  -3    0.10    0.30
 -10 -11  -3   -0.10    0.49
  10  12  -3   -1.15    5.63
  10  12  -3    5.59    6.21
 -10  12   3    5.48    0.86
 -10 -12   3    3.16    1.23
  10 -12  -3    7.40    0.72
  10  12  -2   11.49    6.10
 -10 -12   2    1.30    0.65
 -10  12   1   19.93    1.12
 -10  12   1   19.65    1.31
  10  12  -1   13.50    6.31
  10  12  -1   20.27    7.70
 -10  12   1   20.77    0.99
 -10 -12   1   16.87    1.49
 -10 -12   1   19.69    1.36
  10 -12  -1   19.24    1.02
 -10  12   0   12.09    0.96
 -10  12   0   11.80    1.05
 -10  12   0   11.33    0.81
  10  12   0    9.00    5.75
  10  12   0    1.70    5.90
 -10 -12   0   10.29    1.08
 -10 -12   0    8.88    1.08
 -10  12  -1   21.96    1.24
  10  12   1   19.87    1.38
  10  12   1   14.58    7.50
  10  12   1   22.54    7.97
 -10  12  -1   19.66    1.18
 -10 -12  -1   20.15    1.48
 -10 -12  -1   17.75    1.48
  10  12   2    5.76    6.52
  10  12   2    4.52    6.10
 -10  12  -2    4.65    0.59
 -10  12  -2    4.99    0.75
 -10 -12  -2    3.39    0.78
 -10 -12  -2    3.07    0.74
  10  12   3    3.26    6.51
  10  12   3    4.24    7.76
 -10  12  -3    3.50    0.70
  10  12   3    3.01    0.73
 -10 -12  -3    3.02    0.76
 -10 -12  -3    1.47    0.62
  10  13  -3    8.27    9.20
 -10  13   3   18.00    1.78
  10 -13  -3   17.67    1.12
  10  13  -2    4.77    7.66
  10  13  -2   12.03    5.93
 -10  13   1   26.51    1.33
  10  13  -1   26.59    8.72
 -10  13   1   26.24    1.56
 -10 -13   1   28.57    1.69
 -10 -13   1   22.40    1.75
  10 -13  -1   27.47    1.29
  10  13   0    2.02    6.51
 -10  13   0   10.30    0.78
 -10  13   0    9.38    0.91
 -10 -13   0    7.10    1.07
 -10 -13   0    9.81    1.10
 -10  13  -1    5.95    0.76
 -10  13  -1    7.68    0.82
  10  13   1    3.97    5.65
 -10 -13  -1    6.12    1.00
 -10 -13  -1    7.63    1.04
  10  13   2    0.32    0.46
 -10  13  -2    0.36    0.39
  10  13   2   -7.75    6.81
 -10  13  -2    0.73    0.36
 -10 -13  -2    0.87    0.54
 -10 -13  -2    0.14    0.49
  10  14  -1    2.15    6.33
 -10  14   1    4.57    0.72
  10  14  -1    9.71    8.82
 -10 -14   1    4.40    0.83
 -10 -14   1    3.91    0.89
  10  14   0  -14.49    6.60
  10  14   0    4.30    5.89
 -10  14   0    0.19    0.31
 -10  14   0   -0.75    0.34
 -10 -14   0    0.12    0.53
 -10 -14   0   -0.18    0.47
 -11   0   6    0.04    0.47
  11   0  -6    0.42    0.37
 -11   0   5    0.05    0.42
  11   0  -5   -2.08    2.97
  11   0  -5   -0.11    0.27
 -11   0   5    3.72    3.08
  11   0  -5    0.37    0.27
  11   0  -4   18.47    5.44
 -11   0   4   26.85    1.60
  11   0  -4   23.99    0.93
  11   0  -4   22.47    1.08
  11   0  -4   25.73    1.33
  11   0  -3   -0.02    0.28
  11   0  -3    2.87    2.02
 -11   0   3   -2.60    1.79
 -11   0   3    0.44    0.40
 -11   0   2   26.83    6.27
  11   0  -2   28.99    5.78
  11   0  -2   23.87    1.27
 -11   0   2   27.62    1.60
  11   0  -1    2.65    1.76
 -11   0   1    0.30    0.37
  11   0  -1    0.11    0.23
  11   0  -1    0.41    1.59
  11   0   0  256.33   14.31
  11   0   0  246.34   13.99
  11   0   0  224.89    7.02
 -11   0   0  232.67    7.34
  11   0   1    1.57    1.65
  11   0   1    0.09    1.51
 -11   0  -1   -0.65    0.27
  11   0   2   -1.81    1.67
 -11   0  -2    0.58    0.24
 -11   0  -3   -0.21    0.36
 -11   0  -3   -0.14    0.25
  11   0   3   -0.73    2.30
 -11   0  -4   10.10    0.85
 -11   0  -4   13.55    1.22
 -11   0  -5    3.70    4.43
 -11   0  -5    0.14    0.34
  11   0   5   -1.80    3.63
 -11   0  -5   -0.17    0.36
 -11   1   6   31.27    1.94
  11   1  -6   30.31    1.53
  11   1  -6   35.44    1.53
  11  -1  -6   36.08    1.48
 -11  -1   6   36.60    2.01
  11   1  -5    7.00    4.14
 -11   1   5   12.14    4.30
 -11   1   5   11.18    1.10
  11   1  -5    9.47    0.67
  11   1  -5   11.27    0.72
  11  -1  -5   12.31    4.78
 -11  -1   5   10.45    1.04
  11  -1  -5    8.08    0.80
  11  -1  -5   10.66    0.67
  11  -1  -5   10.65    0.65
 -11  -1   5    5.41    4.20
  11   1  -4    1.58    0.28
 -11   1   4    1.44    0.53
 -11   1   4    1.25    0.48
  11   1  -4    1.57    0.30
  11   1  -4   -0.56    2.55
  11  -1  -4    1.75    0.40
  11  -1  -4    1.63    0.27
  11  -1  -4    1.82    0.26
 -11  -1   4    1.38    0.54
  11   1  -3   79.12    8.87
 -11   1   3   86.12    3.31
 -11   1   3   83.43    9.06
  11   1  -3   84.88    3.04
  11  -1  -3   92.88    8.91
 -11  -1   3   87.24    9.56
  11  -1  -3   79.20    3.27
 -11  -1   3   89.37    3.42
 -11   1   2    6.09    3.12
  11   1  -2    9.41    3.18
 -11   1   2    5.69    0.81
  11   1  -2    5.95    0.65
 -11  -1   2    6.91    0.86
 -11  -1   2    5.55    3.51
  11  -1  -2    8.14    2.67
  11  -1  -2    5.08    0.90
  11   1  -1   21.91    4.80
  11   1  -1   15.66    1.01
  11   1  -1   16.78    4.26
 -11   1   1   15.11    1.18
  11  -1  -1   11.01    3.06
 -11  -1   1   16.06    1.24
  11  -1  -1   15.94    0.98
  11  -1  -1   11.25    5.17
  11   1   0   15.96    4.04
  11   1   0   19.89    1.84
 -11   1   0   20.74    1.34
  11   1   0   16.42    3.93
  11  -1   0   17.30    3.81
  11  -1   0   18.73    3.94
 -11  -1   0   19.88    1.37
  11  -1   0   21.10    1.17
 -11   1  -1   15.59    1.18
 -11   1  -1   14.24    1.10
  11   1   1   14.53    4.16
  11   1   1   12.41    4.03
 -11  -1  -1   16.52    1.23
 -11  -1  -1   16.55    0.69
  11  -1   1   12.33    3.47
  11  -1   1   19.33    4.20
 -11   1  -2    0.87    0.40
 -11   1  -2    0.82    0.50
 -11   1  -2    0.60    0.24
  11   1   2    0.77    2.09
  11   1   2   -1.12    1.69
  11  -1   2   -2.29    1.44
 -11  -1  -2    0.28    0.23
  11  -1   2    2.75    1.86
 -11  -1  -2    0.13    0.37
 -11   1  -3    1.89    0.37
 -11   1  -3    2.18    0.55
  11   1   3    0.78    1.97
  11  -1   3    0.51    2.26
 -11  -1  -3    0.96    0.49
 -11  -1  -3    1.57    0.39
  11   1   4    8.33    3.80
 -11   1  -4    2.43    2.56
 -11   1  -4    8.39    0.77
 -11   1  -4    7.61    1.05
  11  -1   4    7.38    3.29
 -11  -1  -4    8.55    3.25
 -11  -1  -4    7.74    0.78
 -11  -1  -4    6.94    1.01
 -11   1  -5    3.35    0.75
 -11   1  -5    6.08    3.22
  11   1   5    2.04    3.65
 -11   1  -5    4.61    0.68
 -11  -1  -5    3.51    0.83
  11  -1   5    2.68    3.43
 -11  -1  -5    0.95    2.82
 -11  -1  -5    2.71    0.60
  11   2  -6   21.40    1.15
 -11   2   6   21.00    1.50
  11   2  -6   12.81    7.04
 -11  -2   6   18.38    1.42
 -11  -2   6    8.69    5.30
  11  -2  -6   18.12    1.09
  11  -2  -6   18.82    1.04
  11   2  -5   26.30    6.71
 -11   2   5   26.93    6.15
  11   2  -5   32.31    1.33
 -11   2   5   30.89    1.79
  11   2  -5   32.08    1.34
  11  -2  -5   26.87    1.66
  11  -2  -5   31.87    1.25
 -11  -2   5   33.39    1.79
  11  -2  -5   24.00    5.91
 -11  -2   5   24.66    7.18
 -11   2   4    4.68    0.73
 -11   2   4    5.29    0.76
 -11   2   4    8.31    3.52
  11   2  -4    6.36    0.49
  11   2  -4    6.88    0.52
  11   2  -4    1.97    2.85
 -11  -2   4   10.18    4.59
  11  -2  -4    5.58    0.40
 -11  -2   4    4.93    0.84
  11  -2  -4    6.09    0.60
  11  -2  -4    6.57    0.41
  11  -2  -4    4.13    2.44
  11   2  -3  113.16   10.78
  11   2  -3  110.56    3.20
 -11   2   3  112.19    4.00
 -11  -2   3   98.46   10.86
 -11  -2   3  117.23    4.24
  11  -2  -3  123.03   10.16
  11  -2  -3  113.60    3.61
 -11   2   2    6.79    0.82
  11   2  -2    6.50    0.79
  11   2  -2    7.85    3.14
  11  -2  -2    6.59    0.60
  11  -2  -2    8.45    2.60
 -11  -2   2    7.76    0.91
 -11  -2   2   12.04    4.44
 -11   2   1    8.07    0.86
  11   2  -1    7.23    2.77
  11  -2  -1    4.86    2.10
  11  -2  -1    8.71    1.26
  11  -2  -1    7.65    2.48
 -11  -2   1    7.89    0.93
  11   2   0   12.73    3.75
 -11   2   0    9.87    0.91
 -11  -2   0    9.28    0.99
  11  -2   0    9.30    2.63
  11  -2   0    9.10    0.73
  11  -2   0    6.35    2.22
 -11   2  -1    0.45    0.34
  11   2   1    2.67    2.21
  11   2   1   -0.52    1.79
 -11   2  -1    0.52    0.32
 -11  -2  -1    0.02    0.35
  11  -2   1    2.57    1.54
  11  -2   1    2.10    1.53
 -11  -2  -1    0.69    0.23
 -11   2  -2    0.34    0.20
 -11   2  -2    0.32    0.41
  11   2   2   -0.51    1.88
  11   2   2    2.74    2.34
 -11   2  -2    0.52    0.36
  11  -2   2   -0.02    1.42
  11  -2   2   -0.43    1.40
 -11  -2  -2    0.04    0.38
 -11   2  -3    0.07    0.23
 -11   2  -3    0.28    0.38
 -11   2  -3   -0.32    0.30
  11   2   3    1.39    2.51
  11  -2   3    0.46    1.79
 -11  -2  -3    0.50    0.30
 -11  -2  -3   -0.01    0.39
  11   2   4    6.97    4.10
 -11   2  -4    2.96    0.69
 -11   2  -4    4.30    2.33
 -11   2  -4    3.29    0.56
  11  -2   4    2.33    2.24
 -11  -2  -4    3.32    0.58
 -11  -2  -4    2.23    0.66
 -11  -2  -4    4.19    3.03
 -11   2  -5    0.61    0.39
 -11   2  -5    0.31    0.47
 -11   2  -5   -2.06    2.26
 -11  -2  -5   -0.07    0.41
 -11  -2  -5   -0.13    2.85
 -11  -2  -5    0.32    0.51
  11  -2   5    2.01    3.37
  11   3  -6    2.19    5.30
 -11   3   6   -0.11    0.45
  11   3  -6   -0.37    0.33
 -11  -3   6    0.06    4.81
  11  -3  -6    0.36    0.33
 -11   3   5    0.50    0.46
  11  -3  -5    0.51    0.29
  11  -3  -5    0.25    0.27
  11   3  -4    0.52    0.29
 -11   3   4    0.89    0.38
 -11   3   4    2.60    2.32
 -11   3   4    0.85    0.48
  11  -3  -4    1.71    2.08
 -11  -3   4   -2.44    2.72
 -11  -3   4    0.46    0.73
  11  -3  -4    0.99    0.23
  11  -3  -4    0.56    0.27
  11   3  -3   56.15    8.02
 -11   3   3   55.68    2.26
 -11   3   3   50.91    2.21
  11   3  -3   49.61    1.67
  11  -3  -3   49.43    1.87
 -11  -3   3   51.05    9.56
 -11  -3   3   54.43    2.55
  11  -3  -3   41.34    5.61
  11   3  -2    3.18    3.39
 -11   3   2    5.14    0.73
  11  -3  -2    5.28    2.21
 -11  -3   2    4.68    0.79
 -11  -3   2    1.73    2.99
  11  -3  -2    4.52    0.50
  11   3  -1    8.13    3.56
 -11   3   1    9.43    0.89
  11   3  -1    5.71    2.83
  11  -3  -1    5.35    2.10
 -11  -3   1    9.00    1.00
  11  -3  -1   11.85    2.71
  11  -3  -1   10.73    0.73
 -11   3   0    3.68    0.63
  11   3   0    9.15    3.61
  11   3   0   12.19    4.14
  11  -3   0    5.33    0.56
 -11  -3   0    4.48    0.35
  11  -3   0    4.20    1.74
  11  -3   0    3.05    1.60
 -11  -3   0    3.54    0.69
 -11   3  -1    8.03    0.72
  11   3   1    0.88    2.37
  11   3   1    3.75    2.86
 -11   3  -1    6.61    0.79
  11  -3   1    5.58    2.11
 -11  -3  -1    7.10    0.90
  11  -3   1    2.67    1.65
 -11  -3  -1    7.31    0.53
 -11   3  -2    3.80    0.60
  11   3   2    3.71    3.22
 -11   3  -2    3.94    0.72
 -11   3  -2    4.51    0.38
 -11   3  -2    4.38    0.42
  11   3   2    0.94    2.46
  11  -3   2    7.47    2.35
 -11  -3  -2    4.75    0.52
 -11  -3  -2    3.36    0.69
  11  -3   2    5.69    2.31
 -11   3  -3  120.97    4.14
  11   3   3  118.85   11.72
 -11   3  -3  126.52    4.42
 -11   3  -3  124.42    3.83
  11  -3   3  126.89    9.76
  11  -3   3  133.51    9.05
 -11  -3  -3  119.32    4.53
 -11  -3  -3  120.85    3.90
 -11   3  -4    5.66    0.67
 -11   3  -4    6.45    0.75
 -11   3  -4    5.34    0.88
 -11   3  -4    7.58    2.73
  11   3   4    3.51    3.52
  11  -3   4    6.12    3.18
 -11  -3  -4    3.73    3.17
 -11  -3  -4    3.87    0.80
 -11  -3  -4    6.13    0.74
 -11   3  -5    0.95    0.41
 -11   3  -5   -2.45    2.29
 -11   3  -5    0.68    0.42
 -11   3  -5    0.94    0.73
  11   3   5    0.67    4.54
 -11  -3  -5    0.13    0.52
 -11  -3  -5   -0.24    0.38
 -11  -3  -5   -5.29    2.82
  11   4  -6    1.49    6.07
 -11   4   6    4.75    1.10
  11  -4  -6    5.66    0.63
 -11  -4   6    6.54    1.00
 -11  -4   6   -2.79    4.87
 -11   4   5    2.17    0.61
  11   4  -5    2.56    0.48
  11   4  -5    0.60    4.00
  11  -4  -5    2.28    0.39
  11  -4  -5    2.21    0.38
  11   4  -4    0.73    0.31
 -11   4   4   -0.14    0.37
  11   4  -4   -4.32    1.89
 -11   4   4    3.50    2.69
  11  -4  -4   -1.51    2.49
 -11  -4   4   -0.16    0.41
 -11  -4   4   -1.99    2.59
  11  -4  -4    0.05    0.19
  11  -4  -4   -0.07    0.21
 -11   4   3    5.54    0.78
 -11   4   3    5.03    0.65
  11   4  -3    3.87    3.45
  11   4  -3    5.43    0.45
 -11  -4   3    3.76    1.01
  11  -4  -3    6.71    2.75
  11  -4  -3    4.33    0.47
 -11  -4   3    5.45    3.55
  11   4  -2   13.43    0.61
 -11   4   2   11.31    0.94
  11   4  -2   10.22    4.44
  11  -4  -2    9.60    2.58
 -11  -4   2   11.69    1.13
  11  -4  -2   11.51    0.74
 -11  -4   2    1.81    3.37
  11   4  -1   24.38    0.88
 -11   4   1   22.37    1.32
  11   4  -1   17.74    5.25
  11   4  -1   21.94    5.82
 -11  -4   1   25.32    1.60
  11  -4  -1   20.93    3.34
  11  -4  -1   22.97    1.13
  11  -4  -1   20.83    3.12
 -11   4   0   70.54    2.66
  11   4   0   62.39    8.02
  11   4   0   63.99    2.14
  11   4   0   69.82    8.60
 -11  -4   0   66.02    2.86
 -11  -4   0   68.76    2.12
  11  -4   0   68.48    5.19
  11  -4   0   62.18    4.82
  11  -4   0   67.26    2.43
 -11   4  -1   22.27    1.32
 -11   4  -1   21.67    1.17
  11   4   1   14.96    4.77
  11   4   1   17.03    5.08
  11  -4   1   18.28    2.61
 -11  -4  -1   15.95    1.67
 -11  -4  -1   19.83    0.97
  11  -4   1   20.12    2.54
 -11   4  -2   -0.62    0.24
 -11   4  -2   -0.12    0.28
  11   4   2   -4.17    1.98
 -11   4  -2    0.20    0.20
  11   4   2   -2.32    1.96
 -11   4  -2   -0.36    0.15
 -11  -4  -2    0.11    0.40
  11  -4   2   -0.23    1.15
 -11  -4  -2    0.34    0.26
  11  -4   2   -0.52    0.98
 -11   4  -3    7.91    0.61
 -11   4  -3    8.35    0.80
 -11   4  -3    9.52    0.69
  11   4   3    7.71    3.94
 -11   4  -3    8.50    0.93
 -11  -4  -3    6.20    0.95
 -11  -4  -3    8.67    0.77
  11  -4   3    6.88    2.48
  11  -4   3    9.04    2.50
 -11   4  -4    1.25    2.24
 -11   4  -4    6.45    0.74
 -11   4  -4    7.42    0.91
  11   4   4    4.21    4.63
 -11   4  -4    5.41    0.67
 -11  -4  -4    5.63    0.71
 -11  -4  -4    4.78    0.86
  11  -4   4    6.82    3.00
 -11  -4  -4    5.23    3.80
 -11   4  -5    1.03    0.46
  11   4   5    0.65    4.65
 -11   4  -5    1.12    0.62
 -11  -4  -5    1.52    0.52
 -11  -4  -5   -2.59    3.67
 -11  -4  -5    1.07    0.70
  11   5  -6   64.79   12.74
 -11   5   6   71.55    3.25
 -11  -5   6   48.86   11.63
  11  -5  -6   78.47    2.58
  11   5  -5    2.50    0.55
 -11   5   5    2.79    0.72
  11   5  -5   -2.31    4.04
  11  -5  -5    3.15    0.46
  11  -5  -5    4.19    0.52
  11   5  -4    3.35    0.48
 -11   5   4    2.17    2.57
  11   5  -4    3.75    3.62
 -11   5   4    3.27    0.67
  11  -5  -4    3.15    2.68
 -11  -5   4    3.07    3.90
  11  -5  -4    2.56    0.35
  11  -5  -4    2.95    0.37
 -11  -5   4    3.67    0.83
  11   5  -3    1.18    0.30
 -11   5   3    0.49    0.41
  11   5  -3    2.06    3.24
 -11  -5   3   -3.17    3.15
  11  -5  -3    0.81    0.24
 -11  -5   3    0.82    0.55
  11  -5  -3   -1.85    1.30
 -11   5   2    0.61    0.35
  11   5  -2   -0.74    2.49
  11   5  -2    0.58    0.22
 -11   5   2    1.17    1.48
 -11   5   2    0.25    0.33
  11  -5  -2   -0.22    1.13
 -11  -5   2    0.40    0.70
  11  -5  -2    0.82    0.26
 -11   5   1   10.06    0.87
  11   5  -1   13.75    4.58
  11   5  -1   10.57    0.59
  11   5  -1    8.70    4.02
  11  -5  -1   11.11    0.73
  11  -5  -1    8.11    1.96
 -11  -5   1    8.70    1.33
  11  -5  -1   11.56    2.35
  11   5   0   15.42    6.99
 -11   5   0   22.09    1.25
  11   5   0   20.28    5.77
  11   5   0   21.29    0.91
 -11  -5   0   17.43    2.19
  11  -5   0   20.79    1.10
 -11  -5   0   20.99    0.97
  11  -5   0   20.66    2.28
 -11   5  -1    3.76    0.32
  11   5   1    3.27    0.42
  11   5   1    5.43    3.49
  11   5   1   -0.05    2.17
 -11   5  -1    3.65    0.61
 -11  -5  -1    2.67    0.68
 -11  -5  -1    3.79    0.51
  11  -5   1    2.48    0.94
  11  -5   1    4.70    1.20
  11   5   2    3.63    3.09
 -11   5  -2    0.21    0.56
  11   5   2    2.17    3.16
  11  -5   2    0.22    0.99
  11  -5   2    1.83    1.02
 -11   5  -3   14.73    0.83
 -11   5  -3   16.00    1.19
 -11   5  -3   15.68    1.03
 -11  -5  -3   16.01    1.04
  11  -5   3   11.05    2.78
 -11  -5  -3   15.62    1.35
  11  -5   3   12.35    2.61
 -11   5  -4    0.57    0.37
  11   5   4    0.30    0.37
 -11   5  -4    0.18    0.46
  11   5   4   -1.22    4.21
 -11   5  -4    0.80    0.44
  11  -5   4    1.05    1.73
 -11  -5  -4    0.84    0.45
 -11  -5  -4    1.15    0.55
 -11  -5  -4   -0.88    3.25
 -11   5  -5    1.47    2.23
  11   5   5    0.58    0.43
 -11   5  -5    1.17    0.58
 -11   5  -5    1.71    0.54
  11   5   5   -3.66    6.54
 -11  -5  -5    5.86    4.83
  11  -5   5   -0.73    3.08
 -11  -5  -5    2.05    0.58
 -11  -5  -5    1.65    1.01
 -11   6   6   35.46    2.17
 -11  -6   6   34.76    1.98
 -11  -6   6   30.18   10.34
  11   6  -5   17.72    6.30
 -11   6   5   11.53    1.18
  11  -6  -5   10.50    0.74
 -11   6   4    6.75    0.95
  11   6  -4    5.91    4.04
  11   6  -4    6.59    0.69
  11  -6  -4    6.22    0.51
 -11  -6   4    0.71    4.70
 -11  -6   4    3.75    0.87
  11   6  -3    3.87    4.33
 -11   6   3    4.71    0.73
  11   6  -3    4.03    0.50
 -11   6   3    3.37    0.50
  11  -6  -3    3.29    1.70
  11  -6  -3    4.30    0.40
 -11  -6   3    4.22    0.85
 -11  -6   3    2.25    4.16
 -11   6   2    2.88    0.54
  11   6  -2    8.66    4.50
 -11   6   2    2.13    0.53
  11   6  -2    2.81    0.38
 -11   6   2    2.44    2.63
  11  -6  -2    3.23    0.39
 -11  -6   2    3.30    0.75
  11   6  -1    2.74    3.10
 -11   6   1    0.06    0.31
  11   6  -1   -0.07    2.91
  11   6  -1    0.75    0.24
 -11   6   1    0.10    0.28
  11  -6  -1   -0.69    0.60
 -11  -6   1   -0.01    0.25
 -11  -6   1    0.12    0.40
  11  -6  -1    2.21    1.10
  11   6   0   57.37    8.67
  11   6   0   69.66    2.27
 -11   6   0   72.80    2.65
 -11   6   0   72.47    2.55
  11   6   0   82.38   10.24
 -11  -6   0   72.73    2.39
  11  -6   0   60.97    2.35
 -11  -6   0   67.51    3.01
  11   6   1   23.52    6.10
  11   6   1   13.77    5.17
  11   6   1   19.29    0.94
 -11   6  -1   17.72    1.17
 -11  -6  -1   17.82    1.03
 -11  -6  -1   17.06    1.37
 -11   6  -2   -0.20    0.27
  11   6   2   -1.63    3.13
 -11   6  -2    0.33    0.34
  11   6   2   -5.59    2.67
  11   6   2    0.21    0.27
 -11   6  -2    0.04    0.22
 -11  -6  -2    0.65    0.47
 -11  -6  -2   -0.44    0.31
 -11   6  -3   13.63    0.84
 -11   6  -3   12.57    1.11
  11   6   3   12.12    5.23
  11   6   3   15.22    1.10
 -11  -6  -3   12.76    1.25
  11  -6   3   11.33    2.18
 -11  -6  -3   12.86    0.97
  11  -6   3   13.94    2.12
  11   6   4    0.27    0.39
  11   6   4   -2.04    4.66
 -11   6  -4    0.71    0.38
 -11   6  -4    0.61    0.42
 -11  -6  -4   -1.16    3.41
  11  -6   4    0.45    1.75
 -11  -6  -4    0.91    0.47
 -11  -6  -4    0.40    0.47
 -11   6  -5    1.99    0.61
 -11   6  -5    2.70    2.45
 -11   6  -5    0.85    0.46
  11   6   5    0.70    0.44
 -11  -6  -5    1.37    0.62
 -11  -6  -5    0.67    0.51
  11  -6   5    1.03    2.65
 -11   7   5    1.10    0.68
  11   7  -5    6.81    6.56
 -11  -7   5    0.19    6.23
  11  -7  -5   -0.02    0.32
  11   7  -4   27.15    7.31
  11   7  -4   15.51    1.01
 -11   7   4   15.18    1.25
 -11  -7   4   19.24    7.57
 -11  -7   4   16.97    1.51
  11  -7  -4   14.71    0.87
  11   7  -3   11.47    0.87
  11   7  -3   11.78    4.69
 -11   7   3   12.16    3.22
 -11   7   3   10.45    0.66
 -11   7   3   11.57    1.05
 -11  -7   3    5.12    5.07
  11  -7  -3   10.63    0.57
  11  -7  -3   10.55    2.46
 -11  -7   3   10.08    1.16
  11   7  -2    0.84    3.63
 -11   7   2    4.11    1.88
  11   7  -2    4.33    0.50
 -11   7   2    3.34    0.55
  11   7  -2    2.82    2.63
 -11   7   2    4.15    0.66
  11  -7  -2    2.84    1.33
 -11  -7   2    2.43    0.66
 -11   7   1    5.33    0.66
  11   7  -1    6.21    3.86
  11   7  -1    4.28    0.49
  11   7  -1    4.48    3.43
 -11  -7   1    6.41    0.58
  11  -7  -1    4.85    1.02
  11  -7  -1    3.92    0.87
 -11  -7   1    5.17    0.86
  11   7   0   21.33    5.91
  11   7   0   19.69    0.97
  11   7   0   13.05    5.36
 -11   7   0   21.75    1.19
 -11   7   0   18.60    0.76
 -11   7   0   20.21    1.18
 -11  -7   0   20.21    1.47
 -11  -7   0   18.83    1.07
 -11   7  -1   53.74    2.02
  11   7   1   40.80    8.71
 -11   7  -1   51.68    1.74
 -11   7  -1   53.46    2.19
  11   7   1   45.91    9.32
 -11  -7  -1   51.69    2.07
 -11  -7  -1   48.71    2.50
  11   7   2    2.70    0.45
  11   7   2    5.18    4.75
 -11   7  -2    3.27    0.63
 -11   7  -2    3.32    0.45
 -11   7  -2    3.13    0.53
  11   7   2    5.89    3.80
 -11   7  -2    3.41    0.51
 -11  -7  -2    2.79    0.56
 -11  -7  -2    2.78    0.72
 -11   7  -3   73.84    2.61
  11   7   3   80.22    2.95
  11   7   3   68.36   10.64
 -11   7  -3   70.80    2.89
  11   7   3   61.47   11.57
 -11   7  -3   76.92    2.52
 -11   7  -3   79.29    3.08
 -11  -7  -3   70.89    3.24
 -11  -7  -3   75.21    2.84
 -11   7  -4    0.21    0.39
  11   7   4   -2.64    5.52
 -11   7  -4   -0.08    0.33
 -11   7  -4   -0.01    0.22
  11   7   4   -0.23    0.35
 -11  -7  -4    0.07    0.43
 -11  -7  -4    0.49    0.56
 -11  -7  -4   -0.58    4.08
 -11   8   5   -0.51    0.41
  11   8  -5   -3.83    6.28
  11  -8  -5    0.07    0.33
 -11  -8   5   -7.71    6.39
 -11   8   4    6.07    0.86
  11   8  -4    9.07    7.06
 -11  -8   4    4.88    1.01
 -11  -8   4   -5.25    4.79
  11  -8  -4    4.56    0.55
 -11   8   3   16.45    1.26
  11   8  -3   14.20    0.95
  11   8  -3   18.39    6.92
  11  -8  -3   15.96    0.76
 -11  -8   3   17.90    6.53
 -11  -8   3   14.29    1.38
 -11   8   2    3.71    0.54
  11   8  -2    3.76    0.58
 -11   8   2    3.37    1.78
 -11   8   2    4.13    0.68
  11   8  -2    3.71    3.73
  11   8  -2   13.93    5.83
  11  -8  -2    1.81    1.15
 -11  -8   2    4.47    0.87
 -11   8   1    2.27    0.28
  11   8  -1    2.56    3.49
  11   8  -1    2.08    0.43
 -11   8   1    2.85    0.52
  11   8  -1   -3.20    2.32
 -11   8   1    2.14    0.52
 -11  -8   1    2.31    0.65
 -11  -8   1    2.21    0.46
 -11   8   0    2.39    0.53
  11   8   0    6.57    4.44
 -11   8   0    3.05    0.35
 -11   8   0    2.32    0.49
  11   8   0    2.91    0.53
  11   8   0    8.25    4.43
 -11  -8   0    2.37    0.52
 -11  -8   0    2.28    0.65
  11   8   1   -0.54    3.33
 -11   8  -1    0.65    0.24
 -11   8  -1    0.60    0.31
 -11   8  -1    1.13    0.40
  11   8   1    2.91    2.95
  11   8   1    0.57    0.30
 -11  -8  -1    0.42    0.41
 -11  -8  -1    0.01    0.48
 -11   8  -2    1.04    0.35
  11   8   2    1.36    0.47
  11   8   2   10.14    4.36
 -11   8  -2    1.36    0.35
  11   8   2    4.69    4.14
 -11   8  -2    2.28    0.44
 -11   8  -2    1.85    0.48
 -11  -8  -2    0.74    0.55
 -11  -8  -2    0.56    0.43
  11   8   3    1.22    0.49
  11   8   3   -5.25    3.94
 -11   8  -3    0.35    0.37
  11   8   3   -1.21    5.47
 -11   8  -3    1.67    0.52
 -11   8  -3    0.52    0.29
 -11  -8  -3    0.86    0.57
 -11  -8  -3   -0.01    0.42
 -11   8  -4    5.90    0.92
 -11   8  -4    5.28    0.49
  11   8   4    5.74    6.46
  11   8   4    3.52    0.73
 -11  -8  -4    3.41    0.80
 -11  -8  -4    4.48    0.73
 -11   9   5    0.69    0.53
  11   9  -5    1.68    5.98
 -11  -9   5   -1.65    7.06
  11   9  -4   -1.08    5.90
 -11   9   4    0.40    0.38
  11  -9  -4    1.27    0.35
 -11  -9   4    5.16    6.43
 -11   9   3   41.61    2.13
  11   9  -3   43.23   10.35
  11  -9  -3   45.37    1.58
  11   9  -2   34.42    1.49
  11   9  -2   32.00    7.76
  11   9  -2   37.08    8.67
 -11   9   2   30.67    1.37
 -11   9   2   33.01    1.26
 -11   9   2   34.53    1.78
  11  -9  -2   34.57    1.23
  11  -9  -2   32.53    2.51
 -11   9   1    7.44    0.51
 -11   9   1    6.94    0.85
  11   9  -1    4.94    4.79
  11   9  -1    5.79    0.64
 -11   9   1    9.18    0.75
  11   9  -1    6.89    4.85
 -11  -9   1    6.22    0.99
 -11  -9   1    6.97    0.76
  11   9   0   30.13    8.14
 -11   9   0   30.52    1.53
 -11   9   0   32.12    1.52
 -11   9   0   30.17    1.19
  11   9   0   40.26    9.39
  11   9   0   30.98    1.42
 -11  -9   0   27.57    1.82
 -11  -9   0   30.03    1.53
  11   9   1    8.57    5.10
 -11   9  -1    7.72    0.60
 -11   9  -1    8.15    0.81
  11   9   1    8.34    5.25
 -11   9  -1    7.83    0.74
 -11  -9  -1    9.05    0.93
 -11  -9  -1    9.83    1.11
 -11   9  -2    9.05    0.79
 -11   9  -2   10.91    0.77
 -11   9  -2   10.69    0.96
  11   9   2   11.69    1.06
  11   9   2    5.70    5.27
  11   9   2    7.04    5.71
 -11   9  -2    9.24    0.75
 -11  -9  -2    8.22    1.04
 -11   9  -3   13.10    1.12
 -11   9  -3   13.99    0.81
  11   9   3   16.96    7.43
 -11   9  -3   14.11    0.94
  11   9   3   13.03    1.11
  11   9   3   12.13    6.96
 -11  -9  -3   13.45    1.33
 -11  -9  -3   14.55    1.17
  11   9   4    6.99    0.90
  11   9   4    5.82    8.74
 -11  -9  -4    5.08    0.78
 -11  10   4    0.46    0.55
  11  10  -4    0.17    5.85
 -11 -10   4    3.00    7.11
  11 -10  -4    0.52    0.36
  11  10  -3   13.71    6.92
 -11  10   3    7.88    1.04
 -11 -10   3    5.90    1.03
  11 -10  -3    7.73    0.64
  11  10  -2   13.10    6.15
 -11  10   2   10.70    0.70
 -11  10   2   11.38    1.01
 -11 -10   2    9.45    1.17
  11 -10  -2   12.63    0.69
 -11  10   1    1.01    0.29
  11  10  -1    8.90    5.44
 -11  10   1    0.47    0.36
 -11  10   1    0.40    0.30
  11  10  -1   -1.20    3.86
 -11 -10   1   -0.39    0.37
 -11 -10   1    0.73    0.45
  11  10   0   13.29    6.24
 -11  10   0   31.40    1.28
 -11  10   0   33.88    1.55
 -11  10   0   30.85    1.56
  11  10   0   28.58    8.49
 -11 -10   0   31.29    1.97
 -11 -10   0   33.34    1.66
 -11  10  -1    7.55    0.78
  11  10   1   -1.48    5.22
 -11  10  -1    7.80    0.67
 -11  10  -1    9.36    0.77
  11  10   1    3.92    5.58
 -11 -10  -1    5.69    0.99
  11  10   2    0.74    0.49
 -11  10  -2    1.77    0.53
 -11  10  -2    1.35    0.38
 -11  10  -2    1.01    0.36
 -11  10  -2    2.14    0.42
  11  10   2    7.86    4.93
  11  10   2    7.55    6.19
 -11 -10  -2    2.00    0.55
 -11 -10  -2    1.43    0.61
  11  10   3   -7.35    5.11
  11  10   3   -5.26    5.25
  11  10   3    1.20    0.53
 -11 -10  -3    2.51    0.66
 -11 -10  -3    2.01    0.73
  11  11  -3    3.52    6.62
  11  11  -3   -7.39    5.07
 -11  11   3    2.25    0.63
 -11  11   3    1.34    0.40
 -11 -11   3    2.33    1.12
  11 -11  -3    2.12    0.42
  11  11  -2    6.87    5.18
  11  11  -2   -3.72    5.58
 -11  11   2    1.72    0.53
 -11  11   2    2.10    0.50
 -11 -11   2    0.88    0.57
  11  11  -1    6.74    5.52
 -11  11   1    1.77    0.41
  11  11  -1    2.86    4.68
 -11  11   1    1.03    0.44
 -11  11   1    1.52    0.39
 -11 -11   1    1.30    0.64
 -11 -11   1    0.93    0.52
 -11  11   0    0.82    0.39
 -11  11   0    1.17    0.39
  11  11   0   -5.39    4.90
  11  11   0    1.53    4.70
 -11 -11   0    1.03    0.63
 -11 -11   0    1.72    0.54
 -11  11  -1   18.81    1.19
 -11  11  -1   18.09    1.02
 -11  11  -1   18.38    1.13
  11  11   1   18.45    1.34
  11  11   1   16.76    7.53
  11  11   1   20.60    8.11
 -11 -11  -1   16.44    1.43
 -11 -11  -1   21.84    1.44
  11  11   2    2.88    6.55
 -11  11  -2    7.74    0.87
  11  11   2    8.13    6.47
  11  11   2    5.26    1.39
 -11  11  -2    7.06    0.68
 -11 -11  -2    6.18    0.98
 -11 -11  -2    8.63    1.06
  11  12  -3   10.69    8.68
  11  12  -3   11.63    8.18
 -11  12   3   18.31    1.55
 -11 -12   3   15.64    1.60
  11 -12  -3   19.90    1.05
  11  12  -2   -1.46    5.49
 -11  12   2   -0.05    0.35
 -11 -12   2    0.71    0.52
  11 -12  -2   -0.35    0.28
 -11  12   1    7.26    0.87
  11  12  -1   -0.89    5.14
  11  12  -1    6.42    5.62
 -11  12   1    7.48    0.71
 -11  12   1    9.17    0.78
 -11 -12   1    5.61    0.98
 -11 -12   1    8.07    0.97
  11  12   0   14.59    6.52
 -11  12   0   17.39    1.16
 -11  12   0   13.65    0.89
  11  12   0    0.86    5.90
 -11  12   0   14.82    0.99
 -11 -12   0   14.87    1.23
 -11 -12   0   12.32    1.30
  11  12   1   -6.07    5.86
  11  12   1   -3.72    5.68
 -11  12  -1    0.68    0.40
  11  12   1    0.58    0.87
 -11 -12  -1    0.57    0.50
 -11 -12  -1    0.15    0.50
 -11  12  -2    2.39    0.50
  11  12   2   -3.73    6.02
  11  12   2    2.28    0.66
 -11  12  -2    2.72    0.61
  11  12   2    4.86    7.08
 -11 -12  -2    2.67    0.73
  11  13  -1   -0.64    6.52
 -11  13   1    3.31    0.67
  11  13  -1   11.55    6.73
 -11  13   1    3.18    0.71
 -11 -13   1    3.08    0.85
 -11 -13   1    3.28    0.70
 -11  13   0    2.53    0.61
  11  13   0    2.06    8.64
  11  13   0   -1.10    5.81
 -11  13   0    3.04    0.50
 -11 -13   0    2.04    0.66
 -11 -13   0    1.55    0.64
  12   0  -6   12.40    0.84
 -12   0   6   13.51    1.29
 -12   0   5   -0.13    0.42
  12   0  -5    0.31    0.28
  12   0  -5   -0.02    0.27
 -12   0   4    8.77    1.08
 -12   0   4   12.64    4.80
  12   0  -4    8.45    4.24
  12   0  -3    0.15    0.41
 -12   0   3    0.12    0.36
 -12   0   2   38.90    2.07
  12   0  -2   36.76    5.91
  12   0  -2   36.77    2.04
 -12   0   1    0.50    0.39
  12   0  -1    0.84    1.83
  12   0  -1   -0.59    1.71
  12   0   0   20.50    4.12
 -12   0   0   15.27    1.24
  12   0   1    1.45    1.65
  12   0   1    0.36    1.55
  12   0   2   21.04    5.02
  12   0   2   24.88    5.01
 -12   0  -2   23.06    1.55
 -12   0  -2   23.09    0.97
 -12   0  -3   -0.30    0.24
  12   0   3   -1.94    1.62
 -12   0  -3    0.29    0.42
  12   0   3    3.21    4.29
 -12   0  -4    2.54    0.68
  12   0   4    0.66    2.81
 -12   0  -4    3.28    0.53
 -12   0  -5    0.92    0.52
 -12   0  -5    0.11    0.40
 -12   0  -5   -3.03    3.60
 -12  -1   6    3.77    0.81
  12  -1  -6    3.63    0.51
  12   1  -5   29.43    1.24
  12   1  -5   30.59    1.22
 -12   1   5   35.02    1.89
  12  -1  -5   29.56    1.17
 -12  -1   5   33.11    1.84
 -12  -1   5   23.60    9.24
  12   1  -4   10.50    0.52
 -12   1   4    9.78    1.07
 -12   1   4   13.78    4.38
 -12   1   4    8.68    0.99
  12   1  -4    9.70    3.92
 -12  -1   4    3.93    2.94
 -12  -1   4   10.57    1.16
  12  -1  -4    9.11    0.81
  12   1  -3    2.28    2.62
 -12   1   3    1.15    0.49
 -12   1   3   -2.98    2.10
 -12  -1   3    1.39    0.55
  12  -1  -3    1.34    2.14
  12  -1  -3    1.94    0.42
 -12   1   2   91.89    3.62
  12   1  -2   96.17    9.44
 -12  -1   2   89.72    3.67
  12  -1  -2  106.72    8.94
  12  -1  -2   91.17    3.19
 -12  -1   2   90.42   18.64
  12   1  -1    3.23    2.14
 -12   1   1    1.95    0.60
  12   1  -1    1.03    1.83
  12  -1  -1    3.40    1.90
 -12  -1   1    2.25    0.63
  12  -1  -1    2.12    0.44
  12  -1  -1    2.44    1.75
  12   1   0   15.09    3.76
  12   1   0   13.27    4.07
 -12   1   0   18.07    1.30
 -12  -1   0   19.07    1.39
  12  -1   0   15.08    3.65
  12  -1   0   16.58    4.00
  12   1   1    1.69    2.40
 -12   1  -1    1.17    0.54
  12   1   1    2.50    2.18
 -12  -1  -1    1.81    0.57
  12  -1   1    2.86    2.00
  12  -1   1    1.94    2.04
 -12   1  -2   14.97    0.72
  12   1   2    6.94    3.22
  12   1   2    7.34    3.43
 -12   1  -2   14.63    1.23
  12  -1   2   13.19    3.70
 -12  -1  -2   15.88    1.28
  12  -1   2   10.67    3.57
 -12  -1  -2   15.70    0.76
  12   1   3   -0.09    2.39
 -12   1  -3    1.18    0.47
 -12   1  -3    1.06    0.35
  12   1   3   -1.94    2.75
 -12  -1  -3    0.75    0.47
  12  -1   3    1.90    2.31
 -12  -1  -3    0.99    0.32
  12   1   4   49.22    7.76
 -12   1  -4   47.47    1.95
 -12   1  -4   50.46    2.53
  12  -1   4   41.72    6.52
 -12  -1  -4   46.61    6.70
 -12  -1  -4   47.22    2.49
 -12  -1  -4   50.42    2.03
 -12   1  -5    0.98    0.41
 -12   1  -5   -0.34    0.36
 -12   1  -5    3.21    3.09
 -12  -1  -5    0.15    0.51
 -12  -1  -5    0.49    0.43
  12  -1   5    4.90    6.48
  12   2  -6    1.43    0.41
 -12   2   6    1.19    0.65
  12  -2  -6    1.29    0.39
 -12  -2   6    1.60    0.63
  12   2  -5   58.20    9.30
  12   2  -5   55.46    1.99
  12   2  -5   57.20    1.96
 -12   2   5   60.70    2.68
 -12  -2   5   49.20    9.77
  12  -2  -5   54.75    2.16
 -12  -2   5   58.06    2.60
  12  -2  -5   54.71    1.83
  12   2  -4    0.19    2.35
 -12   2   4    0.31    0.41
 -12   2   4   -0.12    0.39
  12   2  -4    0.10    0.20
 -12   2   4    0.11    2.65
 -12  -2   4    0.13    0.53
  12  -2  -4    0.33    0.32
  12  -2  -4    7.66    3.08
 -12  -2   4   -4.49    3.06
 -12   2   3   -0.18    2.09
  12   2  -3    1.05    2.56
 -12   2   3    1.45    0.52
  12  -2  -3   -3.37    1.63
  12  -2  -3    0.90    0.33
 -12  -2   3    1.45    0.58
 -12   2   2    3.36    0.70
  12   2  -2    1.52    2.48
  12  -2  -2    4.43    0.58
 -12  -2   2    5.15    3.66
 -12  -2   2    4.37    0.82
  12   2  -1    1.34    1.67
 -12   2   1    0.03    0.38
 -12  -2   1    0.34    0.43
  12  -2  -1   -0.32    0.21
  12   2   0    0.27    1.89
  12   2   0    3.97    2.18
 -12   2   0   -0.17    0.33
 -12  -2   0    0.27    0.49
  12  -2   0    0.02    1.13
  12  -2   0    1.41    1.63
 -12   2  -1   24.41    1.50
  12   2   1   22.85    5.49
  12   2   1   17.48    4.82
  12  -2   1   30.60    4.21
 -12  -2  -1   24.76    0.93
 -12  -2  -1   21.76    1.54
 -12   2  -2    0.04    0.19
  12   2   2    3.33    2.71
 -12   2  -2    0.59    0.21
 -12   2  -2    0.22    0.40
  12  -2   2   -2.18    1.88
  12  -2   2   -0.47    1.43
 -12  -2  -2   -0.07    0.40
  12   2   3   14.12    5.11
 -12   2  -3   15.79    1.30
 -12   2  -3   16.56    0.90
  12   2   3    9.82    4.34
  12  -2   3   15.61    3.97
 -12  -2  -3   15.98    1.37
 -12  -2  -3   16.02    0.95
 -12   2  -4    5.62    0.92
 -12   2  -4    3.89    0.58
  12   2   4   -2.99    3.31
 -12  -2  -4    2.45    2.82
 -12  -2  -4    4.35    0.85
 -12  -2  -4    4.17    0.63
  12  -2   4    2.81    2.73
 -12   2  -5   10.00    3.79
 -12   2  -5   13.04    1.29
 -12   2  -5   13.19    1.03
 -12  -2  -5   13.87    1.37
  12  -2   5    6.26    5.00
 -12  -2  -5   12.47    1.07
 -12   3   6    8.67    1.14
  12   3  -6    8.21    0.78
  12  -3  -6    8.45    0.70
 -12  -3   6    8.91    1.15
  12   3  -5   35.35    1.50
  12   3  -5   31.90    7.83
  12   3  -5   37.29    1.47
 -12   3   5   39.76    2.07
  12  -3  -5   34.87    1.50
 -12  -3   5   33.34    8.10
 -12   3   4   16.87    1.28
 -12   3   4   14.69    1.13
  12   3  -4   14.97    0.77
  12   3  -4   16.78    5.66
 -12  -3   4   15.81    1.43
 -12  -3   4   13.15    4.77
  12  -3  -4   15.33    0.92
  12   3  -3    9.86    4.85
 -12   3   3   12.45    1.04
 -12   3   3    8.11    3.57
 -12   3   3   10.19    1.01
 -12  -3   3   14.10    1.29
  12  -3  -3   11.03    3.47
  12  -3  -3   11.40    0.78
 -12   3   2    1.80    0.52
  12   3  -2   -0.82    2.35
 -12  -3   2    8.94    4.24
 -12  -3   2    3.25    1.25
  12  -3  -2    2.96    1.71
  12  -3  -2    3.26    0.62
 -12   3   1   19.46    1.33
  12   3  -1   20.36    5.33
  12   3  -1   20.27    5.43
  12  -3  -1   21.22    3.42
 -12  -3   1   19.36    2.43
  12  -3  -1   18.69    1.08
  12  -3  -1   22.08    3.57
 -12   3   0    0.32    0.35
  12   3   0   -0.09    1.80
  12   3   0   -1.65    2.15
  12  -3   0    1.55    1.69
 -12  -3   0    0.87    0.52
  12  -3   0    1.44    1.34
 -12   3  -1   10.64    1.00
  12   3   1   11.92    4.38
  12  -3   1    5.29    2.94
 -12  -3  -1   10.45    0.63
  12  -3   1    9.71    2.78
 -12  -3  -1   10.41    1.11
 -12   3  -2   26.52    1.60
 -12   3  -2   24.83    0.96
 -12   3  -2   26.02    1.01
  12   3   2   18.02    5.09
 -12  -3  -2   24.61    1.12
 -12  -3  -2   25.50    1.69
  12  -3   2   22.47    4.15
  12  -3   2   30.21    4.29
 -12   3  -3    1.76    0.33
 -12   3  -3    1.23    0.33
  12   3   3    6.68    4.28
 -12   3  -3    1.95    0.57
 -12  -3  -3    1.20    0.38
 -12  -3  -3    2.35    0.67
  12  -3   3    2.28    2.01
 -12   3  -4   12.53    1.24
 -12   3  -4   13.02    0.92
  12  -3   4    8.53    3.57
 -12  -3  -4   11.74    1.28
 -12  -3  -4   13.39    0.98
 -12   3  -5    0.16    0.38
 -12   3  -5    0.03    0.36
 -12  -3  -5   -0.31    0.47
 -12  -3  -5    0.52    0.43
 -12   4   5    1.12    0.57
  12   4  -5    3.27    4.43
  12  -4  -5    0.52    0.31
 -12  -4   5    2.22    4.90
 -12   4   4    5.84    0.74
  12   4  -4    6.73    0.56
 -12   4   4    6.01    0.87
  12  -4  -4    4.92    0.54
 -12  -4   4    6.32    1.06
 -12   4   3   40.64    1.93
  12   4  -3   41.77    1.46
  12   4  -3   32.43    7.60
 -12   4   3   32.71    1.79
 -12  -4   3   37.56    2.19
 -12  -4   3   41.92   11.45
  12  -4  -3   39.27    1.55
  12  -4  -3   35.86    4.79
  12   4  -2    4.79    0.37
 -12   4   2    4.92    0.75
  12   4  -2    6.52    3.61
 -12   4   2    5.80    0.75
  12  -4  -2    6.77    2.10
  12  -4  -2    5.81    0.56
 -12  -4   2    4.73    0.86
 -12   4   1   43.04    2.00
  12   4  -1   42.38    1.32
  12   4  -1   37.16    7.40
  12   4  -1   39.11    7.62
  12  -4  -1   43.22    1.75
 -12  -4   1   41.08    2.24
  12  -4  -1   32.40    4.11
  12   4   0    8.54    3.76
 -12   4   0    8.38    0.86
  12   4   0    3.14    3.23
  12  -4   0    6.67    0.96
 -12  -4   0    9.17    1.03
 -12  -4   0    7.08    0.46
  12  -4   0    8.30    2.08
  12  -4   0    5.33    1.93
  12   4   1  153.52   13.32
  12   4   1  157.47   13.54
 -12   4  -1  146.74    4.88
  12  -4   1  138.59    8.09
 -12  -4  -1  147.44    4.30
 -12  -4  -1  139.26    5.15
 -12   4  -2    4.81    0.43
  12   4   2    4.11    3.37
  12   4   2   -0.59    2.91
 -12   4  -2    4.71    0.40
 -12   4  -2    4.14    0.72
 -12  -4  -2    4.57    0.56
  12  -4   2    1.04    1.58
 -12  -4  -2    4.57    0.84
  12  -4   2    2.49    1.64
  12   4   3    2.72    4.20
 -12   4  -3    0.84    0.31
 -12   4  -3    1.23    0.52
 -12   4  -3    1.72    0.38
  12   4   3    2.13    3.30
  12  -4   3    1.97    1.75
 -12  -4  -3    1.96    0.46
 -12  -4  -3    0.99    0.58
 -12   4  -4    1.93    0.44
 -12   4  -4    0.75    0.45
  12   4   4   -6.78    4.03
 -12  -4  -4    0.57    0.53
  12  -4   4    4.69    2.53
 -12  -4  -4    1.00    0.54
  12   5  -5    0.36    0.43
  12   5  -5    0.27    5.03
 -12   5   5   -0.35    0.48
 -12  -5   5    2.19    4.85
  12  -5  -5   -0.17    0.28
 -12   5   4    6.30    0.88
  12   5  -4    4.97    0.55
  12   5  -4    5.06    5.74
  12  -5  -4    4.81    0.48
 -12  -5   4    4.22    0.84
 -12   5   3   12.66    1.07
 -12   5   3   12.53    4.35
 -12   5   3    9.35    0.85
  12   5  -3   11.51    0.65
 -12  -5   3    4.51    4.59
  12  -5  -3   12.02    3.97
  12  -5  -3   11.27    0.71
 -12  -5   3   12.15    1.29
 -12   5   2   50.30    2.15
 -12   5   2   43.91    2.13
 -12   5   2   45.65    5.62
  12   5  -2   50.09    7.34
  12   5  -2   49.87    1.61
  12  -5  -2   50.45    1.86
  12  -5  -2   42.21    4.72
 -12  -5   2   50.90    2.55
  12   5  -1   -2.46    2.40
  12   5  -1    0.27    0.24
 -12   5   1    0.84    0.42
  12   5  -1    0.88    2.72
  12  -5  -1   -0.14    0.23
  12  -5  -1    0.39    1.14
 -12  -5   1   -0.03    0.43
  12  -5  -1    0.62    1.92
  12   5   0    2.06    0.30
 -12   5   0    1.06    0.46
  12   5   0    1.23    2.91
  12   5   0   -0.89    2.59
 -12  -5   0    0.85    0.55
 -12  -5   0    1.41    0.29
  12  -5   0    1.65    0.97
  12  -5   0    2.11    0.44
  12  -5   0    0.70    0.95
  12   5   1   -1.66    2.74
  12   5   1   -0.06    2.84
 -12   5  -1    0.13    0.33
 -12  -5  -1    1.03    0.48
  12  -5   1    1.07    1.01
 -12  -5  -1    0.15    0.29
  12  -5   1    0.88    1.39
 -12   5  -2    6.23    0.49
 -12   5  -2    7.54    0.86
  12   5   2    8.80    4.47
 -12   5  -2    6.52    0.51
  12   5   2    9.34    4.27
 -12  -5  -2    6.70    0.69
  12  -5   2    9.96    2.03
 -12  -5  -2    5.83    0.95
  12  -5   2    5.48    1.64
 -12   5  -3    0.29    0.41
  12   5   3    1.51    3.95
  12   5   3   -2.21    3.67
 -12   5  -3    0.95    0.31
 -12   5  -3    0.74    0.30
 -12  -5  -3    0.30    0.41
  12  -5   3    2.41    1.63
 -12  -5  -3    0.54    0.53
  12   5   4   29.12   12.83
 -12   5  -4   18.30    1.08
 -12   5  -4   19.40    1.43
 -12   5  -4   12.41    1.12
 -12  -5  -4   16.65    1.48
  12  -5   4   26.37    4.03
 -12  -5  -4   16.02    1.14
 -12   6   5    0.41    0.49
  12   6  -5    1.40    5.49
 -12  -6   5   -0.36    5.63
  12  -6  -5   -0.04    0.29
 -12   6   4    8.30    1.05
  12   6  -4   11.88    6.80
 -12  -6   4    5.23    0.99
  12   6  -3    0.40    4.19
 -12   6   3    4.72    0.87
 -12   6   3    7.31    0.88
  12   6  -3    7.73    0.59
 -12  -6   3    7.11    1.09
 -12  -6   3    4.90    4.85
  12  -6  -3    7.67    0.54
  12   6  -2   28.14    1.13
 -12   6   2   29.04    1.59
 -12   6   2   21.29    4.40
  12   6  -2   24.14    6.92
 -12   6   2   25.82    1.49
  12   6  -2   33.84    7.88
  12  -6  -2   30.70    3.69
  12  -6  -2   29.81    1.25
 -12  -6   2   29.90    1.93
 -12   6   1   62.23    2.43
  12   6  -1   61.74    8.61
  12   6  -1   56.85    1.92
 -12   6   1   59.88    2.35
  12   6  -1   63.42    8.35
  12  -6  -1   51.93    4.13
  12  -6  -1   54.54    4.05
 -12  -6   1   54.88    2.72
  12   6   0    0.72    3.66
  12   6   0    2.02    0.35
  12   6   0   -1.20    3.25
 -12   6   0    1.61    0.46
 -12  -6   0    0.63    0.52
  12  -6   0    0.93    0.50
  12  -6   0    2.52    0.64
  12   6   1   22.01    6.41
  12   6   1   24.28    1.08
 -12   6  -1   21.00    1.35
  12   6   1   17.24    5.93
 -12  -6  -1   20.43    1.56
 -12  -6  -1   21.79    1.14
 -12   6  -2    4.18    0.69
 -12   6  -2    3.47    0.42
  12   6   2    8.64    5.01
  12   6   2    8.47    4.41
 -12  -6  -2    3.47    0.58
 -12  -6  -2    3.11    0.77
 -12   6  -3    0.95    0.40
 -12   6  -3    0.25    0.38
 -12   6  -3    0.00    0.31
 -12   6  -3    0.53    0.28
  12   6   3   -4.91    3.26
  12   6   3    2.66    5.05
 -12  -6  -3    0.43    0.49
  12  -6   3    1.11    1.05
 -12  -6  -3   -0.14    0.40
 -12   6  -4    8.43    0.81
  12   6   4    7.92    6.85
 -12   6  -4   12.11    1.20
  12  -6   4   11.36    2.95
 -12  -6  -4    9.36    0.99
  12   7  -5   -0.39    5.83
 -12   7   5    4.18    0.85
  12  -7  -5    3.59    0.48
 -12  -7   5   11.78    6.91
  12   7  -4    1.16    0.40
 -12   7   4    0.09    0.40
  12   7  -4    1.70    4.20
  12  -7  -4    0.20    0.24
 -12  -7   4   -0.21    0.47
 -12   7   3   12.56    1.15
 -12   7   3   12.19    0.84
  12   7  -3   16.67    6.18
  12   7  -3   14.43    0.83
 -12  -7   3   13.13    1.36
 -12  -7   3   14.92    6.49
 -12   7   2   22.76    1.29
  12   7  -2   22.32    1.02
 -12   7   2   21.73    1.38
  12   7  -2   30.66    7.51
  12   7  -2    6.77    4.71
 -12  -7   2   18.61    1.54
  12  -7  -2   18.23    2.77
 -12   7   1   29.71    1.51
  12   7  -1   27.03    7.42
  12   7  -1   23.81    7.00
  12   7  -1   27.41    1.16
 -12   7   1   28.17    1.48
  12  -7  -1   25.60    1.85
 -12  -7   1   26.45    1.16
 -12  -7   1   22.47    1.71
 -12   7   0    2.87    0.61
 -12   7   0    1.93    0.47
  12   7   0    2.98    0.43
  12   7   0    2.86    3.50
  12   7   0    2.93    3.34
 -12  -7   0    1.83    0.63
 -12  -7   0    1.84    0.41
  12   7   1   10.63    5.10
  12   7   1   12.61    5.74
 -12   7  -1   14.25    0.96
 -12   7  -1   14.13    1.09
 -12  -7  -1   13.24    0.94
 -12  -7  -1   11.24    1.23
 -12   7  -2    0.30    0.24
 -12   7  -2   -0.06    0.28
  12   7   2   -3.46    3.09
 -12   7  -2   -0.02    0.32
  12   7   2    5.90    4.68
 -12  -7  -2   -0.45    0.43
 -12  -7  -2   -0.22    0.35
 -12   7  -3    0.45    0.34
 -12   7  -3    0.34    0.30
 -12   7  -3    1.08    0.43
  12   7   3   -0.32    5.08
 -12   7  -3    0.02    0.36
  12   7   3    4.35    5.52
 -12  -7  -3    0.10    0.47
 -12  -7  -3    0.38    0.46
 -12   7  -4    9.80    0.68
 -12   7  -4    8.72    1.47
 -12  -7  -4    9.73    1.00
 -12  -7  -4    9.41    1.18
 -12   8   4    1.89    0.63
  12   8  -4    2.76    4.50
 -12  -8   4    2.40    0.81
  12   8  -3    1.35    0.43
 -12   8   3    1.20    0.55
  12   8  -3    3.98    4.88
 -12  -8   3    1.56    0.73
  12   8  -2    8.21    4.66
  12   8  -2    1.59    0.51
 -12   8   2    1.55    0.43
  12   8  -2    0.03    3.96
 -12   8   2    1.51    0.50
 -12  -8   2    1.14    0.61
  12  -8  -2   -0.16    1.09
 -12   8   1   18.24    1.14
 -12   8   1   19.53    1.23
  12   8  -1   12.69    5.39
  12   8  -1   14.19    5.29
 -12  -8   1   14.92    1.41
 -12  -8   1   17.72    0.99
 -12   8   0    3.04    0.57
  12   8   0    3.48    0.49
 -12   8   0    2.33    0.53
  12   8   0    7.10    4.59
  12   8   0   10.94    5.09
 -12  -8   0    2.69    0.76
 -12  -8   0    2.26    0.48
  12   8   1   35.66    9.23
 -12   8  -1   49.24    1.67
  12   8   1   53.42    8.78
  12   8   1   49.57    1.94
 -12   8  -1   52.47    2.06
 -12  -8  -1   46.55    2.56
 -12  -8  -1   51.47    2.11
 -12   8  -2    4.14    0.55
  12   8   2    2.23    5.28
 -12   8  -2    3.37    0.67
  12   8   2    4.35    4.71
 -12   8  -2    2.81    0.44
 -12  -8  -2    2.80    0.62
 -12  -8  -2    2.81    0.74
  12   8   3    3.77    6.69
 -12   8  -3    0.14    0.28
 -12   8  -3    0.18    0.39
 -12   8  -3    0.53    0.35
 -12  -8  -3   -0.02    0.43
 -12  -8  -3   -0.45    0.44
 -12   9   4    6.65    1.01
  12   9  -4    2.99    7.07
  12  -9  -4    7.37    0.59
 -12  -9   4    5.29    1.13
  12   9  -3    8.84    5.54
 -12  -9   3    0.71    0.59
  12   9  -2    3.26    0.55
  12   9  -2   12.24    5.03
  12   9  -2    2.58    4.86
 -12   9   2    3.23    0.50
 -12   9   2    2.64    0.62
  12  -9  -2    1.52    1.03
 -12  -9   2    4.14    0.92
  12   9  -1   -2.03    4.23
  12   9  -1    4.52    0.58
  12   9  -1    4.54    4.79
 -12   9   1    5.55    0.69
 -12   9   1    5.25    0.77
 -12  -9   1    3.32    0.85
 -12  -9   1    5.70    0.69
 -12   9   0    0.32    0.33
 -12   9   0    0.03    0.19
  12   9   0   -4.74    2.94
 -12   9   0   -0.05    0.31
  12   9   0    1.74    4.20
 -12  -9   0   -0.08    0.46
 -12  -9   0   -0.35    0.36
 -12   9  -1    2.80    0.66
  12   9   1    5.50    4.84
  12   9   1    1.57    4.96
 -12   9  -1    1.52    0.32
 -12   9  -1    1.26    0.48
 -12  -9  -1    1.04    0.66
 -12  -9  -1    1.53    0.56
  12   9   2    8.67    7.33
  12   9   2    4.57    5.32
 -12   9  -2   14.05    1.13
 -12   9  -2   14.96    0.94
 -12   9  -2   14.77    1.27
 -12  -9  -2   11.04    1.29
 -12  -9  -2   14.67    1.18
 -12   9  -3    4.92    0.56
 -12   9  -3    5.01    0.77
  12   9   3    3.47    0.73
 -12  -9  -3    2.78    0.68
 -12  -9  -3    2.23    0.92
 -12  10   3    3.60    0.73
  12  10  -3    6.71    6.54
  12  10  -3    6.10    5.95
  12 -10  -3    4.21    0.47
 -12 -10   3    4.75    1.06
  12  10  -2   13.35    6.39
 -12  10   2   19.13    1.35
 -12  10   2   20.29    0.88
  12  10  -2    8.82    6.02
 -12 -10   2   18.44    1.64
  12  10  -1    6.91    5.41
 -12  10   1   16.31    0.79
 -12  10   1   16.39    1.18
 -12  10   1   17.98    1.08
  12  10  -1   19.99    7.27
 -12 -10   1   13.19    1.38
 -12 -10   1   16.91    1.11
 -12  10   0    0.39    0.24
 -12  10   0    0.84    0.38
  12  10   0   -0.45    4.94
  12  10   0    1.22    4.28
 -12  10   0    0.01    0.33
 -12 -10   0   -0.09    0.43
 -12 -10   0    0.55    0.42
  12  10   1    0.75    6.62
 -12  10  -1    1.13    0.44
 -12  10  -1    1.88    0.36
 -12  10  -1    0.77    0.40
  12  10   1    3.96    5.79
 -12 -10  -1    0.60    0.58
 -12 -10  -1    1.44    0.56
 -12  10  -2   -0.32    0.30
 -12  10  -2   -0.03    0.28
  12  10   2    1.30    6.59
  12  10   2    4.60    5.43
 -12 -10  -2   -0.51    0.47
 -12 -10  -2    0.48    0.93
  12  11  -3    8.65    6.36
  12  11  -2    6.72    6.95
 -12  11   2   19.18    1.37
  12  11  -2   16.25    6.79
 -12 -11   2   16.63    1.61
 -12  11   1    1.05    0.42
 -12  11   1    1.40    0.40
  12  11  -1    2.83    5.34
  12  11  -1   -4.79    4.82
 -12 -11   1    1.10    0.48
  12  11   0    4.60    6.52
  12  11   0   -3.57    4.47
 -12  11   0    0.21    0.35
 -12  11   0    0.22    0.33
 -12  11   0   -0.26    0.40
 -12 -11   0    0.54    0.98
 -12 -11   0   -0.11    0.43
 -12  11  -1   -0.05    0.31
  12  11   1    1.60    6.54
  12  11   1   -2.33    6.54
 -12  11  -1    0.14    0.34
 -12 -11  -1   -0.31    0.47
 -12 -11  -1    0.15    0.69
  12  12  -1   10.83    7.47
  12  12  -1   11.29    7.59
 -12  12   1   10.52    1.00
 -12  12   1   10.46    0.80
 -12 -12   1   11.45    1.07
 -12 -12   1    6.96    1.12
  12  12   0    9.55    8.49
 -12  12   0   13.65    1.00
 -12  12   0   15.47    1.14
  12  12   0    8.47    6.97
 -12 -12   0   11.75    1.36
 -12 -12   0   16.07    1.22
 -13   0   5    0.77    0.48
 -13   0   4   29.83    2.00
 -13   0   3    0.40    0.44
 -13   0   3    2.34    3.13
  13   0  -3   -1.52    2.30
  13   0  -2   83.65    8.60
 -13   0   2   71.80    3.20
  13   0  -1    2.92    2.13
  13   0  -1    1.02    2.17
 -13   0   1    0.20    0.43
  13   0   0  106.34    9.14
 -13   0   0   90.97    3.78
  13   0   0  114.99    9.38
  13   0   1   -1.93    1.92
 -13   0  -1   -0.30    0.33
  13   0   1   -3.16    1.82
  13   0   2   97.54    9.14
 -13   0  -2   98.74    2.93
 -13   0  -2   99.47    3.94
 -13   0  -3    0.32    0.44
  13   0   3    3.59    2.70
  13   0   4    2.67    3.95
 -13   0  -4    2.38    0.94
 -13   0  -4    1.62    0.47
 -13   1   5    0.79    0.55
  13   1  -5    0.13    0.25
 -13  -1   5   -0.10    0.48
 -13   1   4    7.26    1.04
 -13   1   4    5.88    0.90
 -13  -1   4    5.97    1.05
  13   1  -3    2.24    3.28
 -13   1   3    4.34    3.47
 -13   1   3    2.01    0.66
 -13  -1   3    1.14    0.81
 -13  -1   3    3.80    3.72
  13  -1  -3    1.46    2.69
  13   1  -2    7.11    3.29
  13  -1  -2    9.17    3.06
  13   1  -1    0.24    1.81
  13   1  -1    1.25    1.99
 -13   1   1    0.20    0.50
 -13  -1   1   -0.41    0.37
  13  -1  -1    1.79    1.93
  13   1   0    9.45    3.34
  13   1   0   14.54    3.98
 -13   1   0    9.12    1.30
 -13  -1   0   10.16    1.11
  13  -1   0    6.41    2.77
  13  -1   0    5.37    2.55
 -13   1  -1   35.00    1.93
  13   1   1   28.84    6.10
  13   1   1   33.60    6.34
  13  -1   1   37.56    5.14
  13  -1   1   38.51    5.07
 -13  -1  -1   31.64    1.94
 -13   1  -2    0.81    0.24
  13   1   2   -2.37    2.15
 -13   1  -2    0.05    0.43
  13  -1   2    4.46    2.56
 -13  -1  -2    1.21    0.56
 -13  -1  -2    1.29    0.28
 -13   1  -3   21.82    1.05
  13   1   3   24.45    5.80
 -13   1  -3   20.70    1.55
  13  -1   3   21.05    5.15
 -13  -1  -3   21.59    1.09
 -13  -1  -3   21.32    1.61
 -13   1  -4    1.81    0.47
  13   1   4    0.01    3.73
 -13   1  -4    1.96    0.94
  13  -1   4    1.50    3.49
 -13  -1  -4    1.41    0.44
 -13  -1  -4    1.23    0.72
 -13   2   5   10.03    1.58
  13   2  -5    7.40    0.67
 -13  -2   5    9.91    1.11
 -13   2   4    4.17    0.81
 -13   2   4    3.99    0.76
 -13  -2   4    4.47    0.97
  13  -2  -4    4.38    0.63
 -13  -2   4    8.39    6.73
 -13   2   3    3.56    0.76
  13   2  -3    5.18    3.75
  13  -2  -3    3.07    0.54
 -13  -2   3    1.94    3.68
 -13  -2   3    4.76    0.89
  13   2  -2   -0.02    2.63
 -13   2   2    1.14    0.54
  13  -2  -2    1.24    1.68
 -13  -2   2    0.68    0.49
  13   2  -1    7.74    3.17
  13   2  -1    3.94    3.01
 -13   2   1    2.07    0.62
  13  -2  -1    3.00    2.04
  13  -2  -1    0.79    1.85
 -13  -2   1    2.45    0.72
 -13   2   0    1.03    0.55
  13   2   0   -0.70    2.14
  13   2   0   -1.79    1.72
  13  -2   0    3.27    2.28
 -13  -2   0    1.71    0.61
  13  -2   0    2.48    1.89
 -13   2  -1    0.61    0.44
  13   2   1   -3.21    2.17
  13   2   1    1.43    2.26
  13  -2   1    2.64    2.03
  13  -2   1    1.55    1.90
 -13  -2  -1    0.56    0.50
 -13   2  -2    0.16    0.19
  13   2   2    4.60    3.18
 -13   2  -2    0.31    0.43
 -13   2  -2   -0.02    0.16
  13  -2   2   -0.35    1.85
 -13  -2  -2    0.59    0.43
 -13  -2  -2    1.17    0.55
  13   2   3    2.03    3.31
  13  -2   3    5.31    3.08
 -13   2  -4   13.85    0.95
 -13   2  -4   10.67    1.59
  13   2   4    9.41    5.58
  13  -2   4    9.38    3.76
 -13  -2  -4   15.48    1.45
 -13  -2  -4   13.01    0.96
 -13   3   5   21.91    2.07
 -13  -3   4    4.73    5.11
  13   3  -3   17.79    5.76
 -13   3   3   18.02    1.41
 -13   3   3   23.83    1.46
  13  -3  -3   22.18    1.17
 -13  -3   3   21.09    1.70
 -13  -3   3   18.98    6.88
  13   3  -2    2.48    2.92
 -13   3   2    8.27    1.00
  13  -3  -2   11.28    0.83
 -13  -3   2   10.52    1.20
  13  -3  -2   11.13    3.10
 -13   3   1   74.52    3.04
  13   3  -1   68.78    8.77
  13   3  -1   75.10    9.08
  13  -3  -1   70.05    6.62
 -13  -3   1   71.87    3.22
  13  -3  -1   71.08    6.38
 -13   3   0   11.20    1.05
  13   3   0    6.75    3.80
 -13  -3   0   10.81    1.18
  13  -3   0    8.59    2.86
  13  -3   0   11.48    2.84
  13   3   1   27.61    6.06
 -13   3  -1   24.28    1.55
  13  -3   1   23.10    3.66
 -13  -3  -1   20.00    1.55
  13  -3   1   17.71    3.58
 -13  -3  -1   22.82    0.91
  13   3   2   18.31    5.17
 -13   3  -2   10.76    1.10
 -13   3  -2   11.38    0.58
 -13  -3  -2   10.40    1.19
 -13  -3  -2   12.62    0.76
  13   3   3    7.44    4.87
 -13   3  -3    9.68    0.65
 -13   3  -3   10.26    0.70
 -13   3  -3    8.79    1.08
 -13  -3  -3   10.50    1.17
  13  -3   3    8.04    2.87
 -13  -3  -3   10.15    0.79
 -13   3  -4    1.49    0.61
 -13   3  -4    1.98    0.46
 -13  -3  -4    1.34    0.63
 -13   4   5   25.69    1.74
 -13   4   4    6.62    0.79
  13   4  -4    5.26    0.52
  13   4  -4    9.50    4.87
 -13   4   4    6.29    0.89
  13  -4  -4    5.51    0.59
 -13  -4   4   -0.85    3.93
 -13  -4   4    4.82    1.07
 -13   4   3    8.24    1.01
 -13   4   3    6.53    0.85
  13   4  -3    9.28    4.82
  13  -4  -3    6.52    0.97
 -13  -4   3    1.00    5.22
 -13  -4   3    7.35    1.12
  13   4  -2   13.34    4.92
  13   4  -2   19.80    6.27
 -13   4   2   19.46    1.42
 -13  -4   2   21.28    1.65
  13  -4  -2   21.73    1.13
  13  -4  -2   14.64    5.33
  13   4  -1    0.78    3.48
  13   4  -1    0.62    2.67
  13  -4  -1    1.96    1.37
  13  -4  -1    2.24    1.93
 -13  -4   1    5.41    0.93
  13   4   0   32.31    6.92
  13   4   0   30.10    6.54
 -13   4   0   31.92    1.76
  13  -4   0   33.45    3.81
  13  -4   0   33.96    4.39
 -13  -4   0   31.16    1.99
 -13   4  -1    0.73    0.47
  13   4   1    0.06    3.12
  13   4   1   -3.94    2.62
  13  -4   1   -0.70    1.19
 -13  -4  -1    0.06    0.49
 -13  -4  -1    0.49    0.26
  13  -4   1   -0.08    1.29
  13   4   2    8.76    4.44
 -13   4  -2   16.27    1.27
 -13   4  -2   15.95    0.72
  13   4   2   13.07    7.74
 -13  -4  -2   16.00    1.42
 -13  -4  -2   17.12    0.93
  13  -4   2   12.14    2.72
  13   4   3    3.51    3.13
 -13   4  -3    0.85    0.30
 -13   4  -3    1.30    0.30
 -13   4  -3    0.58    0.46
 -13  -4  -3   -0.06    0.43
  13  -4   3    0.21    1.89
 -13  -4  -3    0.53    0.35
 -13   4  -4   10.20    0.82
 -13   4  -4   11.21    1.18
 -13  -4  -4    7.80    1.17
  13  -4   4   10.69    3.66
 -13  -4  -4    8.75    0.88
 -13   5   5    5.32    0.93
 -13   5   4   12.28    1.16
  13   5  -4   10.02    0.72
  13   5  -4   18.74    6.62
  13  -5  -4   10.71    0.71
 -13  -5   4   10.19    1.30
 -13  -5   4    4.79    6.46
  13   5  -3   -0.08    0.24
 -13   5   3    0.26    0.38
 -13   5   3   -0.59    0.35
  13   5  -3    0.72    3.70
 -13  -5   3    0.11    0.54
  13  -5  -3    0.19    0.25
 -13  -5   3   -0.60    5.00
  13   5  -2    5.84    0.44
 -13   5   2    5.30    0.78
  13   5  -2    3.22    3.51
  13   5  -2    1.92    3.95
 -13   5   2    5.10    0.77
  13  -5  -2    5.24    0.58
 -13  -5   2    4.01    0.92
  13   5  -1   27.34    7.03
 -13   5   1   24.27    1.49
  13   5  -1   23.68    0.88
  13   5  -1   16.51    5.47
  13  -5  -1   20.21    3.25
  13  -5  -1   16.56    3.13
 -13  -5   1   23.01    1.72
  13  -5  -1   23.47    1.21
  13   5   0    1.96    3.37
 -13   5   0    0.08    0.35
  13   5   0   -1.38    2.77
  13  -5   0   -0.38    1.10
  13  -5   0   -1.60    0.92
 -13  -5   0   -0.02    0.20
 -13  -5   0   -0.16    0.43
 -13   5  -1    0.37    0.35
  13   5   1    3.57    3.30
  13   5   1   -2.74    2.79
 -13  -5  -1   -0.07    0.45
 -13  -5  -1    0.08    0.28
  13  -5   1   -1.76    0.87
  13  -5   1    0.57    1.01
  13   5   2    1.68    4.06
  13   5   2   -5.81    5.71
 -13   5  -2    2.14    0.57
 -13  -5  -2    0.82    0.60
  13  -5   2    2.94    1.30
 -13  -5  -2    1.50    0.40
  13   5   3   -2.75    3.90
 -13   5  -3    1.11    0.34
 -13   5  -3    2.10    0.40
 -13   5  -3    0.49    0.43
 -13  -5  -3    0.79    0.40
 -13  -5  -3    1.00    0.59
  13  -5   3    3.15    1.72
  13   6  -4   13.76    6.90
 -13  -6   4   34.52   10.33
 -13  -6   4   18.73    1.72
 -13   6   3   26.60    1.60
 -13   6   3   21.66    1.30
  13   6  -3   22.42    1.00
  13   6  -3   13.44    5.11
  13  -6  -3   22.59    1.05
 -13  -6   3   23.13    1.85
  13   6  -2   10.64    5.37
  13   6  -2    9.68    0.60
  13   6  -2    4.85    4.53
 -13   6   2    6.27    0.84
 -13   6   2    9.64    0.97
 -13  -6   2    8.94    1.24
  13  -6  -2    8.36    0.70
  13   6  -1    8.04    4.64
 -13   6   1    9.59    0.98
  13   6  -1    1.74    4.42
  13   6  -1    8.25    0.57
 -13   6   1    7.93    0.83
  13  -6  -1    7.96    1.80
 -13  -6   1    6.27    1.03
  13  -6  -1    8.45    0.71
  13  -6  -1    4.83    1.60
  13   6   0   -3.45    2.80
 -13   6   0    0.89    0.42
  13   6   0    1.67    0.31
 -13   6   0    1.98    0.53
  13   6   0    1.96    3.83
  13  -6   0    0.64    0.64
 -13  -6   0    2.12    0.69
  13  -6   0    1.42    0.59
 -13  -6   0    1.60    0.32
 -13   6  -1    0.10    0.38
  13   6   1   -1.90    3.53
  13   6   1    7.06    4.63
 -13  -6  -1    1.11    0.37
 -13  -6  -1    0.99    0.58
  13   6   2    9.31    5.55
 -13   6  -2    6.08    0.48
 -13   6  -2    6.98    0.49
 -13   6  -2    5.54    0.84
 -13  -6  -2    6.71    1.08
 -13  -6  -2    5.91    0.70
 -13   6  -3    0.40    0.44
 -13   6  -3    0.74    0.34
  13   6   3   -0.24    5.54
 -13  -6  -3    1.11    0.44
  13  -6   3    2.29    1.03
 -13   7   4    7.95    1.05
  13   7  -4    5.19    6.02
 -13  -7   4    5.80    1.15
 -13  -7   4    1.26    6.17
 -13   7   3   50.54    2.49
 -13   7   3   69.14    2.78
  13   7  -3   70.13    9.84
  13   7  -3   59.66    2.05
 -13  -7   3   57.12    3.06
  13   7  -2   -2.65    3.26
  13   7  -2    9.11    4.52
  13  -7  -2    2.24    1.46
  13   7  -1   36.34    1.40
 -13   7   1   37.40    1.82
  13   7  -1   37.25    8.33
  13   7  -1   34.25    8.56
 -13   7   1   39.28    1.86
  13  -7  -1   33.82    1.86
 -13  -7   1   32.56    2.14
  13   7   0    2.77    4.35
  13   7   0    0.74    0.32
 -13   7   0    1.09    0.45
 -13   7   0    1.43    0.46
  13   7   0    1.47    4.42
 -13  -7   0    1.45    0.62
 -13  -7   0    1.41    0.34
 -13   7  -1    3.56    0.60
  13   7   1    6.15    4.63
  13   7   1    2.56    0.52
  13   7   1   -3.17    4.39
 -13   7  -1    3.14    0.65
 -13  -7  -1    1.46    0.64
 -13  -7  -1    3.14    0.51
 -13   7  -2    4.34    0.77
  13   7   2    3.16    5.19
 -13   7  -2    3.48    0.42
 -13  -7  -2    3.98    0.61
 -13  -7  -2    1.88    0.74
 -13   7  -3   12.97    1.19
 -13   7  -3   13.87    0.91
  13   7   3    7.39    6.89
 -13   7  -3   14.05    0.86
 -13  -7  -3   11.44    1.02
 -13  -7  -3   10.86    1.37
 -13   8   4    1.19    0.51
  13   8  -4    0.05    5.90
 -13  -8   4    0.92    0.70
 -13  -8   4   13.40    7.80
 -13   8   3    3.28    0.72
  13   8  -3    5.77    5.83
  13   8  -3    3.58    0.54
  13   8  -3   -3.06    4.52
 -13  -8   3    3.66    0.96
  13   8  -2    4.37    5.40
 -13   8   2   -0.01    0.37
 -13   8   2    0.82    0.46
  13   8  -2   -2.08    3.95
 -13  -8   2    0.56    0.56
 -13   8   1    0.79    0.42
  13   8  -1    4.99    3.72
  13   8  -1    7.52    4.03
  13   8  -1    1.61    0.46
 -13   8   1    0.22    0.39
 -13  -8   1    0.23    0.52
  13   8   0   -1.13    4.78
 -13   8   0    1.68    0.47
 -13   8   0    0.78    0.47
  13   8   0    2.04    0.40
  13   8   0    8.97    5.19
 -13  -8   0    0.14    0.47
 -13  -8   0    1.37    0.39
 -13   8  -1   12.42    1.07
  13   8   1   10.75    0.84
 -13   8  -1   14.46    1.00
  13   8   1   11.38    6.43
  13   8   1   12.20    6.75
 -13  -8  -1   11.91    0.94
 -13  -8  -1   11.17    1.31
 -13   8  -2   12.31    1.09
  13   8   2   -5.53    5.65
 -13  -8  -2   12.14    1.01
 -13  -8  -2    8.29    1.83
 -13   9   3    1.39    0.63
  13   9  -3    1.70    5.97
  13   9  -3    0.86    6.26
 -13  -9   3    0.01    0.51
 -13   9   2    1.96    0.45
  13   9  -2    6.29    5.56
  13   9  -2    2.20    0.52
  13   9  -2    2.73    5.30
 -13   9   2    1.83    0.57
 -13  -9   2    1.14    0.98
 -13   9   1    7.17    0.80
  13   9  -1   11.95    5.65
  13   9  -1    6.57    0.72
  13   9  -1    3.34    4.56
 -13   9   1    7.66    0.95
 -13  -9   1    6.15    1.15
 -13  -9   1    5.47    0.64
  13   9   0    6.71    5.73
  13   9   0    9.75    5.69
 -13   9  -1    6.30    0.78
  13   9   1   17.76    7.74
  13   9   1   10.44    6.30
 -13   9  -1    7.43    0.88
 -13  -9  -1    3.81    1.24
 -13  -9  -1    6.95    0.84
  13   9   2   11.50    7.84
 -13  10   2    6.51    0.91
 -13  10   2    6.01    0.68
  13  10  -2    5.03    6.87
  13  10  -2   11.31    6.76
 -13 -10   2    2.99    0.90
 -13  10   1    1.12    0.45
  13  10  -1    0.79    5.27
 -13  10   1    1.18    0.43
  13  10  -1    5.55    4.69
 -13 -10   1    1.55    0.71
 -13 -10   1    0.17    0.38
 -13  10   0   27.79    1.53
  13  10   0   23.78    7.58
 -13  10   0   28.16    1.51
  13  10   0   40.13   10.17
 -13 -10   0   28.83    1.61
 -13 -10   0   24.92    1.90
  13  10   1    4.60    7.73
 -13  10  -1   -0.32    0.39
 -13  10  -1   -0.47    0.31
  13  10   1   -0.09    5.68
 -13 -10  -1   -0.74    0.44
 -13 -10  -1    0.50    0.59
 -14   0   5   -0.62    0.43
 -14   0   4   32.90    2.16
 -14   0   3   -0.42    0.48
  14   0  -2    7.49    3.41
 -14   0   2    8.29    1.14
 -14   0   1    0.03    0.48
 -14   0   0    2.52    0.66
  14   0   0    3.52    2.83
  14   0   1   -1.51    2.69
 -14   0  -1   -0.19    0.39
 -14   0  -2    0.95    0.60
  14   0   2   -4.07    2.61
 -14   0  -3   -0.25    0.48
  14   0   3   -0.47    3.31
 -14   1   5    0.23    0.51
 -14  -1   5   -0.44    0.47
 -14   1   4   31.74    2.07
 -14  -1   4   33.42    2.20
 -14   1   3   -0.30    0.86
 -14  -1   3    0.04    0.41
  14   1  -2    8.18    3.50
  14  -1  -2    7.21    3.47
  14   1  -1    0.48    2.69
 -14   1   1    1.46    0.62
  14  -1  -1    0.46    2.25
 -14  -1   1    1.60    0.69
  14   1   0   12.49    6.26
 -14   1   0   17.60    1.42
  14  -1   0   10.54    3.37
 -14  -1   0   16.97    1.48
  14   1   1    3.20    2.93
  14  -1   1    5.36    2.67
  14   1   2   18.25    5.24
 -14   1  -2   18.98    1.51
 -14  -1  -2   18.80    1.56
  14  -1   2   15.95    4.14
 -14   1  -3    1.97    0.37
  14   1   3    5.63    4.40
 -14   1  -3    2.49    0.74
 -14  -1  -3    1.77    0.38
  14  -1   3    4.17    3.95
 -14   2   4    0.28    0.58
 -14   2   4    1.96    0.70
 -14  -2   4    1.99    0.77
 -14   2   3    1.18    0.55
 -14  -2   3   -0.19    0.49
 -14   2   2   -0.08    0.42
  14  -2  -2    1.26    2.13
 -14  -2   2    0.23    0.53
 -14   2   1   69.59    3.00
  14   2  -1   70.17    8.40
  14   2  -1   61.82   12.31
  14  -2  -1   61.88    6.92
 -14  -2   1   66.86    3.17
 -14   2   0    1.81    0.59
  14   2   0   -0.86    2.46
 -14  -2   0    1.59    0.64
  14  -2   0    5.05    2.50
 -14   2  -1   23.24    1.57
  14   2   1   13.71    4.97
 -14  -2  -1   23.65    1.71
  14  -2   1   17.75    4.20
 -14   2  -2    0.64    0.51
  14   2   2   -0.24    2.78
 -14  -2  -2    0.38    0.24
  14  -2   2   -0.25    2.10
 -14  -2  -2    0.29    0.53
 -14   2  -3    4.05    0.81
 -14   2  -3    4.02    0.48
  14   2   3    5.45    4.36
 -14   3   4    4.12    0.77
 -14  -3   4    3.73    0.89
 -14   3   3    1.67    0.66
 -14   3   3    1.87    0.54
 -14  -3   3    0.92    0.65
 -14   3   2   21.55    1.58
  14   3  -2   21.73    5.99
 -14  -3   2   25.78    1.85
  14   3  -1    2.32    3.02
  14   3  -1   -0.41    2.78
 -14  -3   1    1.92    0.70
  14  -3  -1    2.63    2.27
 -14   3   0    5.61    0.87
  14  -3   0    3.60    2.50
 -14  -3   0    6.17    1.02
 -14   3  -1    0.40    0.45
  14   3   1    0.90    3.24
 -14  -3  -1    0.18    0.49
  14  -3   1    3.22    1.96
 -14   3  -2    1.68    0.59
  14   3   2    0.02    3.47
 -14  -3  -2    1.52    0.65
  14  -3   2    0.42    2.52
 -14  -3  -2    1.53    0.37
  14   3   3    3.87    5.05
 -14   3  -3    3.40    0.77
 -14   3  -3    3.29    0.43
 -14  -3  -3    3.83    0.51
  14  -3   3    3.33    2.50
 -14  -3  -3    4.00    0.87
 -14   4   4   20.22    1.51
 -14   4   4   18.12    1.33
 -14  -4   4   18.19    1.71
 -14   4   3   32.17    1.74
 -14   4   3   22.34    1.60
  14  -4  -3   26.98    1.31
 -14  -4   3   25.35    1.97
  14   4  -2   12.37    5.45
  14   4  -2    4.40    6.46
 -14   4   2    9.45    1.09
 -14   4   2    8.93    0.97
 -14  -4   2   10.02    1.24
  14  -4  -2    3.41    2.76
  14   4  -1    7.99    4.34
 -14   4   1    7.61    0.98
  14   4  -1    4.79    4.12
 -14  -4   1    9.54    1.17
  14  -4  -1    5.19    2.47
  14   4   0   -2.93    2.71
 -14   4   0    0.63    0.46
  14  -4   0    3.41    1.94
 -14  -4   0    1.69    0.65
 -14   4  -1    0.54    0.46
  14   4   1    3.61    3.69
 -14  -4  -1    0.91    0.52
  14  -4   1   -0.83    1.51
 -14  -4  -1    1.17    0.26
 -14   4  -2    0.53    0.45
  14   4   2   -0.31    3.25
  14  -4   2   -1.65    1.61
 -14  -4  -2   -0.04    0.48
 -14  -4  -2    0.37    0.29
 -14   4  -3    7.75    0.60
 -14   4  -3    4.97    1.13
 -14  -4  -3    8.18    0.75
  14  -4   3    1.60    2.25
 -14  -4  -3    5.70    1.02
 -14   5   4   17.59    1.41
 -14   5   4   15.74    1.15
 -14  -5   4   17.27    1.69
 -14   5   3    0.57    0.39
 -14   5   3    0.37    0.42
  14  -5  -3    0.15    0.32
 -14  -5   3    0.25    0.54
 -14   5   2    5.48    0.85
  14   5  -2    8.47    6.96
 -14   5   2    8.61    0.96
  14   5  -2    3.27    4.45
  14  -5  -2    6.15    0.88
 -14  -5   2    7.88    1.21
  14  -5  -2    5.95    2.32
  14   5  -1   -0.53    3.82
 -14   5   1    0.92    0.54
  14   5  -1   -1.42    3.36
  14  -5  -1   -1.09    1.55
 -14  -5   1   -0.79    0.50
  14   5   0    5.03    3.86
 -14   5   0   -0.06    0.37
 -14  -5   0    0.87    0.52
  14  -5   0    0.19    1.24
  14   5   1   -0.40    3.68
 -14   5  -1    0.13    0.39
  14  -5   1    0.02    1.26
 -14  -5  -1    0.90    0.57
 -14   5  -2   73.43    3.08
  14   5   2   69.37   10.46
 -14  -5  -2   72.58    2.46
 -14  -5  -2   63.21    3.48
 -14   5  -3   -0.30    0.26
 -14  -5  -3    0.19    0.41
  14  -5   3    0.44    1.66
 -14  -5  -3   -0.13    0.48
 -14   6   4    0.43    0.55
 -14   6   3    1.42    0.91
 -14  -6   3   -0.30    0.55
 -14   6   2    1.61    0.56
 -14   6   2    2.04    0.59
  14   6  -2   -3.75    4.72
  14   6  -2   -1.29    3.69
  14  -6  -2    1.07    0.37
  14  -6  -2   -0.74    1.81
 -14  -6   2    1.64    0.74
 -14   6   1    3.92    0.69
  14   6  -1    4.56    0.46
  14   6  -1   11.26    5.17
 -14   6   1    4.93    0.81
  14   6  -1    1.80    5.44
 -14  -6   1    3.29    0.89
  14  -6  -1    3.94    1.47
 -14   6   0    4.86    0.78
  14   6   0    1.40    4.12
 -14   6   0    5.54    0.75
  14  -6   0    3.41    0.81
 -14  -6   0    2.89    0.75
  14   6   1    6.40    4.58
 -14   6  -1    7.15    0.91
 -14  -6  -1    6.66    1.10
 -14  -6  -1    7.62    0.64
 -14   6  -2    1.22    0.56
  14   6   2    8.96    4.87
 -14  -6  -2    1.45    0.45
 -14  -6  -2    0.05    0.53
 -14   7   3    0.94    0.57
 -14   7   3    2.88    0.59
  14   7  -3   -0.08    5.57
 -14   7   2   -0.13    0.40
 -14   7   2    1.01    0.46
  14   7  -2    1.53    4.43
 -14  -7   2   -0.05    0.55
  14  -7  -2    1.86    1.63
 -14   7   1    8.26    0.91
 -14   7   1    7.60    0.92
  14   7  -1    6.74    0.60
  14   7  -1    7.38    5.57
 -14  -7   1    5.70    1.05
  14   7   0    7.96    0.64
 -14   7   0    8.44    0.96
  14   7   0    3.42    5.73
 -14   7   0   10.85    0.97
 -14  -7   0    7.76    0.63
 -14  -7   0   10.82    1.27
  14   7   1   -2.62    5.05
 -14   7  -1    1.65    0.50
 -14   7  -1    1.95    0.53
 -14  -7  -1    1.36    0.42
 -14   7  -2    1.17    0.51
 -14   7  -2    1.10    0.42
 -14  -7  -2    0.74    0.45
 -14  -7  -2    0.99    0.69
 -14   8   2   -0.44    0.34
 -14   8   2    0.26    0.41
  14   8  -2   -2.11    4.79
 -14  -8   2    0.25    0.54
 -14   8   1   20.68    1.37
 -14   8   1   21.62    1.36
  14   8  -1   21.34    7.72
 -14  -8   1   14.49    2.31
 -14   8   0    1.05    0.50
 -14   8   0    0.15    0.36
  14   8   0   -2.72    4.70
 -14  -8   0   -0.52    0.50
 -14  -8   0   -0.17    0.31
  14   8   1   12.00    7.37
 -14   8  -1   15.21    1.11
 -14   8  -1   16.18    1.24
 -14  -8  -1   14.20    0.99
 -14  -8  -1   13.77    1.48
  14   9  -1   -9.80    5.56
 -14  -9   1    4.51    1.03
 -14   9   0    4.26    0.71
 -14   9   0    3.64    0.67
  14   9   0    0.24    6.83
 -14  -9   0    3.00    0.83
 -14  -9   0    3.38    0.55
 -15   0   4   10.18    1.33
 -15   0   3   -0.14    0.44
 -15   0   2    5.64    0.95
  15   0  -2    5.94    3.69
 -15   0   1   -0.07    0.53
  15   0  -1   -1.09    2.55
 -15   0   0   24.44    1.77
  15   0   0   28.69    5.49
  15   0   1   -1.08    2.82
 -15   0  -1    0.10    0.48
  15   0   2    3.81    3.99
 -15   0  -2    2.56    0.77
 -15   1   4    1.54    0.57
 -15   1   4    0.72    0.61
 -15  -1   4    0.24    0.56
 -15   1   3   27.51    1.96
 -15  -1   3   27.34    2.01
 -15   1   2    0.54    0.54
  15   1  -2    2.99    2.98
 -15  -1   2    0.18    0.54
  15  -1  -2   -3.08    2.42
  15   1  -1    1.82    3.82
  15  -1  -1    0.63    2.89
 -15  -1   1    4.69    0.96
  15   1   0   -3.33    2.72
 -15   1   0    0.05    0.46
 -15  -1   0   -0.63    0.47
  15  -1   0    0.83    2.68
 -15   1  -1   -0.48    0.41
  15   1   1    4.35    3.47
 -15  -1  -1   -0.20    0.42
  15  -1   1    0.40    2.64
  15   1   2   -6.80    2.96
 -15   1  -2    0.31    0.45
  15  -1   2   -3.23    2.73
 -15  -1  -2   -0.03    0.90
 -15   2   4    0.63    0.49
 -15   2   3    3.68    0.87
 -15  -2   3    3.28    0.84
  15   2  -2    1.34    2.95
 -15   2   2    1.30    0.62
 -15  -2   2    1.03    0.63
  15  -2  -2   -1.19    2.52
  15   2  -1   -2.35    2.90
 -15   2   1    0.50    0.56
 -15  -2   1    0.06    0.50
  15  -2  -1    0.80    2.34
  15   2   0   12.28    5.41
 -15   2   0   24.38    1.70
 -15  -2   0   22.64    1.73
  15  -2   0   17.94    4.31
  15   2   1    5.71    4.63
 -15   2  -1    4.76    0.85
 -15  -2  -1    3.35    0.82
  15   2   2    2.88    3.63
 -15   2  -2    2.04    0.64
  15  -2   2    0.56    2.84
 -15  -2  -2    2.13    0.76
 -15   3   3   30.99    2.45
 -15   3   3   38.07    2.12
 -15  -3   3   36.09    2.35
 -15   3   2    0.85    0.57
  15   3  -2   -4.53    3.23
  15  -3  -2   -1.20    2.26
 -15  -3   2    0.78    0.60
 -15   3   1    0.99    0.59
 -15  -3   1    0.41    0.55
  15   3   0    1.66    3.43
  15  -3   0    1.05    2.24
 -15  -3   0    0.04    0.50
  15   3   1   10.71    4.50
 -15   3  -1    0.57    0.50
  15  -3   1   -0.69    1.81
 -15   3  -2    0.72    0.53
  15  -3   2    1.49    2.63
 -15  -3  -2    0.04    0.48
 -15  -3  -2    0.46    0.27
 -15   4   3    1.60    0.63
 -15   4   3    1.78    0.58
 -15  -4   3    3.40    0.98
  15   4  -2   -0.98    3.42
 -15   4   2    0.33    0.45
 -15   4   2   -0.01    0.49
 -15  -4   2   -0.41    0.48
  15  -4  -2   -1.28    2.17
  15   4  -1   -1.37    3.73
 -15   4   1    0.43    0.48
  15  -4  -1   -1.37    2.11
 -15  -4   1   -0.37    0.48
  15   4   0   15.79    5.74
 -15   4   0   24.92    1.65
  15  -4   0   15.47    3.31
 -15  -4   0   22.33    1.79
 -15   4  -1   -0.30    0.33
  15  -4   1   -2.34    1.76
 -15   4  -2    0.29    0.49
  15  -4   2    3.14    2.12
 -15  -4  -2    1.14    0.69
 -15   5   3    0.60    0.48
 -15   5   3    0.72    0.50
 -15  -5   3    0.21    0.71
 -15   5   2    1.31    0.57
 -15   5   2    1.51    0.65
  15   5  -2   -1.90    3.98
 -15  -5   2    0.92    0.68
  15  -5  -2   -2.18    2.24
 -15   5   1    1.09    0.50
  15   5  -1    2.44    3.77
 -15   5   1    0.32    0.47
 -15  -5   1    0.03    0.57
  15  -5  -1   -2.39    1.56
 -15   5   0    3.19    0.73
  15   5   0    4.02    4.41
  15  -5   0    7.75    2.65
 -15  -5   0    2.15    0.79
  15   5   1   -7.73    3.51
  15  -5   1    3.13    1.68
 -15  -5  -1    4.15    0.99
 -15   6   2    2.07    0.96
 -15   6   2    1.56    0.57
  15   6  -2   -2.61    6.49
  15  -6  -2    0.48    2.12
 -15  -6   2   -0.14    0.66
 -15   6   1    0.10    0.43
 -15   6   1    0.47    0.42
  15   6  -1    1.45    4.51
 -15  -6   1    0.04    0.73
  15  -6  -1   -0.51    1.36
  15   6   0   51.20   11.04
 -15   6   0   59.70    2.43
 -15   6   0   57.62    2.58
 -15  -6   0   48.06    2.81
 -15   6  -1    0.22    0.39
 -15  -6  -1    0.38    0.27
 -15  -6  -1   -0.65    0.50
 -15   7   1    4.75    0.82
 -15   7   1    5.03    0.78
 -15  -7   1    5.06    1.02
 -15   7   0   -0.03    0.48
 -15   7   0    1.03    0.46
 -15  -7   0    0.58    0.65
 -16   0   2   -0.24    0.52
  16   0  -1    4.83    3.83
  16   0   0    2.57    3.43
  16   0   1    0.08    3.94
 -16   1   2   20.19    1.65
 -16  -1   2   20.99    1.78
  16  -1  -2   22.25    6.11
 -16   1   1    2.12    0.71
  16   1  -1   -5.45    2.51
 -16  -1   1    1.74    0.67
  16  -1  -1   -0.60    3.02
  16   1   0    3.03    3.55
 -16   1   0    1.39    0.62
 -16  -1   0    2.18    0.69
  16  -1   0    0.46    3.29
  16  -1   1    5.47    5.76
 -16   2   2   -0.08    0.53
 -16  -2   2   -0.76    0.51
  16  -2  -2    1.97    3.29
 -16   2   1    2.36    0.73
 -16  -2   1    2.05    0.79
  16  -2  -1    2.26    3.74
 -16   2   0   -0.53    0.45
 -16  -2   0   -0.69    0.54
  16  -2   0   -0.61    2.59
 -16   2  -1   51.96    2.71
 -16  -2  -1   52.26    2.81
  16  -2   1   41.78    6.59
 -16   3   2    1.79    0.73
 -16  -3   2    1.85    0.77
  16  -3  -2    3.54    3.31
 -16   3   1    3.16    0.77
  16  -3  -1    0.61    3.13
 -16  -3   1    1.56    0.81
 -16   3   0    3.94    0.83
 -16  -3   0    4.27    0.92
  16  -3   0    5.17    3.34
 -16   4   1    0.40    0.59
 -16  -4   1    0.06    0.48
  16  -4  -1    0.24    2.36
 -16   4   0   -0.04    0.39
 -16  -4   0    0.00    0.52
  16  -4   0    0.56    2.25
   0   0   0    0.00    0.00
;
_shelx_hkl_checksum              67829
loop_
_space_group_symop_operation_xyz
'x, y, z'
'-x, y+1/2, -z+1/2'
'-x, -y, -z'
'x, -y-1/2, z-1/2'
loop_
_atom_site_label
_atom_site_type_symbol
_atom_site_fract_x
_atom_site_fract_y
_atom_site_fract_z
_atom_site_U_iso_or_equiv
_atom_site_adp_type
_atom_site_occupancy
_atom_site_site_symmetry_order
_atom_site_calc_flag
_atom_site_refinement_flags_posn
_atom_site_refinement_flags_adp
_atom_site_refinement_flags_occupancy
_atom_site_disorder_assembly
_atom_site_disorder_group
Ba1 Ba 0.46530(6) 0.64642(5) 0.31719(11) 0.0289(2) Uani 1 1 d . . . . .
Ba3 Ba 0.00445(6) 0.84661(5) 0.15475(11) 0.02701(19) Uani 1 1 d . . . . .
Cd1 Cd 0.16900(7) 0.57560(7) 0.22147(13) 0.0313(2) Uani 1 1 d . U . . .
Y1 Y -0.26755(9) 0.67390(11) -0.02083(16) 0.0308(3) Uani 1 1 d . . . . .
Y2 Y 0.30283(10) 0.94814(9) 0.28036(17) 0.0281(3) Uani 1 1 d . . . . .
O1 O 0.4685(7) 0.9548(7) 0.2101(14) 0.038(2) Uani 1 1 d . . . . .
O2 O 0.3631(9) 1.0267(6) 0.5956(14) 0.044(2) Uani 1 1 d . . . . .
O3 O 0.1575(10) 1.0120(9) 0.4222(17) 0.061(3) Uani 1 1 d . . . . .
O4 O 0.2799(11) 0.8379(8) 0.5253(16) 0.059(3) Uani 1 1 d . U . . .
O6 O -0.3087(7) 0.6347(7) 0.3095(13) 0.034(2) Uani 1 1 d . U . . .
O7 O -0.2315(9) 0.6783(7) -0.3565(14) 0.046(2) Uani 1 1 d . . . . .
O8 O 0.1458(10) 0.7252(9) 0.4068(19) 0.063(3) Uani 1 1 d . U . . .
O10 O 0.3081(16) 0.6780(15) 0.558(3) 0.114(6) Uiso 1 1 d . U . . .
O11 O 0.2170(11) 0.4800(10) 0.4851(15) 0.072(4) Uani 1 1 d . U . . .
O12 O -0.0869(8) 0.6656(7) 0.0478(17) 0.046(2) Uani 1 1 d . U . . .
O13 O 0.0055(7) 0.5465(10) 0.2684(15) 0.055(3) Uani 1 1 d . U . . .
O14 O -0.4478(7) 0.6770(6) -0.0952(14) 0.0352(19) Uani 1 1 d . U . . .
B1 B 0.2408(11) 0.7511(11) 0.495(2) 0.029(2) Uani 1 1 d . U . . .
B3 B -0.2533(10) 0.6095(10) 0.4914(18) 0.025(3) Uani 1 1 d . U . . .
B4 B -0.0747(10) 0.5763(10) 0.1347(19) 0.023(2) Uani 1 1 d . U . . .
B5 B -0.4500(11) 0.5819(9) -0.165(2) 0.024(2) Uani 1 1 d . U . . .
loop_
_atom_site_aniso_label
_atom_site_aniso_U_11
_atom_site_aniso_U_22
_atom_site_aniso_U_33
_atom_site_aniso_U_23
_atom_site_aniso_U_13
_atom_site_aniso_U_12
Ba1 0.0328(4) 0.0338(4) 0.0210(3) -0.0053(3) 0.0069(3) -0.0138(3)
Ba3 0.0266(4) 0.0333(4) 0.0218(3) -0.0049(3) 0.0060(3) -0.0031(3)
Cd1 0.0337(5) 0.0415(5) 0.0187(4) 0.0012(4) 0.0026(3) -0.0122(4)
Y1 0.0186(5) 0.0602(8) 0.0138(5) -0.0097(5) 0.0029(4) -0.0090(5)
Y2 0.0379(7) 0.0319(6) 0.0152(5) -0.0049(4) 0.0069(4) -0.0179(5)
O1 0.038(5) 0.046(5) 0.030(5) 0.010(4) 0.008(4) 0.021(4)
O2 0.072(7) 0.025(4) 0.030(5) -0.003(4) -0.017(4) -0.009(4)
O3 0.068(7) 0.079(8) 0.041(6) 0.026(6) 0.026(5) 0.041(6)
O4 0.099(8) 0.045(5) 0.036(5) -0.004(4) 0.019(5) -0.032(5)
O6 0.029(4) 0.050(5) 0.023(4) 0.011(4) -0.004(3) 0.010(4)
O7 0.074(7) 0.046(5) 0.021(4) -0.007(4) 0.013(4) -0.028(5)
O8 0.062(3) 0.064(3) 0.063(3) -0.0003(10) 0.0048(10) -0.0007(10)
O11 0.105(9) 0.077(8) 0.029(5) 0.001(5) -0.018(5) 0.064(7)
O12 0.039(5) 0.038(5) 0.063(6) 0.014(4) 0.015(4) 0.008(4)
O13 0.020(4) 0.111(9) 0.034(5) 0.021(5) 0.005(3) 0.010(5)
O14 0.033(4) 0.030(4) 0.041(5) -0.008(4) -0.009(4) 0.003(3)
B1 0.030(3) 0.029(3) 0.029(3) 0.0003(9) 0.0031(9) 0.0003(9)
B3 0.024(6) 0.034(7) 0.015(5) -0.006(5) -0.002(4) 0.005(5)
B4 0.021(5) 0.030(5) 0.018(5) -0.005(4) 0.001(4) 0.005(4)
B5 0.031(6) 0.019(5) 0.022(6) 0.002(4) 0.001(5) -0.004(4)
loop_
_atom_type_symbol
_atom_type_description
_atom_type_scat_dispersion_real
_atom_type_scat_dispersion_imag
_atom_type_scat_source
B B 0.0013 0.0007 'International Tables Vol C Tables 4.2.6.8 and 6.1.1.4'
O O 0.0106 0.0060 'International Tables Vol C Tables 4.2.6.8 and 6.1.1.4'
Y Y -2.7962 3.5667 'International Tables Vol C Tables 4.2.6.8 and 6.1.1.4'
Cd Cd -0.8075 1.2024 'International Tables Vol C Tables 4.2.6.8 and 6.1.1.4'
Ba Ba -0.3244 2.2819 'International Tables Vol C Tables 4.2.6.8 and 6.1.1.4'
loop_
_geom_angle_atom_site_label_1
_geom_angle_atom_site_label_2
_geom_angle_atom_site_label_3
_geom_angle
_geom_angle_site_symmetry_1
_geom_angle_site_symmetry_3
_geom_angle_publ_flag
O10 Ba1 O14 92.7(5) . 4_676 ?
O10 Ba1 O1 116.0(5) . 2_645 ?
O14 Ba1 O1 137.9(3) 4_676 2_645 ?
O10 Ba1 O1 61.5(5) . 4_576 ?
O14 Ba1 O1 105.9(3) 4_676 4_576 ?
O1 Ba1 O1 67.5(3) 2_645 4_576 ?
O10 Ba1 O6 144.8(5) . 1_655 ?
O14 Ba1 O6 70.2(3) 4_676 1_655 ?
O1 Ba1 O6 68.7(3) 2_645 1_655 ?
O1 Ba1 O6 92.8(2) 4_576 1_655 ?
O10 Ba1 O4 75.8(5) . 4_575 ?
O14 Ba1 O4 111.4(3) 4_676 4_575 ?
O1 Ba1 O4 105.4(3) 2_645 4_575 ?
O1 Ba1 O4 123.7(3) 4_576 4_575 ?
O6 Ba1 O4 138.7(3) 1_655 4_575 ?
O10 Ba1 O14 147.7(5) . 1_655 ?
O14 Ba1 O14 83.3(3) 4_676 1_655 ?
O1 Ba1 O14 86.5(2) 2_645 1_655 ?
O1 Ba1 O14 150.2(3) 4_576 1_655 ?
O6 Ba1 O14 63.1(2) 1_655 1_655 ?
O4 Ba1 O14 75.9(3) 4_575 1_655 ?
O10 Ba1 O2 95.0(5) . 4_575 ?
O14 Ba1 O2 163.6(3) 4_676 4_575 ?
O1 Ba1 O2 48.9(3) 2_645 4_575 ?
O1 Ba1 O2 90.5(2) 4_576 4_575 ?
O6 Ba1 O2 109.8(3) 1_655 4_575 ?
O4 Ba1 O2 57.0(3) 4_575 4_575 ?
O14 Ba1 O2 82.4(3) 1_655 4_575 ?
O10 Ba1 B5 107.4(5) . 3_565 ?
O14 Ba1 B5 158.5(3) 4_676 3_565 ?
O1 Ba1 B5 24.0(3) 2_645 3_565 ?
O1 Ba1 B5 78.4(3) 4_576 3_565 ?
O6 Ba1 B5 88.6(3) 1_655 3_565 ?
O4 Ba1 B5 81.5(3) 4_575 3_565 ?
O14 Ba1 B5 83.5(3) 1_655 3_565 ?
O2 Ba1 B5 24.9(3) 4_575 3_565 ?
O10 Ba1 B1 20.6(5) . . ?
O14 Ba1 B1 84.0(3) 4_676 . ?
O1 Ba1 B1 132.5(3) 2_645 . ?
O1 Ba1 B1 81.9(3) 4_576 . ?
O6 Ba1 B1 151.3(3) 1_655 . ?
O4 Ba1 B1 62.4(3) 4_575 . ?
O14 Ba1 B1 127.7(3) 1_655 . ?
O2 Ba1 B1 98.5(3) 4_575 . ?
B5 Ba1 B1 117.5(3) 3_565 . ?
O10 Ba1 B5 149.6(5) . 1_655 ?
O14 Ba1 B5 105.1(3) 4_676 1_655 ?
O1 Ba1 B5 65.4(3) 2_645 1_655 ?
O1 Ba1 B5 132.6(3) 4_576 1_655 ?
O6 Ba1 B5 65.5(3) 1_655 1_655 ?
O4 Ba1 B5 74.8(3) 4_575 1_655 ?
O14 Ba1 B5 23.0(3) 1_655 1_655 ?
O2 Ba1 B5 62.1(3) 4_575 1_655 ?
B5 Ba1 B5 60.5(4) 3_565 1_655 ?
B1 Ba1 B5 136.4(3) . 1_655 ?
O10 Ba1 Cd1 50.8(4) . . ?
O14 Ba1 Cd1 129.1(2) 4_676 . ?
O1 Ba1 Cd1 92.84(18) 2_645 . ?
O1 Ba1 Cd1 87.66(17) 4_576 . ?
O6 Ba1 Cd1 159.61(19) 1_655 . ?
O4 Ba1 Cd1 36.0(2) 4_575 . ?
O14 Ba1 Cd1 108.78(17) 1_655 . ?
O2 Ba1 Cd1 49.8(2) 4_575 . ?
B5 Ba1 Cd1 71.5(2) 3_565 . ?
B1 Ba1 Cd1 48.9(2) . . ?
B5 Ba1 Cd1 99.5(2) 1_655 . ?
O8 Ba3 O13 120.5(3) 4_575 2 ?
O8 Ba3 O12 79.4(3) 4_575 . ?
O13 Ba3 O12 152.8(3) 2 . ?
O8 Ba3 O8 72.7(3) 4_575 . ?
O13 Ba3 O8 120.6(3) 2 . ?
O12 Ba3 O8 81.5(3) . . ?
O8 Ba3 O12 147.2(3) 4_575 4_576 ?
O13 Ba3 O12 82.7(3) 2 4_576 ?
O12 Ba3 O12 88.5(3) . 4_576 ?
O8 Ba3 O12 75.5(3) . 4_576 ?
O8 Ba3 O13 67.8(3) 4_575 4_575 ?
O13 Ba3 O13 70.0(3) 2 4_575 ?
O12 Ba3 O13 105.7(3) . 4_575 ?
O8 Ba3 O13 137.4(3) . 4_575 ?
O12 Ba3 O13 144.9(3) 4_576 4_575 ?
O8 Ba3 O7 131.2(3) 4_575 4_576 ?
O13 Ba3 O7 93.2(3) 2 4_576 ?
O12 Ba3 O7 60.2(3) . 4_576 ?
O8 Ba3 O7 121.7(3) . 4_576 ?
O12 Ba3 O7 62.5(3) 4_576 4_576 ?
O13 Ba3 O7 96.6(2) 4_575 4_576 ?
O8 Ba3 B3 123.8(3) 4_575 4_575 ?
O13 Ba3 B3 79.9(3) 2 4_575 ?
O12 Ba3 B3 73.3(3) . 4_575 ?
O8 Ba3 B3 145.2(3) . 4_575 ?
O12 Ba3 B3 80.2(3) 4_576 4_575 ?
O13 Ba3 B3 73.8(3) 4_575 4_575 ?
O7 Ba3 B3 23.6(3) 4_576 4_575 ?
O8 Ba3 B4 153.2(3) 4_575 4_576 ?
O13 Ba3 B4 61.6(3) 2 4_576 ?
O12 Ba3 B4 109.9(3) . 4_576 ?
O8 Ba3 B4 83.7(3) . 4_576 ?
O12 Ba3 B4 21.8(3) 4_576 4_576 ?
O13 Ba3 B4 129.1(3) 4_575 4_576 ?
O7 Ba3 B4 72.1(3) 4_576 4_576 ?
B3 Ba3 B4 82.9(3) 4_575 4_576 ?
O8 Ba3 Cd1 39.2(3) 4_575 4_575 ?
O13 Ba3 Cd1 83.7(2) 2 4_575 ?
O12 Ba3 Cd1 108.3(2) . 4_575 ?
O8 Ba3 Cd1 102.8(3) . 4_575 ?
O12 Ba3 Cd1 162.84(19) 4_576 4_575 ?
O13 Ba3 Cd1 34.72(19) 4_575 4_575 ?
O7 Ba3 Cd1 128.87(17) 4_576 4_575 ?
B3 Ba3 Cd1 107.6(2) 4_575 4_575 ?
B4 Ba3 Cd1 141.9(2) 4_576 4_575 ?
O8 Ba3 Cd1 145.3(3) 4_575 2 ?
O13 Ba3 Cd1 31.85(19) 2 2 ?
O12 Ba3 Cd1 121.7(2) . 2 ?
O8 Ba3 Cd1 133.1(3) . 2 ?
O12 Ba3 Cd1 66.1(2) 4_576 2 ?
O13 Ba3 Cd1 79.3(2) 4_575 2 ?
O7 Ba3 Cd1 61.52(19) 4_576 2 ?
B3 Ba3 Cd1 52.0(2) 4_575 2 ?
B4 Ba3 Cd1 51.2(2) 4_576 2 ?
Cd1 Ba3 Cd1 106.19(2) 4_575 2 ?
O8 Ba3 Y2 65.3(3) 4_575 . ?
O13 Ba3 Y2 71.59(19) 2 . ?
O12 Ba3 Y2 135.6(2) . . ?
O8 Ba3 Y2 63.5(3) . . ?
O12 Ba3 Y2 106.7(2) 4_576 . ?
O13 Ba3 Y2 85.64(19) 4_575 . ?
O7 Ba3 Y2 162.87(19) 4_576 . ?
B3 Ba3 Y2 149.2(2) 4_575 . ?
B4 Ba3 Y2 93.2(2) 4_576 . ?
Cd1 Ba3 Y2 58.82(2) 4_575 . ?
Cd1 Ba3 Y2 102.52(3) 2 . ?
O13 Cd1 O11 89.4(5) . . ?
O13 Cd1 O3 91.6(4) . 4_575 ?
O11 Cd1 O3 109.6(5) . 4_575 ?
O13 Cd1 O4 144.4(4) . 4_575 ?
O11 Cd1 O4 126.1(5) . 4_575 ?
O3 Cd1 O4 78.7(4) 4_575 4_575 ?
O13 Cd1 O8 85.8(5) . . ?
O11 Cd1 O8 99.4(4) . . ?
O3 Cd1 O8 150.8(5) 4_575 . ?
O4 Cd1 O8 86.6(4) 4_575 . ?
O13 Cd1 Y2 130.2(3) . 4_575 ?
O11 Cd1 Y2 117.2(3) . 4_575 ?
O3 Cd1 Y2 41.4(3) 4_575 4_575 ?
O4 Cd1 Y2 39.4(3) 4_575 4_575 ?
O8 Cd1 Y2 125.4(3) . 4_575 ?
O13 Cd1 Ba3 49.4(3) . 4_576 ?
O11 Cd1 Ba3 74.5(3) . 4_576 ?
O3 Cd1 Ba3 141.0(3) 4_575 4_576 ?
O4 Cd1 Ba3 131.6(3) 4_575 4_576 ?
O8 Cd1 Ba3 45.1(3) . 4_576 ?
Y2 Cd1 Ba3 167.79(4) 4_575 4_576 ?
O13 Cd1 Ba1 162.5(3) . . ?
O11 Cd1 Ba1 79.9(4) . . ?
O3 Cd1 Ba1 104.9(3) 4_575 . ?
O4 Cd1 Ba1 47.7(3) 4_575 . ?
O8 Cd1 Ba1 82.4(3) . . ?
Y2 Cd1 Ba1 67.25(3) 4_575 . ?
Ba3 Cd1 Ba1 113.81(3) 4_576 . ?
O13 Cd1 Ba3 42.8(3) . 2_545 ?
O11 Cd1 Ba3 59.5(4) . 2_545 ?
O3 Cd1 Ba3 75.8(3) 4_575 2_545 ?
O4 Cd1 Ba3 153.9(3) 4_575 2_545 ?
O8 Cd1 Ba3 118.8(3) . 2_545 ?
Y2 Cd1 Ba3 114.49(3) 4_575 2_545 ?
Ba3 Cd1 Ba3 73.81(2) 4_576 2_545 ?
Ba1 Cd1 Ba3 135.71(3) . 2_545 ?
O7 Y1 O6 167.9(4) . . ?
O7 Y1 O14 94.7(4) . . ?
O6 Y1 O14 83.9(3) . . ?
O7 Y1 O12 84.4(4) . . ?
O6 Y1 O12 96.6(3) . . ?
O14 Y1 O12 178.0(3) . . ?
O7 Y1 O7 111.5(3) . 4_576 ?
O6 Y1 O7 80.4(3) . 4_576 ?
O14 Y1 O7 103.5(3) . 4_576 ?
O12 Y1 O7 78.5(4) . 4_576 ?
O7 Y1 O2 88.4(3) . 2_545 ?
O6 Y1 O2 80.6(3) . 2_545 ?
O14 Y1 O2 59.4(3) . 2_545 ?
O12 Y1 O2 118.7(3) . 2_545 ?
O7 Y1 O2 155.7(4) 4_576 2_545 ?
O7 Y1 O3 96.0(4) . 2_545 ?
O6 Y1 O3 75.1(3) . 2_545 ?
O14 Y1 O3 123.9(3) . 2_545 ?
O12 Y1 O3 54.5(3) . 2_545 ?
O7 Y1 O3 122.6(3) 4_576 2_545 ?
O2 Y1 O3 66.0(3) 2_545 2_545 ?
O7 Y1 B5 85.6(4) . . ?
O6 Y1 B5 87.3(4) . . ?
O14 Y1 B5 30.2(3) . . ?
O12 Y1 B5 147.8(4) . . ?
O7 Y1 B5 133.5(4) 4_576 . ?
O2 Y1 B5 30.4(3) 2_545 . ?
O3 Y1 B5 96.4(4) 2_545 . ?
O7 Y1 O6 69.9(3) . 4_575 ?
O6 Y1 O6 121.1(3) . 4_575 ?
O14 Y1 O6 76.0(3) . 4_575 ?
O12 Y1 O6 105.3(3) . 4_575 ?
O7 Y1 O6 52.9(3) 4_576 4_575 ?
O2 Y1 O6 128.5(3) 2_545 4_575 ?
O3 Y1 O6 157.5(3) 2_545 4_575 ?
B5 Y1 O6 99.8(3) . 4_575 ?
O7 Y1 B4 96.2(4) . . ?
O6 Y1 B4 80.0(3) . . ?
O14 Y1 B4 151.6(4) . . ?
O12 Y1 B4 27.1(3) . . ?
O7 Y1 B4 96.8(4) 4_576 . ?
O2 Y1 B4 94.7(3) 2_545 . ?
O3 Y1 B4 28.7(3) 2_545 . ?
B5 Y1 B4 125.0(4) . . ?
O6 Y1 B4 132.4(3) 4_575 . ?
O7 Y1 B3 88.9(3) . 4_575 ?
O6 Y1 B3 103.1(3) . 4_575 ?
O14 Y1 B3 92.6(3) . 4_575 ?
O12 Y1 B3 89.3(3) . 4_575 ?
O7 Y1 B3 26.4(3) 4_576 4_575 ?
O2 Y1 B3 151.5(3) 2_545 4_575 ?
O3 Y1 B3 142.5(3) 2_545 4_575 ?
B5 Y1 B3 121.1(4) . 4_575 ?
O6 Y1 B3 26.8(3) 4_575 4_575 ?
B4 Y1 B3 113.8(4) . 4_575 ?
O7 Y1 Y2 119.5(3) . 2_545 ?
O6 Y1 Y2 48.5(2) . 2_545 ?
O14 Y1 Y2 86.8(2) . 2_545 ?
O12 Y1 Y2 92.0(2) . 2_545 ?
O7 Y1 Y2 126.8(2) 4_576 2_545 ?
O2 Y1 Y2 42.2(2) 2_545 2_545 ?
O3 Y1 Y2 41.1(2) 2_545 2_545 ?
B5 Y1 Y2 66.8(3) . 2_545 ?
O6 Y1 Y2 161.40(18) 4_575 2_545 ?
B4 Y1 Y2 65.0(3) . 2_545 ?
B3 Y1 Y2 151.5(2) 4_575 2_545 ?
O1 Y2 O4 111.2(4) . . ?
O1 Y2 O10 79.6(6) . 4_575 ?
O4 Y2 O10 86.6(6) . 4_575 ?
O1 Y2 O3 152.0(5) . . ?
O4 Y2 O3 79.5(4) . . ?
O10 Y2 O3 127.8(6) 4_575 . ?
O1 Y2 O11 101.9(4) . 4_575 ?
O4 Y2 O11 141.8(4) . 4_575 ?
O10 Y2 O11 81.0(6) 4_575 4_575 ?
O3 Y2 O11 80.0(5) . 4_575 ?
O1 Y2 O2 84.9(4) . . ?
O4 Y2 O2 75.7(3) . . ?
O10 Y2 O2 150.5(6) 4_575 . ?
O3 Y2 O2 72.5(4) . . ?
O11 Y2 O2 127.0(4) 4_575 . ?
O1 Y2 O6 82.4(3) . 2 ?
O4 Y2 O6 145.8(3) . 2 ?
O10 Y2 O6 127.3(5) 4_575 2 ?
O3 Y2 O6 75.9(4) . 2 ?
O11 Y2 O6 55.1(3) 4_575 2 ?
O2 Y2 O6 74.5(3) . 2 ?
O1 Y2 B3 90.4(3) . 2 ?
O4 Y2 B3 157.8(4) . 2 ?
O10 Y2 B3 102.9(6) 4_575 2 ?
O3 Y2 B3 78.8(4) . 2 ?
O11 Y2 B3 27.0(4) 4_575 2 ?
O2 Y2 B3 102.2(3) . 2 ?
O6 Y2 B3 28.3(3) 2 2 ?
O1 Y2 Cd1 136.4(2) . 4_576 ?
O4 Y2 Cd1 41.2(3) . 4_576 ?
O10 Y2 Cd1 119.6(5) 4_575 4_576 ?
O3 Y2 Cd1 40.5(2) . 4_576 ?
O11 Y2 Cd1 118.8(4) 4_575 4_576 ?
O2 Y2 Cd1 58.9(3) . 4_576 ?
O6 Y2 Cd1 107.38(19) 2 4_576 ?
B3 Y2 Cd1 118.6(3) 2 4_576 ?
O1 Y2 Y1 102.5(3) . 2 ?
O4 Y2 Y1 104.9(3) . 2 ?
O10 Y2 Y1 166.3(5) 4_575 2 ?
O3 Y2 Y1 49.6(4) . 2 ?
O11 Y2 Y1 85.3(3) 4_575 2 ?
O2 Y2 Y1 42.6(2) . 2 ?
O6 Y2 Y1 40.92(18) 2 2 ?
B3 Y2 Y1 63.7(3) 2 2 ?
Cd1 Y2 Y1 68.21(3) 4_576 2 ?
O1 Y2 Ba1 44.8(2) . 4_575 ?
O4 Y2 Ba1 114.7(3) . 4_575 ?
O10 Y2 Ba1 39.6(5) 4_575 4_575 ?
O3 Y2 Ba1 154.8(3) . 4_575 ?
O11 Y2 Ba1 76.4(4) 4_575 4_575 ?
O2 Y2 Ba1 129.7(3) . 4_575 ?
O6 Y2 Ba1 97.21(19) 2 4_575 ?
B3 Y2 Ba1 84.0(3) 2 4_575 ?
Cd1 Y2 Ba1 155.38(4) 4_576 4_575 ?
Y1 Y2 Ba1 135.33(4) 2 4_575 ?
O1 Y2 Ba3 150.6(3) . . ?
O4 Y2 Ba3 74.4(3) . . ?
O10 Y2 Ba3 71.8(5) 4_575 . ?
O3 Y2 Ba3 55.9(4) . . ?
O11 Y2 Ba3 67.5(3) 4_575 . ?
O2 Y2 Ba3 123.7(3) . . ?
O6 Y2 Ba3 109.51(19) 2 . ?
B3 Y2 Ba3 89.4(3) 2 . ?
Cd1 Y2 Ba3 67.16(3) 4_576 . ?
Y1 Y2 Ba3 103.72(4) 2 . ?
Ba1 Y2 Ba3 106.04(3) 4_575 . ?
B5 O1 Y2 124.3(8) 4_676 . ?
B5 O1 Ba1 99.7(7) 4_676 2_655 ?
Y2 O1 Ba1 110.8(3) . 2_655 ?
B5 O1 Ba1 107.1(7) 4_676 4_575 ?
Y2 O1 Ba1 102.7(4) . 4_575 ?
Ba1 O1 Ba1 112.5(3) 2_655 4_575 ?
B5 O2 Y2 135.9(9) 2 . ?
B5 O2 Y1 89.0(7) 2 2 ?
Y2 O2 Y1 95.2(3) . 2 ?
B5 O2 Ba1 88.7(7) 2 4_576 ?
Y2 O2 Ba1 98.2(3) . 4_576 ?
Y1 O2 Ba1 163.0(4) 2 4_576 ?
B4 O3 Cd1 123.3(8) 2 4_576 ?
B4 O3 Y2 138.5(8) 2 . ?
Cd1 O3 Y2 98.0(4) 4_576 . ?
B4 O3 Y1 84.7(8) 2 2 ?
Cd1 O3 Y1 104.1(5) 4_576 2 ?
Y2 O3 Y1 89.3(4) . 2 ?
B1 O4 Y2 126.2(9) . . ?
B1 O4 Cd1 107.9(9) . 4_576 ?
Y2 O4 Cd1 99.4(5) . 4_576 ?
B1 O4 Ba1 116.4(10) . 4_576 ?
Y2 O4 Ba1 105.1(4) . 4_576 ?
Cd1 O4 Ba1 96.3(3) 4_576 4_576 ?
B3 O6 Y1 135.6(8) . . ?
B3 O6 Y2 85.4(7) . 2_545 ?
Y1 O6 Y2 90.6(3) . 2_545 ?
B3 O6 Y1 80.8(7) . 4_576 ?
Y1 O6 Y1 95.2(3) . 4_576 ?
Y2 O6 Y1 165.0(3) 2_545 4_576 ?
B3 O6 Ba1 116.3(7) . 1_455 ?
Y1 O6 Ba1 108.1(3) . 1_455 ?
Y2 O6 Ba1 96.0(3) 2_545 1_455 ?
Y1 O6 Ba1 95.3(3) 4_576 1_455 ?
B3 O7 Y1 128.5(8) 1_554 . ?
B3 O7 Y1 104.8(8) 1_554 4_575 ?
Y1 O7 Y1 114.5(4) . 4_575 ?
B3 O7 Ba3 94.5(8) 1_554 4_575 ?
Y1 O7 Ba3 105.0(4) . 4_575 ?
Y1 O7 Ba3 105.5(3) 4_575 4_575 ?
B1 O8 Cd1 107.0(9) . . ?
B1 O8 Ba3 118.0(9) . 4_576 ?
Cd1 O8 Ba3 95.7(4) . 4_576 ?
B1 O8 Ba3 126.1(10) . . ?
Cd1 O8 Ba3 108.3(4) . . ?
Ba3 O8 Ba3 97.4(4) 4_576 . ?
B1 O10 Y2 134.8(14) . 4_576 ?
B1 O10 Ba1 115.6(12) . . ?
Y2 O10 Ba1 108.0(8) 4_576 . ?
B3 O11 Cd1 136.0(9) 3_566 . ?
B3 O11 Y2 99.5(7) 3_566 4_576 ?
Cd1 O11 Y2 117.4(6) . 4_576 ?
B4 O12 Y1 101.7(8) . . ?
B4 O12 Ba3 132.2(8) . . ?
Y1 O12 Ba3 112.9(4) . . ?
B4 O12 Ba3 105.7(7) . 4_575 ?
Y1 O12 Ba3 107.8(4) . 4_575 ?
Ba3 O12 Ba3 94.4(3) . 4_575 ?
B4 O13 Cd1 122.8(8) . . ?
B4 O13 Ba3 111.6(9) . 2_545 ?
Cd1 O13 Ba3 105.3(4) . 2_545 ?
B4 O13 Ba3 109.8(8) . 4_576 ?
Cd1 O13 Ba3 95.9(4) . 4_576 ?
Ba3 O13 Ba3 110.0(3) 2_545 4_576 ?
B5 O14 Y1 92.4(7) . . ?
B5 O14 Ba1 141.5(7) . 4_475 ?
Y1 O14 Ba1 116.3(3) . 4_475 ?
B5 O14 Ba1 99.2(7) . 1_455 ?
Y1 O14 Ba1 104.5(3) . 1_455 ?
Ba1 O14 Ba1 97.7(3) 4_475 1_455 ?
O4 B1 O8 128.8(14) . . ?
O4 B1 O10 114.1(15) . . ?
O8 B1 O10 117.1(15) . . ?
O4 B1 Ba1 96.4(9) . . ?
O8 B1 Ba1 119.2(9) . . ?
O10 B1 Ba1 43.8(10) . . ?
O11 B3 O6 119.2(11) 3_566 . ?
O11 B3 O7 120.8(11) 3_566 1_556 ?
O6 B3 O7 119.9(12) . 1_556 ?
O11 B3 Y2 53.5(7) 3_566 2_545 ?
O6 B3 Y2 66.3(6) . 2_545 ?
O7 B3 Y2 172.2(9) 1_556 2_545 ?
O11 B3 Y1 162.5(10) 3_566 4_576 ?
O6 B3 Y1 72.4(7) . 4_576 ?
O7 B3 Y1 48.7(6) 1_556 4_576 ?
Y2 B3 Y1 138.3(4) 2_545 4_576 ?
O11 B3 Ba3 79.0(9) 3_566 4_576 ?
O6 B3 Ba3 129.4(8) . 4_576 ?
O7 B3 Ba3 61.9(7) 1_556 4_576 ?
Y2 B3 Ba3 118.7(4) 2_545 4_576 ?
Y1 B3 Ba3 83.5(3) 4_576 4_576 ?
O13 B4 O12 126.6(12) . . ?
O13 B4 O3 119.5(13) . 2_545 ?
O12 B4 O3 113.9(11) . 2_545 ?
O13 B4 Y1 159.7(9) . . ?
O12 B4 Y1 51.2(6) . . ?
O3 B4 Y1 66.6(8) 2_545 . ?
O13 B4 Ba3 113.4(8) . 4_575 ?
O12 B4 Ba3 52.5(6) . 4_575 ?
O3 B4 Ba3 103.1(7) 2_545 4_575 ?
Y1 B4 Ba3 81.7(3) . 4_575 ?
O1 B5 O14 122.6(11) 4_475 . ?
O1 B5 O2 122.7(11) 4_475 2_545 ?
O14 B5 O2 114.7(10) . 2_545 ?
O1 B5 Y1 163.5(9) 4_475 . ?
O14 B5 Y1 57.3(6) . . ?
O2 B5 Y1 60.6(6) 2_545 . ?
O1 B5 Ba1 56.3(6) 4_475 3_565 ?
O14 B5 Ba1 177.1(9) . 3_565 ?
O2 B5 Ba1 66.4(6) 2_545 3_565 ?
Y1 B5 Ba1 124.6(5) . 3_565 ?
O1 B5 Ba1 110.0(8) 4_475 1_455 ?
O14 B5 Ba1 57.9(6) . 1_455 ?
O2 B5 Ba1 98.7(7) 2_545 1_455 ?
Y1 B5 Ba1 84.2(3) . 1_455 ?
Ba1 B5 Ba1 119.5(4) 3_565 1_455 ?
loop_
_geom_bond_atom_site_label_1
_geom_bond_atom_site_label_2
_geom_bond_distance
_geom_bond_site_symmetry_2
_geom_bond_publ_flag
Ba1 O10 2.66(2) . ?
Ba1 O14 2.694(9) 4_676 ?
Ba1 O1 2.762(10) 2_645 ?
Ba1 O1 2.874(9) 4_576 ?
Ba1 O6 2.879(9) 1_655 ?
Ba1 O4 2.888(13) 4_575 ?
Ba1 O14 2.985(10) 1_655 ?
Ba1 O2 3.000(9) 4_575 ?
Ba1 B5 3.272(12) 3_565 ?
Ba1 B1 3.471(14) . ?
Ba1 B5 3.479(13) 1_655 ?
Ba1 Cd1 3.8835(13) . ?
Ba3 O8 2.686(13) 4_575 ?
Ba3 O13 2.782(13) 2 ?
Ba3 O12 2.795(10) . ?
Ba3 O8 2.846(13) . ?
Ba3 O12 2.872(11) 4_576 ?
Ba3 O13 2.880(12) 4_575 ?
Ba3 O7 3.011(12) 4_576 ?
Ba3 B3 3.404(12) 4_575 ?
Ba3 B4 3.486(13) 4_576 ?
Ba3 Cd1 3.7736(12) 4_575 ?
Ba3 Cd1 3.9484(12) 2 ?
Ba3 Y2 4.0517(14) . ?
Cd1 O13 2.161(9) . ?
Cd1 O11 2.183(10) . ?
Cd1 O3 2.259(10) 4_575 ?
Cd1 O4 2.297(12) 4_575 ?
Cd1 O8 2.397(13) . ?
Cd1 Y2 3.4417(15) 4_575 ?
Y1 O7 2.242(9) . ?
Y1 O6 2.291(8) . ?
Y1 O14 2.298(9) . ?
Y1 O12 2.301(10) . ?
Y1 O7 2.307(11) 4_576 ?
Y1 O2 2.377(10) 2_545 ?
Y1 O3 2.665(15) 2_545 ?
Y1 B5 2.728(13) . ?
Y1 O6 2.865(10) 4_575 ?
Y1 B4 2.891(12) . ?
Y1 B3 2.968(14) 4_575 ?
Y1 Y2 3.4976(19) 2_545 ?
Y2 O1 2.192(9) . ?
Y2 O4 2.216(10) . ?
Y2 O10 2.24(2) 4_575 ?
Y2 O3 2.300(10) . ?
Y2 O11 2.322(12) 4_575 ?
Y2 O2 2.361(8) . ?
Y2 O6 2.618(10) 2 ?
Y2 B3 2.849(13) 2 ?
O1 B5 1.350(15) 4_676 ?
O2 B5 1.379(16) 2 ?
O3 B4 1.394(16) 2 ?
O4 B1 1.295(17) . ?
O6 B3 1.355(14) . ?
O7 B3 1.367(15) 1_554 ?
O8 B1 1.337(18) . ?
O10 B1 1.35(2) . ?
O11 B3 1.312(18) 3_566 ?
O12 B4 1.346(16) . ?
O13 B4 1.338(15) . ?
O14 B5 1.375(15) . ?
