#------------------------------------------------------------------------------
#$Date: 2021-09-06 14:23:15 +0300 (Mon, 06 Sep 2021) $
#$Revision: 268798 $
#$URL: file:///home/coder/svn-repositories/cod/cif/7/70/77/7707798.cif $
#------------------------------------------------------------------------------
#
# This file is available in the Crystallography Open Database (COD),
# http://www.crystallography.net/
#
# All data on this site have been placed in the public domain by the
# contributors.
#
data_7707798
loop_
_publ_author_name
'Lipina, Olga A.'
'Surat, Ludmila L.'
'Chufarov, Alexander Yu'
'Tyutyunnik, Alexander P.'
'Enyashin, Andrey N.'
'Baklanova, Yana V.'
'Chvanova, Anastasia V.'
'Mironov, Leonid Yu'
'Belova, Ksenia G.'
'Zubkov, Vladimir G.'
_publ_section_title
;
 Structural and spectroscopic characterization of a new series of
 Ba<sub>2</sub>RE<sub>2</sub>Ge<sub>4</sub>O<sub>13</sub> (RE = Pr, Nd,
 Gd, and Dy) and
 Ba<sub>2</sub>Gd<sub>2-x</sub>Eu<sub>x</sub>Ge<sub>4</sub>O<sub>13</sub>
 tetragermanates.
;
_journal_issue                   31
_journal_name_full
'Dalton transactions (Cambridge, England : 2003)'
_journal_page_first              10935
_journal_page_last               10946
_journal_paper_doi               10.1039/d1dt01780b
_journal_volume                  50
_journal_year                    2021
_chemical_formula_structural     'Ba2 Pr2 Ge4 O13'
_chemical_formula_sum            'Ba2 Ge4 O13 Pr2'
_chemical_formula_weight         1054.82
_chemical_name_common            'Barium Praseodymium Germanate'
_chemical_name_systematic        'Dibarium dipraseodymium(III) tetragermanate'
_space_group_IT_number           15
_space_group_name_Hall           '-C 2yc'
_space_group_name_H-M_alt        'C 1 2/c 1'
_symmetry_cell_setting           monoclinic
_symmetry_space_group_name_Hall  '-C 2yc'
_symmetry_space_group_name_H-M   'C 1 2/c 1'
_audit_creation_date             2021-05-26T14:29
_audit_creation_method           'from EXP file using GSAS2CIF'
_audit_update_record
' 2021-05-26T14:29  Initial CIF as created by GSAS2CIF'
_cell_angle_alpha                90.0
_cell_angle_beta                 105.4404(7)
_cell_angle_gamma                90.0
_cell_formula_units_Z            4
_cell_length_a                   13.28238(16)
_cell_length_b                   5.42142(7)
_cell_length_c                   18.05076(26)
_cell_measurement_temperature    298(2)
_cell_volume                     1252.91(3)
_computing_data_collection
'STOE Powder Software Package (STOE, Germany)'
_computing_data_reduction
'STOE Powder Software Package (STOE, Germany)'
_computing_molecular_graphics    'VESTA Ver. 3.4.4'
_computing_structure_refinement  GSAS
_computing_structure_solution
'GSAS (A.C. Larson and R.B. Von Dreele, 2004), EXPGUI (Toby, B.H., 2001)'
_diffrn_ambient_temperature      298
_diffrn_detector                 'position sensitive detector'
_diffrn_detector_type            'linear mini-PSD (STOE)'
_diffrn_measurement_device_type  'transmission diffractometer Stadi-P (STOE)'
_diffrn_radiation_monochromator  'Primary, curved Ge 111'
_diffrn_radiation_polarisn_ratio 0.8
_diffrn_radiation_probe          x-ray
_diffrn_radiation_type           'Cu K\a~1~'
_diffrn_radiation_wavelength     1.54056
_diffrn_source                   'sealed X-ray tube'
_diffrn_source_target            Cu
_diffrn_source_type              'PHILIPS PW 2283/20'
_exptl_absorpt_correction_T_max  2.09072
_exptl_absorpt_correction_T_min  1.40592
_exptl_absorpt_process_details
;   GSAS Absorption/surface roughness correction: function number 4
 Flat plate transmission absorption correction
Terms =    -0.22028         0.0000    
Correction is not refined.
;
_exptl_crystal_density_diffrn    5.592
_exptl_crystal_density_method    'not measured'
_pd_block_id                     2021-05-26T14:29|BA2PR2GE4O13|Chufarov|Stadi-P
_pd_calc_method                  'Rietveld Refinement'
_pd_char_colour                  white
_pd_instr_dist_mono/spec         130
_pd_instr_dist_spec/detc         220
_pd_instr_dist_src/mono          260
_pd_instr_location               ' ?'
_pd_meas_2theta_range_inc        0.02
_pd_meas_2theta_range_max        119.98
_pd_meas_2theta_range_min        5.0
_pd_meas_number_of_points        5750
_pd_meas_scan_method             step
_pd_phase_name                   BA2PR2GE4O13
_pd_proc_2theta_range_inc        0.02
_pd_proc_2theta_range_max        119.96308
_pd_proc_2theta_range_min        4.98308
_pd_proc_info_datetime           2021-05-26T14:29:33
_pd_proc_info_excluded_regions   ' ?'
_pd_proc_ls_background_function
;   GSAS Background function number 1 with 16 terms.
 Shifted Chebyshev function of 1st kind
      1:    3879.15     2:   -2826.74     3:    1156.04     4:   -738.216    
      5:    209.786     6:   -22.3072     7:   -19.9144     8:    1.21828    
      9:    13.6987    10:   -30.5536    11:    38.3649    12:   -22.5625    
     13:    6.98545    14:   0.847730    15:    1.05683    16:   -5.89515    
;
_pd_proc_ls_peak_cutoff          0.00100
_pd_proc_ls_profile_function
;
 CW Profile function number 3 with  19 terms
 Pseudovoigt profile coefficients as parameterized in
 P. Thompson, D.E. Cox & J.B. Hastings (1987). J. Appl. Cryst.,20,79-83.
 Asymmetry correction of L.W. Finger, D.E. Cox & A. P. Jephcoat (1994).
 J. Appl. Cryst.,27,892-900.
 #1(GU)   =   75.579 #2(GV)   =    0.000 #3(GW)   =   21.566
 #4(GP)   =    0.000 #5(LX)   =    2.578 #6(LY)   =    8.732
 #7(S/L)  =   0.0230 #8(H/L)  =   0.0230
 #9(trns) =     0.00 #10(shft)=   0.0000
 #11(stec)=     9.70 #12(ptec)=    -2.13 #13(sfec)=     0.00
 #14(L11) =    0.033 #15(L22) =    0.142 #16(L33) =    0.014
 #17(L12) =   -0.048 #18(L13) =    0.026 #19(L23) =   -0.037
 Peak tails are ignored  where the intensity is below 0.0010 times the peak
   Aniso. broadening axis   0.0   0.0   1.0
;
_pd_proc_ls_prof_R_factor        0.0155
_pd_proc_ls_prof_wR_expected     0.0155
_pd_proc_ls_prof_wR_factor       0.0198
_pd_proc_number_of_points        5750
_pd_spec_mounting                'powder on Mylar film'
_pd_spec_mount_mode              transmission
_pd_spec_shape                   flat_sheet
_pd_spec_size_axial              7
_pd_spec_size_equat              0.1
_refine_ls_goodness_of_fit_all   1.29
_refine_ls_matrix_type           full
_refine_ls_number_parameters     69
_refine_ls_number_restraints     0
_refine_ls_R_Fsqd_factor         0.02024
_refine_ls_shift/su_max          0.04
_refine_ls_shift/su_mean         0.00
_reflns_d_resolution_high        0.890
_reflns_d_resolution_low         8.700
_reflns_limit_h_max              15
_reflns_limit_h_min              0
_reflns_limit_k_max              6
_reflns_limit_k_min              0
_reflns_limit_l_max              20
_reflns_limit_l_min              -20
_reflns_number_total             923
_cod_data_source_file            d1dt01780b4.cif
_cod_data_source_block           BA2PR2GE4O13_publ
_cod_depositor_comments
;
The following automatic conversions were performed:

data item '_geom_angle_publ_flag' value 'N' was changed to 'n' in
accordance with the
/home/data/users/saulius/crontab/automatic-downloads/rss-feeds/RSC/lib/dictionaries/cif_core.dic
dictionary named 'cif_core.dic' version 2.4.2 last updated on
2011-04-26 (63 times).

data item '_geom_bond_publ_flag' value 'N' was changed to 'n' in
accordance with the
/home/data/users/saulius/crontab/automatic-downloads/rss-feeds/RSC/lib/dictionaries/cif_core.dic
dictionary named 'cif_core.dic' version 2.4.2 last updated on
2011-04-26 (27 times).

Automatic conversion script
Id: cif_fix_values 7556 2019-12-06 15:28:31Z antanas 

 Adding full bibliography for 7707798.cif.
;
_cod_original_cell_volume        1252.91(4)
_cod_database_code               7707798
_gsas_exptl_extinct_corr_t_min   1.00000
_gsas_exptl_extinct_corr_t_max   1.00000
loop_
_symmetry_equiv_pos_site_id
_symmetry_equiv_pos_as_xyz
1 +x,+y,+z
2 -x,+y,-z+1/2
-1 -x,-y,-z
-2 +x,-y,+z+1/2
101 +x+1/2,+y+1/2,+z
102 -x+1/2,+y+1/2,-z+1/2
-101 -x+1/2,-y+1/2,-z
-102 +x+1/2,-y+1/2,+z+1/2
loop_
_atom_site_type_symbol
_atom_site_label
_atom_site_fract_x
_atom_site_fract_y
_atom_site_fract_z
_atom_site_occupancy
_atom_site_thermal_displace_type
_atom_site_U_iso_or_equiv
_atom_site_symmetry_multiplicity
Ba Ba 0.15698(10) 0.5035(5) 0.33231(7) 1.0 Uiso 0.0263(6) 8
Pr Pr 0.11713(10) 0.5112(4) 0.08758(7) 1.0 Uiso 0.0249(6) 8
Ge Ge1 0.06606(18) 0.0463(7) 0.18570(15) 1.0 Uiso 0.0243(10) 8
Ge Ge2 -0.11945(22) -0.0312(8) 0.04059(15) 1.0 Uiso 0.0233(9) 8
O O1 0.0752(11) -0.2727(25) 0.1921(9) 1.0 Uiso 0.022(5) 8
O O2 0.1749(11) 0.2338(21) 0.1990(8) 1.0 Uiso 0.017(5) 8
O O3 0.0 0.1803(33) 0.25 1.0 Uiso 0.018(6) 4
O O4 -0.0178(11) 0.1732(22) 0.0951(7) 1.0 Uiso 0.014(4) 8
O O5 -0.1620(10) 0.1023(23) -0.0482(8) 1.0 Uiso 0.027(5) 8
O O6 -0.2037(8) -0.0428(34) 0.0983(6) 1.0 Uiso 0.028(5) 8
O O7 -0.0669(9) -0.3419(24) 0.0346(7) 1.0 Uiso 0.022(5) 8
loop_
_atom_type_symbol
_atom_type_number_in_cell
_atom_type_scat_dispersion_real
_atom_type_scat_dispersion_imag
_atom_type_scat_Cromer_Mann_a1
_atom_type_scat_Cromer_Mann_a2
_atom_type_scat_Cromer_Mann_a3
_atom_type_scat_Cromer_Mann_a4
_atom_type_scat_Cromer_Mann_b1
_atom_type_scat_Cromer_Mann_b2
_atom_type_scat_Cromer_Mann_b3
_atom_type_scat_Cromer_Mann_b4
_atom_type_scat_Cromer_Mann_c
_atom_type_scat_source
Ba 8.0 0.000 0.000 20.3361 3.21600 19.2970 0.27560 10.8880 20.2073 2.69590
167.202 2.77310 International_Tables_Vol_C
Pr 8.0 0.000 0.000 22.0440 2.77393 19.6697 0.22209 12.3856 16.7669 2.82428
143.644 2.05830 International_Tables_Vol_C
Ge 16.0 0.000 0.000 16.0816 2.85090 6.37470 0.25160 3.70680 11.4468 3.68300
54.7625 2.13130 International_Tables_Vol_C
O 52.0 0.000 0.000 3.04850 13.2771 2.28680 5.70110 1.54630 0.32390 0.86700
32.9089 0.25080 International_Tables_Vol_C
loop_
_geom_angle_atom_site_label_1
_geom_angle_atom_site_label_2
_geom_angle_atom_site_label_3
_geom_angle
_geom_angle_site_symmetry_1
_geom_angle_site_symmetry_2
_geom_angle_site_symmetry_3
_geom_angle_publ_flag
O1 Ba O2 63.65(33) 1_565 . 1_555 n
O1 Ba O2 75.8(4) 1_565 . 102_555 n
O1 Ba O3 74.6(4) 1_565 . 1_555 n
O1 Ba O4 120.5(4) 1_565 . 2_555 n
O1 Ba O5 146.8(4) 1_565 . -102_555 n
O1 Ba O6 90.6(4) 1_565 . 2_565 n
O1 Ba O7 117.22(34) 1_565 . 2_565 n
O2 Ba O2 78.82(29) 1_555 . 102_555 n
O2 Ba O3 57.26(29) 1_555 . 1_555 n
O2 Ba O4 104.5(4) 1_555 . 2_555 n
O2 Ba O5 106.9(4) 1_555 . -102_555 n
O2 Ba O6 140.75(34) 1_555 . 2_565 n
O2 Ba O7 158.2(4) 1_555 . 2_565 n
O2 Ba O3 134.51(29) 102_555 . 1_555 n
O2 Ba O4 163.34(35) 102_555 . 2_555 n
O2 Ba O5 71.1(4) 102_555 . -102_555 n
O2 Ba O6 65.80(34) 102_555 . 2_565 n
O2 Ba O7 123.0(4) 102_555 . 2_565 n
O3 Ba O4 54.87(26) 1_555 . 2_555 n
O3 Ba O5 129.4(4) 1_555 . -102_555 n
O3 Ba O6 146.99(34) 1_555 . 2_565 n
O3 Ba O7 101.18(26) 1_555 . 2_565 n
O4 Ba O5 92.43(30) 2_555 . -102_555 n
O4 Ba O6 114.26(32) 2_555 . 2_565 n
O4 Ba O7 55.08(34) 2_555 . 2_565 n
O5 Ba O6 78.0(4) -102_555 . 2_565 n
O5 Ba O7 83.58(35) -102_555 . 2_565 n
O6 Ba O7 59.23(32) 2_565 . 2_565 n
O1 Pr O2 75.2(4) 1_565 . 1_555 n
O1 Pr O4 89.7(4) 1_565 . 1_555 n
O1 Pr O5 86.1(5) 1_565 . -1_565 n
O1 Pr O6 115.8(5) 1_565 . 101_555 n
O1 Pr O7 74.8(4) 1_565 . 1_565 n
O1 Pr O7 150.5(5) 1_565 . -1_555 n
O2 Pr O4 66.1(4) 1_555 . 1_555 n
O2 Pr O5 138.1(5) 1_555 . -1_565 n
O2 Pr O6 76.6(5) 1_555 . 101_555 n
O2 Pr O7 124.4(4) 1_555 . 1_565 n
O2 Pr O7 118.9(5) 1_555 . -1_555 n
O4 Pr O5 152.2(4) 1_555 . -1_565 n
O4 Pr O6 127.3(5) 1_555 . 101_555 n
O4 Pr O7 68.1(4) 1_555 . 1_565 n
O4 Pr O7 75.1(4) 1_555 . -1_555 n
O5 Pr O6 78.6(6) -1_565 . 101_555 n
O5 Pr O7 84.3(5) -1_565 . 1_565 n
O5 Pr O7 95.6(5) -1_565 . -1_555 n
O6 Pr O7 158.9(4) 101_555 . 1_565 n
O6 Pr O7 93.3(4) 101_555 . -1_555 n
O7 Pr O7 76.0(5) 1_565 . -1_555 n
O1 Ge1 O2 122.3(8) 1_555 . 1_555 n
O1 Ge1 O3 113.6(8) 1_555 . 1_555 n
O1 Ge1 O4 116.4(7) 1_555 . 1_555 n
O2 Ge1 O3 102.0(6) 1_555 . 1_555 n
O2 Ge1 O4 100.8(7) 1_555 . 1_555 n
O3 Ge1 O4 98.0(5) 1_555 . 1_555 n
O4 Ge2 O5 105.2(6) 1_555 . 1_555 n
O4 Ge2 O6 101.7(6) 1_555 . 1_555 n
O4 Ge2 O7 110.6(6) 1_555 . 1_555 n
O5 Ge2 O6 118.5(6) 1_555 . 1_555 n
O5 Ge2 O7 111.6(7) 1_555 . 1_555 n
O6 Ge2 O7 108.7(7) 1_555 . 1_555 n
Ge1 O3 Ge1 132.0(11) 1_555 . 2_555 n
Ge1 O4 Ge2 115.9(7) 1_555 . 1_555 n
loop_
_geom_bond_atom_site_label_1
_geom_bond_atom_site_label_2
_geom_bond_distance
_geom_bond_site_symmetry_1
_geom_bond_site_symmetry_2
_geom_bond_publ_flag
Ba O1 2.756(14) . 1_565 n
Ba O1 3.233(14) . 2_565 n
Ba O2 2.880(14) . 1_555 n
Ba O2 2.745(13) . 102_555 n
Ba O3 2.824(11) . 1_555 n
Ba O4 3.103(13) . 2_555 n
Ba O5 2.828(13) . -102_555 n
Ba O6 3.211(18) . 2_555 n
Ba O6 2.755(17) . 2_565 n
Ba O7 3.071(12) . 2_565 n
Pr O1 2.409(14) . 1_565 n
Pr O2 2.464(13) . 1_555 n
Pr O4 2.592(14) . 1_555 n
Pr O5 2.340(12) . -1_565 n
Pr O6 2.354(10) . 101_555 n
Pr O7 2.506(13) . 1_565 n
Pr O7 2.317(12) . -1_555 n
Ge1 Ge2 3.1100(34) . 1_555 n
Ge1 O1 1.735(14) . 1_555 n
Ge1 O2 1.732(13) . 1_555 n
Ge1 O3 1.785(7) . 1_555 n
Ge1 O4 1.848(12) . 1_555 n
Ge2 Ge1 3.1100(34) . 1_555 n
Ge2 O4 1.820(13) . 1_555 n
Ge2 O5 1.712(13) . 1_555 n
Ge2 O6 1.722(10) . 1_555 n
Ge2 O7 1.838(13) . 1_555 n
loop_
_pd_meas_counts_total
_pd_proc_ls_weight
_pd_proc_intensity_bkg_calc
_pd_calc_intensity_total
8868.0 0.0001128 8929.37598 8929.37305
8729.0 0.0001146 8919.12598 8919.12207
8783.0 0.0001139 8908.93652 8908.93359
9054.0 0.0001104 8898.80762 8898.80469
9093.0 0.0001100 8888.73828 8888.73535
8901.0 0.0001123 8878.72852 8878.72559
8962.0 0.0001116 8868.77832 8868.77539
8751.0 0.0001143 8858.88574 8858.88281
8692.0 0.0001150 8849.05078 8849.04785
8907.0 0.0001123 8839.27344 8839.27148
9052.0 0.0001105 8829.55273 8829.55078
8874.0 0.0001127 8819.88965 8819.88672
8895.0 0.0001124 8810.28125 8810.27832
8833.0 0.0001132 8800.72754 8800.72559
8842.0 0.0001131 8791.23047 8791.22852
8967.0 0.0001115 8781.78711 8781.78516
8665.0 0.0001154 8772.39844 8772.39648
8661.0 0.0001155 8763.06250 8763.06152
8759.0 0.0001142 8753.78027 8753.77832
8832.0 0.0001132 8744.55078 8744.54980
8848.0 0.0001130 8735.37402 8735.37207
8609.0 0.0001162 8726.24805 8726.24707
8740.0 0.0001144 8717.17383 8717.17188
8641.0 0.0001157 8708.15137 8708.14941
8641.0 0.0001157 8699.17773 8699.17676
8662.0 0.0001154 8690.25488 8690.25391
8546.0 0.0001170 8681.38184 8681.38086
8612.0 0.0001161 8672.55762 8672.55664
8705.0 0.0001149 8663.78320 8663.78125
8566.0 0.0001167 8655.05566 8655.05469
8618.0 0.0001160 8646.37695 8646.37598
8582.0 0.0001165 8637.74512 8637.74414
8625.0 0.0001159 8629.16113 8629.16016
8555.0 0.0001169 8620.62305 8620.62207
8633.0 0.0001158 8612.13184 8612.13086
8579.0 0.0001166 8603.68652 8603.68555
8470.0 0.0001181 8595.28613 8595.28613
8465.0 0.0001181 8586.93164 8586.93066
8676.0 0.0001153 8578.62109 8578.62109
8501.0 0.0001176 8570.35547 8570.35449
8474.0 0.0001180 8562.13379 8562.13281
8494.0 0.0001177 8553.95508 8553.95410
8483.0 0.0001179 8545.81934 8545.81836
8500.0 0.0001176 8537.72754 8537.72656
8417.0 0.0001188 8529.67676 8529.67578
8482.0 0.0001179 8521.66895 8521.66797
8395.0 0.0001191 8513.70215 8513.70117
8500.0 0.0001176 8505.77734 8505.77637
8505.0 0.0001176 8497.89258 8497.89258
8443.0 0.0001184 8490.04883 8490.04785
8553.0 0.0001169 8482.24512 8482.24512
8246.0 0.0001213 8474.48145 8474.48145
8552.0 0.0001169 8466.75781 8466.75781
8573.0 0.0001166 8459.07227 8459.07227
8519.0 0.0001174 8451.42578 8451.42578
8416.0 0.0001188 8443.81836 8443.81836
8492.0 0.0001178 8436.24805 8436.24805
8391.0 0.0001192 8428.71680 8428.71680
8553.0 0.0001169 8421.22168 8421.22168
8610.0 0.0001161 8413.76465 8413.76465
8466.0 0.0001181 8406.34375 8406.34375
8270.0 0.0001209 8398.95996 8398.95898
8353.0 0.0001197 8391.61133 8391.61133
8522.0 0.0001173 8384.29883 8384.29883
8233.0 0.0001215 8377.02148 8377.02148
8412.0 0.0001189 8369.78027 8369.78027
8263.0 0.0001210 8362.57227 8362.57227
8243.0 0.0001213 8355.40039 8355.40039
8541.0 0.0001171 8348.26172 8348.26172
8469.0 0.0001181 8341.15723 8341.15723
8460.0 0.0001182 8334.08691 8334.08691
8283.0 0.0001207 8327.04883 8327.04883
8287.0 0.0001207 8320.04395 8320.04395
8451.0 0.0001183 8313.07129 8313.07129
8346.0 0.0001198 8306.13184 8306.13281
8249.0 0.0001212 8299.22461 8299.22461
8251.0 0.0001212 8292.34863 8292.34863
8133.0 0.0001230 8285.50391 8285.50391
8293.0 0.0001206 8278.69043 8278.69043
8341.0 0.0001199 8271.90820 8271.90820
8329.0 0.0001201 8265.15625 8265.15625
8214.0 0.0001217 8258.43457 8258.43555
8100.0 0.0001235 8251.74316 8251.74414
8270.0 0.0001209 8245.08203 8245.08203
8322.0 0.0001202 8238.45020 8238.45020
8322.0 0.0001202 8231.84668 8231.84668
8223.0 0.0001216 8225.27246 8225.27344
8197.0 0.0001220 8218.72754 8218.72754
8259.0 0.0001211 8212.21094 8212.21094
8376.0 0.0001194 8205.72168 8205.72168
8231.0 0.0001215 8199.26074 8199.26074
8228.0 0.0001215 8192.82715 8192.82715
8133.0 0.0001230 8186.42139 8186.42139
8281.0 0.0001208 8180.04248 8180.04248
8398.0 0.0001191 8173.69043 8173.69043
8136.0 0.0001229 8167.36523 8167.36572
8202.0 0.0001219 8161.06592 8161.06592
8064.0 0.0001240 8154.79297 8154.79297
8062.0 0.0001240 8148.54590 8148.54590
8215.0 0.0001217 8142.32422 8142.32422
8365.0 0.0001195 8136.12842 8136.12842
8155.0 0.0001226 8129.95703 8129.95703
7984.0 0.0001253 8123.81055 8123.81055
8008.0 0.0001249 8117.68945 8117.68945
8357.0 0.0001197 8111.59180 8111.59229
8241.0 0.0001213 8105.51953 8105.51953
8080.0 0.0001238 8099.47021 8099.47021
8162.0 0.0001225 8093.44482 8093.44482
8197.0 0.0001220 8087.44287 8087.44287
8209.0 0.0001218 8081.46387 8081.46436
8042.0 0.0001243 8075.50879 8075.50879
8199.0 0.0001220 8069.57568 8069.57568
8027.0 0.0001246 8063.66602 8063.66602
8111.0 0.0001233 8057.77783 8057.77783
8106.0 0.0001234 8051.91162 8051.91211
8073.0 0.0001239 8046.06836 8046.06836
8026.0 0.0001246 8040.24609 8040.24609
8121.0 0.0001231 8034.44629 8034.44629
8172.0 0.0001224 8028.66650 8028.66650
8156.0 0.0001226 8022.90820 8022.90820
7989.0 0.0001252 8017.17139 8017.17139
7907.0 0.0001265 8011.45459 8011.45459
7720.0 0.0001295 8005.75879 8005.75879
8051.0 0.0001242 8000.08301 8000.08301
8005.0 0.0001249 7994.42725 7994.42725
7942.0 0.0001259 7988.79150 7988.79150
7854.0 0.0001273 7983.17529 7983.17529
7724.0 0.0001295 7977.57861 7977.57861
8012.0 0.0001248 7972.00098 7972.00098
8113.0 0.0001233 7966.44287 7966.44287
7993.0 0.0001251 7960.90381 7960.90332
8017.0 0.0001247 7955.38330 7955.38281
7750.0 0.0001290 7949.88086 7949.88086
8029.0 0.0001245 7944.39697 7944.39697
8059.0 0.0001241 7938.93164 7938.93164
7871.0 0.0001270 7933.48389 7933.48389
7745.0 0.0001291 7928.05420 7928.05420
8096.0 0.0001235 7922.64209 7922.64160
7905.0 0.0001265 7917.24707 7917.24658
8020.0 0.0001247 7911.86963 7911.86963
7978.0 0.0001253 7906.50928 7906.50928
7834.0 0.0001276 7901.16602 7901.16602
7768.0 0.0001287 7895.83936 7895.83887
8039.0 0.0001244 7890.52930 7890.52881
7981.0 0.0001253 7885.23535 7885.23535
7866.0 0.0001271 7879.95801 7879.95752
7739.0 0.0001292 7874.69678 7874.69678
7746.0 0.0001291 7869.45117 7869.45117
7862.0 0.0001272 7864.22217 7864.22168
7886.0 0.0001268 7859.00781 7859.00732
7841.0 0.0001275 7853.80908 7853.80859
7683.0 0.0001302 7848.62549 7848.62549
7845.0 0.0001275 7843.45752 7843.45703
7823.0 0.0001278 7838.30420 7838.30371
7915.0 0.0001263 7833.16553 7833.16504
7793.0 0.0001283 7828.04150 7828.04102
7786.0 0.0001284 7822.93262 7822.93213
7722.0 0.0001295 7817.83691 7817.83643
7894.0 0.0001267 7812.75684 7812.75635
7822.0 0.0001278 7807.68945 7807.68896
7820.0 0.0001279 7802.63721 7802.63672
7816.0 0.0001279 7797.59766 7797.59717
7820.0 0.0001279 7792.57227 7792.57178
7850.0 0.0001274 7787.56055 7787.55957
7900.0 0.0001266 7782.56152 7782.56104
7789.0 0.0001284 7777.57617 7777.57568
7797.0 0.0001283 7772.60352 7772.60303
7684.0 0.0001301 7767.64404 7767.64307
7770.0 0.0001287 7762.69727 7762.69678
7754.0 0.0001290 7757.76270 7757.76221
7802.0 0.0001282 7752.84131 7752.84082
7681.0 0.0001302 7747.93213 7747.93115
7660.0 0.0001305 7743.03516 7743.03467
7741.0 0.0001292 7738.14990 7738.14941
7864.0 0.0001272 7733.27734 7733.27637
7731.0 0.0001293 7728.41602 7728.41553
7694.0 0.0001300 7723.56641 7723.56543
7744.0 0.0001291 7718.72900 7718.72803
7671.0 0.0001304 7713.90234 7713.90137
7690.0 0.0001300 7709.08740 7709.08691
7628.0 0.0001311 7704.28320 7704.28271
7661.0 0.0001305 7699.49072 7699.48975
7688.0 0.0001301 7694.70898 7694.70850
7772.0 0.0001287 7689.93799 7689.93750
7788.0 0.0001284 7685.17773 7685.17725
7476.0 0.0001338 7680.42871 7680.42773
7626.0 0.0001311 7675.68945 7675.68848
7518.0 0.0001330 7670.96094 7670.96045
7753.0 0.0001290 7666.24268 7666.24170
7609.0 0.0001314 7661.53467 7661.53369
7581.0 0.0001319 7656.83643 7656.83545
7726.0 0.0001294 7652.14844 7652.14746
7661.0 0.0001305 7647.46973 7647.46875
7731.0 0.0001293 7642.80078 7642.79980
7675.0 0.0001303 7638.14209 7638.14111
7662.0 0.0001305 7633.49268 7633.49170
7652.0 0.0001307 7628.85254 7628.85156
7588.0 0.0001318 7624.22168 7624.22070
7767.0 0.0001287 7619.59961 7619.59863
7616.0 0.0001313 7614.98730 7614.98633
7672.0 0.0001303 7610.38379 7610.38232
7660.0 0.0001305 7605.78906 7606.14062
7670.0 0.0001304 7601.20312 7601.56787
7631.0 0.0001310 7596.62549 7597.00439
7603.0 0.0001315 7592.05713 7592.45117
7718.0 0.0001296 7587.49658 7587.90625
7579.0 0.0001319 7582.94531 7583.37207
7521.0 0.0001330 7578.40137 7578.84619
7575.0 0.0001320 7573.86670 7574.33008
7644.0 0.0001308 7569.33936 7569.82275
7588.0 0.0001318 7564.81982 7565.32520
7582.0 0.0001319 7560.30859 7560.83789
7403.0 0.0001351 7555.80518 7556.35840
7632.0 0.0001310 7551.30957 7551.88965
7567.0 0.0001322 7546.82129 7547.43066
7472.0 0.0001338 7542.34082 7542.98047
7543.0 0.0001326 7537.86768 7538.54102
7618.0 0.0001313 7533.40186 7534.11133
7614.0 0.0001313 7528.94385 7529.69238
7682.0 0.0001302 7524.49268 7525.28320
7482.0 0.0001337 7520.04883 7520.88574
7419.0 0.0001348 7515.61182 7516.49854
7521.0 0.0001330 7511.18164 7512.12354
7617.0 0.0001313 7506.75879 7507.76074
7553.0 0.0001324 7502.34229 7503.41064
7451.0 0.0001342 7497.93262 7499.07471
7512.0 0.0001331 7493.52930 7494.75342
7441.0 0.0001344 7489.13281 7490.44727
7627.0 0.0001311 7484.74316 7486.15918
7609.0 0.0001314 7480.35938 7481.89014
7547.0 0.0001325 7475.98242 7477.64209
7326.0 0.0001365 7471.61133 7473.41797
7283.0 0.0001373 7467.24658 7469.22168
7420.0 0.0001348 7462.88818 7465.05957
7484.0 0.0001336 7458.53516 7460.93945
7561.0 0.0001323 7454.18848 7456.88086
7396.0 0.0001352 7449.84766 7452.91943
7607.0 0.0001315 7445.51318 7449.12793
7285.0 0.0001373 7441.18359 7445.63037
7303.0 0.0001369 7436.86035 7442.62549
7462.0 0.0001340 7432.54199 7440.37402
7266.0 0.0001376 7428.22949 7439.17529
7579.0 0.0001319 7423.92236 7439.29883
7348.0 0.0001361 7419.62109 7440.92725
7511.0 0.0001331 7415.32471 7444.13721
7390.0 0.0001353 7411.03369 7448.95508
7418.0 0.0001348 7406.74756 7455.43311
7406.0 0.0001350 7402.46729 7463.72949
7437.0 0.0001345 7398.19141 7474.17676
7641.0 0.0001309 7393.92139 7487.37939
7573.0 0.0001320 7389.65527 7504.33350
7323.0 0.0001366 7385.39453 7526.56299
7520.0 0.0001330 7381.13916 7556.05811
7571.0 0.0001321 7376.88770 7594.65039
7663.0 0.0001305 7372.64111 7642.41162
7624.0 0.0001312 7368.39941 7695.29004
7720.0 0.0001295 7364.16260 7743.32471
7618.0 0.0001313 7359.92969 7771.51953
7742.0 0.0001292 7355.70117 7764.74316
7766.0 0.0001288 7351.47754 7716.67676
7672.0 0.0001303 7347.25830 7637.77441
7447.0 0.0001343 7343.04346 7549.82520
7420.0 0.0001348 7338.83203 7471.84619
7468.0 0.0001339 7334.62549 7413.27393
7478.0 0.0001337 7330.42334 7374.62012
7364.0 0.0001358 7326.22461 7351.23389
7279.0 0.0001374 7322.03027 7337.33350
7321.0 0.0001366 7317.83984 7328.40723
7538.0 0.0001327 7313.65381 7321.77783
7399.0 0.0001352 7309.47070 7316.14307
7364.0 0.0001358 7305.29199 7310.95898
7270.0 0.0001376 7301.11719 7306.01709
7275.0 0.0001375 7296.94580 7301.23047
7208.0 0.0001387 7292.77832 7296.55859
7369.0 0.0001357 7288.61426 7291.97461
7275.0 0.0001375 7284.45361 7287.45996
7175.0 0.0001394 7280.29688 7283.00244
7236.0 0.0001382 7276.14355 7278.59131
7210.0 0.0001387 7271.99414 7274.21924
7409.0 0.0001350 7267.84717 7269.87939
7098.0 0.0001409 7263.70410 7265.56641
7197.0 0.0001389 7259.56445 7261.27832
7262.0 0.0001377 7255.42773 7257.00977
7131.0 0.0001402 7251.29492 7252.75977
7179.0 0.0001393 7247.16455 7248.52490
7097.0 0.0001409 7243.03760 7244.30469
7262.0 0.0001377 7238.91357 7240.09619
7171.0 0.0001395 7234.79297 7235.89893
7359.0 0.0001359 7230.67529 7231.71240
7229.0 0.0001383 7226.56006 7227.53467
7364.0 0.0001358 7222.44873 7223.36572
7133.0 0.0001402 7218.33936 7219.20459
7287.0 0.0001372 7214.23291 7215.05029
7209.0 0.0001387 7210.13037 7210.90332
7246.0 0.0001380 7206.02930 7206.76172
7237.0 0.0001382 7201.93213 7202.62695
7218.0 0.0001385 7197.83643 7198.49707
6960.0 0.0001437 7193.74463 7194.37256
7219.0 0.0001385 7189.65479 7190.25293
7177.0 0.0001393 7185.56787 7186.13818
7099.0 0.0001409 7181.48291 7182.02734
7021.0 0.0001424 7177.40039 7177.92090
7071.0 0.0001414 7173.32129 7173.81934
7208.0 0.0001387 7169.24365 7169.72070
7260.0 0.0001377 7165.16943 7165.62646
7146.0 0.0001399 7161.09717 7161.53516
7078.0 0.0001413 7157.02686 7157.44775
7013.0 0.0001426 7152.95947 7153.36377
7215.0 0.0001386 7148.89404 7149.28271
7087.0 0.0001411 7144.83057 7145.20459
7156.0 0.0001397 7140.77002 7141.13037
6939.0 0.0001441 7136.71143 7137.05811
7054.0 0.0001418 7132.65527 7132.98975
7111.0 0.0001406 7128.60059 7128.92383
7347.0 0.0001361 7124.54883 7124.54736
7066.0 0.0001415 7120.49854 7120.49658
7009.0 0.0001427 7116.45068 7116.44873
7108.0 0.0001407 7112.40430 7112.40283
7212.0 0.0001387 7108.35986 7108.35840
7029.0 0.0001423 7104.31836 7104.31641
7022.0 0.0001424 7100.27783 7100.27637
7075.0 0.0001413 7096.23975 7096.23828
6979.0 0.0001433 7092.20312 7092.20166
6899.0 0.0001449 7088.16846 7088.16699
7040.0 0.0001420 7084.13623 7084.13477
7205.0 0.0001388 7080.10498 7080.10352
7028.0 0.0001423 7076.07617 7076.07471
7037.0 0.0001421 7072.04883 7072.04736
6849.0 0.0001460 7068.02295 7068.02148
7205.0 0.0001388 7063.99951 7063.99805
6979.0 0.0001433 7059.97705 7059.97559
6909.0 0.0001447 7055.95703 7055.95508
6955.0 0.0001438 7051.93750 7051.93604
7046.0 0.0001419 7047.92041 7047.91895
7004.0 0.0001428 7043.90479 7043.90332
7094.0 0.0001410 7039.89062 7039.88916
7009.0 0.0001427 7035.87793 7035.87646
6971.0 0.0001435 7031.86719 7031.86572
7095.0 0.0001409 7027.85742 7027.85596
7150.0 0.0001399 7023.84961 7023.84814
6976.0 0.0001433 7019.84277 7019.84131
7137.0 0.0001401 7015.83789 7015.83643
6744.0 0.0001483 7011.83350 7011.83203
6908.0 0.0001448 7007.83154 7007.83008
7076.0 0.0001413 7003.83057 7003.82910
7007.0 0.0001427 6999.83105 6999.82959
6977.0 0.0001433 6995.83252 6995.83154
6813.0 0.0001468 6991.83594 6991.83447
6891.0 0.0001451 6987.84033 6987.83887
7041.0 0.0001420 6983.84570 6983.84473
6890.0 0.0001451 6979.85303 6979.85156
7041.0 0.0001420 6975.86084 6975.85938
6807.0 0.0001469 6971.87012 6971.86914
7040.0 0.0001420 6967.88135 6967.87988
6978.0 0.0001433 6963.89307 6963.89160
6932.0 0.0001443 6959.90625 6959.90479
6971.0 0.0001435 6955.92041 6955.91895
6898.0 0.0001450 6951.93555 6951.93408
7022.0 0.0001424 6947.95215 6947.95117
6930.0 0.0001443 6943.96973 6943.96826
6829.0 0.0001464 6939.98877 6939.98730
6770.0 0.0001477 6936.00830 6936.00732
6810.0 0.0001468 6932.02979 6932.02832
6915.0 0.0001446 6928.05127 6928.05029
6974.0 0.0001434 6924.07471 6924.07373
7041.0 0.0001420 6920.09863 6920.09717
6927.0 0.0001444 6916.12354 6916.12256
6856.0 0.0001459 6912.14990 6912.14893
6835.0 0.0001463 6908.17676 6908.17578
7190.0 0.0001391 6904.20508 6904.20410
7048.0 0.0001419 6900.23438 6900.23291
6713.0 0.0001490 6896.26367 6897.18896
6853.0 0.0001459 6892.29541 6893.24805
6796.0 0.0001471 6888.32715 6889.30859
6898.0 0.0001450 6884.35986 6885.37158
6935.0 0.0001442 6880.39355 6881.43701
6750.0 0.0001481 6876.42822 6877.50439
6804.0 0.0001470 6872.46387 6873.57520
6784.0 0.0001474 6868.50000 6869.64795
7023.0 0.0001424 6864.53760 6865.72363
6783.0 0.0001474 6860.57568 6861.80176
6804.0 0.0001470 6856.61475 6857.88330
6769.0 0.0001477 6852.65479 6853.96777
6863.0 0.0001457 6848.69531 6850.05518
6962.0 0.0001436 6844.73682 6846.14600
6869.0 0.0001456 6840.77881 6842.24023
6948.0 0.0001439 6836.82227 6838.33887
6782.0 0.0001474 6832.86621 6834.44092
6806.0 0.0001469 6828.91064 6830.54736
7079.0 0.0001413 6824.95605 6826.65869
6849.0 0.0001460 6821.00244 6822.77393
6770.0 0.0001477 6817.04932 6818.89453
6732.0 0.0001485 6813.09717 6815.02100
6904.0 0.0001448 6809.14551 6811.15332
6951.0 0.0001439 6805.19482 6807.29150
6802.0 0.0001470 6801.24463 6803.43652
6811.0 0.0001468 6797.29541 6799.58936
6540.0 0.0001529 6793.34668 6795.75000
6788.0 0.0001473 6789.39893 6791.91943
6787.0 0.0001473 6785.45166 6788.09863
6782.0 0.0001474 6781.50488 6784.28760
6806.0 0.0001469 6777.55908 6780.48877
6694.0 0.0001494 6773.61377 6776.70215
6764.0 0.0001478 6769.66943 6772.92969
6887.0 0.0001452 6765.72559 6769.17285
6903.0 0.0001449 6761.78223 6765.43262
6619.0 0.0001511 6757.83984 6761.71191
6743.0 0.0001483 6753.89795 6758.01318
6660.0 0.0001502 6749.95703 6754.33887
6797.0 0.0001471 6746.01611 6750.69141
6854.0 0.0001459 6742.07666 6747.07568
6681.0 0.0001497 6738.13721 6743.49561
6749.0 0.0001482 6734.19824 6739.95703
6836.0 0.0001463 6730.26025 6736.46631
6885.0 0.0001452 6726.32275 6733.03027
6746.0 0.0001482 6722.38623 6729.65918
6647.0 0.0001504 6718.44971 6726.36377
6659.0 0.0001502 6714.51416 6723.15967
6894.0 0.0001451 6710.57959 6720.06445
6834.0 0.0001463 6706.64502 6717.10107
6669.0 0.0001499 6702.71143 6714.30420
6702.0 0.0001492 6698.77783 6712.23828
6667.0 0.0001500 6694.84570 6709.97559
6733.0 0.0001485 6690.91309 6708.16943
6769.0 0.0001477 6686.98242 6707.09668
6832.0 0.0001464 6683.05127 6707.22949
6667.0 0.0001500 6679.12061 6709.31689
6723.0 0.0001487 6675.19141 6714.43848
6868.0 0.0001456 6671.26172 6723.98779
6945.0 0.0001440 6667.33350 6739.58887
6815.0 0.0001467 6663.40527 6762.91699
6891.0 0.0001451 6659.47803 6795.65430
6765.0 0.0001478 6655.55127 6839.70605
6849.0 0.0001460 6651.62500 6897.44385
7062.0 0.0001416 6647.69922 6972.10938
7061.0 0.0001416 6643.77393 7067.37109
7144.0 0.0001400 6639.84961 7185.53320
7067.0 0.0001415 6635.92578 7324.08154
7474.0 0.0001338 6632.00195 7471.41455
7675.0 0.0001303 6628.07959 7604.26172
7617.0 0.0001313 6624.15674 7689.52002
7481.0 0.0001337 6620.23535 7692.95703
7525.0 0.0001329 6616.31396 7597.53711
7387.0 0.0001354 6612.39307 7423.21826
7364.0 0.0001358 6608.47314 7218.29004
7144.0 0.0001400 6604.55371 7027.46436
6849.0 0.0001460 6600.63477 6875.54590
6674.0 0.0001498 6596.71631 6768.53320
6836.0 0.0001463 6592.79834 6700.15234
6822.0 0.0001466 6588.88135 6659.15576
6680.0 0.0001497 6584.96436 6634.83154
6618.0 0.0001511 6581.04834 6619.52441
6487.0 0.0001542 6577.13232 6608.73828
6534.0 0.0001530 6573.21729 6600.20459
6705.0 0.0001491 6569.30322 6592.88232
6646.0 0.0001505 6565.38867 6586.30615
6570.0 0.0001522 6561.47607 6580.25244
6500.0 0.0001538 6557.56299 6574.59375
6530.0 0.0001531 6553.65088 6569.24854
6685.0 0.0001496 6549.73877 6564.15723
6642.0 0.0001506 6545.82764 6559.27539
6348.0 0.0001575 6541.91748 6554.57080
6543.0 0.0001528 6538.00732 6550.01807
6551.0 0.0001526 6534.09814 6545.59961
6739.0 0.0001484 6530.18896 6541.30029
6708.0 0.0001491 6526.28076 6537.11182
6513.0 0.0001535 6522.37354 6533.02881
6412.0 0.0001560 6518.46582 6529.04834
6427.0 0.0001556 6514.55957 6525.17285
6627.0 0.0001509 6510.65381 6521.40576
6560.0 0.0001524 6506.74854 6517.75732
6528.0 0.0001532 6502.84375 6514.24316
6414.0 0.0001559 6498.93994 6510.89160
6495.0 0.0001540 6495.03613 6507.75244
6578.0 0.0001520 6491.13330 6504.92480
6531.0 0.0001531 6487.23096 6502.60059
6515.0 0.0001535 6483.32910 6501.12744
6360.0 0.0001572 6479.42773 6501.09277
6438.0 0.0001553 6475.52734 6503.38281
6507.0 0.0001537 6471.62744 6509.19531
6690.0 0.0001495 6467.72803 6519.97412
6577.0 0.0001520 6463.82959 6537.29443
6526.0 0.0001532 6459.93115 6562.80908
6853.0 0.0001459 6456.03418 6598.42285
6779.0 0.0001475 6452.13672 6646.58740
6786.0 0.0001474 6448.24121 6710.37061
6692.0 0.0001494 6444.34521 6792.53320
6934.0 0.0001442 6440.45068 6893.06445
6928.0 0.0001443 6436.55615 7005.46484
7093.0 0.0001410 6432.66309 7113.64941
7260.0 0.0001377 6428.76953 7192.29980
7301.0 0.0001370 6424.87744 7212.95557
7149.0 0.0001399 6420.98584 7157.40576
7061.0 0.0001416 6417.09473 7034.62354
6908.0 0.0001448 6413.20459 6879.84180
6784.0 0.0001474 6409.31494 6730.60742
6559.0 0.0001525 6405.42578 6609.98633
6619.0 0.0001511 6401.53760 6524.94971
6543.0 0.0001528 6397.64990 6471.17725
6533.0 0.0001531 6393.76318 6439.50098
6521.0 0.0001534 6389.87646 6421.00195
6471.0 0.0001545 6385.99072 6409.37549
6474.0 0.0001545 6382.10645 6401.02441
6448.0 0.0001551 6378.22217 6394.20605
6489.0 0.0001541 6374.33887 6388.16602
6454.0 0.0001549 6370.45605 6382.58545
6416.0 0.0001559 6366.57422 6377.32080
6475.0 0.0001544 6362.69287 6372.29150
6560.0 0.0001524 6358.81201 6367.44580
6351.0 0.0001575 6354.93262 6362.74658
6447.0 0.0001551 6351.05322 6357.27881
6246.0 0.0001601 6347.17529 6352.81885
6279.0 0.0001593 6343.29736 6348.43652
6420.0 0.0001558 6339.42041 6344.12012
6492.0 0.0001540 6335.54443 6339.85840
6602.0 0.0001515 6331.66895 6335.64355
6360.0 0.0001572 6327.79492 6331.46729
6400.0 0.0001562 6323.92090 6327.32520
6397.0 0.0001563 6320.04834 6323.21240
6320.0 0.0001582 6316.17578 6319.12451
6390.0 0.0001565 6312.30420 6315.05908
6312.0 0.0001584 6308.43359 6311.01270
6233.0 0.0001604 6304.56396 6306.98340
6410.0 0.0001560 6300.69482 6302.96973
6511.0 0.0001536 6296.82666 6298.96875
6375.0 0.0001569 6292.95947 6294.97998
6166.0 0.0001622 6289.09277 6291.00293
6305.0 0.0001586 6285.22705 6287.03467
6219.0 0.0001608 6281.36230 6283.07568
6443.0 0.0001552 6277.49805 6279.12451
6357.0 0.0001573 6273.63477 6275.18066
6226.0 0.0001606 6269.77295 6271.24365
6269.0 0.0001595 6265.91113 6267.31299
6320.0 0.0001582 6262.05078 6263.38818
6494.0 0.0001540 6258.19092 6259.46777
6302.0 0.0001587 6254.33203 6255.55273
6326.0 0.0001581 6250.47412 6251.64209
6131.0 0.0001631 6246.61719 6247.73584
6168.0 0.0001621 6242.76123 6243.83398
6320.0 0.0001582 6238.90576 6239.93506
6235.0 0.0001604 6235.05127 6236.03955
6150.0 0.0001626 6231.19775 6232.14795
6125.0 0.0001633 6227.34521 6228.25879
6314.0 0.0001584 6223.49365 6224.37305
6389.0 0.0001565 6219.64307 6220.49023
6188.0 0.0001616 6215.79346 6216.60986
6312.0 0.0001584 6211.94434 6212.73242
6215.0 0.0001609 6208.09668 6208.85742
6346.0 0.0001576 6204.25000 6204.25146
6279.0 0.0001593 6200.40430 6200.40576
6191.0 0.0001615 6196.55908 6196.56055
6245.0 0.0001601 6192.71484 6192.71680
6156.0 0.0001624 6188.87158 6188.87354
6185.0 0.0001617 6185.03027 6185.03174
6326.0 0.0001581 6181.18945 6181.19092
6203.0 0.0001612 6177.34912 6177.35107
6114.0 0.0001636 6173.51025 6173.51172
6291.0 0.0001590 6169.67236 6169.67432
6279.0 0.0001593 6165.83545 6165.83691
6180.0 0.0001618 6161.99951 6162.00146
6143.0 0.0001628 6158.16455 6158.16650
6103.0 0.0001639 6154.33105 6154.33301
6170.0 0.0001621 6150.49805 6150.50000
6120.0 0.0001634 6146.66650 6146.66797
6154.0 0.0001625 6142.83545 6142.83740
6243.0 0.0001602 6139.00635 6139.00830
6150.0 0.0001626 6135.17822 6135.18018
6239.0 0.0001603 6131.35059 6131.35254
6241.0 0.0001602 6127.52393 6129.60498
6198.0 0.0001613 6123.69922 6125.84229
6275.0 0.0001594 6119.87500 6122.08252
6096.0 0.0001640 6116.05225 6118.32764
6096.0 0.0001640 6112.22998 6114.57617
6258.0 0.0001598 6108.40967 6110.83008
6180.0 0.0001618 6104.58984 6107.08838
6227.0 0.0001606 6100.77148 6103.35107
6183.0 0.0001617 6096.95410 6099.62012
6095.0 0.0001641 6093.13818 6095.89355
6165.0 0.0001622 6089.32324 6092.19336
6199.0 0.0001613 6085.50928 6088.47949
6047.0 0.0001654 6081.69678 6084.77197
6143.0 0.0001628 6077.88574 6081.07227
6100.0 0.0001639 6074.07520 6077.37939
6129.0 0.0001632 6070.26660 6073.69434
6029.0 0.0001659 6066.45850 6070.01758
6031.0 0.0001658 6062.65186 6066.35010
6221.0 0.0001607 6058.84668 6062.69189
5988.0 0.0001670 6055.04248 6059.04346
6006.0 0.0001665 6051.23975 6055.40674
6137.0 0.0001629 6047.43799 6051.78125
6049.0 0.0001653 6043.63770 6048.16943
6024.0 0.0001660 6039.83838 6044.56982
6007.0 0.0001665 6036.04053 6040.98584
6145.0 0.0001627 6032.24414 6037.41797
6081.0 0.0001644 6028.44873 6033.86768
6130.0 0.0001631 6024.65479 6030.33594
6014.0 0.0001663 6020.86230 6026.82568
6088.0 0.0001643 6017.07031 6023.33789
6069.0 0.0001648 6013.28076 6019.87598
6109.0 0.0001637 6009.49170 6016.44141
6024.0 0.0001660 6005.70459 6013.03760
5940.0 0.0001684 6001.91797 6009.66748
6062.0 0.0001650 5998.13330 6006.33545
5961.0 0.0001678 5994.35010 6003.04590
6014.0 0.0001663 5990.56787 5999.80322
5971.0 0.0001675 5986.78760 5996.61475
5928.0 0.0001687 5983.00781 5993.48535
5941.0 0.0001683 5979.23047 5990.42480
5959.0 0.0001678 5975.45361 5987.44238
5941.0 0.0001683 5971.67822 5984.54785
6006.0 0.0001665 5967.90479 5981.75732
5960.0 0.0001678 5964.13232 5979.08398
6068.0 0.0001648 5960.36133 5976.54980
5946.0 0.0001682 5956.59180 5974.17676
6064.0 0.0001649 5952.82373 5971.99561
5905.0 0.0001693 5949.05713 5970.04053
5885.0 0.0001699 5945.29199 5968.35791
5874.0 0.0001702 5941.52832 5967.00537
5992.0 0.0001669 5937.76562 5966.05908
6145.0 0.0001627 5934.00537 5965.62500
5917.0 0.0001690 5930.24561 5965.86572
5931.0 0.0001686 5926.48779 5967.05469
5903.0 0.0001694 5922.73145 5969.68506
6068.0 0.0001648 5918.97656 5974.65625
5941.0 0.0001683 5915.22363 5983.55469
5989.0 0.0001670 5911.47168 5999.01123
6092.0 0.0001641 5907.72119 6025.05566
6080.0 0.0001645 5903.97266 6067.42090
6079.0 0.0001645 5900.22510 6133.66406
6280.0 0.0001592 5896.47998 6233.50098
6264.0 0.0001596 5892.73535 6376.64697
6430.0 0.0001555 5888.99268 6573.62939
6705.0 0.0001491 5885.25195 6832.43359
7126.0 0.0001403 5881.51270 7151.89014
7454.0 0.0001342 5877.77490 7513.69580
7857.0 0.0001273 5874.03857 7874.62061
7933.0 0.0001261 5870.30420 8166.15283
8381.0 0.0001193 5866.57080 8305.96387
8218.0 0.0001217 5862.83936 8228.37012
8145.0 0.0001228 5859.10986 7933.34717
7469.0 0.0001339 5855.38184 7505.28125
7096.0 0.0001409 5851.65527 7056.73145
6761.0 0.0001479 5847.93018 6668.53662
6406.0 0.0001561 5844.20654 6376.41211
6157.0 0.0001624 5840.48535 6180.61670
6005.0 0.0001665 5836.76514 6061.20654
5965.0 0.0001676 5833.04736 5992.53955
5897.0 0.0001696 5829.33057 5952.68311
5974.0 0.0001674 5825.61621 5926.85352
5888.0 0.0001698 5821.90283 5907.00977
5999.0 0.0001667 5818.19092 5889.91553
5945.0 0.0001682 5814.48145 5874.80615
5900.0 0.0001695 5810.77344 5861.64014
5834.0 0.0001714 5807.06738 5850.37402
5907.0 0.0001693 5803.36279 5840.79932
5882.0 0.0001700 5799.65967 5832.58740
5665.0 0.0001765 5795.95898 5825.38916
5730.0 0.0001745 5792.25977 5818.90967
5765.0 0.0001735 5788.56201 5812.97412
5750.0 0.0001739 5784.86621 5807.37305
5825.0 0.0001717 5781.17236 5802.05664
5685.0 0.0001759 5777.48047 5796.97021
5790.0 0.0001727 5773.79004 5792.07471
5838.0 0.0001713 5770.10156 5787.34375
5864.0 0.0001705 5766.41455 5782.75488
5668.0 0.0001764 5762.72998 5778.29102
5723.0 0.0001747 5759.04688 5773.93896
5656.0 0.0001768 5755.36523 5769.68652
5708.0 0.0001752 5751.68604 5765.52783
5813.0 0.0001720 5748.00879 5761.45361
5801.0 0.0001724 5744.33301 5757.46094
5735.0 0.0001744 5740.65869 5753.54541
5618.0 0.0001780 5736.98682 5749.70459
5784.0 0.0001729 5733.31689 5745.94092
5685.0 0.0001759 5729.64893 5742.25342
5704.0 0.0001753 5725.98242 5738.64600
5688.0 0.0001758 5722.31787 5735.12402
5700.0 0.0001754 5718.65527 5731.69482
5687.0 0.0001758 5714.99512 5728.36865
5946.0 0.0001682 5711.33643 5725.15918
5591.0 0.0001789 5707.67969 5722.08545
5701.0 0.0001754 5704.02490 5719.17627
5617.0 0.0001780 5700.37207 5716.47559
5592.0 0.0001788 5696.72119 5714.05664
5810.0 0.0001721 5693.07227 5712.05566
5781.0 0.0001730 5689.42529 5710.72461
5654.0 0.0001769 5685.78076 5710.51318
5694.0 0.0001756 5682.13770 5712.17822
5842.0 0.0001712 5678.49658 5716.90039
5793.0 0.0001726 5674.85742 5726.39111
5705.0 0.0001753 5671.22070 5742.95898
5832.0 0.0001715 5667.58594 5769.42822
5733.0 0.0001744 5663.95312 5808.87695
5795.0 0.0001726 5660.32178 5864.06836
6059.0 0.0001650 5656.69336 5936.13281
5943.0 0.0001683 5653.06641 6022.47119
6089.0 0.0001642 5649.44189 6114.84570
6124.0 0.0001633 5645.81885 6198.22363
6225.0 0.0001606 5642.19873 6252.50830
6278.0 0.0001593 5638.58008 6258.04053
6193.0 0.0001615 5634.96338 6210.23145
6098.0 0.0001640 5631.34912 6115.24609
5943.0 0.0001683 5627.73682 6004.98584
5898.0 0.0001695 5624.12695 5905.30273
5846.0 0.0001711 5620.51855 5831.45020
5977.0 0.0001673 5616.91260 5788.76611
5851.0 0.0001709 5613.30859 5775.88086
5607.0 0.0001783 5609.70703 5786.23486
5892.0 0.0001697 5606.10791 5818.39600
5825.0 0.0001717 5602.51025 5864.11670
6082.0 0.0001644 5598.91455 5915.62158
5994.0 0.0001668 5595.32178 5962.89795
5880.0 0.0001701 5591.73096 5993.59473
5917.0 0.0001690 5588.14258 5995.69043
5774.0 0.0001732 5584.55566 5963.30225
5849.0 0.0001710 5580.97168 5902.94385
5699.0 0.0001755 5577.38916 5830.55322
5638.0 0.0001774 5573.80908 5761.19531
5609.0 0.0001783 5570.23145 5703.83643
5753.0 0.0001738 5566.65625 5661.54785
5594.0 0.0001788 5563.08301 5633.42627
5508.0 0.0001816 5559.51172 5616.56104
5529.0 0.0001809 5555.94287 5607.63379
5609.0 0.0001783 5552.37646 5603.76514
5592.0 0.0001788 5548.81201 5602.67920
5564.0 0.0001797 5545.25000 5602.48730
5465.0 0.0001830 5541.69043 5601.46582
5470.0 0.0001828 5538.13281 5598.09082
5565.0 0.0001797 5534.57764 5591.48340
5489.0 0.0001822 5531.02441 5582.04639
5499.0 0.0001819 5527.47412 5571.30664
5419.0 0.0001845 5523.92578 5560.85547
5384.0 0.0001857 5520.37988 5551.68213
5438.0 0.0001839 5516.83594 5544.13867
5425.0 0.0001843 5513.29443 5538.12598
5309.0 0.0001884 5509.75586 5533.31348
5372.0 0.0001862 5506.21924 5529.33301
5376.0 0.0001860 5502.68506 5525.89453
5426.0 0.0001843 5499.15283 5522.81006
5468.0 0.0001829 5495.62305 5519.98145
5441.0 0.0001838 5492.09619 5517.36719
5391.0 0.0001855 5488.57080 5514.95605
5484.0 0.0001823 5485.04883 5512.75488
5436.0 0.0001840 5481.52832 5510.78076
5595.0 0.0001787 5478.01074 5509.05664
5618.0 0.0001780 5474.49561 5507.61670
5316.0 0.0001881 5470.98242 5506.49854
5411.0 0.0001848 5467.47217 5505.75781
5617.0 0.0001780 5463.96436 5505.45703
5507.0 0.0001816 5460.45850 5505.67969
5491.0 0.0001821 5456.95508 5506.53223
5531.0 0.0001808 5453.45410 5510.84375
5377.0 0.0001860 5449.95605 5513.50635
5487.0 0.0001822 5446.45996 5517.41455
5379.0 0.0001859 5442.96680 5523.03076
5461.0 0.0001831 5439.47559 5531.16406
5516.0 0.0001813 5435.98730 5543.30811
5458.0 0.0001832 5432.50146 5562.15967
5504.0 0.0001817 5429.01758 5592.39307
5668.0 0.0001764 5425.53711 5641.59570
5734.0 0.0001744 5422.05811 5721.26221
5863.0 0.0001706 5418.58252 5847.53271
6023.0 0.0001660 5415.10889 6040.95312
6372.0 0.0001569 5411.63770 6323.97607
6773.0 0.0001476 5408.16992 6715.46094
7222.0 0.0001385 5404.70410 7221.99609
7642.0 0.0001309 5401.24072 7823.43506
8329.0 0.0001201 5397.77979 8459.76465
9019.0 0.0001109 5394.32129 9029.17871
9422.0 0.0001061 5390.86572 9399.24316
9194.0 0.0001088 5387.41309 9441.61621
9139.0 0.0001094 5383.96240 9105.08789
8618.0 0.0001160 5380.51416 8477.52930
7879.0 0.0001269 5377.06934 7737.64746
7092.0 0.0001410 5373.62598 7043.43896
6461.0 0.0001548 5370.18604 6483.23535
5947.0 0.0001682 5366.74854 6081.59326
5947.0 0.0001682 5363.31348 5820.59326
5703.0 0.0001753 5359.88135 5663.35840
5602.0 0.0001785 5356.45166 5572.19336
5454.0 0.0001834 5353.02441 5518.69434
5218.0 0.0001916 5349.60010 5485.03564
5311.0 0.0001883 5346.17871 5461.57617
5469.0 0.0001828 5342.75928 5443.61865
5381.0 0.0001858 5339.34277 5428.98047
5375.0 0.0001860 5335.92871 5416.60498
5186.0 0.0001928 5332.51758 5405.91699
5230.0 0.0001912 5329.10938 5396.55762
5356.0 0.0001867 5325.70361 5388.27539
5213.0 0.0001918 5322.30029 5380.88477
5242.0 0.0001908 5318.90039 5374.24805
5213.0 0.0001918 5315.50244 5368.26025
5291.0 0.0001890 5312.10742 5362.84131
5284.0 0.0001893 5308.71484 5357.93799
5351.0 0.0001869 5305.32568 5353.50879
5349.0 0.0001870 5301.93848 5349.52881
5404.0 0.0001850 5298.55420 5345.67334
5194.0 0.0001925 5295.17285 5342.58447
5297.0 0.0001888 5291.79443 5339.95605
5266.0 0.0001899 5288.41895 5337.81885
5320.0 0.0001880 5285.04541 5336.22412
5202.0 0.0001922 5281.67480 5335.24414
5185.0 0.0001929 5278.30713 5334.98242
5222.0 0.0001915 5274.94287 5335.58984
5313.0 0.0001882 5271.58105 5337.30225
5222.0 0.0001915 5268.22119 5340.52930
5163.0 0.0001937 5264.86475 5346.03564
5392.0 0.0001855 5261.51123 5355.29541
5332.0 0.0001875 5258.16064 5371.08740
5543.0 0.0001804 5254.81250 5398.36328
5434.0 0.0001840 5251.46729 5445.34229
5495.0 0.0001820 5248.12500 5524.63623
5634.0 0.0001775 5244.78516 5653.92725
5940.0 0.0001684 5241.44824 5855.24121
6170.0 0.0001621 5238.11426 6151.22949
6523.0 0.0001533 5234.78320 6557.39795
6976.0 0.0001433 5231.45508 7069.62939
7390.0 0.0001353 5228.12988 7649.41943
8123.0 0.0001231 5224.80713 8215.37012
8568.0 0.0001167 5221.48779 8647.95312
8666.0 0.0001154 5218.17041 8816.63867
8518.0 0.0001174 5214.85693 8637.21973
8026.0 0.0001246 5211.54590 8144.14844
7449.0 0.0001342 5208.23779 7486.71582
7086.0 0.0001411 5204.93262 6829.10107
6319.0 0.0001583 5201.62988 6278.35938
5851.0 0.0001709 5198.33057 5875.46191
5787.0 0.0001728 5195.03369 5612.18115
5556.0 0.0001800 5191.74072 5455.00293
5521.0 0.0001811 5188.44971 5366.25977
5418.0 0.0001846 5185.16162 5316.21680
5258.0 0.0001902 5181.87695 5286.04932
5246.0 0.0001906 5178.59521 5265.64453
5303.0 0.0001886 5175.31641 5250.19336
5294.0 0.0001889 5172.04004 5237.55371
5258.0 0.0001902 5168.76709 5226.74805
5190.0 0.0001927 5165.49707 5217.27734
5138.0 0.0001946 5162.22998 5208.83252
5101.0 0.0001960 5158.96582 5201.20557
5163.0 0.0001937 5155.70459 5190.62061
5204.0 0.0001922 5152.44678 5184.30273
5079.0 0.0001969 5149.19141 5178.43555
5169.0 0.0001935 5145.93896 5172.94873
5102.0 0.0001960 5142.68994 5167.79004
5142.0 0.0001945 5139.44336 5162.91846
5273.0 0.0001896 5136.20020 5158.30566
5039.0 0.0001985 5132.95996 5153.93506
5080.0 0.0001969 5129.72266 5149.80664
5145.0 0.0001944 5126.48877 5145.94629
5111.0 0.0001957 5123.25732 5142.41943
5067.0 0.0001974 5120.02979 5139.36084
4971.0 0.0002012 5116.80420 5137.00635
5118.0 0.0001954 5113.58203 5135.73193
5092.0 0.0001964 5110.36328 5136.08691
5123.0 0.0001952 5107.14746 5138.78564
5147.0 0.0001943 5103.93457 5144.61523
5112.0 0.0001956 5100.72461 5154.19629
5117.0 0.0001954 5097.51807 5167.63818
5132.0 0.0001949 5094.31445 5184.16504
5227.0 0.0001913 5091.11377 5201.66748
5212.0 0.0001919 5087.91602 5216.61768
5286.0 0.0001892 5084.72168 5224.70068
5209.0 0.0001920 5081.53076 5221.92871
5234.0 0.0001911 5078.34229 5207.00977
5163.0 0.0001937 5075.15674 5183.11182
5130.0 0.0001949 5071.97510 5155.93604
5188.0 0.0001928 5068.79590 5130.31348
4953.0 0.0002019 5065.62061 5108.90576
5012.0 0.0001995 5062.44775 5092.46143
4944.0 0.0002023 5059.27832 5080.46533
4922.0 0.0002032 5056.11182 5071.81299
5003.0 0.0001999 5052.94824 5065.35596
5022.0 0.0001991 5049.78857 5060.19434
4991.0 0.0002004 5046.63184 5055.74365
5115.0 0.0001955 5043.47754 5051.67383
4922.0 0.0002032 5040.32666 5047.81738
5013.0 0.0001995 5037.17920 5044.09375
4967.0 0.0002013 5034.03467 5040.46240
4975.0 0.0002010 5030.89355 5036.90039
4976.0 0.0002010 5027.75586 5033.39551
4995.0 0.0002002 5024.62061 5029.93506
4943.0 0.0002023 5021.48877 5026.51416
5060.0 0.0001976 5018.36084 5023.12646
5013.0 0.0001995 5015.23535 5019.76660
5162.0 0.0001937 5012.11328 5016.43164
4974.0 0.0002010 5008.99414 5013.11816
4989.0 0.0002004 5005.87891 5009.82373
4975.0 0.0002010 5002.76611 5006.54688
5081.0 0.0001968 4999.65674 5003.28467
5096.0 0.0001962 4996.55078 4997.39404
5048.0 0.0001981 4993.44824 4994.23438
5043.0 0.0001983 4990.34863 4991.08350
5018.0 0.0001993 4987.25195 4987.93994
4828.0 0.0002071 4984.15869 4984.80469
5030.0 0.0001988 4981.06885 4981.67627
4971.0 0.0002012 4977.98242 4978.55469
5034.0 0.0001986 4974.89893 4975.43896
5070.0 0.0001972 4971.81885 4972.32959
4953.0 0.0002019 4968.74219 4969.22559
4997.0 0.0002001 4965.66797 4966.12646
4988.0 0.0002005 4962.59766 4963.03320
4907.0 0.0002038 4959.53076 4959.94482
4991.0 0.0002004 4956.46680 4956.86084
5003.0 0.0001999 4953.40625 4953.78174
5003.0 0.0001999 4950.34912 4950.70703
4993.0 0.0002003 4947.29492 4947.63672
4995.0 0.0002002 4944.24414 4944.57178
4998.0 0.0002001 4941.19727 4941.51025
4842.0 0.0002065 4938.15283 4938.45312
5014.0 0.0001994 4935.11182 4935.39990
5008.0 0.0001997 4932.07422 4932.35010
4969.0 0.0002012 4929.04004 4929.30566
4886.0 0.0002047 4926.00928 4926.26465
4874.0 0.0002052 4922.98145 4923.22705
5001.0 0.0002000 4919.95703 4920.19385
4949.0 0.0002021 4916.93652 4917.77344
4896.0 0.0002042 4913.91846 4914.76562
4971.0 0.0002012 4910.90479 4911.76318
4919.0 0.0002033 4907.89355 4908.76416
4944.0 0.0002023 4904.88623 4905.77100
4974.0 0.0002010 4901.88184 4902.78125
4877.0 0.0002050 4898.88037 4899.79639
5001.0 0.0002000 4895.88281 4896.81641
4937.0 0.0002026 4892.88867 4893.84229
4911.0 0.0002036 4889.89795 4890.87207
4988.0 0.0002005 4886.91064 4887.90674
4921.0 0.0002032 4883.92627 4884.94678
4757.0 0.0002102 4880.94531 4881.99121
4892.0 0.0002044 4877.96826 4879.04199
4943.0 0.0002023 4874.99414 4876.09717
4821.0 0.0002074 4872.02344 4873.15869
4895.0 0.0002043 4869.05566 4870.22510
4807.0 0.0002080 4866.09229 4867.29736
4897.0 0.0002042 4863.13135 4864.37598
4852.0 0.0002061 4860.17432 4861.46045
5027.0 0.0001989 4857.22070 4858.55078
4911.0 0.0002036 4854.27051 4855.64893
4818.0 0.0002076 4851.32373 4852.75244
4991.0 0.0002004 4848.37988 4849.86328
5049.0 0.0001981 4845.43994 4846.98242
4823.0 0.0002073 4842.50342 4844.10840
4893.0 0.0002044 4839.56982 4841.24316
4853.0 0.0002061 4836.64014 4838.38574
4754.0 0.0002103 4833.71338 4835.53760
4784.0 0.0002090 4830.79053 4832.69971
4879.0 0.0002050 4827.87109 4829.77881
4773.0 0.0002095 4824.95508 4826.96436
4755.0 0.0002103 4822.04199 4824.16064
4859.0 0.0002058 4819.13281 4821.37012
4936.0 0.0002026 4816.22705 4818.59375
4872.0 0.0002053 4813.32422 4815.83105
4981.0 0.0002008 4810.42578 4813.08643
4793.0 0.0002086 4807.52979 4815.99268
4888.0 0.0002046 4804.63818 4813.42334
4867.0 0.0002055 4801.74951 4810.88086
4923.0 0.0002031 4798.86426 4808.36865
4814.0 0.0002077 4795.98242 4805.88965
4751.0 0.0002105 4793.10449 4803.44775
4808.0 0.0002080 4790.22949 4801.04834
4867.0 0.0002055 4787.35840 4798.69629
4775.0 0.0002094 4784.49023 4796.39697
4906.0 0.0002038 4781.62598 4794.16113
4764.0 0.0002099 4778.76514 4791.99658
4861.0 0.0002057 4775.90820 4789.91553
4903.0 0.0002040 4773.05371 4787.93213
4836.0 0.0002068 4770.20361 4786.06738
4834.0 0.0002069 4767.35645 4784.34326
4746.0 0.0002107 4764.51318 4782.79346
4902.0 0.0002040 4761.67334 4781.46338
5017.0 0.0001993 4758.83691 4780.42480
4968.0 0.0002013 4756.00391 4779.80127
4789.0 0.0002088 4753.17432 4779.81982
4762.0 0.0002100 4750.34863 4780.90479
4845.0 0.0002064 4747.52637 4783.82764
4967.0 0.0002013 4744.70703 4789.91895
4936.0 0.0002026 4741.89209 4801.30176
4864.0 0.0002056 4739.08008 4821.06055
4808.0 0.0002080 4736.27148 4853.13525
4987.0 0.0002005 4733.46680 4901.62061
5140.0 0.0001946 4730.66553 4969.21484
5049.0 0.0001981 4727.86768 5055.02197
5081.0 0.0001968 4725.07324 5152.59668
5243.0 0.0001907 4722.28271 5248.50732
5436.0 0.0001840 4719.49561 5323.20166
5556.0 0.0001800 4716.71191 5355.46191
5597.0 0.0001787 4713.93164 5330.89062
5372.0 0.0001862 4711.15527 5253.56738
5212.0 0.0001919 4708.38232 5146.20215
5236.0 0.0001910 4705.61279 5034.94775
5178.0 0.0001931 4702.84668 4937.72998
5083.0 0.0001967 4700.08447 4862.59277
4941.0 0.0002024 4697.32520 4809.99023
4809.0 0.0002079 4694.57031 4775.92920
4929.0 0.0002029 4691.81836 4754.93750
4808.0 0.0002080 4689.07031 4742.09521
4892.0 0.0002044 4686.32568 4742.03613
4816.0 0.0002076 4683.58447 4736.54639
4942.0 0.0002023 4680.84717 4732.44922
4888.0 0.0002046 4678.11328 4729.19482
4869.0 0.0002054 4675.38281 4726.52686
4907.0 0.0002038 4672.65576 4733.09033
4683.0 0.0002135 4669.93262 4731.54883
4798.0 0.0002084 4667.21289 4730.39062
4809.0 0.0002079 4664.49707 4729.60059
4769.0 0.0002097 4661.78467 4729.17871
4892.0 0.0002044 4659.07568 4729.13184
4708.0 0.0002124 4656.37012 4729.47949
4806.0 0.0002081 4653.66846 4730.25049
4804.0 0.0002082 4650.97021 4731.48291
4769.0 0.0002097 4648.27588 4733.22803
4748.0 0.0002106 4645.58447 4735.54688
4845.0 0.0002064 4642.89746 4738.52002
4760.0 0.0002101 4640.21338 4742.24463
4929.0 0.0002029 4637.53320 4746.84082
4988.0 0.0002005 4634.85645 4752.46191
4853.0 0.0002061 4632.18408 4759.29590
4838.0 0.0002067 4629.51416 4768.29785
4693.0 0.0002131 4626.84814 4778.37012
4790.0 0.0002088 4624.18604 4790.63086
4820.0 0.0002075 4621.52734 4805.68262
4813.0 0.0002078 4618.87256 4824.46631
4946.0 0.0002022 4616.22119 4848.58789
4796.0 0.0002085 4613.57324 4880.93994
4979.0 0.0002008 4610.92920 4926.79297
5113.0 0.0001956 4608.28857 4995.46533
5142.0 0.0001945 4605.65137 5102.52832
5285.0 0.0001892 4603.01807 5272.04443
5519.0 0.0001812 4600.38818 5537.69922
5933.0 0.0001685 4597.76221 5940.70508
6441.0 0.0001553 4595.13965 6521.50098
7271.0 0.0001375 4592.52051 7302.74268
8103.0 0.0001234 4589.90527 8266.37012
9044.0 0.0001106 4587.29395 9337.53223
10401.0 0.0000961 4584.68604 10379.22266
11502.0 0.0000869 4582.08105 11189.25488
11975.0 0.0000835 4579.48047 11542.50391
11655.0 0.0000858 4576.88330 11297.04199
11034.0 0.0000906 4574.29004 10501.90918
9831.0 0.0001017 4571.69971 9390.97852
8336.0 0.0001200 4569.11377 8231.67676
7183.0 0.0001392 4566.53125 7207.35156
6313.0 0.0001584 4563.95215 6403.11572
5670.0 0.0001764 4561.37646 5829.88086
5368.0 0.0001863 4558.80469 5453.51904
5206.0 0.0001921 4556.23682 5222.07422
5101.0 0.0001960 4553.67236 5085.62402
4911.0 0.0002036 4551.11133 5006.09912
4921.0 0.0002032 4548.55371 4958.78857
4978.0 0.0002009 4546.00049 4929.52881
4977.0 0.0002009 4543.45068 4911.01318
4883.0 0.0002048 4540.90430 4899.91943
4839.0 0.0002067 4538.36133 4895.05322
4794.0 0.0002086 4535.82227 4896.20020
4764.0 0.0002099 4533.28711 4903.00537
5045.0 0.0001982 4530.75586 4917.36621
4931.0 0.0002028 4528.22754 4940.02148
5000.0 0.0002000 4525.70312 4973.71289
5098.0 0.0001962 4523.18213 5023.88770
5326.0 0.0001878 4520.66504 5100.92578
5384.0 0.0001857 4518.15186 5236.60059
5691.0 0.0001757 4515.64160 5435.64893
5901.0 0.0001695 4513.13574 5757.06104
6361.0 0.0001572 4510.63281 6261.58203
7078.0 0.0001413 4508.13379 7015.21436
7967.0 0.0001255 4505.63867 8066.70850
9319.0 0.0001073 4503.14697 9413.86426
10818.0 0.0000924 4500.65967 10972.28125
12251.0 0.0000816 4498.17480 12559.53613
13936.0 0.0000718 4495.69434 13910.59473
15014.0 0.0000666 4493.21729 14748.52930
15252.0 0.0000656 4490.74365 14918.14355
15043.0 0.0000665 4488.27441 14551.31934
14139.0 0.0000707 4485.80811 14052.17090
13919.0 0.0000718 4483.34570 13839.65918
14087.0 0.0000710 4480.88721 14133.82031
14691.0 0.0000681 4478.43164 14894.46973
15522.0 0.0000644 4475.98047 15841.55859
16411.0 0.0000609 4473.53271 16536.36133
16838.0 0.0000594 4471.08887 16532.88477
15931.0 0.0000628 4468.64795 15600.85156
14211.0 0.0000704 4466.21143 13903.09863
11885.0 0.0000841 4463.77832 11870.27734
9666.0 0.0001035 4461.34863 9910.92383
8077.0 0.0001238 4458.92285 8273.08301
6977.0 0.0001433 4456.50049 7047.32275
6042.0 0.0001655 4454.08203 6211.32520
5680.0 0.0001761 4451.66748 5682.83594
5357.0 0.0001867 4449.25586 5366.31494
5222.0 0.0001915 4446.84863 5182.18066
5167.0 0.0001935 4444.44434 5077.14697
5119.0 0.0001954 4442.04443 5022.04004
5059.0 0.0001977 4439.64746 5004.75586
5138.0 0.0001946 4437.25439 5023.03027
5032.0 0.0001987 4434.86523 5078.27295
5262.0 0.0001900 4432.47998 5170.02441
5319.0 0.0001880 4430.09814 5322.67969
5507.0 0.0001816 4427.71924 5457.60352
5524.0 0.0001810 4425.34473 5579.57617
5730.0 0.0001745 4422.97363 5654.80957
5802.0 0.0001724 4420.60645 5652.81250
5719.0 0.0001749 4418.24268 5564.29443
5378.0 0.0001859 4415.88281 5411.26172
5199.0 0.0001923 4413.52588 5233.49219
5141.0 0.0001945 4411.17334 5065.25293
5024.0 0.0001990 4408.82422 4926.16846
4907.0 0.0002038 4406.47900 4822.69629
4687.0 0.0002134 4404.13721 4752.21484
4597.0 0.0002175 4401.79932 4707.51367
4719.0 0.0002119 4399.46436 4680.56152
4698.0 0.0002129 4397.13379 4664.75830
4738.0 0.0002111 4394.80664 4655.63525
4587.0 0.0002180 4392.48291 4650.58203
4565.0 0.0002191 4390.16309 4648.25293
4546.0 0.0002200 4387.84668 4648.01709
4691.0 0.0002132 4385.53418 4649.61621
4633.0 0.0002158 4383.22559 4652.98291
4663.0 0.0002145 4380.91992 4658.14551
4480.0 0.0002232 4378.61865 4665.21191
4638.0 0.0002156 4376.32031 4668.75244
4622.0 0.0002164 4374.02588 4680.42676
4562.0 0.0002192 4371.73535 4694.91602
4616.0 0.0002166 4369.44824 4712.89355
4585.0 0.0002181 4367.16455 4735.37988
4763.0 0.0002100 4364.88525 4763.88965
4709.0 0.0002124 4362.60889 4800.57227
4813.0 0.0002078 4360.33643 4848.28418
4872.0 0.0002053 4358.06738 4910.54443
4966.0 0.0002014 4355.80225 4991.32959
5082.0 0.0001968 4353.54102 5094.80322
5191.0 0.0001926 4351.28271 5225.25293
5198.0 0.0001924 4349.02832 5388.12207
5332.0 0.0001875 4346.77734 5593.70410
5891.0 0.0001698 4344.53076 5863.23193
6339.0 0.0001578 4342.28711 6234.14062
7066.0 0.0001415 4340.04736 6766.00342
7809.0 0.0001281 4337.81104 7545.52246
8826.0 0.0001133 4335.57861 8671.93066
10399.0 0.0000962 4333.34961 10215.52051
12412.0 0.0000806 4331.12451 12164.84277
14206.0 0.0000704 4328.90283 14384.16113
16405.0 0.0000610 4326.68506 16601.50195
18166.0 0.0000550 4324.47070 18416.33789
19483.0 0.0000513 4322.25977 19357.73633
19121.0 0.0000523 4320.05225 19080.02539
18024.0 0.0000555 4317.84912 17607.95312
15845.0 0.0000631 4315.64941 15373.06641
13135.0 0.0000761 4313.45312 12932.40723
10606.0 0.0000943 4311.26025 10700.42383
8562.0 0.0001168 4309.07129 8892.64844
7350.0 0.0001361 4306.88574 7566.67139
6348.0 0.0001575 4304.70410 6677.01855
5814.0 0.0001720 4302.52539 6127.52832
5582.0 0.0001791 4300.35107 5813.67041
5444.0 0.0001837 4298.18018 5644.65967
5533.0 0.0001807 4296.01270 5555.32324
5341.0 0.0001872 4293.84863 5501.75781
5263.0 0.0001900 4291.68848 5458.52148
5218.0 0.0001916 4289.53223 5416.45850
5268.0 0.0001898 4287.37891 5378.83203
5197.0 0.0001924 4285.22949 5353.80420
5299.0 0.0001887 4283.08350 5348.57959
5289.0 0.0001891 4280.94141 5355.12061
5348.0 0.0001870 4278.80322 5404.03418
5555.0 0.0001800 4276.66797 5484.06250
5780.0 0.0001730 4274.53662 5603.52686
5959.0 0.0001678 4272.40918 5778.03955
6360.0 0.0001572 4270.28467 6039.07471
6929.0 0.0001443 4268.16406 6445.35156
7845.0 0.0001275 4266.04688 7122.71143
9029.0 0.0001108 4263.93359 8177.85010
10478.0 0.0000954 4261.82373 9851.84961
12922.0 0.0000774 4259.71729 12399.91211
16512.0 0.0000606 4257.61475 16052.26562
21056.0 0.0000475 4255.51514 20898.91602
26751.0 0.0000374 4253.41992 26745.70508
32740.0 0.0000305 4251.32764 33017.03125
38096.0 0.0000262 4249.23926 38750.67578
42198.0 0.0000237 4247.15430 42674.09375
43954.0 0.0000228 4245.07275 43569.03125
42199.0 0.0000237 4242.99561 40970.87500
36256.0 0.0000276 4240.92090 35626.78906
28926.0 0.0000346 4238.85010 29049.28516
21876.0 0.0000457 4236.78320 22612.72461
16309.0 0.0000613 4234.71973 17152.25391
12450.0 0.0000803 4232.66016 12992.15039
9510.0 0.0001052 4230.60352 10094.14551
7804.0 0.0001281 4228.55078 8217.88867
6755.0 0.0001480 4226.50146 7063.69775
6185.0 0.0001617 4224.45557 6366.99023
5785.0 0.0001729 4222.41357 5936.89600
5484.0 0.0001823 4220.37451 5654.64795
5278.0 0.0001895 4218.33984 5454.97021
5036.0 0.0001986 4216.30811 5302.33643
5034.0 0.0001986 4214.27979 5180.17529
4929.0 0.0002029 4212.25537 5079.56250
4756.0 0.0002103 4210.23438 4995.25391
4628.0 0.0002161 4208.21680 4923.81494
4642.0 0.0002154 4206.20264 4862.78027
4754.0 0.0002103 4204.19238 4810.28613
4842.0 0.0002065 4202.18555 4764.88281
4507.0 0.0002219 4200.18213 4725.42676
4585.0 0.0002181 4198.18213 4691.00732
4552.0 0.0002197 4196.18555 4660.89209
4766.0 0.0002098 4194.19287 4634.48682
4666.0 0.0002143 4192.20361 4611.31104
4637.0 0.0002157 4190.21777 4590.97119
4456.0 0.0002244 4188.23535 4573.14697
4564.0 0.0002191 4186.25635 4557.57617
4496.0 0.0002224 4184.28125 4544.04443
4621.0 0.0002164 4182.30957 4532.38086
4553.0 0.0002196 4180.34082 4522.44727
4541.0 0.0002202 4178.37598 4514.13916
4458.0 0.0002243 4176.41455 4507.37695
4485.0 0.0002230 4174.45703 4502.10840
4444.0 0.0002250 4172.50244 4498.30615
4350.0 0.0002299 4170.55176 4495.96289
4323.0 0.0002313 4168.60400 4495.10107
4236.0 0.0002361 4166.66016 4495.76758
4477.0 0.0002234 4164.71973 4498.03955
4334.0 0.0002307 4162.78271 4502.03809
4311.0 0.0002320 4160.84912 4507.93896
4383.0 0.0002282 4158.91895 4516.01953
4357.0 0.0002295 4156.99219 4526.72168
4418.0 0.0002263 4155.06934 4540.77100
4586.0 0.0002181 4153.14941 4559.36035
4588.0 0.0002180 4151.23340 4584.36523
4558.0 0.0002194 4149.32031 4618.53760
4542.0 0.0002202 4147.41064 4665.54346
4605.0 0.0002172 4145.50488 4729.64307
4686.0 0.0002134 4143.60254 4814.85498
4766.0 0.0002098 4141.70361 4923.46826
4872.0 0.0002053 4139.80762 5042.11426
5083.0 0.0001967 4137.91553 5187.90625
5282.0 0.0001893 4136.02686 5336.58936
5418.0 0.0001846 4134.14160 5474.03711
5557.0 0.0001800 4132.25977 5587.06396
5544.0 0.0001804 4130.38086 5671.35742
5661.0 0.0001766 4128.50586 5745.72314
5955.0 0.0001679 4126.63428 5852.38477
6198.0 0.0001613 4124.76562 6045.36377
6357.0 0.0001573 4122.90137 6385.30176
7145.0 0.0001400 4121.03955 6946.91797
7970.0 0.0001255 4119.18164 7829.80420
9592.0 0.0001043 4117.32715 9168.93457
11540.0 0.0000867 4115.47607 11133.36426
13964.0 0.0000716 4113.62793 13899.11426
17593.0 0.0000568 4111.78320 17590.19336
21630.0 0.0000462 4109.94238 22179.93555
27055.0 0.0000370 4108.10449 27365.57422
32702.0 0.0000306 4106.27051 32487.60352
36607.0 0.0000273 4104.43945 36549.69531
38137.0 0.0000262 4102.61133 38410.48438
36887.0 0.0000271 4100.78760 37309.70312
33301.0 0.0000300 4098.96680 33458.87891
28270.0 0.0000354 4097.14893 27996.68750
22086.0 0.0000453 4095.33496 22241.40820
16762.0 0.0000597 4093.52393 17125.08789
12582.0 0.0000795 4091.71680 13102.99219
10189.0 0.0000981 4089.91260 10250.06738
8460.0 0.0001182 4088.11182 8397.94043
7482.0 0.0001337 4086.31445 7273.17969
6615.0 0.0001512 4084.52051 6572.63232
6101.0 0.0001639 4082.72949 6147.66211
5781.0 0.0001730 4080.94214 5836.39160
5592.0 0.0001788 4079.15820 5585.53809
5449.0 0.0001835 4077.37744 5373.13574
5271.0 0.0001897 4075.60010 5207.30859
5159.0 0.0001938 4073.82568 5094.42676
5095.0 0.0001963 4072.05493 5038.08154
5317.0 0.0001881 4070.28760 5036.69092
5305.0 0.0001885 4068.52344 5081.87793
5408.0 0.0001849 4066.76245 5157.42871
5436.0 0.0001840 4065.00464 5239.55518
5420.0 0.0001845 4063.25049 5298.54932
5439.0 0.0001839 4061.49927 5304.18799
5314.0 0.0001882 4059.75171 5238.98730
5247.0 0.0001906 4058.00708 5110.98340
4994.0 0.0002002 4056.26587 4949.18994
4883.0 0.0002048 4054.52808 4784.63867
4685.0 0.0002134 4052.79346 4638.41943
4686.0 0.0002134 4051.06201 4520.69531
4575.0 0.0002186 4049.33398 4433.37842
4372.0 0.0002287 4047.60938 4373.27783
4406.0 0.0002270 4045.88770 4335.02246
4458.0 0.0002243 4044.16919 4313.20020
4405.0 0.0002270 4042.45386 4303.31348
4397.0 0.0002274 4040.74219 4301.72168
4413.0 0.0002266 4039.03369 4305.02344
4202.0 0.0002380 4037.32837 4309.57422
4283.0 0.0002335 4035.62598 4311.53125
4427.0 0.0002259 4033.92725 4307.13525
4289.0 0.0002332 4032.23145 4293.70996
4359.0 0.0002294 4030.53906 4271.78955
4234.0 0.0002362 4028.84961 4245.11035
4261.0 0.0002347 4027.16382 4217.88525
4253.0 0.0002351 4025.48096 4192.99854
4212.0 0.0002374 4023.80103 4171.87012
4169.0 0.0002399 4022.12476 4154.81592
4280.0 0.0002336 4020.45142 4141.43359
4190.0 0.0002387 4018.78149 4130.97070
4225.0 0.0002367 4017.11450 4122.62256
4184.0 0.0002390 4015.45068 4115.71338
4047.0 0.0002471 4013.79028 4109.75586
4126.0 0.0002424 4012.13306 4104.43945
4090.0 0.0002445 4010.47900 4099.57715
4092.0 0.0002444 4008.82788 4095.06543
4186.0 0.0002389 4007.17993 4090.84204
4095.0 0.0002442 4005.53540 4086.86938
3983.0 0.0002511 4003.89380 4083.12012
4100.0 0.0002439 4002.25537 4079.57739
4086.0 0.0002447 4000.62012 4076.22266
4024.0 0.0002485 3998.98804 4073.04468
4113.0 0.0002431 3997.35913 4070.03394
4173.0 0.0002396 3995.73315 4067.18237
3971.0 0.0002518 3994.11060 4064.48389
4222.0 0.0002369 3992.49097 4061.93457
4114.0 0.0002431 3990.87451 4059.52979
4081.0 0.0002450 3989.26099 4057.26709
4142.0 0.0002414 3987.65088 4066.34058
4110.0 0.0002433 3986.04370 4064.73486
4145.0 0.0002413 3984.43970 4063.28369
4136.0 0.0002418 3982.83887 4061.98999
4071.0 0.0002456 3981.24097 4060.85864
4106.0 0.0002435 3979.64624 4059.89648
4102.0 0.0002438 3978.05444 4059.11035
4022.0 0.0002486 3976.46582 4058.51050
4084.0 0.0002449 3974.88037 4058.10889
4076.0 0.0002453 3973.29785 4057.91895
4070.0 0.0002457 3971.71851 4058.39844
4088.0 0.0002446 3970.14209 4058.69141
4053.0 0.0002467 3968.56860 4059.25439
3997.0 0.0002502 3966.99854 4060.11377
4028.0 0.0002483 3965.43140 4061.29980
4154.0 0.0002407 3963.86743 4062.84985
4003.0 0.0002498 3962.30615 4039.49414
4034.0 0.0002479 3960.74805 4042.50977
3930.0 0.0002545 3959.19312 4046.02588
3904.0 0.0002561 3957.64087 4050.11670
3985.0 0.0002509 3956.09204 4055.58276
4151.0 0.0002409 3954.54590 4061.13013
4073.0 0.0002455 3953.00317 4067.58521
4005.0 0.0002497 3951.46313 4075.11182
3917.0 0.0002553 3949.92603 4083.91260
4119.0 0.0002428 3948.39209 4094.24658
4077.0 0.0002453 3946.86108 4106.44922
4014.0 0.0002491 3945.33325 4120.55859
4041.0 0.0002475 3943.80811 4138.10547
4019.0 0.0002488 3942.28589 4159.72119
4194.0 0.0002384 3940.76685 4187.20654
4311.0 0.0002320 3939.25073 4223.69727
4268.0 0.0002343 3937.73779 4274.59717
4392.0 0.0002277 3936.22729 4348.84912
4593.0 0.0002177 3934.71997 4460.26660
4800.0 0.0002083 3933.21582 4628.32178
5170.0 0.0001934 3931.71436 4877.39551
5460.0 0.0001832 3930.21606 5233.35400
5918.0 0.0001690 3928.72070 5717.35400
6451.0 0.0001550 3927.22827 6331.32666
7088.0 0.0001411 3925.73853 7052.33105
7817.0 0.0001279 3924.25146 7812.92627
8342.0 0.0001199 3922.76807 8505.01855
8864.0 0.0001128 3921.28687 8995.67773
8853.0 0.0001130 3919.80884 9154.04883
8687.0 0.0001151 3918.33398 8911.03516
8467.0 0.0001181 3916.86182 8329.27344
7710.0 0.0001297 3915.39233 7569.54199
6708.0 0.0001491 3913.92578 6788.41846
5916.0 0.0001690 3912.46240 6087.49854
5360.0 0.0001866 3911.00171 5515.60889
5059.0 0.0001977 3909.54370 5083.49268
4725.0 0.0002116 3908.08887 4777.62207
4523.0 0.0002211 3906.63696 4572.39551
4282.0 0.0002335 3905.18750 4439.89844
4319.0 0.0002315 3903.74121 4356.03564
4298.0 0.0002327 3902.29761 4302.99854
4273.0 0.0002340 3900.85693 4269.09863
4134.0 0.0002419 3899.41895 4247.35693
4129.0 0.0002422 3897.98389 4233.90430
4301.0 0.0002325 3896.55151 4226.71436
4242.0 0.0002357 3895.12207 4224.78809
4241.0 0.0002358 3893.69580 4227.69678
4076.0 0.0002453 3892.27197 4235.36328
4114.0 0.0002431 3890.85083 4247.98340
4212.0 0.0002374 3889.43286 4266.01611
4276.0 0.0002339 3888.01709 4290.25098
4285.0 0.0002334 3886.60449 4321.99414
4308.0 0.0002321 3885.19458 4363.47363
4414.0 0.0002266 3883.78760 4418.69385
4469.0 0.0002238 3882.38330 4494.96680
4594.0 0.0002177 3880.98193 4606.01953
4745.0 0.0002107 3879.58325 4775.45166
5145.0 0.0001944 3878.18701 5041.71533
5478.0 0.0001825 3876.79370 5461.35254
6218.0 0.0001608 3875.40308 6107.59766
7217.0 0.0001386 3874.01538 7059.97412
8447.0 0.0001184 3872.63013 8381.55078
10083.0 0.0000992 3871.24805 10083.68457
12020.0 0.0000832 3869.86841 12083.06641
14122.0 0.0000708 3868.49146 14167.69434
16035.0 0.0000624 3867.11719 16003.90625
16953.0 0.0000590 3865.74585 17199.00195
16833.0 0.0000594 3864.37695 17395.51562
16234.0 0.0000616 3863.01074 16469.52539
14691.0 0.0000681 3861.64746 14690.08594
12695.0 0.0000788 3860.28687 12539.58203
10581.0 0.0000945 3858.92896 10432.15234
8826.0 0.0001133 3857.57349 8617.11523
7357.0 0.0001359 3856.22095 7198.59717
6449.0 0.0001551 3854.87085 6176.64404
5748.0 0.0001740 3853.52344 5489.53516
5128.0 0.0001950 3852.17871 5052.43506
4756.0 0.0002103 3850.83667 4785.55762
4414.0 0.0002266 3849.49707 4628.46143
4553.0 0.0002196 3848.16064 4542.72852
4539.0 0.0002203 3846.82642 4507.92578
4424.0 0.0002260 3845.49487 4515.23633
4486.0 0.0002229 3844.16602 4561.23730
4502.0 0.0002221 3842.83984 4642.59570
4791.0 0.0002087 3841.51611 4751.87402
4941.0 0.0002024 3840.19482 4875.21289
5026.0 0.0001990 3838.87622 4993.15234
5163.0 0.0001937 3837.56079 5083.58740
5030.0 0.0001988 3836.24731 5127.98291
5139.0 0.0001946 3834.93652 5122.36572
5160.0 0.0001938 3833.62866 5076.95312
4918.0 0.0002033 3832.32300 5001.84180
4889.0 0.0002045 3831.02002 4899.40088
4807.0 0.0002080 3829.71948 4770.13770
4764.0 0.0002099 3828.42163 4623.39355
4466.0 0.0002239 3827.12622 4476.28320
4269.0 0.0002342 3825.83350 4343.54785
4147.0 0.0002411 3824.54346 4232.95020
4119.0 0.0002428 3823.25562 4146.46143
4090.0 0.0002445 3821.97021 4082.35913
3996.0 0.0002503 3820.68774 4036.88501
3970.0 0.0002519 3819.40747 4005.58691
3902.0 0.0002563 3818.12988 3984.32520
3873.0 0.0002582 3816.85474 3969.84204
3818.0 0.0002619 3815.58228 3959.91626
3931.0 0.0002544 3814.31201 3953.26001
3966.0 0.0002521 3813.04443 3949.34521
3988.0 0.0002508 3811.77905 3948.29126
3963.0 0.0002523 3810.51660 3950.88525
4057.0 0.0002465 3809.25635 3958.72388
3958.0 0.0002527 3807.99854 3974.39844
4082.0 0.0002450 3806.74316 4001.56934
3964.0 0.0002523 3805.49048 4044.72607
4098.0 0.0002440 3804.23999 4108.41650
4099.0 0.0002440 3802.99219 4195.81396
4314.0 0.0002318 3801.74658 4306.68066
4420.0 0.0002262 3800.50342 4434.96924
4561.0 0.0002193 3799.26270 4566.89844
4652.0 0.0002150 3798.02441 4681.30469
4959.0 0.0002017 3796.78857 4753.22168
4902.0 0.0002040 3795.55518 4760.62988
4687.0 0.0002134 3794.32446 4696.99268
4523.0 0.0002211 3793.09570 4579.65576
4338.0 0.0002305 3791.86938 4438.26123
4371.0 0.0002288 3790.64575 4298.41260
4279.0 0.0002337 3789.42407 4175.66992
4082.0 0.0002450 3788.20508 4072.50781
4062.0 0.0002462 3786.98828 3998.54639
3832.0 0.0002610 3785.77393 3946.19727
3895.0 0.0002567 3784.56201 3910.65723
3897.0 0.0002566 3783.35229 3887.12329
3798.0 0.0002633 3782.14526 3871.34009
3850.0 0.0002597 3780.94019 3860.50513
3811.0 0.0002624 3779.73755 3852.78735
3944.0 0.0002535 3778.53711 3847.17383
3811.0 0.0002624 3777.33936 3843.23364
3733.0 0.0002679 3776.14355 3841.00317
3869.0 0.0002585 3774.95044 3840.88452
3865.0 0.0002587 3773.75952 3843.79492
3847.0 0.0002599 3772.57056 3851.12329
3936.0 0.0002541 3771.38428 3864.65747
3970.0 0.0002519 3770.19995 3886.24951
3965.0 0.0002522 3769.01807 3917.18604
3858.0 0.0002592 3767.83862 3957.26880
4072.0 0.0002456 3766.66113 4003.79858
4184.0 0.0002390 3765.48608 4050.87402
4164.0 0.0002402 3764.31348 4089.81226
4151.0 0.0002409 3763.14307 4110.90430
4102.0 0.0002438 3761.97461 4106.49756
4211.0 0.0002375 3760.80859 4076.12451
3975.0 0.0002516 3759.64478 4015.38135
3879.0 0.0002578 3758.48315 3961.74878
3836.0 0.0002607 3757.32397 3910.97632
3784.0 0.0002643 3756.16650 3868.09180
3836.0 0.0002607 3755.01196 3834.90137
3739.0 0.0002675 3753.85913 3811.81885
3770.0 0.0002653 3752.70874 3795.43823
3732.0 0.0002680 3751.56030 3784.51318
3804.0 0.0002629 3750.41431 3777.17261
3782.0 0.0002644 3749.27026 3772.01758
3884.0 0.0002575 3748.12842 3768.13696
3750.0 0.0002667 3746.98901 3765.07837
3603.0 0.0002775 3745.85181 3762.38623
3689.0 0.0002711 3744.71655 3759.98779
3732.0 0.0002680 3743.58325 3757.79980
3939.0 0.0002539 3742.45239 3755.77100
3726.0 0.0002684 3741.32349 3753.87207
3692.0 0.0002709 3740.19702 3752.07959
3767.0 0.0002655 3739.07227 3750.37695
3685.0 0.0002714 3737.94995 3748.75171
3745.0 0.0002670 3736.82983 3747.19214
3803.0 0.0002630 3735.71167 3745.69141
3610.0 0.0002770 3734.59570 3744.92798
3721.0 0.0002687 3733.48169 3743.53809
3659.0 0.0002733 3732.36987 3742.18994
3814.0 0.0002622 3731.26001 3740.87964
3756.0 0.0002662 3730.15234 3739.60596
3657.0 0.0002734 3729.04663 3739.26416
3676.0 0.0002720 3727.94312 3738.07690
3665.0 0.0002729 3726.84204 3736.92163
3755.0 0.0002663 3725.74268 3735.79736
3657.0 0.0002734 3724.64526 3734.70312
3615.0 0.0002766 3723.55005 3733.64111
3660.0 0.0002732 3722.45654 3732.61011
3623.0 0.0002760 3721.36548 3731.61279
3782.0 0.0002644 3720.27637 3730.65063
3729.0 0.0002682 3719.18921 3729.72656
3591.0 0.0002785 3718.10425 3728.84473
3674.0 0.0002722 3717.02124 3728.00977
3696.0 0.0002706 3715.94019 3727.48462
3691.0 0.0002709 3714.86108 3725.87134
3678.0 0.0002719 3713.78394 3725.26294
3776.0 0.0002648 3712.70898 3724.77197
3629.0 0.0002756 3711.63574 3724.45605
3597.0 0.0002780 3710.56470 3724.41895
3690.0 0.0002710 3709.49561 3724.83105
3736.0 0.0002677 3708.42847 3725.94995
3736.0 0.0002677 3707.36353 3728.12109
3739.0 0.0002675 3706.30005 3731.74292
3830.0 0.0002611 3705.23877 3737.17773
3735.0 0.0002677 3704.17944 3744.59814
3661.0 0.0002731 3703.12207 3753.81543
3702.0 0.0002701 3702.06665 3764.11646
3687.0 0.0002712 3701.01318 3774.47607
3733.0 0.0002679 3699.96167 3782.93555
3775.0 0.0002649 3698.91211 3788.42676
3709.0 0.0002696 3697.86426 3790.74487
3774.0 0.0002650 3696.81836 3791.39722
3803.0 0.0002630 3695.77441 3792.88013
3777.0 0.0002648 3694.73242 3797.12524
3755.0 0.0002663 3693.69214 3804.51587
3836.0 0.0002607 3692.65381 3813.63257
3739.0 0.0002675 3691.61768 3821.58032
3863.0 0.0002589 3690.58301 3824.83984
3832.0 0.0002610 3689.55054 3820.66113
3772.0 0.0002651 3688.51953 3808.91309
3795.0 0.0002635 3687.49072 3792.36890
3767.0 0.0002655 3686.46338 3775.03760
3708.0 0.0002697 3685.43848 3758.10278
3805.0 0.0002628 3684.41504 3745.02612
3769.0 0.0002653 3683.39331 3735.56641
3661.0 0.0002731 3682.37378 3729.57324
3701.0 0.0002702 3681.35596 3726.54004
3684.0 0.0002714 3680.33960 3725.91772
3728.0 0.0002682 3679.32544 3727.34473
3764.0 0.0002657 3678.31274 3730.81616
3756.0 0.0002662 3677.30200 3736.82422
3723.0 0.0002686 3676.29321 3746.52954
3757.0 0.0002662 3675.28589 3761.96631
3793.0 0.0002636 3674.28076 3786.31201
3951.0 0.0002531 3673.27734 3823.54639
3864.0 0.0002588 3672.27539 3878.19653
3838.0 0.0002606 3671.27539 3955.12427
3933.0 0.0002543 3670.27710 4056.05786
4204.0 0.0002379 3669.28076 4178.60010
4198.0 0.0002382 3668.28564 4313.75732
4362.0 0.0002293 3667.29272 4444.87109
4508.0 0.0002218 3666.30151 4549.13525
4578.0 0.0002184 3665.31201 4602.41113
4639.0 0.0002156 3664.32422 4588.66309
4526.0 0.0002209 3663.33789 4512.39014
4386.0 0.0002280 3662.35352 4397.77246
4147.0 0.0002411 3661.37085 4272.02881
4103.0 0.0002437 3660.38989 4153.82178
4047.0 0.0002471 3659.41040 4052.20435
3920.0 0.0002551 3658.43286 3969.77563
3876.0 0.0002580 3657.45703 3906.23340
3918.0 0.0002552 3656.48267 3860.30518
3766.0 0.0002655 3655.51025 3830.34863
3885.0 0.0002574 3654.53906 3815.15869
3869.0 0.0002585 3653.56982 3814.86719
3858.0 0.0002592 3652.60229 3831.38623
3877.0 0.0002579 3651.63623 3868.23291
3925.0 0.0002548 3650.67212 3929.76929
3952.0 0.0002530 3649.70947 4019.08008
4174.0 0.0002396 3648.74854 4136.22363
4281.0 0.0002336 3647.78906 4277.63867
4358.0 0.0002295 3646.83130 4423.62744
4515.0 0.0002215 3645.87500 4553.91699
4582.0 0.0002182 3644.92041 4641.60986
4820.0 0.0002075 3643.96753 4664.61719
4631.0 0.0002159 3643.01611 4619.75342
4464.0 0.0002240 3642.06665 4529.64551
4362.0 0.0002293 3641.11841 4430.15283
4426.0 0.0002259 3640.17188 4351.82373
4367.0 0.0002290 3639.22681 4312.94043
4340.0 0.0002304 3638.28345 4318.86719
4367.0 0.0002290 3637.34155 4362.67432
4453.0 0.0002246 3636.40112 4426.54785
4538.0 0.0002204 3635.46240 4485.11475
4455.0 0.0002245 3634.52515 4511.46191
4472.0 0.0002236 3633.58960 4486.43457
4339.0 0.0002305 3632.65552 4409.37451
4350.0 0.0002299 3631.72290 4298.30127
4111.0 0.0002432 3630.79175 4178.28223
4101.0 0.0002438 3629.86230 4064.37207
3876.0 0.0002580 3628.93433 3968.86182
3852.0 0.0002596 3628.00781 3896.57349
3836.0 0.0002607 3627.08276 3848.29761
3788.0 0.0002640 3626.15942 3822.50366
3902.0 0.0002563 3625.23755 3816.66211
3892.0 0.0002569 3624.31689 3827.93286
3784.0 0.0002643 3623.39771 3853.13574
3797.0 0.0002634 3622.48047 3888.18359
3951.0 0.0002531 3621.56421 3927.33813
3938.0 0.0002539 3620.64966 3962.90967
4039.0 0.0002476 3619.73657 3986.14502
3884.0 0.0002575 3618.82495 3989.70972
3970.0 0.0002519 3617.91479 3971.74341
3937.0 0.0002540 3617.00586 3938.46606
3856.0 0.0002593 3616.09863 3900.60889
3794.0 0.0002636 3615.19263 3868.63574
3801.0 0.0002631 3614.28809 3850.96436
3854.0 0.0002595 3613.38501 3854.07935
3862.0 0.0002589 3612.48340 3882.56934
3814.0 0.0002622 3611.58325 3938.51440
4037.0 0.0002477 3610.68457 4020.16577
4170.0 0.0002398 3609.78711 4120.78027
4228.0 0.0002365 3608.89111 4226.70020
4282.0 0.0002335 3607.99658 4318.12451
4357.0 0.0002295 3607.10327 4372.54834
4380.0 0.0002283 3606.21143 4372.14209
4353.0 0.0002297 3605.32104 4317.55566
4185.0 0.0002389 3604.43188 4220.17480
3987.0 0.0002508 3603.54419 4107.46680
3948.0 0.0002533 3602.65796 4000.30664
3922.0 0.0002550 3601.77271 3911.17773
3837.0 0.0002606 3600.88916 3845.19849
3719.0 0.0002689 3600.00684 3801.81152
3735.0 0.0002677 3599.12598 3776.63623
3815.0 0.0002621 3598.24634 3763.31519
3770.0 0.0002653 3597.36792 3755.18213
3805.0 0.0002628 3596.49121 3746.69336
3674.0 0.0002722 3595.61523 3734.76636
3671.0 0.0002724 3594.74097 3719.44165
3738.0 0.0002675 3593.86816 3702.70435
3660.0 0.0002732 3592.99609 3686.67261
3505.0 0.0002853 3592.12573 3672.77905
3605.0 0.0002774 3591.25659 3661.70874
3669.0 0.0002726 3590.38892 3658.18921
3731.0 0.0002680 3589.52222 3652.73730
3588.0 0.0002787 3588.65698 3649.38232
3689.0 0.0002711 3587.79297 3647.55835
3693.0 0.0002708 3586.93018 3646.72559
3645.0 0.0002743 3586.06885 3646.39795
3676.0 0.0002720 3585.20850 3646.16064
3539.0 0.0002826 3584.34937 3645.70557
3640.0 0.0002747 3583.49170 3644.91431
3591.0 0.0002785 3582.63525 3643.89868
3633.0 0.0002753 3581.78027 3642.89819
3688.0 0.0002711 3580.92603 3642.12793
3656.0 0.0002735 3580.07324 3641.73291
3549.0 0.0002818 3579.22168 3641.01587
3670.0 0.0002725 3578.37134 3641.54883
3721.0 0.0002687 3577.52222 3642.53857
3782.0 0.0002644 3576.67432 3644.05225
3610.0 0.0002770 3575.82764 3645.91138
3684.0 0.0002714 3574.98218 3648.21655
3668.0 0.0002726 3574.13770 3651.01758
3645.0 0.0002743 3573.29468 3654.41528
3662.0 0.0002731 3572.45264 3658.58154
3729.0 0.0002682 3571.61182 3663.78613
3635.0 0.0002751 3570.77197 3670.57959
3578.0 0.0002795 3569.93359 3679.17871
3729.0 0.0002682 3569.09644 3690.35352
3679.0 0.0002718 3568.26025 3704.70923
3616.0 0.0002765 3567.42529 3722.69751
3813.0 0.0002623 3566.59155 3744.44702
3735.0 0.0002677 3565.75879 3769.59595
3840.0 0.0002604 3564.92725 3797.10742
3824.0 0.0002615 3564.09692 3825.11572
3835.0 0.0002608 3563.26758 3851.26001
3870.0 0.0002584 3562.43945 3874.19995
3869.0 0.0002585 3561.61230 3895.39087
4023.0 0.0002486 3560.78662 3919.16357
4046.0 0.0002472 3559.96167 3948.20264
4069.0 0.0002458 3559.13794 3985.13550
3958.0 0.0002527 3558.31519 4030.25879
4196.0 0.0002383 3557.49390 4083.19995
4193.0 0.0002385 3556.67334 4145.03857
4415.0 0.0002265 3555.85400 4221.59961
4522.0 0.0002211 3555.03564 4326.65479
4594.0 0.0002177 3554.21851 4481.60645
4930.0 0.0002028 3553.40259 4711.24268
5121.0 0.0001953 3552.58740 5038.73096
5540.0 0.0001805 3551.77344 5480.29199
5897.0 0.0001696 3550.96045 6038.28027
6343.0 0.0001577 3550.14844 6691.97607
7003.0 0.0001428 3549.33765 7386.26367
7696.0 0.0001299 3548.52783 8023.54980
8229.0 0.0001215 3547.71899 8476.89844
8554.0 0.0001169 3546.91162 8639.50098
8674.0 0.0001153 3546.10474 8476.54199
8228.0 0.0001215 3545.29932 8030.59619
7910.0 0.0001264 3544.49438 7398.15820
7285.0 0.0001373 3543.69092 6698.47021
6490.0 0.0001541 3542.88818 6025.60742
5604.0 0.0001784 3542.08667 5444.16406
5105.0 0.0001959 3541.28613 4982.44141
4918.0 0.0002033 3540.48657 4643.67773
4529.0 0.0002208 3539.68774 4415.11963
4333.0 0.0002308 3538.89038 4276.03760
4220.0 0.0002370 3538.09351 4203.75049
4151.0 0.0002409 3537.29785 4177.00146
4200.0 0.0002381 3536.50317 4177.03662
4212.0 0.0002374 3535.70947 4187.71729
4189.0 0.0002387 3534.91650 4196.22363
4157.0 0.0002406 3534.12500 4195.47119
4102.0 0.0002438 3533.33398 4187.74609
4190.0 0.0002387 3532.54419 4185.22510
4265.0 0.0002345 3531.75513 4205.81055
4188.0 0.0002388 3530.96729 4269.50146
4300.0 0.0002326 3530.18018 4396.73682
4424.0 0.0002260 3529.39404 4605.14062
4758.0 0.0002102 3528.60864 4909.33154
5165.0 0.0001936 3527.82446 5309.00195
5491.0 0.0001821 3527.04126 5786.37207
6228.0 0.0001606 3526.25879 6298.33838
6639.0 0.0001506 3525.47729 6769.36182
7108.0 0.0001407 3524.69653 7093.73193
7266.0 0.0001376 3523.91699 7173.40527
7301.0 0.0001370 3523.13794 6981.98096
6920.0 0.0001445 3522.36035 6589.54980
6553.0 0.0001526 3521.58325 6106.46240
6128.0 0.0001632 3520.80713 5626.37305
5628.0 0.0001777 3520.03198 5210.79297
5196.0 0.0001925 3519.25757 4894.74023
4804.0 0.0002082 3518.48413 4695.78955
4814.0 0.0002077 3517.71143 4622.96143
4781.0 0.0002092 3516.93970 4684.33545
5078.0 0.0001969 3516.16870 4891.17139
5224.0 0.0001914 3515.39868 5258.01318
5711.0 0.0001751 3514.62964 5788.37842
6228.0 0.0001606 3513.86133 6473.26172
6939.0 0.0001441 3513.09375 7270.98193
7809.0 0.0001281 3512.32715 8096.14990
8529.0 0.0001172 3511.56128 8808.94922
8913.0 0.0001122 3510.79639 9229.04297
9058.0 0.0001104 3510.03223 9213.66406
8809.0 0.0001135 3509.26880 8764.53711
8369.0 0.0001195 3508.50635 8025.86963
7482.0 0.0001337 3507.74463 7176.69238
6649.0 0.0001504 3506.98389 6353.93945
5907.0 0.0001693 3506.22388 5639.20020
5203.0 0.0001922 3505.46460 5068.53760
4922.0 0.0002032 3504.70630 4644.71240
4592.0 0.0002178 3503.94849 4349.48291
4249.0 0.0002353 3503.19165 4155.17822
4247.0 0.0002355 3502.43555 4033.63452
4051.0 0.0002469 3501.68042 3961.39380
4012.0 0.0002493 3500.92603 3920.80786
4054.0 0.0002467 3500.17212 3899.91992
3936.0 0.0002541 3499.41919 3890.27124
3905.0 0.0002561 3498.66699 3885.59619
3828.0 0.0002612 3497.91553 3881.88062
3950.0 0.0002532 3497.16504 3878.21069
3939.0 0.0002539 3496.41504 3875.80225
3951.0 0.0002531 3495.66602 3875.36572
3913.0 0.0002556 3494.91748 3875.28223
3870.0 0.0002584 3494.16992 3871.50635
3884.0 0.0002575 3493.42310 3859.67310
3846.0 0.0002600 3492.67676 3838.94531
3901.0 0.0002563 3491.93140 3813.59302
3969.0 0.0002520 3491.18677 3790.45264
3807.0 0.0002627 3490.44287 3776.10229
3848.0 0.0002599 3489.69946 3775.81079
3798.0 0.0002633 3488.95703 3793.16382
3852.0 0.0002596 3488.21533 3829.46313
3831.0 0.0002610 3487.47412 3882.94043
3921.0 0.0002550 3486.73389 3947.96216
4066.0 0.0002459 3485.99414 4014.16992
4016.0 0.0002490 3485.25537 4066.73975
4065.0 0.0002460 3484.51709 4088.93140
4135.0 0.0002418 3483.77930 4071.52588
4085.0 0.0002448 3483.04272 4019.91333
4062.0 0.0002462 3482.30664 3948.52563
3998.0 0.0002501 3481.57080 3872.54492
3787.0 0.0002641 3480.83618 3802.81079
3698.0 0.0002704 3480.10205 3745.70508
3853.0 0.0002595 3479.36841 3703.99414
3754.0 0.0002664 3478.63574 3677.91797
3712.0 0.0002694 3477.90356 3666.28174
3746.0 0.0002670 3477.17212 3667.33057
3749.0 0.0002667 3476.44141 3679.20972
3815.0 0.0002621 3475.71118 3699.98267
3805.0 0.0002628 3474.98169 3727.32251
3828.0 0.0002612 3474.25293 3758.00854
3800.0 0.0002632 3473.52466 3787.37500
3783.0 0.0002643 3472.79712 3809.33252
3841.0 0.0002603 3472.07031 3818.34790
3864.0 0.0002588 3471.34399 3813.12891
3821.0 0.0002617 3470.61841 3797.96558
3809.0 0.0002625 3469.89355 3779.77490
3738.0 0.0002675 3469.16895 3764.78442
3853.0 0.0002595 3468.44531 3757.88281
3861.0 0.0002590 3467.72192 3760.77759
3802.0 0.0002630 3466.99951 3775.49219
3824.0 0.0002615 3466.27759 3802.92407
3856.0 0.0002593 3465.55640 3844.19727
3863.0 0.0002589 3464.83569 3901.86548
4047.0 0.0002471 3464.11572 3981.40161
4181.0 0.0002392 3463.39624 4094.10742
4305.0 0.0002323 3462.67725 4250.27148
4478.0 0.0002233 3461.95898 4465.25781
4831.0 0.0002070 3461.24121 4743.95264
5133.0 0.0001948 3460.52417 5092.99463
5199.0 0.0001923 3459.80762 5492.12598
5722.0 0.0001748 3459.09180 5904.63037
6197.0 0.0001614 3458.37646 6268.33984
6349.0 0.0001575 3457.66162 6500.65039
6407.0 0.0001561 3456.94727 6530.83740
6388.0 0.0001565 3456.23389 6348.35889
6187.0 0.0001616 3455.52051 6011.30176
5635.0 0.0001775 3454.80811 5603.13770
5327.0 0.0001877 3454.09595 5192.77783
4954.0 0.0002019 3453.38477 4824.01172
4703.0 0.0002126 3452.67407 4519.71533
4255.0 0.0002350 3451.96362 4288.05322
4071.0 0.0002456 3451.25391 4127.33691
3990.0 0.0002506 3450.54492 4034.44067
4184.0 0.0002390 3449.83618 4004.32715
4070.0 0.0002457 3449.12793 4036.20020
4088.0 0.0002446 3448.42041 4132.90479
4280.0 0.0002336 3447.71338 4298.47168
4630.0 0.0002160 3447.00684 4540.92529
4918.0 0.0002033 3446.30078 4836.24951
5213.0 0.0001918 3445.59546 5167.28369
5533.0 0.0001807 3444.89038 5489.95068
5899.0 0.0001695 3444.18604 5742.56836
5991.0 0.0001669 3443.48193 5860.02246
5944.0 0.0001682 3442.77881 5801.51562
5626.0 0.0001777 3442.07593 5580.42920
5132.0 0.0001949 3441.37354 5257.34570
4744.0 0.0002108 3440.67163 4902.18115
4343.0 0.0002303 3439.97021 4567.52441
4188.0 0.0002388 3439.26953 4283.91748
3967.0 0.0002521 3438.56909 4058.92822
3784.0 0.0002643 3437.86914 3900.96558
3788.0 0.0002640 3437.16992 3796.67383
3727.0 0.0002683 3436.47095 3734.66455
3712.0 0.0002694 3435.77271 3704.22485
3765.0 0.0002656 3435.07471 3696.85278
3740.0 0.0002674 3434.37744 3706.22705
3686.0 0.0002713 3433.68042 3727.28394
3683.0 0.0002715 3432.98389 3754.98511
3730.0 0.0002681 3432.28784 3783.15894
3868.0 0.0002585 3431.59229 3804.14331
3764.0 0.0002657 3430.89722 3810.77002
3736.0 0.0002677 3430.20264 3800.46582
3888.0 0.0002572 3429.50854 3776.62329
3840.0 0.0002604 3428.81494 3745.01099
3712.0 0.0002694 3428.12183 3710.01831
3669.0 0.0002726 3427.42896 3674.51880
3564.0 0.0002806 3426.73682 3640.51270
3631.0 0.0002754 3426.04492 3609.95947
3619.0 0.0002763 3425.35352 3584.18188
3527.0 0.0002835 3424.66235 3563.56787
3562.0 0.0002807 3423.97217 3547.82129
3447.0 0.0002901 3423.28198 3536.18701
3593.0 0.0002783 3422.59253 3528.34399
3611.0 0.0002769 3421.90332 3523.63550
3505.0 0.0002853 3421.21436 3521.79614
3463.0 0.0002888 3420.52612 3522.84912
3571.0 0.0002800 3419.83813 3527.11816
3554.0 0.0002814 3419.15063 3535.15210
3591.0 0.0002785 3418.46387 3547.56323
3567.0 0.0002803 3417.77710 3564.76367
3509.0 0.0002850 3417.09106 3586.65210
3509.0 0.0002850 3416.40527 3612.27563
3704.0 0.0002700 3415.71997 3639.47437
3697.0 0.0002705 3415.03491 3664.15332
3571.0 0.0002800 3414.35034 3681.95996
3682.0 0.0002716 3413.66626 3687.65381
3675.0 0.0002721 3412.98267 3679.79370
3812.0 0.0002623 3412.29956 3661.54810
3611.0 0.0002769 3411.61646 3638.27002
3622.0 0.0002761 3410.93408 3614.69141
3584.0 0.0002790 3410.25195 3593.98193
3601.0 0.0002777 3409.57031 3577.92749
3632.0 0.0002753 3408.88892 3567.34961
3527.0 0.0002835 3408.20801 3562.53955
3526.0 0.0002836 3407.52759 3563.73560
3485.0 0.0002869 3406.84766 3571.62598
3528.0 0.0002834 3406.16772 3587.75439
3561.0 0.0002808 3405.48853 3614.71216
3749.0 0.0002667 3404.80957 3655.91504
3622.0 0.0002761 3404.13086 3714.85571
3747.0 0.0002669 3403.45264 3793.73511
3811.0 0.0002624 3402.77490 3891.88989
3923.0 0.0002549 3402.09741 4004.09106
4062.0 0.0002462 3401.42017 4119.61279
4195.0 0.0002384 3400.74365 4219.78662
4098.0 0.0002440 3400.06738 4282.33545
4202.0 0.0002380 3399.39136 4290.44922
4314.0 0.0002318 3398.71582 4245.15918
4132.0 0.0002420 3398.04053 4165.01758
4036.0 0.0002478 3397.36572 4072.66797
3940.0 0.0002538 3396.69116 3986.11646
3880.0 0.0002577 3396.01685 3916.43115
3850.0 0.0002597 3395.34326 3869.07593
4018.0 0.0002489 3394.66992 3845.33887
3783.0 0.0002643 3393.99683 3844.23950
3828.0 0.0002612 3393.32397 3864.52490
3804.0 0.0002629 3392.65161 3906.37476
3886.0 0.0002573 3391.97949 3973.65405
3976.0 0.0002515 3391.30786 4074.13843
4242.0 0.0002357 3390.63647 4220.99902
4298.0 0.0002327 3389.96558 4432.67188
4642.0 0.0002154 3389.29492 4731.68701
5015.0 0.0001994 3388.62451 5141.94971
5590.0 0.0001789 3387.95459 5684.61377
6247.0 0.0001601 3387.28491 6373.13330
7071.0 0.0001414 3386.61572 7207.70752
7937.0 0.0001260 3385.94678 8168.12793
9185.0 0.0001089 3385.27808 9205.31543
10306.0 0.0000970 3384.60962 10244.39551
11039.0 0.0000906 3383.94189 11212.62109
11896.0 0.0000841 3383.27417 12099.53711
12762.0 0.0000784 3382.60693 12944.04492
13580.0 0.0000736 3381.93994 13753.41113
14090.0 0.0000710 3381.27319 14427.37695
14510.0 0.0000689 3380.60669 14751.05273
14358.0 0.0000696 3379.94067 14495.38867
13717.0 0.0000729 3379.27515 13598.95020
12667.0 0.0000789 3378.60986 12231.72070
11178.0 0.0000895 3377.94458 10669.76367
9389.0 0.0001065 3377.28003 9136.68359
8138.0 0.0001229 3376.61548 7770.94922
6765.0 0.0001478 3375.95142 6643.76953
5891.0 0.0001698 3375.28735 5769.25049
5473.0 0.0001827 3374.62378 5126.84375
4726.0 0.0002116 3373.96069 4674.84570
4380.0 0.0002283 3373.29785 4365.39258
4261.0 0.0002347 3372.63525 4155.30469
4051.0 0.0002469 3371.97290 4011.03125
3933.0 0.0002543 3371.31079 3909.07959
3825.0 0.0002614 3370.64917 3834.14185
3796.0 0.0002634 3369.98779 3776.69775
3659.0 0.0002733 3369.32666 3730.94849
3678.0 0.0002719 3368.66577 3693.36597
3768.0 0.0002654 3368.00537 3661.75928
3580.0 0.0002793 3367.34521 3634.73706
3635.0 0.0002751 3366.68530 3611.31323
3454.0 0.0002895 3366.02563 3590.83350
3504.0 0.0002854 3365.36646 3572.79565
3499.0 0.0002858 3364.70728 3556.81274
3548.0 0.0002818 3364.04858 3542.57617
3438.0 0.0002909 3363.39014 3529.83813
3508.0 0.0002851 3362.73193 3518.39136
3468.0 0.0002884 3362.07422 3508.06519
3494.0 0.0002862 3361.41650 3498.71777
3383.0 0.0002956 3360.75903 3490.23022
3430.0 0.0002915 3360.10205 3482.49951
3460.0 0.0002890 3359.44531 3475.44336
3419.0 0.0002925 3358.78882 3468.98853
3441.0 0.0002906 3358.13257 3463.08032
3371.0 0.0002966 3357.47656 3457.66846
3551.0 0.0002816 3356.82104 3452.71997
3448.0 0.0002900 3356.16577 3448.20776
3389.0 0.0002951 3355.51050 3444.11597
3422.0 0.0002922 3354.85571 3440.43066
3351.0 0.0002984 3354.20142 3437.05835
3329.0 0.0003004 3353.54712 3434.13770
3409.0 0.0002933 3352.89307 3431.55103
3454.0 0.0002895 3352.23926 3429.24048
3471.0 0.0002881 3351.58594 3427.11694
3414.0 0.0002929 3350.93286 3424.94336
3347.0 0.0002988 3350.27979 3422.88208
3367.0 0.0002970 3349.62720 3420.69019
3492.0 0.0002864 3348.97485 3418.45312
3392.0 0.0002948 3348.32251 3416.09595
3443.0 0.0002904 3347.67065 3414.10083
3403.0 0.0002939 3347.01904 3412.36816
3339.0 0.0002995 3346.36792 3410.96143
3348.0 0.0002987 3345.71680 3409.94141
3414.0 0.0002929 3345.06616 3409.36670
3349.0 0.0002986 3344.41553 3409.30444
3348.0 0.0002987 3343.76514 3409.83252
3343.0 0.0002991 3343.11523 3411.03149
3277.0 0.0003052 3342.46533 3416.54102
3345.0 0.0002990 3341.81592 3419.34155
3413.0 0.0002930 3341.16675 3422.95483
3302.0 0.0003028 3340.51782 3429.14526
3466.0 0.0002885 3339.86914 3434.36230
3386.0 0.0002953 3339.22070 3442.10254
3440.0 0.0002907 3338.57251 3449.20996
3379.0 0.0002959 3337.92432 3457.98560
3341.0 0.0002993 3337.27686 3469.21045
3388.0 0.0002952 3336.62939 3483.40796
3539.0 0.0002826 3335.98193 3500.51294
3433.0 0.0002913 3335.33521 3519.73926
3474.0 0.0002879 3334.68848 3538.96826
3550.0 0.0002817 3334.04199 3557.14111
3440.0 0.0002907 3333.39600 3572.32837
3486.0 0.0002869 3332.75000 3585.71851
3617.0 0.0002765 3332.10425 3601.64355
3487.0 0.0002868 3331.45874 3626.00220
3597.0 0.0002780 3330.81348 3664.41577
3689.0 0.0002711 3330.16846 3721.18750
3765.0 0.0002656 3329.52393 3798.66235
3860.0 0.0002591 3328.87964 3896.67432
3921.0 0.0002550 3328.23535 4012.04443
4080.0 0.0002451 3327.59131 4138.04248
4205.0 0.0002378 3326.94775 4264.26904
4421.0 0.0002262 3326.30420 4379.25928
4497.0 0.0002224 3325.66089 4478.19922
4574.0 0.0002186 3325.01807 4570.54102
4528.0 0.0002208 3324.37549 4676.69629
4655.0 0.0002148 3323.73291 4814.67285
4980.0 0.0002008 3323.09082 4988.19141
5285.0 0.0001892 3322.44873 5181.02979
5424.0 0.0001844 3321.80688 5355.57031
5497.0 0.0001819 3321.16528 5457.61279
5569.0 0.0001796 3320.52393 5437.42969
5469.0 0.0001828 3319.88306 5283.17578
5075.0 0.0001970 3319.24219 5030.09717
4845.0 0.0002064 3318.60181 4733.07275
4547.0 0.0002199 3317.96167 4439.16406
4211.0 0.0002375 3317.32153 4179.13330
4010.0 0.0002494 3316.68164 3968.58423
3885.0 0.0002574 3316.04224 3811.00317
3657.0 0.0002734 3315.40283 3701.30176
3587.0 0.0002788 3314.76367 3629.52783
3557.0 0.0002811 3314.12476 3584.09473
3554.0 0.0002814 3313.48633 3554.10449
3510.0 0.0002849 3312.84790 3531.03442
3469.0 0.0002883 3312.20996 3509.93042
3481.0 0.0002873 3311.57202 3489.26758
3518.0 0.0002843 3310.93433 3469.41577
3387.0 0.0002952 3310.29688 3451.18579
3443.0 0.0002904 3309.65967 3425.56567
3373.0 0.0002965 3309.02271 3412.31421
3265.0 0.0003063 3308.38623 3401.61304
3346.0 0.0002989 3307.74976 3393.23511
3405.0 0.0002937 3307.11353 3386.81592
3452.0 0.0002897 3306.47754 3381.95557
3369.0 0.0002968 3305.84180 3378.28638
3366.0 0.0002971 3305.20630 3375.54004
3338.0 0.0002996 3304.57104 3373.45557
3298.0 0.0003032 3303.93604 3371.91479
3352.0 0.0002983 3303.30127 3370.83057
3397.0 0.0002944 3302.66675 3370.15771
3313.0 0.0003018 3302.03247 3369.87573
3346.0 0.0002989 3301.39844 3369.98877
3337.0 0.0002997 3300.76465 3370.52173
3439.0 0.0002908 3300.13110 3371.51660
3352.0 0.0002983 3299.49780 3373.03662
3357.0 0.0002979 3298.86450 3375.15234
3373.0 0.0002965 3298.23169 3377.94263
3299.0 0.0003031 3297.59937 3381.47437
3430.0 0.0002915 3296.96680 3385.78833
3535.0 0.0002829 3296.33472 3390.87891
3365.0 0.0002972 3295.70288 3396.67383
3340.0 0.0002994 3295.07129 3403.00562
3250.0 0.0003077 3294.43994 3409.59937
3356.0 0.0002980 3293.80859 3416.12891
3428.0 0.0002917 3293.17773 3422.41724
3373.0 0.0002965 3292.54712 3428.64062
3587.0 0.0002788 3291.91675 3435.33740
3460.0 0.0002890 3291.28638 3446.01245
3457.0 0.0002893 3290.65649 3455.89819
3432.0 0.0002914 3290.02686 3468.62109
3519.0 0.0002842 3289.39722 3485.40210
3345.0 0.0002990 3288.76807 3508.18042
3477.0 0.0002876 3288.13916 3540.17749
3562.0 0.0002807 3287.51025 3586.64404
3518.0 0.0002843 3286.88184 3655.67944
3726.0 0.0002684 3286.25366 3758.82764
4032.0 0.0002480 3285.62549 3910.44507
4036.0 0.0002478 3284.99805 4126.62451
4491.0 0.0002227 3284.37036 4421.43066
4658.0 0.0002147 3283.74316 4802.07520
5229.0 0.0001912 3283.11597 5263.14014
5651.0 0.0001770 3282.48926 5780.67529
6124.0 0.0001633 3281.86279 6306.24854
6715.0 0.0001489 3281.23633 6762.49951
7076.0 0.0001413 3280.61035 7050.88867
7165.0 0.0001396 3279.98462 7090.09863
6943.0 0.0001440 3279.35913 6870.32861
6615.0 0.0001512 3278.73364 6460.78027
6074.0 0.0001646 3278.10864 5959.87451
5657.0 0.0001768 3277.48389 5450.33545
4858.0 0.0002058 3276.85938 4986.64258
4582.0 0.0002182 3276.23511 4598.85645
4303.0 0.0002324 3275.61084 4298.20020
4178.0 0.0002393 3274.98730 4082.49731
4054.0 0.0002467 3274.36377 3942.03638
3792.0 0.0002637 3273.74023 3865.02979
3713.0 0.0002693 3273.11719 3841.60034
3975.0 0.0002516 3272.49438 3865.71558
3995.0 0.0002503 3271.87183 3935.15552
4034.0 0.0002479 3271.24976 4049.95288
4148.0 0.0002411 3270.62769 4209.91846
4458.0 0.0002243 3270.00586 4411.80762
4538.0 0.0002204 3269.38428 4646.43066
4942.0 0.0002023 3268.76294 4895.61133
5006.0 0.0001998 3268.14209 5129.40674
5182.0 0.0001930 3267.52124 5305.27490
5254.0 0.0001903 3266.90088 5380.55811
5313.0 0.0001882 3266.28052 5335.14600
5240.0 0.0001908 3265.66064 5187.13574
5014.0 0.0001994 3265.04102 4980.65723
4978.0 0.0002009 3264.42139 4762.02393
4617.0 0.0002166 3263.80225 4567.01611
4603.0 0.0002172 3263.18335 4419.73389
4348.0 0.0002300 3262.56445 4334.88721
4471.0 0.0002237 3261.94604 4319.71094
4438.0 0.0002253 3261.32788 4375.08887
4333.0 0.0002308 3260.71021 4496.18018
4644.0 0.0002153 3260.09253 4672.41699
4991.0 0.0002004 3259.47510 4886.57324
5067.0 0.0001974 3258.85791 5112.61768
5179.0 0.0001931 3258.24121 5313.57520
5209.0 0.0001920 3257.62476 5444.35547
5403.0 0.0001851 3257.00830 5466.27441
5537.0 0.0001806 3256.39233 5368.32324
5258.0 0.0001902 3255.77661 5173.94092
5082.0 0.0001968 3255.16113 4924.72314
4839.0 0.0002067 3254.54590 4659.77539
4644.0 0.0002153 3253.93091 4405.82959
4332.0 0.0002308 3253.31616 4180.32324
4124.0 0.0002425 3252.70166 3989.97778
3945.0 0.0002535 3252.08765 3836.25293
3864.0 0.0002588 3251.47363 3716.62134
3697.0 0.0002705 3250.86035 3626.24170
3605.0 0.0002774 3250.24683 3558.11426
3625.0 0.0002759 3249.63403 3509.08691
3481.0 0.0002873 3249.02124 3473.34790
3454.0 0.0002895 3248.40869 3446.41284
3479.0 0.0002874 3247.79639 3425.78247
3471.0 0.0002881 3247.18457 3409.51245
3369.0 0.0002968 3246.57275 3396.31470
3378.0 0.0002960 3245.96167 3385.35718
3341.0 0.0002993 3245.35059 3376.10547
3414.0 0.0002929 3244.73975 3368.21069
3396.0 0.0002945 3244.12915 3361.43408
3346.0 0.0002989 3243.51880 3355.60815
3243.0 0.0003084 3242.90894 3350.60913
3261.0 0.0003067 3242.29932 3346.34253
3316.0 0.0003016 3241.68994 3342.73804
3401.0 0.0002940 3241.08081 3339.73804
3321.0 0.0003011 3240.47217 3337.30176
3298.0 0.0003032 3239.86377 3335.39893
3287.0 0.0003042 3239.25537 3334.01196
3372.0 0.0002966 3238.64746 3333.13135
3410.0 0.0002933 3238.03979 3332.75806
3363.0 0.0002974 3237.43262 3332.90161
3370.0 0.0002967 3236.82544 3333.58301
3438.0 0.0002909 3236.21875 3334.85645
3335.0 0.0002999 3235.61230 3336.72046
3306.0 0.0003025 3235.00610 3339.25562
3370.0 0.0002967 3234.40039 3342.53784
3399.0 0.0002942 3233.79468 3346.66406
3333.0 0.0003000 3233.18945 3351.92896
3423.0 0.0002921 3232.58447 3358.17480
3426.0 0.0002919 3231.97998 3365.79907
3353.0 0.0002982 3231.37549 3375.14355
3358.0 0.0002978 3230.77148 3386.72241
3307.0 0.0003024 3230.16772 3401.33667
3438.0 0.0002909 3229.56445 3420.25806
3545.0 0.0002821 3228.96118 3445.48560
3550.0 0.0002817 3228.35840 3480.07300
3536.0 0.0002828 3227.75586 3528.47290
3655.0 0.0002736 3227.15356 3596.78369
3826.0 0.0002614 3226.55176 3692.70312
3993.0 0.0002504 3225.95020 3824.97778
4196.0 0.0002383 3225.34912 4002.16968
4385.0 0.0002281 3224.74805 4230.70947
4587.0 0.0002180 3224.14746 4512.43359
4824.0 0.0002073 3223.54712 4841.91309
5158.0 0.0001939 3222.94702 5203.53076
5363.0 0.0001865 3222.34741 5568.27148
5572.0 0.0001795 3221.74780 5888.72852
5706.0 0.0001753 3221.14893 6104.44482
5785.0 0.0001729 3220.55029 6161.12744
5989.0 0.0001670 3219.95190 6043.26807
5631.0 0.0001776 3219.35376 5785.68652
5598.0 0.0001786 3218.75586 5449.57910
5219.0 0.0001916 3218.15845 5091.79785
4997.0 0.0002001 3217.56128 4751.48340
4583.0 0.0002182 3216.96460 4450.40283
4304.0 0.0002323 3216.36816 4197.22168
4012.0 0.0002493 3215.77197 3992.09351
3827.0 0.0002613 3215.17627 3830.74292
3681.0 0.0002717 3214.58081 3707.11865
3643.0 0.0002745 3213.98560 3614.62012
3535.0 0.0002829 3213.39087 3546.85010
3489.0 0.0002866 3212.79639 3498.27222
3528.0 0.0002834 3212.20239 3464.57520
3599.0 0.0002779 3211.60840 3447.74463
3548.0 0.0002818 3211.01489 3434.87378
3394.0 0.0002946 3210.42212 3429.11914
3434.0 0.0002912 3209.82935 3428.47046
3431.0 0.0002915 3209.23682 3430.65649
3426.0 0.0002919 3208.64478 3432.96021
3441.0 0.0002906 3208.05298 3429.99780
3349.0 0.0002986 3207.46143 3424.64404
3331.0 0.0003002 3206.87061 3414.06812
3410.0 0.0002933 3206.27979 3400.25537
3366.0 0.0002971 3205.68945 3386.16748
3458.0 0.0002892 3205.09961 3374.72681
3343.0 0.0002991 3204.50977 3368.39185
3351.0 0.0002984 3203.92065 3369.10571
3239.0 0.0003087 3203.33154 3378.22290
3475.0 0.0002878 3202.74292 3396.30151
3446.0 0.0002902 3202.15479 3424.44116
3529.0 0.0002834 3201.56689 3457.78052
3548.0 0.0002818 3200.97949 3494.41504
3546.0 0.0002820 3200.39233 3528.94043
3617.0 0.0002765 3199.80542 3554.07910
3624.0 0.0002759 3199.21899 3562.52661
3506.0 0.0002852 3198.63281 3550.78491
3482.0 0.0002872 3198.04712 3521.61768
3379.0 0.0002959 3197.46191 3481.90991
3466.0 0.0002885 3196.87695 3438.73853
3370.0 0.0002967 3196.29224 3397.32056
3412.0 0.0002931 3195.70801 3362.56909
3320.0 0.0003012 3195.12427 3332.52222
3316.0 0.0003016 3194.54077 3309.14282
3367.0 0.0002970 3193.95752 3291.83789
3372.0 0.0002966 3193.37476 3279.56494
3419.0 0.0002925 3192.79248 3271.15356
3363.0 0.0002974 3192.21045 3265.54810
3270.0 0.0003058 3191.62866 3261.91187
3309.0 0.0003022 3191.04761 3259.66504
3252.0 0.0003075 3190.46680 3258.45337
3232.0 0.0003094 3189.88623 3259.85767
3308.0 0.0003023 3189.30615 3260.45386
3382.0 0.0002957 3188.72632 3262.06421
3365.0 0.0002972 3188.14697 3265.10132
3420.0 0.0002924 3187.56812 3270.49658
3378.0 0.0002960 3186.98950 3278.70117
3253.0 0.0003074 3186.41138 3291.40381
3361.0 0.0002975 3185.83350 3310.17261
3470.0 0.0002882 3185.25635 3336.79346
3535.0 0.0002829 3184.67920 3372.66699
3372.0 0.0002966 3184.10254 3418.31812
3483.0 0.0002871 3183.52637 3472.78662
3511.0 0.0002848 3182.95044 3533.01953
3729.0 0.0002682 3182.37524 3593.26025
3690.0 0.0002710 3181.80005 3644.66992
3754.0 0.0002664 3181.22559 3676.36548
3694.0 0.0002707 3180.65137 3679.73291
3561.0 0.0002808 3180.07764 3653.83252
3710.0 0.0002695 3179.50415 3606.37573
3669.0 0.0002726 3178.93115 3548.28931
3527.0 0.0002835 3178.35840 3489.02563
3487.0 0.0002868 3177.78613 3434.88110
3356.0 0.0002980 3177.21436 3389.36426
3383.0 0.0002956 3176.64307 3353.82837
3234.0 0.0003092 3176.07227 3328.00684
3407.0 0.0002935 3175.50171 3310.82642
3335.0 0.0002999 3174.93140 3300.47827
3161.0 0.0003164 3174.36182 3295.56030
3358.0 0.0002978 3173.79248 3294.89185
3467.0 0.0002884 3173.22363 3297.73608
3391.0 0.0002949 3172.65503 3303.77979
3355.0 0.0002981 3172.08716 3313.05615
3434.0 0.0002912 3171.51953 3326.36011
3362.0 0.0002974 3170.95239 3342.87378
3372.0 0.0002966 3170.38550 3364.52368
3559.0 0.0002810 3169.81909 3388.61328
3405.0 0.0002937 3169.25317 3415.77563
3376.0 0.0002962 3168.68774 3445.06494
3426.0 0.0002919 3168.12256 3475.05737
3496.0 0.0002860 3167.55811 3503.44312
3526.0 0.0002836 3166.99390 3526.86328
3554.0 0.0002814 3166.43018 3541.88281
3459.0 0.0002891 3165.86670 3547.15601
3610.0 0.0002770 3165.30371 3544.82593
3595.0 0.0002782 3164.74146 3539.46997
3570.0 0.0002801 3164.17920 3536.11426
3507.0 0.0002851 3163.61768 3539.36426
3542.0 0.0002823 3163.05664 3553.77588
3560.0 0.0002809 3162.49609 3584.84229
3740.0 0.0002674 3161.93579 3640.21875
3847.0 0.0002599 3161.37598 3731.02783
3914.0 0.0002555 3160.81641 3872.84912
4111.0 0.0002432 3160.25757 4085.74634
4463.0 0.0002241 3159.69922 4392.52441
4869.0 0.0002054 3159.14111 4814.65869
5360.0 0.0001866 3158.58350 5365.84766
6025.0 0.0001660 3158.02637 6043.98779
6750.0 0.0001481 3157.46973 6822.75635
7494.0 0.0001334 3156.91357 7643.75195
8300.0 0.0001205 3156.35767 8410.78223
9001.0 0.0001111 3155.80249 8993.27930
9051.0 0.0001105 3155.24756 9256.22168
9093.0 0.0001100 3154.69336 9125.27246
8862.0 0.0001128 3154.13940 8639.62500
8229.0 0.0001215 3153.58594 7926.78662
7248.0 0.0001380 3153.03296 7129.85791
6482.0 0.0001543 3152.48047 6361.52637
5590.0 0.0001789 3151.92847 5695.62109
5048.0 0.0001981 3151.37671 5172.75928
4770.0 0.0002096 3150.82568 4807.62744
4612.0 0.0002168 3150.27490 4595.89648
4416.0 0.0002264 3149.72485 4520.50488
4578.0 0.0002184 3149.17505 4556.52979
4737.0 0.0002111 3148.62598 4673.94482
4877.0 0.0002050 3148.07715 4838.17676
5105.0 0.0001959 3147.52881 5007.22461
5083.0 0.0001967 3146.98120 5140.43408
5247.0 0.0001906 3146.43384 5197.11572
5320.0 0.0001880 3145.88696 5164.49805
4966.0 0.0002014 3145.34058 5065.98682
4900.0 0.0002041 3144.79468 4946.42920
4713.0 0.0002122 3144.24951 4850.07324
4588.0 0.0002180 3143.70459 4808.50488
4827.0 0.0002072 3143.16016 4836.05908
4892.0 0.0002044 3142.61621 4930.61719
5144.0 0.0001944 3142.07275 5073.34229
5143.0 0.0001944 3141.52979 5229.36523
5434.0 0.0001840 3140.98730 5350.45361
5600.0 0.0001786 3140.44531 5385.41016
5475.0 0.0001826 3139.90381 5303.69678
5362.0 0.0001865 3139.36304 5114.34570
4886.0 0.0002047 3138.82251 4856.64062
4530.0 0.0002208 3138.28247 4574.85498
4245.0 0.0002356 3137.74292 4303.69482
3990.0 0.0002506 3137.20386 4065.13452
3864.0 0.0002588 3136.66553 3870.05884
3596.0 0.0002781 3136.12769 3721.87646
3543.0 0.0002822 3135.59009 3614.41846
3420.0 0.0002924 3135.05322 3541.82056
3490.0 0.0002865 3134.51685 3497.17749
3345.0 0.0002990 3133.98096 3474.09375
3483.0 0.0002871 3133.44531 3468.67505
3432.0 0.0002914 3132.91040 3479.67114
3559.0 0.0002810 3132.37598 3508.64526
3648.0 0.0002741 3131.84204 3558.66846
3510.0 0.0002849 3131.30859 3634.93579
3711.0 0.0002695 3130.77588 3742.76123
3846.0 0.0002600 3130.24365 3886.27393
4045.0 0.0002472 3129.71167 4066.61206
4166.0 0.0002400 3129.18042 4279.95898
4429.0 0.0002258 3128.64966 4515.49219
4710.0 0.0002123 3128.11938 4753.10742
4931.0 0.0002028 3127.58960 4962.42627
5144.0 0.0001944 3127.06030 5102.61621
5181.0 0.0001930 3126.53174 5138.67285
5113.0 0.0001956 3126.00342 5060.85352
5020.0 0.0001992 3125.47583 4891.12451
4614.0 0.0002167 3124.94873 4668.74170
4430.0 0.0002257 3124.42212 4431.11621
4196.0 0.0002383 3123.89600 4205.30713
3923.0 0.0002549 3123.37061 4007.88281
3741.0 0.0002673 3122.84546 3848.08105
3663.0 0.0002730 3122.32104 3726.24048
3640.0 0.0002747 3121.79736 3641.32568
3574.0 0.0002798 3121.27393 3589.00073
3520.0 0.0002841 3120.75098 3564.03906
3464.0 0.0002887 3120.22876 3561.33911
3416.0 0.0002927 3119.70703 3576.37598
3599.0 0.0002779 3119.18579 3605.18091
3714.0 0.0002693 3118.66504 3644.04126
3592.0 0.0002784 3118.14478 3689.32861
3637.0 0.0002750 3117.62524 3737.79346
3699.0 0.0002703 3117.10620 3786.95386
3673.0 0.0002723 3116.58789 3835.14746
3721.0 0.0002687 3116.06982 3881.10132
3852.0 0.0002596 3115.55249 3924.24243
3872.0 0.0002583 3115.03564 3966.32007
3874.0 0.0002581 3114.51929 4013.51733
3948.0 0.0002533 3114.00342 4076.96875
4117.0 0.0002429 3113.48828 4171.46338
4335.0 0.0002307 3112.97388 4312.97363
4362.0 0.0002293 3112.45972 4515.96973
4707.0 0.0002124 3111.94604 4792.15723
5042.0 0.0001983 3111.43311 5146.15283
5413.0 0.0001847 3110.92065 5573.47412
5829.0 0.0001716 3110.40894 6057.43994
6285.0 0.0001591 3109.89771 6568.92041
6938.0 0.0001441 3109.38696 7069.57031
7656.0 0.0001306 3108.87695 7516.19092
8099.0 0.0001235 3108.36719 7860.79053
8496.0 0.0001177 3107.85815 8060.22656
8655.0 0.0001155 3107.34961 8079.70117
8294.0 0.0001206 3106.84180 7902.04932
8015.0 0.0001248 3106.33447 7543.90869
7300.0 0.0001370 3105.82764 7056.08105
6587.0 0.0001518 3105.32153 6508.37842
5905.0 0.0001693 3104.81592 5960.62402
5331.0 0.0001876 3104.31104 5451.61621
4889.0 0.0002045 3103.80640 5002.34473
4434.0 0.0002255 3103.30273 4621.81934
4113.0 0.0002431 3102.79932 4311.02539
3894.0 0.0002568 3102.29663 4065.20044
3712.0 0.0002694 3101.79443 3875.88110
3634.0 0.0002752 3101.29272 3733.00098
3600.0 0.0002778 3100.79175 3626.58179
3444.0 0.0002904 3100.29150 3547.80518
3465.0 0.0002886 3099.79175 3490.11353
3351.0 0.0002984 3099.29248 3446.94165
3393.0 0.0002947 3098.79370 3415.14233
3367.0 0.0002970 3098.29565 3392.39502
3351.0 0.0002984 3097.79810 3377.52173
3377.0 0.0002961 3097.30127 3370.20166
3322.0 0.0003010 3096.80493 3370.60571
3429.0 0.0002916 3096.30933 3379.06128
3362.0 0.0002974 3095.81421 3395.24438
3428.0 0.0002917 3095.31958 3419.13184
3471.0 0.0002881 3094.82568 3448.64819
3408.0 0.0002934 3094.33228 3480.23999
3553.0 0.0002815 3093.83960 3505.22095
3454.0 0.0002895 3093.34741 3524.92334
3476.0 0.0002877 3092.85571 3529.91528
3381.0 0.0002958 3092.36499 3518.67212
3486.0 0.0002869 3091.87451 3494.98486
3557.0 0.0002811 3091.38477 3466.88477
3435.0 0.0002911 3090.89551 3437.44312
3525.0 0.0002837 3090.40698 3412.13281
3392.0 0.0002948 3089.91895 3392.75024
3348.0 0.0002987 3089.43164 3379.27124
3397.0 0.0002944 3088.94482 3369.56470
3378.0 0.0002960 3088.45874 3361.34033
3415.0 0.0002928 3087.97314 3352.89893
3293.0 0.0003037 3087.48828 3344.26758
3384.0 0.0002955 3087.00391 3336.87012
3407.0 0.0002935 3086.52026 3332.61475
3271.0 0.0003057 3086.03711 3333.40454
3410.0 0.0002933 3085.55444 3341.09302
3343.0 0.0002991 3085.07251 3357.84888
3330.0 0.0003003 3084.59131 3385.21362
3421.0 0.0002923 3084.11060 3425.82666
3415.0 0.0002928 3083.63062 3482.40625
3564.0 0.0002806 3083.15112 3558.28320
3587.0 0.0002788 3082.67236 3656.64111
3773.0 0.0002650 3082.19409 3779.97632
3867.0 0.0002586 3081.71631 3928.90283
4077.0 0.0002453 3081.23950 4100.19775
4204.0 0.0002379 3080.76294 4285.32764
4414.0 0.0002266 3080.28735 4473.91064
4709.0 0.0002124 3079.81226 4650.29883
4992.0 0.0002003 3079.33765 4798.98730
5028.0 0.0001989 3078.86377 4906.95117
5059.0 0.0001977 3078.39038 4947.99902
4922.0 0.0002032 3077.91772 4914.03809
4858.0 0.0002058 3077.44580 4814.34912
4707.0 0.0002124 3076.97437 4670.90234
4538.0 0.0002204 3076.50366 4512.57080
4315.0 0.0002317 3076.03345 4362.34277
4137.0 0.0002417 3075.56396 4234.38135
3930.0 0.0002545 3075.09497 4135.66797
4002.0 0.0002499 3074.62671 4068.54810
3946.0 0.0002534 3074.15918 4035.30957
4035.0 0.0002478 3073.69214 4038.02319
3948.0 0.0002533 3073.22559 4076.33081
4090.0 0.0002445 3072.76001 4144.71729
4257.0 0.0002349 3072.29492 4231.08887
4356.0 0.0002296 3071.83032 4316.19043
4379.0 0.0002284 3071.36646 4375.20312
4395.0 0.0002275 3070.90332 4383.24951
4394.0 0.0002276 3070.44067 4329.23242
4178.0 0.0002393 3069.97876 4219.90576
4067.0 0.0002459 3069.51733 4080.20752
3983.0 0.0002511 3069.05664 3931.09644
3696.0 0.0002706 3068.59668 3790.10742
3637.0 0.0002750 3068.13721 3668.68237
3638.0 0.0002749 3067.67847 3573.08154
3600.0 0.0002778 3067.22021 3507.96338
3512.0 0.0002847 3066.76270 3468.00586
3505.0 0.0002853 3066.30591 3453.41650
3441.0 0.0002906 3065.84961 3461.37500
3477.0 0.0002876 3065.39404 3489.00293
3477.0 0.0002876 3064.93896 3533.53687
3665.0 0.0002729 3064.48486 3592.15601
3730.0 0.0002681 3064.03125 3661.50049
3752.0 0.0002665 3063.57812 3737.03735
3899.0 0.0002565 3063.12573 3812.75317
4029.0 0.0002482 3062.67407 3882.30054
3943.0 0.0002536 3062.22290 3942.11401
4038.0 0.0002476 3061.77246 3994.18286
4085.0 0.0002448 3061.32275 4045.03516
4051.0 0.0002469 3060.87378 4101.44434
4359.0 0.0002294 3060.42505 4166.50488
4163.0 0.0002402 3059.97729 4237.72314
4239.0 0.0002359 3059.53003 4306.61768
4270.0 0.0002342 3059.08350 4360.22363
4292.0 0.0002330 3058.63745 4385.87939
4308.0 0.0002321 3058.19238 4378.98682
4310.0 0.0002320 3057.74756 4347.50049
4398.0 0.0002274 3057.30371 4308.23975
4302.0 0.0002325 3056.86060 4279.75146
4291.0 0.0002330 3056.41797 4276.13330
4464.0 0.0002240 3055.97583 4304.89697
4305.0 0.0002323 3055.53442 4366.27881
4424.0 0.0002260 3055.09375 4452.89258
4476.0 0.0002234 3054.65356 4550.82080
4736.0 0.0002111 3054.21436 4643.99561
4725.0 0.0002116 3053.77563 4719.71338
4727.0 0.0002116 3053.33765 4770.29590
4752.0 0.0002104 3052.90015 4781.36182
4657.0 0.0002147 3052.46338 4740.77783
4721.0 0.0002118 3052.02710 4641.94531
4470.0 0.0002237 3051.59180 4493.08350
4313.0 0.0002319 3051.15698 4316.25293
4087.0 0.0002447 3050.72266 4135.50977
3935.0 0.0002541 3050.28931 3969.43140
3818.0 0.0002619 3049.85645 3829.33301
3862.0 0.0002589 3049.42432 3720.28003
3776.0 0.0002648 3048.99268 3642.44604
3574.0 0.0002798 3048.56177 3592.26782
3498.0 0.0002859 3048.13159 3563.46802
3616.0 0.0002765 3047.70215 3548.04858
3648.0 0.0002741 3047.27319 3537.66211
3588.0 0.0002787 3046.84497 3525.76758
3450.0 0.0002899 3046.41748 3509.73560
3481.0 0.0002873 3045.99048 3491.02002
3433.0 0.0002913 3045.56445 3474.00146
3494.0 0.0002862 3045.13867 3458.06860
3313.0 0.0003018 3044.71387 3452.79956
3398.0 0.0002943 3044.28955 3456.91113
3474.0 0.0002879 3043.86597 3471.87280
3466.0 0.0002885 3043.44287 3498.15503
3491.0 0.0002865 3043.02075 3534.08081
3538.0 0.0002826 3042.59912 3581.75391
3752.0 0.0002665 3042.17822 3638.43677
3674.0 0.0002722 3041.75781 3705.05347
3851.0 0.0002597 3041.33813 3782.80664
4006.0 0.0002496 3040.91919 3871.62427
4108.0 0.0002434 3040.50098 3968.03345
4105.0 0.0002436 3040.08325 4063.75439
4180.0 0.0002392 3039.66626 4145.67725
4228.0 0.0002365 3039.25000 4198.78662
4274.0 0.0002340 3038.83447 4212.62402
4219.0 0.0002370 3038.41943 4186.80762
4063.0 0.0002461 3038.00513 4130.25537
3951.0 0.0002531 3037.59131 4056.23755
4025.0 0.0002484 3037.17847 3978.50562
3933.0 0.0002543 3036.76611 3909.07690
3827.0 0.0002613 3036.35449 3856.65820
3813.0 0.0002623 3035.94360 3825.99146
3765.0 0.0002656 3035.53320 3818.09009
3830.0 0.0002611 3035.12354 3831.04761
3900.0 0.0002564 3034.71460 3860.55029
3858.0 0.0002592 3034.30615 3902.66724
3794.0 0.0002636 3033.89844 3956.90332
4060.0 0.0002463 3033.49146 4029.78809
4062.0 0.0002462 3033.08521 4134.93896
4181.0 0.0002392 3032.67944 4289.57178
4330.0 0.0002309 3032.27466 4510.31396
4530.0 0.0002208 3031.87012 4809.65771
5065.0 0.0001974 3031.46655 5192.87207
5740.0 0.0001742 3031.06348 5655.30029
6293.0 0.0001589 3030.66113 6179.86426
6789.0 0.0001473 3030.25952 6733.54590
7542.0 0.0001326 3029.85840 7262.77686
7787.0 0.0001284 3029.45801 7692.89453
8056.0 0.0001241 3029.05859 7944.11328
7864.0 0.0001272 3028.65942 7968.71289
7671.0 0.0001304 3028.26099 7783.51807
7322.0 0.0001366 3027.86328 7459.81641
6995.0 0.0001430 3027.46655 7083.50342
6706.0 0.0001491 3027.07007 6723.16699
6325.0 0.0001581 3026.67432 6420.17188
6116.0 0.0001635 3026.27930 6189.37256
5850.0 0.0001709 3025.88501 6021.94189
5597.0 0.0001787 3025.49146 5890.14600
5661.0 0.0001766 3025.09839 5757.70996
5605.0 0.0001784 3024.70605 5597.43896
5476.0 0.0001826 3024.31421 5398.45996
5196.0 0.0001925 3023.92310 5173.98291
5125.0 0.0001951 3023.53296 4944.16943
4831.0 0.0002070 3023.14307 4726.47852
4625.0 0.0002162 3022.75415 4533.52637
4361.0 0.0002293 3022.36572 4370.00391
4213.0 0.0002374 3021.97803 4235.46973
4061.0 0.0002462 3021.59106 4124.02051
4023.0 0.0002486 3021.20459 4030.35840
3871.0 0.0002583 3020.81885 3946.88379
3699.0 0.0002703 3020.43384 3870.69287
3759.0 0.0002660 3020.04956 3802.75537
3716.0 0.0002691 3019.66577 3745.87256
3659.0 0.0002733 3019.28271 3702.78320
3710.0 0.0002695 3018.90039 3675.50317
3612.0 0.0002769 3018.51855 3665.38721
3650.0 0.0002740 3018.13770 3673.36963
3737.0 0.0002676 3017.75708 3700.21436
3810.0 0.0002625 3017.37744 3747.12061
3810.0 0.0002625 3016.99829 3814.24707
3922.0 0.0002550 3016.61987 3903.03589
4004.0 0.0002498 3016.24219 4015.79785
4233.0 0.0002362 3015.86499 4156.68945
4340.0 0.0002304 3015.48853 4332.86279
4610.0 0.0002169 3015.11279 4553.31689
4871.0 0.0002053 3014.73779 4825.10449
5297.0 0.0001888 3014.36328 5148.63086
5778.0 0.0001731 3013.98950 5513.79443
5952.0 0.0001680 3013.61621 5896.83105
6427.0 0.0001556 3013.24390 6257.68994
6664.0 0.0001501 3012.87207 6540.30957
6570.0 0.0001522 3012.50098 6687.61914
6515.0 0.0001535 3012.13037 6664.03955
6266.0 0.0001596 3011.76050 6480.85449
6075.0 0.0001646 3011.39136 6190.15527
5742.0 0.0001742 3011.02271 5858.10742
5451.0 0.0001835 3010.65479 5542.79688
5129.0 0.0001950 3010.28760 5286.10059
5154.0 0.0001940 3009.92114 5113.28320
5107.0 0.0001958 3009.55518 5034.19727
4999.0 0.0002000 3009.18994 5044.24854
5178.0 0.0001931 3008.82544 5124.82129
5483.0 0.0001824 3008.46143 5245.36621
5397.0 0.0001853 3008.09814 5362.48779
5470.0 0.0001828 3007.73535 5427.59814
5491.0 0.0001821 3007.37354 5401.65576
5164.0 0.0001936 3007.01221 5274.30762
4827.0 0.0002072 3006.65137 5066.48779
4669.0 0.0002142 3006.29150 4814.32666
4493.0 0.0002226 3005.93188 4551.66455
4223.0 0.0002368 3005.57324 4301.58936
4000.0 0.0002500 3005.21509 4080.00195
3851.0 0.0002597 3004.85767 3891.87256
3761.0 0.0002659 3004.50098 3737.81299
3613.0 0.0002768 3004.14478 3615.55444
3436.0 0.0002910 3003.78931 3521.52246
3440.0 0.0002907 3003.43457 3451.68506
3401.0 0.0002940 3003.08032 3402.22534
3320.0 0.0003012 3002.72681 3370.10791
3473.0 0.0002879 3002.37378 3353.37329
3388.0 0.0002952 3002.02148 3351.07520
3209.0 0.0003116 3001.66992 3362.92383
3405.0 0.0002937 3001.31885 3388.76196
3374.0 0.0002964 3000.96875 3427.99780
3546.0 0.0002820 3000.61914 3479.05957
3611.0 0.0002769 3000.27002 3538.93506
3596.0 0.0002781 2999.92163 3602.76514
3724.0 0.0002685 2999.57373 3663.67407
3679.0 0.0002718 2999.22656 3713.53711
3760.0 0.0002660 2998.88013 3745.79468
3803.0 0.0002630 2998.53442 3759.76880
3727.0 0.0002683 2998.18921 3762.53540
3746.0 0.0002670 2997.84448 3765.47900
3805.0 0.0002628 2997.50073 3779.61157
3794.0 0.0002636 2997.15747 3812.14380
4007.0 0.0002496 2996.81470 3865.38525
3897.0 0.0002566 2996.47266 3935.18433
3971.0 0.0002518 2996.13135 4014.84546
4132.0 0.0002420 2995.79053 4088.40625
4044.0 0.0002473 2995.45044 4136.77832
4092.0 0.0002444 2995.11084 4142.50977
4030.0 0.0002481 2994.77222 4098.33740
3973.0 0.0002517 2994.43384 4011.05493
3846.0 0.0002600 2994.09619 3896.52930
3623.0 0.0002760 2993.75928 3771.60645
3705.0 0.0002699 2993.42285 3649.51538
3518.0 0.0002843 2993.08716 3539.04077
3343.0 0.0002991 2992.75220 3445.21851
3402.0 0.0002939 2992.41772 3370.17944
3281.0 0.0003048 2992.08374 3313.93628
3389.0 0.0002951 2991.75073 3275.11450
3242.0 0.0003085 2991.41797 3251.63037
3242.0 0.0003085 2991.08618 3241.22852
3147.0 0.0003178 2990.75464 3241.83057
3208.0 0.0003117 2990.42407 3251.67261
3306.0 0.0003025 2990.09399 3268.55786
3301.0 0.0003029 2989.76440 3292.43750
3288.0 0.0003041 2989.43555 3320.91284
3369.0 0.0002968 2989.10742 3351.68823
3417.0 0.0002927 2988.77979 3381.68848
3447.0 0.0002901 2988.45264 3407.37988
3438.0 0.0002909 2988.12622 3425.69849
3513.0 0.0002847 2987.80054 3435.02100
3492.0 0.0002864 2987.47534 3435.20093
3534.0 0.0002830 2987.15088 3426.84448
3456.0 0.0002894 2986.82690 3411.31567
3402.0 0.0002939 2986.50366 3388.10327
3380.0 0.0002959 2986.18091 3360.77148
3376.0 0.0002962 2985.85864 3332.89355
3433.0 0.0002913 2985.53711 3307.88989
3243.0 0.0003084 2985.21631 3288.47754
3245.0 0.0003082 2984.89600 3276.43286
3235.0 0.0003091 2984.57642 3272.71094
3217.0 0.0003108 2984.25732 3277.60059
3289.0 0.0003040 2983.93896 3290.82764
3364.0 0.0002973 2983.62109 3311.66895
3293.0 0.0003037 2983.30371 3339.20215
3369.0 0.0002968 2982.98706 3372.80396
3386.0 0.0002953 2982.67090 3412.79077
3432.0 0.0002914 2982.35547 3460.74194
3519.0 0.0002842 2982.04053 3519.25000
3564.0 0.0002806 2981.72632 3591.51294
3652.0 0.0002738 2981.41284 3681.36987
3809.0 0.0002625 2981.09961 3793.55127
3854.0 0.0002595 2980.78711 3932.98999
4123.0 0.0002425 2980.47534 4102.81396
4278.0 0.0002338 2980.16406 4302.04102
4487.0 0.0002229 2979.85327 4522.83252
4758.0 0.0002102 2979.54321 4749.55615
5085.0 0.0001967 2979.23364 4957.11475
5122.0 0.0001952 2978.92480 5112.97168
5292.0 0.0001890 2978.61621 5185.22656
5336.0 0.0001874 2978.30859 5155.69580
4970.0 0.0002012 2978.00122 5029.08643
4981.0 0.0002008 2977.69458 4830.15820
4593.0 0.0002177 2977.38867 4591.79980
4257.0 0.0002349 2977.08325 4343.87500
4038.0 0.0002476 2976.77832 4108.25049
3751.0 0.0002666 2976.47412 3898.87500
3629.0 0.0002756 2976.17041 3722.41797
3551.0 0.0002816 2975.86719 3581.05933
3439.0 0.0002908 2975.56470 3473.14136
3266.0 0.0003062 2975.26270 3394.81006
3393.0 0.0002947 2974.96118 3341.33179
3218.0 0.0003108 2974.66040 3308.03003
3279.0 0.0003050 2974.36011 3290.73828
3240.0 0.0003086 2974.06055 3285.92798
3380.0 0.0002959 2973.76147 3290.35205
3191.0 0.0003134 2973.46289 3301.07056
3400.0 0.0002941 2973.16479 3310.91040
3390.0 0.0002950 2972.86743 3324.70312
3282.0 0.0003047 2972.57056 3335.51416
3364.0 0.0002973 2972.27417 3341.97534
3290.0 0.0003040 2971.97852 3344.56177
3317.0 0.0003015 2971.68335 3344.66943
3464.0 0.0002887 2971.38867 3343.17578
3248.0 0.0003079 2971.09473 3339.56982
3240.0 0.0003086 2970.80103 3332.01001
3285.0 0.0003044 2970.50806 3318.23120
3383.0 0.0002956 2970.21582 3296.94849
3198.0 0.0003127 2969.92383 3268.85693
3233.0 0.0003093 2969.63257 3236.42065
3166.0 0.0003159 2969.34180 3202.66211
3133.0 0.0003192 2969.05176 3170.12134
3202.0 0.0003123 2968.76196 3141.47144
3104.0 0.0003222 2968.47290 3115.78613
3085.0 0.0003241 2968.18433 3094.27490
3061.0 0.0003267 2967.89624 3076.93188
3060.0 0.0003268 2967.60889 3063.39575
3071.0 0.0003256 2967.32202 3053.11621
3068.0 0.0003259 2967.03564 3045.47070
3017.0 0.0003315 2966.74976 3039.82397
3027.0 0.0003304 2966.46436 3035.66284
3040.0 0.0003289 2966.17969 3032.34082
3105.0 0.0003221 2965.89551 3029.54346
3086.0 0.0003240 2965.61182 3027.06396
3041.0 0.0003288 2965.32837 3024.85498
3072.0 0.0003255 2965.04590 3022.97705
3118.0 0.0003207 2964.76367 3021.53467
2996.0 0.0003338 2964.48218 3020.62109
3049.0 0.0003280 2964.20117 3020.29688
3043.0 0.0003286 2963.92065 3020.57300
3103.0 0.0003223 2963.64038 3021.75732
3131.0 0.0003194 2963.36108 3020.89209
3071.0 0.0003256 2963.08203 3022.61426
3115.0 0.0003210 2962.80347 3024.41528
3046.0 0.0003283 2962.52563 3025.95435
3043.0 0.0003286 2962.24829 3026.89038
3165.0 0.0003160 2961.97144 3026.90625
3116.0 0.0003209 2961.69482 3025.96216
3064.0 0.0003264 2961.41919 3024.31543
3025.0 0.0003306 2961.14355 3022.40869
3054.0 0.0003274 2960.86890 3020.74683
3127.0 0.0003198 2960.59448 3019.78491
3039.0 0.0003291 2960.32056 3019.88696
3172.0 0.0003153 2960.04736 3021.30835
3083.0 0.0003244 2959.77441 3024.18604
3009.0 0.0003323 2959.50220 3028.61719
3128.0 0.0003197 2959.23022 3034.20581
3114.0 0.0003211 2958.95898 3040.66504
3178.0 0.0003147 2958.68823 3047.33984
3105.0 0.0003221 2958.41772 3053.28735
2994.0 0.0003340 2958.14795 3057.36133
2958.0 0.0003381 2957.87842 3058.52368
3139.0 0.0003186 2957.60962 3056.32715
2959.0 0.0003380 2957.34131 3051.16260
3068.0 0.0003259 2957.07349 3044.32568
3045.0 0.0003284 2956.80615 3036.34766
3103.0 0.0003223 2956.53906 3028.29810
3137.0 0.0003188 2956.27271 3020.85083
3107.0 0.0003219 2956.00684 3014.37061
2943.0 0.0003398 2955.74146 3009.02808
2950.0 0.0003390 2955.47632 3004.85303
3003.0 0.0003330 2955.21191 3001.77441
2960.0 0.0003378 2954.94775 2999.89941
3070.0 0.0003257 2954.68433 2998.58765
2916.0 0.0003429 2954.42114 2997.93823
3076.0 0.0003251 2954.15845 2997.78589
3075.0 0.0003252 2953.89648 2996.49219
3113.0 0.0003212 2953.63477 2997.15747
3051.0 0.0003278 2953.37354 2998.20386
3045.0 0.0003284 2953.11279 2999.68188
3014.0 0.0003318 2952.85254 3001.68896
3054.0 0.0003274 2952.59277 3004.44067
3060.0 0.0003268 2952.33350 3007.99365
2988.0 0.0003347 2952.07446 3012.66187
2986.0 0.0003349 2951.81616 3018.71753
3023.0 0.0003308 2951.55811 3026.44116
3070.0 0.0003257 2951.30054 3036.07715
3091.0 0.0003235 2951.04346 3047.77808
3060.0 0.0003268 2950.78687 3061.54907
3108.0 0.0003218 2950.53076 3077.17505
3076.0 0.0003251 2950.27515 3094.15161
3137.0 0.0003188 2950.01978 3111.59473
3206.0 0.0003119 2949.76489 3128.17163
3142.0 0.0003183 2949.51050 3142.19019
3165.0 0.0003160 2949.25659 3152.05908
3209.0 0.0003116 2949.00317 3157.06714
3224.0 0.0003102 2948.75000 3157.98071
3253.0 0.0003074 2948.49731 3156.84863
3202.0 0.0003123 2948.24512 3156.30786
3209.0 0.0003116 2947.99341 3159.01929
3323.0 0.0003009 2947.74219 3167.49438
3285.0 0.0003044 2947.49121 3184.14136
3375.0 0.0002963 2947.24072 3211.31128
3376.0 0.0002962 2946.99072 3252.77832
3356.0 0.0002980 2946.74097 3307.58862
3565.0 0.0002805 2946.49194 3378.81543
3625.0 0.0002759 2946.24292 3467.26953
3638.0 0.0002749 2945.99463 3572.55615
3672.0 0.0002723 2945.74683 3692.55786
3864.0 0.0002588 2945.49927 3822.19727
3800.0 0.0002632 2945.25220 3954.62646
3969.0 0.0002520 2945.00537 4077.54565
4122.0 0.0002426 2944.75903 4175.82617
4151.0 0.0002409 2944.51318 4234.88135
4206.0 0.0002378 2944.26782 4245.34766
4227.0 0.0002366 2944.02271 4208.07959
4211.0 0.0002375 2943.77808 4130.57471
4115.0 0.0002430 2943.53369 4026.74365
3870.0 0.0002584 2943.28979 3910.65063
3736.0 0.0002677 2943.04639 3794.73242
3652.0 0.0002738 2942.80322 3688.42236
3615.0 0.0002766 2942.56079 3597.72607
3580.0 0.0002793 2942.31836 3525.47461
3439.0 0.0002908 2942.07642 3471.76978
3387.0 0.0002952 2941.83496 3434.43140
3448.0 0.0002900 2941.59399 3409.64746
3453.0 0.0002896 2941.35327 3391.41528
3354.0 0.0002982 2941.11279 3374.31958
3387.0 0.0002952 2940.87280 3354.19434
3160.0 0.0003165 2940.63330 3329.89795
3267.0 0.0003061 2940.39404 3302.76440
3273.0 0.0003055 2940.15527 3275.56934
3143.0 0.0003182 2939.91699 3250.80469
3199.0 0.0003126 2939.67871 3230.17212
3213.0 0.0003112 2939.44116 3214.50024
3193.0 0.0003132 2939.20386 3203.86768
3199.0 0.0003126 2938.96680 3197.81494
3190.0 0.0003135 2938.73022 3195.77734
3246.0 0.0003081 2938.49414 3197.68091
3161.0 0.0003164 2938.25806 3204.64746
3260.0 0.0003067 2938.02271 3217.40186
3218.0 0.0003108 2937.78760 3238.25830
3301.0 0.0003029 2937.55273 3269.46021
3354.0 0.0002982 2937.31836 3313.44458
3299.0 0.0003031 2937.08423 3372.76099
3442.0 0.0002905 2936.85059 3450.08252
3643.0 0.0002745 2936.61719 3548.09106
3786.0 0.0002641 2936.38403 3668.76611
3795.0 0.0002635 2936.15137 3811.97217
4007.0 0.0002496 2935.91919 3973.90259
4119.0 0.0002428 2935.68701 4145.70996
4409.0 0.0002268 2935.45557 4312.48828
4666.0 0.0002143 2935.22412 4452.94873
4598.0 0.0002175 2934.99316 4541.43359
4542.0 0.0002202 2934.76270 4559.76562
4316.0 0.0002317 2934.53223 4501.36279
4295.0 0.0002328 2934.30225 4378.22461
4177.0 0.0002394 2934.07275 4213.13037
3978.0 0.0002514 2933.84326 4029.84497
3805.0 0.0002628 2933.61426 3847.34839
3691.0 0.0002709 2933.38574 3678.56006
3588.0 0.0002787 2933.15747 3530.99219
3396.0 0.0002945 2932.92944 3407.90723
3337.0 0.0002997 2932.70166 3309.35083
3230.0 0.0003096 2932.47437 3233.22656
3098.0 0.0003228 2932.24731 3176.25781
3171.0 0.0003154 2932.02051 3134.68115
3223.0 0.0003103 2931.79395 3105.17529
3055.0 0.0003273 2931.56787 3084.66895
3047.0 0.0003282 2931.34204 3070.68481
3065.0 0.0003263 2931.11670 3061.44629
3035.0 0.0003295 2930.89136 3055.60327
3159.0 0.0003166 2930.66650 3052.14478
3149.0 0.0003176 2930.44189 3050.26440
3021.0 0.0003310 2930.21753 3049.28125
3073.0 0.0003254 2929.99365 3048.55688
3030.0 0.0003300 2929.76978 3047.44580
3068.0 0.0003259 2929.54639 3045.34985
3120.0 0.0003205 2929.32324 3041.89673
3010.0 0.0003322 2929.10034 3037.11353
3082.0 0.0003245 2928.87793 3031.70337
3056.0 0.0003272 2928.65552 3025.70679
3071.0 0.0003256 2928.43359 3019.98096
3021.0 0.0003310 2928.21191 3015.00537
2940.0 0.0003401 2927.99048 3011.10156
2985.0 0.0003350 2927.76929 3008.55859
2983.0 0.0003352 2927.54834 3007.62622
2925.0 0.0003419 2927.32788 3009.19116
2999.0 0.0003334 2927.10742 3011.95581
2988.0 0.0003347 2926.88745 3016.78857
3029.0 0.0003301 2926.66772 3023.76855
3134.0 0.0003191 2926.44800 3032.89917
3072.0 0.0003255 2926.22876 3044.04663
3073.0 0.0003254 2926.00977 3056.94604
3101.0 0.0003225 2925.79102 3071.11890
3077.0 0.0003250 2925.57251 3085.82983
3146.0 0.0003179 2925.35449 3100.15845
3080.0 0.0003247 2925.13647 3113.15112
3153.0 0.0003172 2924.91870 3124.53784
3109.0 0.0003216 2924.70117 3134.88501
3166.0 0.0003159 2924.48389 3145.34912
3207.0 0.0003118 2924.26709 3157.07324
3184.0 0.0003141 2924.05029 3170.71313
3242.0 0.0003085 2923.83374 3186.23193
3287.0 0.0003042 2923.61768 3202.97729
3245.0 0.0003082 2923.40161 3220.04468
3196.0 0.0003129 2923.18579 3236.98853
3331.0 0.0003002 2922.97021 3254.33813
3302.0 0.0003028 2922.75488 3273.37427
3289.0 0.0003040 2922.53979 3295.34058
3430.0 0.0002915 2922.32495 3320.59448
3451.0 0.0002898 2922.11035 3348.10229
3315.0 0.0003017 2921.89600 3375.19067
3363.0 0.0002974 2921.68188 3397.60474
3396.0 0.0002945 2921.46802 3410.27100
3410.0 0.0002933 2921.25415 3409.10547
3465.0 0.0002886 2921.04077 3392.78003
3468.0 0.0002884 2920.82739 3364.38135
3373.0 0.0002965 2920.61426 3328.44702
3224.0 0.0003102 2920.40161 3289.97949
3245.0 0.0003082 2920.18872 3252.99414
3256.0 0.0003071 2919.97632 3220.18018
3187.0 0.0003138 2919.76416 3193.14282
3179.0 0.0003146 2919.55225 3172.58008
3155.0 0.0003170 2919.34033 3158.73486
3138.0 0.0003187 2919.12866 3150.73682
3083.0 0.0003244 2918.91724 3148.01636
3152.0 0.0003173 2918.70605 3150.20020
3141.0 0.0003184 2918.49487 3156.37598
3177.0 0.0003148 2918.28418 3165.88745
3175.0 0.0003150 2918.07349 3177.52075
3101.0 0.0003225 2917.86304 3190.36621
3260.0 0.0003067 2917.65283 3204.29028
3194.0 0.0003131 2917.44263 3219.82080
3184.0 0.0003141 2917.23291 3238.16211
3117.0 0.0003208 2917.02295 3260.73706
3351.0 0.0002984 2916.81348 3288.94775
3274.0 0.0003054 2916.60400 3323.36157
3322.0 0.0003010 2916.39502 3364.54858
3467.0 0.0002884 2916.18579 3412.45996
3325.0 0.0003008 2915.97705 3466.41919
3587.0 0.0002788 2915.76831 3525.61694
3576.0 0.0002796 2915.55981 3589.72974
3532.0 0.0002831 2915.35156 3660.04858
3659.0 0.0002733 2915.14331 3739.96851
3734.0 0.0002678 2914.93530 3834.21313
3975.0 0.0002516 2914.72729 3947.09131
4117.0 0.0002429 2914.51978 4080.73975
4268.0 0.0002343 2914.31201 4233.83154
4489.0 0.0002228 2914.10474 4400.52979
4585.0 0.0002181 2913.89746 4569.49561
4871.0 0.0002053 2913.69043 4723.43066
4935.0 0.0002026 2913.48364 4840.76025
4974.0 0.0002010 2913.27661 4901.73730
5073.0 0.0001971 2913.07007 4893.68164
4845.0 0.0002064 2912.86353 4819.22754
4690.0 0.0002132 2912.65723 4691.03418
4586.0 0.0002181 2912.45093 4525.98633
4284.0 0.0002334 2912.24487 4340.71191
3908.0 0.0002559 2912.03882 4149.99121
3847.0 0.0002599 2911.83301 3965.94653
3659.0 0.0002733 2911.62744 3797.33276
3646.0 0.0002743 2911.42188 3649.37695
3550.0 0.0002817 2911.21631 3524.34912
3353.0 0.0002982 2911.01099 3420.99023
3142.0 0.0003183 2910.80591 3339.69800
3226.0 0.0003100 2910.60083 3277.03638
3215.0 0.0003110 2910.39575 3230.23267
3145.0 0.0003180 2910.19116 3196.82861
3163.0 0.0003162 2909.98633 3174.28760
3045.0 0.0003284 2909.78174 3160.99634
3011.0 0.0003321 2909.57715 3155.82056
3252.0 0.0003075 2909.37280 3158.20850
3186.0 0.0003139 2909.16846 3168.10547
3217.0 0.0003108 2908.96436 3185.81714
3130.0 0.0003195 2908.76050 3211.86011
3273.0 0.0003055 2908.55640 3246.75562
3424.0 0.0002921 2908.35254 3290.83325
3404.0 0.0002938 2908.14868 3344.00830
3506.0 0.0002852 2907.94507 3405.53271
3555.0 0.0002813 2907.74146 3473.71387
3641.0 0.0002746 2907.53809 3545.53979
3763.0 0.0002657 2907.33472 3616.26416
3699.0 0.0002703 2907.13135 3679.19751
3751.0 0.0002666 2906.92822 3726.26245
3736.0 0.0002677 2906.72510 3749.90381
3804.0 0.0002629 2906.52222 3746.00806
3789.0 0.0002639 2906.31909 3716.01538
3726.0 0.0002684 2906.11621 3666.01074
3598.0 0.0002779 2905.91333 3604.52051
3431.0 0.0002915 2905.71069 3539.53076
3511.0 0.0002848 2905.50806 3477.23413
3552.0 0.0002815 2905.30542 3421.85791
3359.0 0.0002977 2905.10303 3375.96802
3308.0 0.0003023 2904.90063 3340.85522
3166.0 0.0003159 2904.69824 3316.79907
3317.0 0.0003015 2904.49585 3303.25049
3340.0 0.0002994 2904.29370 3298.95850
3378.0 0.0002960 2904.09155 3302.15845
3241.0 0.0003085 2903.88940 3310.92847
3280.0 0.0003049 2903.68750 3324.07227
3349.0 0.0002986 2903.48535 3340.52832
3411.0 0.0002932 2903.28345 3361.14722
3362.0 0.0002974 2903.08154 3387.06250
3344.0 0.0002990 2902.87964 3419.30859
3419.0 0.0002925 2902.67798 3458.38721
3450.0 0.0002899 2902.47607 3502.79370
3477.0 0.0002876 2902.27441 3552.53491
3536.0 0.0002828 2902.07275 3604.26929
3529.0 0.0002834 2901.87109 3655.31323
3556.0 0.0002812 2901.66968 3704.48926
3744.0 0.0002671 2901.46802 3752.18359
3768.0 0.0002654 2901.26660 3800.76416
3848.0 0.0002599 2901.06519 3852.79932
3924.0 0.0002548 2900.86353 3908.53979
4165.0 0.0002401 2900.66211 3965.00977
4089.0 0.0002446 2900.46069 4014.44238
4149.0 0.0002410 2900.25952 4046.37183
3956.0 0.0002528 2900.05811 4049.26050
3951.0 0.0002531 2899.85693 4015.73877
3804.0 0.0002629 2899.65552 3946.90503
3764.0 0.0002657 2899.45435 3851.90869
3749.0 0.0002667 2899.25317 3743.24585
3419.0 0.0002925 2899.05176 3632.03540
3395.0 0.0002946 2898.85059 3526.92090
3392.0 0.0002948 2898.64941 3432.69141
3322.0 0.0003010 2898.44824 3352.11157
3241.0 0.0003085 2898.24707 3284.67310
3244.0 0.0003083 2898.04590 3229.87305
3148.0 0.0003177 2897.84473 3186.21826
3083.0 0.0003244 2897.64355 3152.13208
3125.0 0.0003200 2897.44238 3126.20801
3133.0 0.0003192 2897.24121 3107.32593
3163.0 0.0003162 2897.04004 3094.72876
3112.0 0.0003213 2896.83887 3088.01050
3047.0 0.0003282 2896.63770 3087.04834
3048.0 0.0003281 2896.43652 3091.87671
3186.0 0.0003139 2896.23535 3102.57715
3074.0 0.0003253 2896.03394 3119.14014
3057.0 0.0003271 2895.83276 3141.37451
3081.0 0.0003246 2895.63159 3168.84692
3120.0 0.0003205 2895.43042 3200.93359
3226.0 0.0003100 2895.22900 3235.80396
3179.0 0.0003146 2895.02783 3271.84546
3186.0 0.0003139 2894.82642 3307.11914
3303.0 0.0003028 2894.62524 3340.23950
3484.0 0.0002870 2894.42383 3371.67114
3486.0 0.0002869 2894.22241 3400.41650
3389.0 0.0002951 2894.02100 3427.09082
3384.0 0.0002955 2893.81958 3450.46069
3525.0 0.0002837 2893.61816 3468.32104
3533.0 0.0002830 2893.41650 3478.50122
3552.0 0.0002815 2893.21509 3479.86426
3524.0 0.0002838 2893.01343 3472.12891
3440.0 0.0002907 2892.81201 3455.43457
3335.0 0.0002999 2892.61011 3429.94263
3299.0 0.0003031 2892.40869 3395.05347
3393.0 0.0002947 2892.20679 3352.67554
3292.0 0.0003038 2892.00513 3305.58521
3227.0 0.0003099 2891.80322 3257.19434
3244.0 0.0003083 2891.60132 3210.54175
3224.0 0.0003102 2891.39941 3167.77905
3228.0 0.0003098 2891.19751 3130.06982
3186.0 0.0003139 2890.99536 3098.05054
3014.0 0.0003318 2890.79346 3071.66968
3007.0 0.0003326 2890.59131 3050.31445
3012.0 0.0003320 2890.38892 3034.13477
3089.0 0.0003237 2890.18677 3022.02539
2995.0 0.0003339 2889.98438 3013.15503
2995.0 0.0003339 2889.78198 3006.68042
2931.0 0.0003412 2889.57959 3001.83936
2939.0 0.0003403 2889.37720 2998.02173
3047.0 0.0003282 2889.17456 2994.83447
2969.0 0.0003368 2888.97192 2992.11279
3032.0 0.0003298 2888.76929 2989.86230
3004.0 0.0003329 2888.56641 2988.18384
3000.0 0.0003333 2888.36353 2987.21826
2929.0 0.0003414 2888.16064 2987.12817
2954.0 0.0003385 2887.95752 2988.01611
2895.0 0.0003454 2887.75439 2990.02051
2917.0 0.0003428 2887.55127 2993.25049
3018.0 0.0003313 2887.34814 2997.79175
3006.0 0.0003327 2887.14478 3003.74097
3023.0 0.0003308 2886.94141 3011.21777
3025.0 0.0003306 2886.73779 3020.38770
2923.0 0.0003421 2886.53418 3031.53491
3063.0 0.0003265 2886.33057 3045.04297
3088.0 0.0003238 2886.12671 3061.51196
2991.0 0.0003343 2885.92285 3081.78247
3005.0 0.0003328 2885.71899 3106.98047
3126.0 0.0003199 2885.51489 3138.69385
3157.0 0.0003168 2885.31055 3179.02295
3224.0 0.0003102 2885.10645 3230.36865
3286.0 0.0003043 2884.90210 3295.02393
3416.0 0.0002927 2884.69751 3374.63013
3511.0 0.0002848 2884.49316 3469.62524
3674.0 0.0002722 2884.28833 3578.75806
3703.0 0.0002701 2884.08374 3698.58691
3973.0 0.0002517 2883.87866 3823.05298
4040.0 0.0002475 2883.67383 3943.34375
4189.0 0.0002387 2883.46875 4048.75195
4286.0 0.0002333 2883.26343 4129.22168
4221.0 0.0002369 2883.05811 4175.10693
4170.0 0.0002398 2882.85254 4182.23877
4005.0 0.0002497 2882.64697 4151.77637
3961.0 0.0002525 2882.44141 4090.28418
3915.0 0.0002554 2882.23560 4008.03394
3961.0 0.0002525 2882.02954 3916.04053
3816.0 0.0002621 2881.82373 3824.00732
3670.0 0.0002725 2881.61743 3739.54443
3666.0 0.0002728 2881.41113 3667.96509
3721.0 0.0002687 2881.20483 3612.20557
3559.0 0.0002810 2880.99805 3572.96338
3581.0 0.0002793 2880.79150 3547.49878
3482.0 0.0002872 2880.58472 3536.81860
3476.0 0.0002877 2880.37769 3536.37598
3492.0 0.0002864 2880.17065 3542.74146
3648.0 0.0002741 2879.96338 3551.77222
3573.0 0.0002799 2879.75610 3558.68091
3519.0 0.0002842 2879.54858 3558.86060
3483.0 0.0002871 2879.34106 3549.32593
3496.0 0.0002860 2879.13330 3529.82153
3572.0 0.0002800 2878.92529 3502.79663
3448.0 0.0002900 2878.71729 3472.33057
3410.0 0.0002933 2878.50903 3442.76343
3353.0 0.0002982 2878.30078 3417.64722
3437.0 0.0002910 2878.09229 3399.19556
3385.0 0.0002954 2877.88354 3388.10229
3331.0 0.0003002 2877.67480 3383.55200
3403.0 0.0002939 2877.46582 3383.35278
3447.0 0.0002901 2877.25684 3384.00513
3341.0 0.0002993 2877.04736 3381.86597
3403.0 0.0002939 2876.83813 3374.37915
3430.0 0.0002915 2876.62842 3361.48730
3339.0 0.0002995 2876.41870 3345.73389
3247.0 0.0003080 2876.20898 3330.97461
3323.0 0.0003009 2875.99878 3320.93604
3298.0 0.0003032 2875.78857 3318.31934
3315.0 0.0003017 2875.57812 3324.49365
3353.0 0.0002982 2875.36768 3339.39941
3366.0 0.0002971 2875.15698 3361.45459
3337.0 0.0002997 2874.94604 3387.55176
3381.0 0.0002958 2874.73511 3413.47241
3492.0 0.0002864 2874.52393 3434.83691
3454.0 0.0002895 2874.31250 3448.08887
3451.0 0.0002898 2874.10107 3450.65015
3439.0 0.0002908 2873.88916 3440.51416
3445.0 0.0002903 2873.67725 3416.50024
3388.0 0.0002952 2873.46533 3379.42944
3237.0 0.0003089 2873.25293 3332.22192
3222.0 0.0003104 2873.04053 3279.71289
3200.0 0.0003125 2872.82788 3226.48511
3062.0 0.0003266 2872.61523 3176.14478
3111.0 0.0003214 2872.40210 3131.02466
3009.0 0.0003323 2872.18896 3092.39258
2968.0 0.0003369 2871.97559 3060.80786
3051.0 0.0003278 2871.76221 3034.94629
3113.0 0.0003212 2871.54834 3015.92529
2979.0 0.0003357 2871.33447 3002.36060
2967.0 0.0003370 2871.12036 2993.05566
2960.0 0.0003378 2870.90625 2987.40747
2974.0 0.0003362 2870.69165 2984.78418
2919.0 0.0003426 2870.47705 2984.72827
3037.0 0.0003293 2870.26221 2987.12354
3119.0 0.0003206 2870.04712 2991.46802
3018.0 0.0003313 2869.83179 2997.87451
3111.0 0.0003214 2869.61621 3006.32715
3029.0 0.0003301 2869.40063 3017.74878
2997.0 0.0003337 2869.18481 3030.15259
3029.0 0.0003301 2868.96875 3044.30884
3000.0 0.0003333 2868.75244 3059.88330
3079.0 0.0003248 2868.53613 3076.67554
3182.0 0.0003143 2868.31934 3094.11255
3168.0 0.0003157 2868.10254 3111.44531
3205.0 0.0003120 2867.88550 3127.66187
3152.0 0.0003173 2867.66821 3141.68677
3236.0 0.0003090 2867.45068 3152.81909
3157.0 0.0003168 2867.23291 3161.24438
3167.0 0.0003158 2867.01514 3168.21924
3187.0 0.0003138 2866.79688 3175.86304
3262.0 0.0003066 2866.57861 3186.38428
3212.0 0.0003113 2866.36011 3203.29443
3284.0 0.0003045 2866.14136 3228.93774
3257.0 0.0003070 2865.92236 3265.92603
3245.0 0.0003082 2865.70312 3316.65479
3376.0 0.0002962 2865.48364 3383.16748
3427.0 0.0002918 2865.26416 3466.94702
3672.0 0.0002723 2865.04419 3568.55518
3835.0 0.0002608 2864.82422 3687.20166
3951.0 0.0002531 2864.60376 3820.33838
4188.0 0.0002388 2864.38330 3963.64453
4231.0 0.0002364 2864.16260 4111.56934
4364.0 0.0002291 2863.94165 4258.21484
4511.0 0.0002217 2863.72046 4397.38477
4506.0 0.0002219 2863.49902 4521.37939
4515.0 0.0002215 2863.27734 4619.68457
4498.0 0.0002223 2863.05542 4679.89893
4553.0 0.0002196 2862.83325 4691.84912
4505.0 0.0002220 2862.61108 4652.65430
4372.0 0.0002287 2862.38843 4568.40137
4285.0 0.0002334 2862.16577 4450.98730
4128.0 0.0002422 2861.94263 4313.26367
4084.0 0.0002449 2861.71948 4166.31885
4020.0 0.0002488 2861.49585 4018.86011
3713.0 0.0002693 2861.27222 3877.79272
3756.0 0.0002662 2861.04810 3748.39551
3754.0 0.0002664 2860.82397 3634.14551
3577.0 0.0002796 2860.59937 3536.72388
3533.0 0.0002830 2860.37476 3455.95117
3446.0 0.0002902 2860.14990 3390.69434
3439.0 0.0002908 2859.92456 3339.15063
3421.0 0.0002923 2859.69922 3300.29126
3332.0 0.0003001 2859.47363 3269.97559
3256.0 0.0003071 2859.24780 3248.32349
3212.0 0.0003113 2859.02148 3232.33325
3201.0 0.0003124 2858.79517 3222.27393
3214.0 0.0003111 2858.56836 3218.16455
3187.0 0.0003138 2858.34155 3220.29370
3290.0 0.0003040 2858.11450 3228.89136
3150.0 0.0003175 2857.88696 3243.90869
3235.0 0.0003091 2857.65942 3264.88110
3294.0 0.0003036 2857.43164 3290.19653
3366.0 0.0002971 2857.20337 3319.41187
3300.0 0.0003030 2856.97510 3349.50049
3319.0 0.0003013 2856.74634 3377.51172
3300.0 0.0003030 2856.51758 3400.57324
3399.0 0.0002942 2856.28833 3416.81128
3355.0 0.0002981 2856.05884 3425.99072
3471.0 0.0002881 2855.82935 3429.31396
3493.0 0.0002863 2855.59937 3428.49951
3415.0 0.0002928 2855.36914 3424.76953
3489.0 0.0002866 2855.13867 3418.26978
3484.0 0.0002870 2854.90796 3407.93042
3441.0 0.0002906 2854.67700 3393.10449
3400.0 0.0002941 2854.44604 3372.31372
3281.0 0.0003048 2854.21436 3347.18311
3263.0 0.0003065 2853.98267 3320.16406
3229.0 0.0003097 2853.75073 3294.89673
3232.0 0.0003094 2853.51855 3275.20532
3215.0 0.0003110 2853.28589 3264.07715
3235.0 0.0003091 2853.05322 3263.83569
3179.0 0.0003146 2852.82007 3276.00806
3218.0 0.0003108 2852.58691 3301.30981
3403.0 0.0002939 2852.35327 3339.61694
3390.0 0.0002950 2852.11938 3389.93823
3322.0 0.0003010 2851.88525 3450.44727
3486.0 0.0002869 2851.65088 3518.34814
3504.0 0.0002854 2851.41626 3589.56665
3741.0 0.0002673 2851.18115 3658.26172
3619.0 0.0002763 2850.94604 3716.67261
3734.0 0.0002678 2850.71069 3755.89233
3720.0 0.0002688 2850.47485 3767.90186
3806.0 0.0002627 2850.23877 3748.93457
3746.0 0.0002670 2850.00244 3701.43042
3546.0 0.0002820 2849.76611 3632.58057
3482.0 0.0002872 2849.52930 3551.29443
3385.0 0.0002954 2849.29224 3465.62036
3286.0 0.0003043 2849.05469 3381.70239
3213.0 0.0003112 2848.81714 3303.75610
3272.0 0.0003056 2848.57910 3234.39600
3195.0 0.0003130 2848.34082 3174.94653
3185.0 0.0003140 2848.10254 3125.73047
3001.0 0.0003332 2847.86377 3086.35059
3090.0 0.0003236 2847.62476 3055.88696
3040.0 0.0003289 2847.38525 3033.69604
2953.0 0.0003386 2847.14575 3017.68896
2998.0 0.0003336 2846.90576 3007.39648
3036.0 0.0003294 2846.66577 3001.72656
3006.0 0.0003327 2846.42529 3000.64941
3018.0 0.0003313 2846.18457 3003.02441
2991.0 0.0003343 2845.94360 3009.20215
3014.0 0.0003318 2845.70239 3019.41577
3042.0 0.0003287 2845.46094 3033.40112
3073.0 0.0003254 2845.21899 3051.17676
3085.0 0.0003241 2844.97681 3072.62573
3077.0 0.0003250 2844.73438 3096.37695
3126.0 0.0003199 2844.49170 3121.31543
3159.0 0.0003166 2844.24878 3145.41577
3210.0 0.0003115 2844.00537 3166.02344
3203.0 0.0003122 2843.76196 3180.21924
3170.0 0.0003155 2843.51807 3185.54004
3064.0 0.0003264 2843.27393 3181.08960
3274.0 0.0003054 2843.02954 3167.86987
3167.0 0.0003158 2842.78491 3148.29395
3119.0 0.0003206 2842.53979 3125.18384
3021.0 0.0003310 2842.29468 3101.06641
3182.0 0.0003143 2842.04907 3077.93628
3047.0 0.0003282 2841.80322 3057.26831
3039.0 0.0003291 2841.55713 3040.11377
2921.0 0.0003423 2841.31055 3027.16431
3025.0 0.0003306 2841.06396 3019.07202
2953.0 0.0003386 2840.81689 3015.56348
2988.0 0.0003347 2840.56958 3017.00610
3128.0 0.0003197 2840.32202 3023.43237
3037.0 0.0003293 2840.07397 3034.96094
3049.0 0.0003280 2839.82593 3051.72266
3081.0 0.0003246 2839.57739 3073.85864
3114.0 0.0003211 2839.32861 3101.49683
3203.0 0.0003122 2839.07959 3134.71582
3182.0 0.0003143 2838.83032 3173.52466
3178.0 0.0003147 2838.58081 3217.83447
3317.0 0.0003015 2838.33081 3267.39185
3422.0 0.0002922 2838.08057 3321.67773
3458.0 0.0002892 2837.83008 3379.78003
3451.0 0.0002898 2837.57910 3440.38599
3575.0 0.0002797 2837.32812 3502.05664
3568.0 0.0002803 2837.07666 3563.77905
3788.0 0.0002640 2836.82495 3625.40967
3704.0 0.0002700 2836.57300 3687.65894
3872.0 0.0002583 2836.32080 3751.66821
3885.0 0.0002574 2836.06812 3818.60840
3977.0 0.0002514 2835.81519 3889.18701
4102.0 0.0002438 2835.56201 3961.76001
3973.0 0.0002517 2835.30859 4036.09326
4127.0 0.0002423 2835.05469 4106.37842
4093.0 0.0002443 2834.80078 4166.07275
4083.0 0.0002449 2834.54639 4207.23389
4205.0 0.0002378 2834.29175 4221.39844
4308.0 0.0002321 2834.03687 4201.74805
4223.0 0.0002368 2833.78149 4146.27734
4142.0 0.0002414 2833.52612 4059.52808
4079.0 0.0002452 2833.27002 3951.11938
3800.0 0.0002632 2833.01416 3832.26099
3799.0 0.0002632 2832.75757 3712.88013
3647.0 0.0002742 2832.50073 3600.43872
3555.0 0.0002813 2832.24390 3500.04028
3513.0 0.0002847 2831.98633 3414.96216
3406.0 0.0002936 2831.72876 3347.22314
3363.0 0.0002974 2831.47095 3298.09521
3272.0 0.0003056 2831.21265 3268.54907
3222.0 0.0003104 2830.95410 3259.61841
3224.0 0.0003102 2830.69531 3272.62402
3420.0 0.0002924 2830.43604 3309.71484
3374.0 0.0002964 2830.17676 3372.21167
3489.0 0.0002866 2829.91699 3462.34009
3587.0 0.0002788 2829.65698 3581.56909
3730.0 0.0002681 2829.39673 3729.72437
3941.0 0.0002537 2829.13599 3904.69019
4193.0 0.0002385 2828.87500 4101.25781
4363.0 0.0002292 2828.61377 4310.33057
4574.0 0.0002186 2828.35229 4518.19287
4716.0 0.0002120 2828.09033 4706.54590
5005.0 0.0001998 2827.82812 4853.90967
5152.0 0.0001941 2827.56592 4940.59814
4902.0 0.0002040 2827.30322 4954.04248
4883.0 0.0002048 2827.04004 4892.59033
4852.0 0.0002061 2826.77686 4765.39990
4582.0 0.0002182 2826.51318 4589.90283
4274.0 0.0002340 2826.24927 4386.63232
4068.0 0.0002458 2825.98486 4175.15918
3898.0 0.0002565 2825.72046 3971.18286
3819.0 0.0002618 2825.45557 3785.75610
3499.0 0.0002858 2825.19043 3625.68506
3364.0 0.0002973 2824.92505 3494.33789
3414.0 0.0002929 2824.65918 3392.45532
3280.0 0.0003049 2824.39307 3318.90649
3207.0 0.0003118 2824.12695 3271.30420
3236.0 0.0003090 2823.86035 3246.50366
3377.0 0.0002961 2823.59326 3240.93433
3232.0 0.0003094 2823.32617 3250.76904
3312.0 0.0003019 2823.05859 3271.94189
3345.0 0.0002990 2822.79077 3300.04297
3340.0 0.0002994 2822.52271 3330.13672
3445.0 0.0002903 2822.25415 3356.74829
3344.0 0.0002990 2821.98535 3374.35791
3389.0 0.0002951 2821.71631 3378.64526
3362.0 0.0002974 2821.44702 3367.92798
3261.0 0.0003067 2821.17749 3343.65991
3165.0 0.0003160 2820.90747 3309.56641
3339.0 0.0002995 2820.63721 3270.18604
3282.0 0.0003047 2820.36694 3229.77393
3198.0 0.0003127 2820.09595 3191.71924
3140.0 0.0003185 2819.82495 3158.64893
3135.0 0.0003190 2819.55347 3131.53931
2991.0 0.0003343 2819.28174 3111.01221
3136.0 0.0003189 2819.00977 3096.94531
3173.0 0.0003152 2818.73730 3088.58936
3160.0 0.0003165 2818.46484 3084.94409
3027.0 0.0003304 2818.19165 3085.06128
3152.0 0.0003173 2817.91870 3088.28955
3062.0 0.0003266 2817.64502 3094.27393
3097.0 0.0003229 2817.37134 3102.76855
3104.0 0.0003222 2817.09717 3113.35767
3092.0 0.0003234 2816.82275 3125.68262
3216.0 0.0003109 2816.54810 3137.57080
3167.0 0.0003158 2816.27295 3147.71973
3161.0 0.0003164 2815.99780 3154.27197
3177.0 0.0003148 2815.72217 3155.86890
3051.0 0.0003278 2815.44629 3152.32446
3156.0 0.0003169 2815.17017 3144.81543
3105.0 0.0003221 2814.89355 3135.62012
3148.0 0.0003177 2814.61694 3126.97705
3183.0 0.0003142 2814.33984 3121.25952
3124.0 0.0003201 2814.06250 3120.24951
3103.0 0.0003223 2813.78491 3124.56738
3134.0 0.0003191 2813.50684 3136.21655
3160.0 0.0003165 2813.22852 3154.55493
3232.0 0.0003094 2812.95020 3179.17236
3229.0 0.0003097 2812.67114 3209.00293
3285.0 0.0003044 2812.39209 3242.87720
3391.0 0.0002949 2812.11279 3278.20190
3330.0 0.0003003 2811.83301 3312.96802
3353.0 0.0002982 2811.55298 3346.05225
3410.0 0.0002933 2811.27271 3376.57471
3319.0 0.0003013 2810.99219 3404.13428
3359.0 0.0002977 2810.71118 3428.66357
3511.0 0.0002848 2810.43018 3450.89819
3441.0 0.0002906 2810.14868 3472.43286
3486.0 0.0002869 2809.86694 3495.41309
3515.0 0.0002845 2809.58496 3521.65405
3488.0 0.0002867 2809.30249 3551.77881
3557.0 0.0002811 2809.02002 3584.64502
3611.0 0.0002769 2808.73706 3617.23706
3629.0 0.0002756 2808.45386 3644.69019
3549.0 0.0002818 2808.17017 3661.77954
3572.0 0.0002800 2807.88647 3663.93750
3616.0 0.0002765 2807.60254 3650.38477
3587.0 0.0002788 2807.31812 3624.02686
3507.0 0.0002851 2807.03345 3590.17139
3452.0 0.0002897 2806.74854 3554.32642
3393.0 0.0002947 2806.46338 3520.63794
3448.0 0.0002900 2806.17773 3491.31616
3509.0 0.0002850 2805.89209 3466.75854
3376.0 0.0002962 2805.60596 3445.86206
3429.0 0.0002916 2805.31958 3426.72754
3472.0 0.0002880 2805.03296 3408.47681
3443.0 0.0002904 2804.74609 3391.58350
3400.0 0.0002941 2804.45898 3377.96167
3294.0 0.0003036 2804.17139 3370.26587
3366.0 0.0002971 2803.88354 3370.31641
3371.0 0.0002966 2803.59546 3379.51367
3458.0 0.0002892 2803.30713 3398.01050
3421.0 0.0002923 2803.01855 3424.83667
3534.0 0.0002830 2802.72974 3457.84668
3470.0 0.0002882 2802.44043 3493.70581
3640.0 0.0002747 2802.15088 3527.73413
3492.0 0.0002864 2801.86133 3554.26367
3624.0 0.0002759 2801.57129 3568.37231
3578.0 0.0002795 2801.28101 3565.68018
3495.0 0.0002861 2800.99023 3544.61108
3480.0 0.0002874 2800.69946 3506.98608
3386.0 0.0002953 2800.40820 3456.41626
3388.0 0.0002952 2800.11694 3397.99048
3266.0 0.0003062 2799.82520 3336.41284
3229.0 0.0003097 2799.53320 3275.53003
3159.0 0.0003166 2799.24097 3218.19019
3163.0 0.0003162 2798.94849 3166.33374
3048.0 0.0003281 2798.65576 3121.18115
3009.0 0.0003323 2798.36255 3083.36743
3069.0 0.0003258 2798.06909 3053.03906
3005.0 0.0003328 2797.77563 3030.03174
3076.0 0.0003251 2797.48169 3013.91235
2954.0 0.0003385 2797.18750 3004.16406
3063.0 0.0003265 2796.89307 3000.12549
2981.0 0.0003355 2796.59839 3001.13037
3115.0 0.0003210 2796.30322 3006.42383
3102.0 0.0003224 2796.00806 3015.33203
2947.0 0.0003393 2795.71240 3026.87061
3237.0 0.0003089 2795.41675 3040.10889
3058.0 0.0003270 2795.12085 3053.99048
3140.0 0.0003185 2794.82422 3066.85474
3171.0 0.0003154 2794.52783 3077.29712
3101.0 0.0003225 2794.23071 3083.91187
3132.0 0.0003193 2793.93384 3085.76562
3158.0 0.0003167 2793.63623 3082.74390
3120.0 0.0003205 2793.33862 3075.62402
3136.0 0.0003189 2793.04053 3065.84253
3131.0 0.0003194 2792.74243 3055.08203
3052.0 0.0003277 2792.44409 3044.93311
3096.0 0.0003230 2792.14526 3036.71851
2979.0 0.0003357 2791.84619 3031.67383
3009.0 0.0003323 2791.54688 3030.06665
3043.0 0.0003286 2791.24756 3032.21313
3012.0 0.0003320 2790.94775 3039.11841
3010.0 0.0003322 2790.64771 3050.38428
3115.0 0.0003210 2790.34741 3065.79663
3060.0 0.0003268 2790.04688 3084.90161
3067.0 0.0003261 2789.74609 3107.23535
3094.0 0.0003232 2789.44482 3131.06592
3094.0 0.0003232 2789.14355 3155.11548
3119.0 0.0003206 2788.84180 3177.49243
3172.0 0.0003153 2788.54004 3196.29443
3144.0 0.0003181 2788.23779 3210.01392
3191.0 0.0003134 2787.93555 3217.87402
3259.0 0.0003068 2787.63306 3219.90454
3174.0 0.0003151 2787.33008 3216.83569
3256.0 0.0003071 2787.02686 3209.65527
3277.0 0.0003052 2786.72363 3199.84448
3234.0 0.0003092 2786.41992 3188.92139
3207.0 0.0003118 2786.11597 3178.20752
3184.0 0.0003141 2785.81177 3168.74316
3244.0 0.0003083 2785.50732 3160.66602
3168.0 0.0003157 2785.20288 3154.77661
3085.0 0.0003241 2784.89795 3150.57959
3114.0 0.0003211 2784.59277 3149.02881
3039.0 0.0003291 2784.28735 3150.71875
3160.0 0.0003165 2783.98169 3155.97119
3171.0 0.0003154 2783.67578 3164.57861
3191.0 0.0003134 2783.36963 3175.61816
3211.0 0.0003114 2783.06323 3187.38086
3127.0 0.0003198 2782.75659 3197.45190
3284.0 0.0003045 2782.44971 3203.04639
3300.0 0.0003030 2782.14258 3201.73267
3283.0 0.0003046 2781.83521 3192.28882
3139.0 0.0003186 2781.52759 3175.19824
3165.0 0.0003160 2781.21973 3152.40869
3141.0 0.0003184 2780.91162 3126.56201
3077.0 0.0003250 2780.60327 3100.54932
3073.0 0.0003254 2780.29468 3076.01587
3079.0 0.0003248 2779.98608 3054.94775
3006.0 0.0003327 2779.67700 3038.63330
3025.0 0.0003306 2779.36768 3028.01416
3106.0 0.0003220 2779.05811 3023.74683
3033.0 0.0003297 2778.74829 3025.23975
2979.0 0.0003357 2778.43823 3034.58911
3046.0 0.0003283 2778.12817 3050.65527
3108.0 0.0003218 2777.81763 3072.98120
3110.0 0.0003215 2777.50708 3100.75977
3112.0 0.0003213 2777.19604 3132.77124
3150.0 0.0003175 2776.88477 3167.28174
3149.0 0.0003176 2776.57349 3201.95996
3316.0 0.0003016 2776.26172 3233.86230
3281.0 0.0003048 2775.94995 3259.68115
3267.0 0.0003061 2775.63794 3276.37598
3256.0 0.0003071 2775.32544 3282.09717
3242.0 0.0003085 2775.01294 3276.86255
3229.0 0.0003097 2774.70020 3262.68286
3252.0 0.0003075 2774.38721 3242.89966
3218.0 0.0003108 2774.07397 3221.36694
3215.0 0.0003110 2773.76050 3201.81274
3215.0 0.0003110 2773.44678 3187.56445
3298.0 0.0003032 2773.13281 3181.47876
3193.0 0.0003132 2772.81860 3186.06567
3170.0 0.0003155 2772.50439 3203.24487
3281.0 0.0003048 2772.18994 3234.73901
3346.0 0.0002989 2771.87500 3281.75000
3386.0 0.0002953 2771.56006 3344.84302
3446.0 0.0002902 2771.24463 3423.59180
3540.0 0.0002825 2770.92920 3516.71558
3596.0 0.0002781 2770.61353 3621.62622
3771.0 0.0002652 2770.29761 3734.42285
3806.0 0.0002627 2769.98145 3849.87061
3895.0 0.0002567 2769.66528 3961.34717
4003.0 0.0002498 2769.34863 4060.97070
4070.0 0.0002457 2769.03198 4140.53076
4164.0 0.0002402 2768.71484 4193.44531
4126.0 0.0002424 2768.39771 4216.32617
4270.0 0.0002342 2768.08032 4209.34619
4120.0 0.0002427 2767.76270 4173.42969
4070.0 0.0002457 2767.44482 4113.36279
4082.0 0.0002450 2767.12695 4031.74487
3863.0 0.0002589 2766.80859 3934.28076
3821.0 0.0002617 2766.49023 3828.67993
3774.0 0.0002650 2766.17139 3723.04028
3572.0 0.0002800 2765.85254 3624.59473
3588.0 0.0002787 2765.53345 3538.67603
3563.0 0.0002807 2765.21411 3468.70923
3503.0 0.0002855 2764.89453 3416.50806
3506.0 0.0002852 2764.57495 3382.60547
3403.0 0.0002939 2764.25513 3366.53296
3366.0 0.0002971 2763.93481 3367.01123
3446.0 0.0002902 2763.61475 3382.11328
3490.0 0.0002865 2763.29419 3409.48145
3438.0 0.0002909 2762.97339 3446.61450
3606.0 0.0002773 2762.65234 3491.21216
3525.0 0.0002837 2762.33130 3541.37891
3653.0 0.0002737 2762.01001 3595.50049
3667.0 0.0002727 2761.68848 3651.79321
3675.0 0.0002721 2761.36694 3707.77808
3704.0 0.0002700 2761.04492 3760.10522
3867.0 0.0002586 2760.72290 3804.82056
3933.0 0.0002543 2760.40039 3838.30176
3792.0 0.0002637 2760.07788 3857.92456
3955.0 0.0002528 2759.75513 3862.33398
3892.0 0.0002569 2759.43237 3851.27759
3785.0 0.0002642 2759.10938 3825.39746
3771.0 0.0002652 2758.78613 3785.88379
3690.0 0.0002710 2758.46265 3735.77319
3690.0 0.0002710 2758.13892 3677.55444
3606.0 0.0002773 2757.81519 3614.34155
3526.0 0.0002836 2757.49097 3549.28564
3523.0 0.0002838 2757.16699 3485.48975
3489.0 0.0002866 2756.84253 3425.76147
3428.0 0.0002917 2756.51782 3372.28857
3238.0 0.0003088 2756.19312 3326.42358
3303.0 0.0003028 2755.86816 3288.66943
3289.0 0.0003040 2755.54321 3258.88794
3266.0 0.0003062 2755.21753 3236.45581
3155.0 0.0003170 2754.89233 3220.52661
3221.0 0.0003105 2754.56641 3210.02686
3194.0 0.0003131 2754.24072 3203.79321
3274.0 0.0003054 2753.91455 3200.44849
3229.0 0.0003097 2753.58838 3198.52637
3186.0 0.0003139 2753.26196 3196.72168
3114.0 0.0003211 2752.93530 3194.24414
3153.0 0.0003172 2752.60864 3191.06592
3187.0 0.0003138 2752.28149 3187.81641
3331.0 0.0003002 2751.95459 3185.49658
3172.0 0.0003153 2751.62720 3185.07251
3123.0 0.0003202 2751.29980 3187.17627
3218.0 0.0003108 2750.97217 3191.90747
3143.0 0.0003182 2750.64429 3198.69897
3158.0 0.0003167 2750.31641 3206.31177
3189.0 0.0003136 2749.98828 3212.90112
3157.0 0.0003168 2749.65991 3216.30005
3201.0 0.0003124 2749.33130 3214.42578
3164.0 0.0003161 2749.00269 3205.96826
3136.0 0.0003189 2748.67383 3190.76099
3069.0 0.0003258 2748.34473 3169.81909
3096.0 0.0003230 2748.01587 3145.08008
3050.0 0.0003279 2747.68628 3118.85693
3125.0 0.0003200 2747.35693 3093.30835
3128.0 0.0003197 2747.02710 3070.35474
3116.0 0.0003209 2746.69751 3051.53857
3017.0 0.0003315 2746.36743 3038.09595
2952.0 0.0003388 2746.03711 3031.01172
3025.0 0.0003306 2745.70679 3031.05151
3020.0 0.0003311 2745.37646 3038.76660
3079.0 0.0003248 2745.04590 3054.48047
3040.0 0.0003289 2744.71484 3078.25488
3136.0 0.0003189 2744.38403 3109.86743
3163.0 0.0003162 2744.05298 3148.71533
3244.0 0.0003083 2743.72168 3193.71704
3427.0 0.0002918 2743.39014 3243.14746
3296.0 0.0003034 2743.05859 3294.49268
3376.0 0.0002962 2742.72705 3344.40625
3366.0 0.0002971 2742.39502 3388.94287
3468.0 0.0002884 2742.06299 3424.22534
3361.0 0.0002975 2741.73071 3447.31909
3336.0 0.0002998 2741.39844 3457.03271
3380.0 0.0002959 2741.06592 3453.94775
3374.0 0.0002964 2740.73315 3439.24463
3349.0 0.0002986 2740.40039 3417.10132
3358.0 0.0002978 2740.06763 3389.73169
3270.0 0.0003058 2739.73438 3360.04858
3337.0 0.0002997 2739.40112 3331.03589
3365.0 0.0002972 2739.06787 3303.57764
3364.0 0.0002973 2738.73413 3278.97485
3268.0 0.0003060 2738.40063 3257.02441
3244.0 0.0003083 2738.06665 3236.64868
3194.0 0.0003131 2737.73267 3216.35791
3153.0 0.0003172 2737.39868 3194.90405
3158.0 0.0003167 2737.06445 3171.85815
3116.0 0.0003209 2736.72998 3147.78662
3037.0 0.0003293 2736.39551 3123.97363
3077.0 0.0003250 2736.06079 3101.93018
3130.0 0.0003195 2735.72583 3083.05396
3148.0 0.0003177 2735.39111 3068.51855
3174.0 0.0003151 2735.05591 3059.04712
3073.0 0.0003254 2734.72070 3055.18726
3089.0 0.0003237 2734.38525 3057.06030
3035.0 0.0003295 2734.04980 3064.35962
3107.0 0.0003219 2733.71411 3076.28906
3080.0 0.0003247 2733.37817 3091.47974
3039.0 0.0003291 2733.04248 3107.98633
3042.0 0.0003287 2732.70630 3123.02930
3110.0 0.0003215 2732.37012 3134.37646
3159.0 0.0003166 2732.03394 3139.24585
3065.0 0.0003263 2731.69751 3136.20410
3108.0 0.0003218 2731.36084 3125.46509
3064.0 0.0003264 2731.02417 3108.64136
3027.0 0.0003304 2730.68726 3088.12573
3044.0 0.0003285 2730.35034 3066.33423
3125.0 0.0003200 2730.01318 3045.31641
3000.0 0.0003333 2729.67603 3026.64551
2979.0 0.0003357 2729.33862 3011.27637
3001.0 0.0003332 2729.00122 2999.87354
2999.0 0.0003334 2728.66357 2992.70605
3036.0 0.0003294 2728.32593 2989.76440
2995.0 0.0003339 2727.98804 2990.84277
3090.0 0.0003236 2727.65015 2996.32300
3020.0 0.0003311 2727.31201 3004.66455
3061.0 0.0003267 2726.97388 3016.51123
2972.0 0.0003365 2726.63550 3032.09766
3003.0 0.0003330 2726.29688 3051.46289
3070.0 0.0003257 2725.95850 3075.41138
3097.0 0.0003229 2725.61963 3104.14062
3198.0 0.0003127 2725.28101 3136.53247
3190.0 0.0003135 2724.94189 3172.10059
3253.0 0.0003074 2724.60303 3209.30640
3239.0 0.0003087 2724.26367 3245.85474
3370.0 0.0002967 2723.92456 3278.79199
3246.0 0.0003081 2723.58496 3304.49121
3393.0 0.0002947 2723.24561 3319.73755
3349.0 0.0002986 2722.90601 3322.28809
3218.0 0.0003108 2722.56616 3311.60449
3356.0 0.0002980 2722.22632 3288.96509
3393.0 0.0002947 2721.88623 3256.97949
3232.0 0.0003094 2721.54639 3219.65625
3172.0 0.0003153 2721.20605 3178.92017
3199.0 0.0003126 2720.86572 3137.93823
3070.0 0.0003257 2720.52539 3099.06738
3066.0 0.0003262 2720.18481 3063.59937
2974.0 0.0003362 2719.84424 3032.91602
2973.0 0.0003364 2719.50342 3007.43774
2931.0 0.0003412 2719.16260 2986.95923
2945.0 0.0003396 2718.82178 2971.52563
3079.0 0.0003248 2718.48071 2960.80029
2956.0 0.0003383 2718.13940 2954.30249
2956.0 0.0003383 2717.79810 2951.38086
2895.0 0.0003454 2717.45679 2951.22046
2931.0 0.0003412 2717.11523 2952.85059
3003.0 0.0003330 2716.77393 2955.17505
2916.0 0.0003429 2716.43213 2957.06836
2925.0 0.0003419 2716.09033 2957.52393
2910.0 0.0003436 2715.74829 2955.86401
2950.0 0.0003390 2715.40649 2952.18945
2953.0 0.0003386 2715.06421 2946.28564
2991.0 0.0003343 2714.72217 2939.16333
2984.0 0.0003351 2714.37988 2931.76733
2955.0 0.0003384 2714.03735 2925.14551
2983.0 0.0003352 2713.69507 2919.88208
2904.0 0.0003444 2713.35229 2916.99121
2854.0 0.0003504 2713.00977 2916.41162
2890.0 0.0003460 2712.66675 2918.66772
2901.0 0.0003447 2712.32397 2923.72314
2996.0 0.0003338 2711.98096 2931.75317
2968.0 0.0003369 2711.63794 2942.18188
2939.0 0.0003403 2711.29492 2954.74341
2889.0 0.0003461 2710.95166 2968.47705
2944.0 0.0003397 2710.60840 2982.26196
2932.0 0.0003411 2710.26489 2994.71191
2973.0 0.0003364 2709.92139 3004.33374
3048.0 0.0003281 2709.57764 3009.80591
2987.0 0.0003348 2709.23389 3010.30444
2977.0 0.0003359 2708.89014 3005.71851
2989.0 0.0003346 2708.54639 2996.63257
3043.0 0.0003286 2708.20239 2984.11108
2885.0 0.0003466 2707.85815 2969.41626
3045.0 0.0003284 2707.51416 2953.77002
2936.0 0.0003406 2707.16968 2938.19580
2951.0 0.0003389 2706.82544 2923.43750
2979.0 0.0003357 2706.48096 2909.93384
2884.0 0.0003467 2706.13647 2897.91699
2871.0 0.0003483 2705.79199 2887.40991
2819.0 0.000355 2705.44727 2877.63818
2911.0 0.0003435 2705.10254 2868.54663
2889.0 0.0003461 2704.75757 2859.89575
2895.0 0.0003454 2704.41260 2851.71802
2789.0 0.000359 2704.06763 2843.87988
2741.0 0.000365 2703.72266 2836.69653
2788.0 0.000359 2703.37720 2830.38037
2867.0 0.0003488 2703.03198 2825.08545
2756.0 0.000363 2702.68677 2820.88013
2754.0 0.000363 2702.34131 2817.73901
2833.0 0.000353 2701.99585 2815.56274
2813.0 0.000355 2701.65015 2814.17578
2824.0 0.000354 2701.30444 2813.41357
2881.0 0.0003471 2700.95874 2813.16309
2753.0 0.000363 2700.61279 2813.40405
2772.0 0.000361 2700.26709 2814.26074
2798.0 0.000357 2699.92090 2815.79077
2804.0 0.000357 2699.57495 2818.13135
2869.0 0.0003486 2699.22876 2821.29932
2826.0 0.000354 2698.88257 2825.19043
2821.0 0.000354 2698.53613 2829.29102
2881.0 0.0003471 2698.18970 2833.68115
2729.0 0.000366 2697.84326 2837.55762
2774.0 0.000360 2697.49683 2840.30615
2743.0 0.000365 2697.15015 2841.39136
2756.0 0.000363 2696.80347 2840.45996
2840.0 0.000352 2696.45679 2837.45605
2726.0 0.000367 2696.10986 2832.72656
2916.0 0.0003429 2695.76294 2826.61768
2798.0 0.000357 2695.41602 2819.88159
2750.0 0.000364 2695.06909 2813.19873
2805.0 0.000357 2694.72168 2807.18701
2805.0 0.000357 2694.37451 2801.77295
2850.0 0.000351 2694.02734 2798.65161
2788.0 0.000359 2693.67993 2797.62988
2751.0 0.000364 2693.33276 2799.12183
2800.0 0.000357 2692.98511 2803.56543
2828.0 0.000354 2692.63745 2811.37231
2856.0 0.0003501 2692.28979 2822.99634
2805.0 0.000357 2691.94214 2838.86816
2801.0 0.000357 2691.59448 2859.33569
2886.0 0.0003465 2691.24658 2884.62451
2955.0 0.0003384 2690.89868 2914.75366
2939.0 0.0003403 2690.55078 2949.49756
3015.0 0.0003317 2690.20264 2987.81885
2946.0 0.0003394 2689.85449 3030.09912
3012.0 0.0003320 2689.50635 3073.72119
3145.0 0.0003180 2689.15796 3116.85278
3126.0 0.0003199 2688.80981 3156.52881
3151.0 0.0003174 2688.46143 3189.05737
3165.0 0.0003160 2688.11279 3210.52222
3223.0 0.0003103 2687.76440 3217.76392
3247.0 0.0003080 2687.41577 3209.48682
3135.0 0.0003190 2687.06714 3187.11572
3208.0 0.0003117 2686.71851 3153.39258
3069.0 0.0003258 2686.36963 3112.48413
2980.0 0.0003356 2686.02075 3068.21655
3022.0 0.0003309 2685.67188 3023.73120
2888.0 0.0003463 2685.32300 2981.66772
2839.0 0.000352 2684.97388 2943.00757
2869.0 0.0003486 2684.62476 2909.04980
2858.0 0.0003499 2684.27563 2880.19336
2895.0 0.0003454 2683.92651 2856.64941
2839.0 0.000352 2683.57690 2837.73364
2797.0 0.000358 2683.22778 2823.92651
2780.0 0.000360 2682.87842 2814.32202
2837.0 0.000352 2682.52881 2808.50098
2853.0 0.0003505 2682.17920 2806.14185
2680.0 0.000373 2681.82959 2807.13257
2812.0 0.000356 2681.47998 2811.46265
2818.0 0.000355 2681.13013 2819.45410
2809.0 0.000356 2680.78052 2831.60815
2786.0 0.000359 2680.43042 2848.60815
2872.0 0.0003482 2680.08057 2871.26025
2947.0 0.0003393 2679.73071 2900.42236
2884.0 0.0003467 2679.38062 2936.87329
2949.0 0.0003391 2679.03052 2981.17090
3115.0 0.0003210 2678.68018 3033.48071
3193.0 0.0003132 2678.33008 3093.41064
3096.0 0.0003230 2677.97974 3159.85547
3272.0 0.0003056 2677.62939 3230.87012
3369.0 0.0002968 2677.27905 3303.60571
3450.0 0.0002899 2676.92847 3373.89771
3508.0 0.0002851 2676.57812 3436.89453
3486.0 0.0002869 2676.22754 3485.93042
3591.0 0.0002785 2675.87671 3515.33203
3524.0 0.0002838 2675.52612 3520.97705
3536.0 0.0002828 2675.17529 3502.06055
3409.0 0.0002933 2674.82446 3461.67847
3259.0 0.0003068 2674.47363 3405.42871
3294.0 0.0003036 2674.12256 3339.93164
3226.0 0.0003100 2673.77173 3270.97119
3223.0 0.0003103 2673.42065 3203.24146
3100.0 0.0003226 2673.06934 3140.10571
3053.0 0.0003275 2672.71826 3083.80713
2955.0 0.0003384 2672.36694 3035.56714
2941.0 0.0003400 2672.01562 2995.77002
3039.0 0.0003291 2671.66431 2964.12329
3030.0 0.0003300 2671.31299 2939.84131
2919.0 0.0003426 2670.96143 2921.87061
2960.0 0.0003378 2670.60986 2909.03760
2945.0 0.0003396 2670.25830 2900.20068
2938.0 0.0003404 2669.90649 2894.33740
3004.0 0.0003329 2669.55493 2890.61426
2858.0 0.0003499 2669.20312 2888.55933
2840.0 0.000352 2668.85132 2888.03833
2874.0 0.0003479 2668.49927 2889.39819
2885.0 0.0003466 2668.14746 2893.31494
2852.0 0.0003506 2667.79541 2900.98999
2877.0 0.0003476 2667.44336 2913.35522
2989.0 0.0003346 2667.09131 2931.91357
2955.0 0.0003384 2666.73901 2958.07397
2997.0 0.0003337 2666.38696 2993.21582
3188.0 0.0003137 2666.03442 3038.58838
3092.0 0.0003234 2665.68213 3095.16479
3228.0 0.0003098 2665.32983 3163.48682
3282.0 0.0003047 2664.97729 3243.47607
3414.0 0.0002929 2664.62476 3334.45728
3445.0 0.0002903 2664.27222 3434.08276
3515.0 0.0002845 2663.91968 3539.38745
3610.0 0.0002770 2663.56689 3645.71948
3740.0 0.0002674 2663.21411 3746.56616
3872.0 0.0002583 2662.86108 3834.01489
3982.0 0.0002511 2662.50830 3899.32886
3885.0 0.0002574 2662.15552 3934.84180
3864.0 0.0002588 2661.80249 3936.14233
3982.0 0.0002511 2661.44946 3903.63281
3974.0 0.0002516 2661.09619 3842.36157
3843.0 0.0002602 2660.74316 3760.28369
3740.0 0.0002674 2660.38989 3666.08984
3605.0 0.0002774 2660.03662 3567.57837
3430.0 0.0002915 2659.68311 3470.93506
3279.0 0.0003050 2659.32983 3380.61523
3294.0 0.0003036 2658.97632 3299.52148
3222.0 0.0003104 2658.62280 3229.24023
3186.0 0.0003139 2658.26929 3170.28955
3049.0 0.0003280 2657.91553 3122.27979
3043.0 0.0003286 2657.56201 3084.31079
2977.0 0.0003359 2657.20801 3055.20508
2924.0 0.0003420 2656.85425 3033.84741
3024.0 0.0003307 2656.50049 3019.38525
2998.0 0.0003336 2656.14648 3011.28638
3099.0 0.0003227 2655.79248 3009.25317
3013.0 0.0003319 2655.43848 3013.11768
3071.0 0.0003256 2655.08423 3022.75073
2990.0 0.0003344 2654.72998 3037.99756
3081.0 0.0003246 2654.37573 3058.62817
3170.0 0.0003155 2654.02148 3084.27173
3218.0 0.0003108 2653.66724 3114.33032
3159.0 0.0003166 2653.31274 3147.89307
3244.0 0.0003083 2652.95825 3183.51123
3292.0 0.0003038 2652.60376 3219.78467
3368.0 0.0002969 2652.24902 3254.42432
3339.0 0.0002995 2651.89429 3285.03564
3435.0 0.0002911 2651.53955 3309.29590
3352.0 0.0002983 2651.18481 3325.47949
3366.0 0.0002971 2650.82983 3333.04712
3322.0 0.0003010 2650.47485 3332.98364
3241.0 0.0003085 2650.12012 3327.62427
3323.0 0.0003009 2649.76489 3320.06128
3302.0 0.0003028 2649.40991 3313.43140
3269.0 0.0003059 2649.05469 3310.36743
3403.0 0.0002939 2648.69946 3312.72021
3418.0 0.0002926 2648.34399 3321.44897
3335.0 0.0002999 2647.98877 3336.61353
3358.0 0.0002978 2647.63330 3357.36401
3402.0 0.0002939 2647.27759 3381.96606
3501.0 0.0002856 2646.92212 3407.90918
3458.0 0.0002892 2646.56641 3432.21606
3388.0 0.0002952 2646.21069 3451.99097
3362.0 0.0002974 2645.85498 3465.20337
3509.0 0.0002850 2645.49902 3470.52856
3405.0 0.0002937 2645.14331 3468.60962
3456.0 0.0002894 2644.78711 3459.74976
3417.0 0.0002927 2644.43115 3445.74170
3418.0 0.0002926 2644.07520 3428.19336
3316.0 0.0003016 2643.71899 3408.67480
3391.0 0.0002949 2643.36279 3388.57910
3432.0 0.0002914 2643.00635 3369.03027
3422.0 0.0002922 2642.64990 3350.88037
3403.0 0.0002939 2642.29346 3334.55981
3299.0 0.0003031 2641.93701 3320.11084
3351.0 0.0002984 2641.58057 3306.93262
3326.0 0.0003007 2641.22388 3293.86426
3371.0 0.0002966 2640.86694 3279.13867
3317.0 0.0003015 2640.51025 3261.25269
3277.0 0.0003052 2640.15332 3239.26221
3325.0 0.0003008 2639.79639 3213.20874
3256.0 0.0003071 2639.43921 3184.15430
3138.0 0.0003187 2639.08228 3153.82129
3191.0 0.0003134 2638.72510 3124.10864
3115.0 0.0003210 2638.36792 3096.73755
2992.0 0.0003342 2638.01050 3073.07642
3049.0 0.0003280 2637.65308 3054.09814
2974.0 0.0003362 2637.29565 3040.41162
3010.0 0.0003322 2636.93823 3032.30591
3009.0 0.0003323 2636.58057 3029.97876
3053.0 0.0003275 2636.22290 3033.00220
3050.0 0.0003279 2635.86499 3040.54517
3014.0 0.0003318 2635.50732 3052.02222
3051.0 0.0003278 2635.14941 3066.36377
3121.0 0.0003204 2634.79150 3082.37476
3216.0 0.0003109 2634.43335 3099.02734
3122.0 0.0003203 2634.07520 3115.50171
3140.0 0.0003185 2633.71704 3131.86841
3126.0 0.0003199 2633.35864 3148.68286
3267.0 0.0003061 2633.00024 3167.01440
3236.0 0.0003090 2632.64185 3187.85376
3239.0 0.0003087 2632.28345 3211.80981
3305.0 0.0003026 2631.92456 3238.86230
3344.0 0.0002990 2631.56592 3268.24438
3303.0 0.0003028 2631.20703 3298.40308
3333.0 0.0003000 2630.84839 3327.01855
3425.0 0.0002920 2630.48926 3351.18896
3433.0 0.0002913 2630.13037 3367.81934
3456.0 0.0002894 2629.77124 3374.26196
3467.0 0.0002884 2629.41211 3368.98853
3360.0 0.0002976 2629.05298 3351.73218
3399.0 0.0002942 2628.69336 3324.04102
3259.0 0.0003068 2628.33398 3288.51123
3143.0 0.0003182 2627.97437 3248.04858
3302.0 0.0003028 2627.61475 3205.75830
3116.0 0.0003209 2627.25513 3164.42896
3100.0 0.0003226 2626.89526 3126.22754
3042.0 0.0003287 2626.53564 3093.21484
2990.0 0.0003344 2626.17554 3065.83740
2992.0 0.0003342 2625.81543 3044.49805
3016.0 0.0003316 2625.45532 3030.80396
2916.0 0.0003429 2625.09497 3024.08447
2985.0 0.0003350 2624.73462 3024.04956
3027.0 0.0003304 2624.37427 3030.15063
2975.0 0.0003361 2624.01367 3041.64233
3033.0 0.0003297 2623.65332 3057.57373
3020.0 0.0003311 2623.29248 3076.61060
3056.0 0.0003272 2622.93164 3097.23926
3026.0 0.0003305 2622.57080 3117.68188
3133.0 0.0003192 2622.20996 3136.16650
3232.0 0.0003094 2621.84888 3151.26562
3300.0 0.0003030 2621.48755 3162.19067
3165.0 0.0003160 2621.12646 3168.87231
3156.0 0.0003169 2620.76514 3171.76978
3216.0 0.0003109 2620.40356 3171.48999
3214.0 0.0003111 2620.04224 3168.38403
3173.0 0.0003152 2619.68042 3162.48193
3096.0 0.0003230 2619.31885 3153.50269
3161.0 0.0003164 2618.95679 3141.20752
3003.0 0.0003330 2618.59497 3125.74097
3009.0 0.0003323 2618.23291 3107.81006
3127.0 0.0003198 2617.87085 3088.45728
2998.0 0.0003336 2617.50854 3068.82275
2980.0 0.0003356 2617.14624 3049.79468
3030.0 0.0003300 2616.78394 3031.92920
2992.0 0.0003342 2616.42114 3015.53711
2985.0 0.0003350 2616.05859 3000.85376
2871.0 0.0003483 2615.69580 2988.16699
2991.0 0.0003343 2615.33301 2977.77881
2936.0 0.0003406 2614.96997 2969.97266
3004.0 0.0003329 2614.60693 2964.90039
2968.0 0.0003369 2614.24390 2962.57666
3115.0 0.0003210 2613.88037 2962.94849
2949.0 0.0003391 2613.51709 2966.01587
3095.0 0.0003231 2613.15356 2972.01074
3043.0 0.0003286 2612.79004 2980.97437
2937.0 0.0003405 2612.42627 2993.30322
2994.0 0.0003340 2612.06250 3009.20166
2978.0 0.0003358 2611.69849 3028.66187
3085.0 0.0003241 2611.33447 3051.35425
3146.0 0.0003179 2610.97046 3076.56152
3095.0 0.0003231 2610.60596 3103.09521
3104.0 0.0003222 2610.24170 3129.81836
3126.0 0.0003199 2609.87720 3153.63135
3245.0 0.0003082 2609.51245 3172.77588
3169.0 0.0003156 2609.14771 3184.92358
3057.0 0.0003271 2608.78296 3188.37939
3148.0 0.0003177 2608.41797 3182.28125
3127.0 0.0003198 2608.05298 3166.84106
3169.0 0.0003156 2607.68774 3143.31323
3128.0 0.0003197 2607.32227 3113.71069
3086.0 0.0003240 2606.95703 3080.38940
2949.0 0.0003391 2606.59131 3045.69556
3093.0 0.0003233 2606.22583 3011.56421
2953.0 0.0003386 2605.85986 2979.61182
2980.0 0.0003356 2605.49390 2950.98511
2894.0 0.0003455 2605.12793 2926.44360
2822.0 0.000354 2604.76172 2906.41016
2861.0 0.0003495 2604.39551 2891.02271
2905.0 0.0003442 2604.02905 2880.14209
2914.0 0.0003432 2603.66235 2873.42334
3041.0 0.0003288 2603.29565 2870.23584
2832.0 0.000353 2602.92896 2869.81885
2839.0 0.000352 2602.56201 2871.28516
2796.0 0.000358 2602.19507 2873.72559
2866.0 0.0003489 2601.82788 2876.32886
2899.0 0.0003449 2601.46045 2878.42969
2853.0 0.0003505 2601.09302 2879.48218
2742.0 0.000365 2600.72534 2879.00171
2835.0 0.000353 2600.35767 2876.54883
2922.0 0.0003422 2599.98975 2871.78394
2891.0 0.0003459 2599.62183 2864.58276
2871.0 0.0003483 2599.25391 2855.26904
2831.0 0.000353 2598.88550 2844.41162
2910.0 0.0003436 2598.51709 2832.87451
2836.0 0.000353 2598.14868 2821.53247
2933.0 0.0003409 2597.78003 2811.29297
2834.0 0.000353 2597.41113 2802.93286
2827.0 0.000354 2597.04224 2797.13818
2777.0 0.000360 2596.67310 2794.49390
2805.0 0.000357 2596.30396 2795.51196
2783.0 0.000359 2595.93457 2800.63965
2760.0 0.000362 2595.56494 2810.23682
2826.0 0.000354 2595.19556 2824.42871
2925.0 0.0003419 2594.82544 2843.62476
2942.0 0.0003399 2594.45557 2867.65039
2894.0 0.0003455 2594.08545 2896.25366
2922.0 0.0003422 2593.71533 2928.93774
2975.0 0.0003361 2593.34497 2964.88428
3025.0 0.0003306 2592.97437 3002.90820
3132.0 0.0003193 2592.60376 3041.40430
3062.0 0.0003266 2592.23291 3078.70459
3257.0 0.0003070 2591.86206 3111.86841
3196.0 0.0003129 2591.49072 3139.10107
3168.0 0.0003157 2591.11963 3158.79346
3237.0 0.0003089 2590.74805 3170.35400
3110.0 0.0003215 2590.37646 3174.23096
3103.0 0.0003223 2590.00488 3171.74707
3130.0 0.0003195 2589.63281 3164.72827
3125.0 0.0003200 2589.26099 3155.10278
3253.0 0.0003074 2588.88867 3144.53735
3105.0 0.0003221 2588.51636 3134.21826
3053.0 0.0003275 2588.14380 3124.77759
3068.0 0.0003259 2587.77124 3116.38354
3144.0 0.0003181 2587.39819 3108.96484
3098.0 0.0003228 2587.02539 3102.47974
3212.0 0.0003113 2586.65210 3097.12964
3055.0 0.0003273 2586.27881 3093.36963
3032.0 0.0003298 2585.90527 3091.76465
3103.0 0.0003223 2585.53174 3092.73901
3184.0 0.0003141 2585.15796 3096.36035
3162.0 0.0003163 2584.78394 3102.11572
3096.0 0.0003230 2584.40991 3108.93921
3051.0 0.0003278 2584.03564 3115.16675
3109.0 0.0003216 2583.66113 3118.72412
3054.0 0.0003274 2583.28638 3117.50586
3036.0 0.0003294 2582.91162 3109.91919
3065.0 0.0003263 2582.53662 3095.38477
3038.0 0.0003292 2582.16138 3074.52563
3010.0 0.0003322 2581.78613 3048.87012
2977.0 0.0003359 2581.41064 3020.35181
2876.0 0.0003477 2581.03491 2990.82031
2867.0 0.0003488 2580.65918 2961.81104
2943.0 0.0003398 2580.28320 2934.49463
2913.0 0.0003433 2579.90698 2909.75903
2904.0 0.0003444 2579.53052 2888.24902
2979.0 0.0003357 2579.15405 2870.38892
2863.0 0.0003493 2578.77734 2856.37329
2898.0 0.0003451 2578.40039 2846.16895
2931.0 0.0003412 2578.02344 2839.29028
2882.0 0.0003470 2577.64600 2835.20386
2853.0 0.0003505 2577.26880 2833.08643
2902.0 0.0003446 2576.89087 2831.91357
2853.0 0.0003505 2576.51318 2830.58960
2789.0 0.000359 2576.13525 2828.10596
2845.0 0.000351 2575.75708 2823.74390
2728.0 0.000367 2575.37866 2817.21509
2782.0 0.000359 2575.00000 2808.68799
2681.0 0.000373 2574.62134 2798.65942
2791.0 0.000358 2574.24243 2787.76904
2823.0 0.000354 2573.86328 2776.63135
2696.0 0.000371 2573.48413 2765.89062
2719.0 0.000368 2573.10474 2755.55176
2804.0 0.000357 2572.72485 2745.96509
2660.0 0.000376 2572.34497 2737.15869
2737.0 0.000365 2571.96484 2729.11426
2733.0 0.000366 2571.58472 2721.75757
2667.0 0.000375 2571.20435 2715.04736
2703.0 0.000370 2570.82349 2708.94116
2667.0 0.000375 2570.44287 2703.56714
2647.0 0.000378 2570.06152 2698.83984
2701.0 0.000370 2569.68042 2694.93091
2772.0 0.000361 2569.29883 2691.94531
2680.0 0.000373 2568.91724 2690.01514
2681.0 0.000373 2568.53540 2689.21655
2693.0 0.000371 2568.15356 2688.61621
2591.0 0.000386 2567.77124 2690.40454
2690.0 0.000372 2567.38867 2693.56543
2753.0 0.000363 2567.00610 2698.10327
2730.0 0.000366 2566.62329 2703.97681
2706.0 0.000370 2566.24023 2711.09058
2673.0 0.000374 2565.85693 2719.10864
2793.0 0.000358 2565.47339 2728.14453
2725.0 0.000367 2565.08984 2737.71533
2802.0 0.000357 2564.70581 2747.43188
2727.0 0.000367 2564.32178 2756.88062
2715.0 0.000368 2563.93750 2765.70190
2724.0 0.000367 2563.55298 2773.69214
2749.0 0.000364 2563.16821 2780.96558
2770.0 0.000361 2562.78320 2787.97485
2822.0 0.000354 2562.39795 2795.44971
2877.0 0.0003476 2562.01270 2804.28394
2769.0 0.000361 2561.62720 2815.38232
2804.0 0.000357 2561.24121 2829.56885
2799.0 0.000357 2560.85547 2847.53491
2839.0 0.000352 2560.46899 2869.78833
2933.0 0.0003409 2560.08252 2896.63306
2953.0 0.0003386 2559.69580 2928.12085
2965.0 0.0003373 2559.30908 2964.00415
2920.0 0.0003425 2558.92188 3003.68164
3071.0 0.0003256 2558.53442 3046.15063
3060.0 0.0003268 2558.14697 3090.04712
3130.0 0.0003195 2557.75903 3133.79224
3200.0 0.0003125 2557.37109 3175.63623
3306.0 0.0003025 2556.98291 3214.17480
3366.0 0.0002971 2556.59448 3248.01660
3361.0 0.0002975 2556.20557 3276.15991
3356.0 0.0002980 2555.81689 3297.59644
3290.0 0.0003040 2555.42773 3311.26025
3367.0 0.0002970 2555.03833 3316.37671
3346.0 0.0002989 2554.64868 3312.84741
3304.0 0.0003027 2554.25879 3301.47217
3249.0 0.0003078 2553.86890 3283.91895
3303.0 0.0003028 2553.47827 3262.35449
3112.0 0.0003213 2553.08789 3239.03247
3194.0 0.0003131 2552.69702 3216.00171
3181.0 0.0003144 2552.30615 3194.98364
3107.0 0.0003219 2551.91504 3177.36328
3209.0 0.0003116 2551.52344 3164.23096
3202.0 0.0003123 2551.13184 3156.25439
3218.0 0.0003108 2550.73975 3153.84399
3177.0 0.0003148 2550.34766 3156.96216
3157.0 0.0003168 2549.95508 3165.14111
3141.0 0.0003184 2549.56250 3177.44849
3168.0 0.0003157 2549.16943 3192.49438
3251.0 0.0003076 2548.77637 3208.49731
3243.0 0.0003084 2548.38306 3223.38867
3183.0 0.0003142 2547.98926 3235.04785
3221.0 0.0003105 2547.59570 3241.58960
3356.0 0.0002980 2547.20142 3241.64282
3336.0 0.0002998 2546.80713 3234.56079
3160.0 0.0003165 2546.41235 3220.17969
3189.0 0.0003136 2546.01758 3199.66626
3201.0 0.0003124 2545.62256 3173.88672
3244.0 0.0003083 2545.22705 3144.21411
3146.0 0.0003179 2544.83154 3112.14478
3170.0 0.0003155 2544.43555 3079.17236
3068.0 0.0003259 2544.03955 3046.66846
3012.0 0.0003320 2543.64307 3015.85254
2999.0 0.0003334 2543.24658 2987.52637
2942.0 0.0003399 2542.84961 2962.36279
2936.0 0.0003406 2542.45239 2940.65771
2881.0 0.0003471 2542.05518 2922.38794
2875.0 0.0003478 2541.65747 2907.24194
2845.0 0.000351 2541.25952 2894.66504
2861.0 0.0003495 2540.86133 2883.94238
2801.0 0.000357 2540.46313 2873.32007
2763.0 0.000362 2540.06421 2864.25024
2752.0 0.000363 2539.66553 2855.34644
2877.0 0.0003476 2539.26611 2846.56885
2922.0 0.0003422 2538.86694 2838.15479
2935.0 0.0003407 2538.46704 2830.52930
2790.0 0.000358 2538.06714 2824.25562
2848.0 0.000351 2537.66699 2819.77319
2933.0 0.0003409 2537.26636 2817.63623
2955.0 0.0003384 2536.86572 2818.28516
2819.0 0.000355 2536.46460 2822.10693
2766.0 0.000362 2536.06348 2829.42310
2872.0 0.0003482 2535.66187 2840.48022
2887.0 0.0003464 2535.26001 2855.43945
2938.0 0.0003404 2534.85791 2874.39697
2899.0 0.0003449 2534.45557 2897.36841
2967.0 0.0003370 2534.05298 2924.31421
3028.0 0.0003303 2533.64990 2955.14160
3049.0 0.0003280 2533.24683 2989.69971
3058.0 0.0003270 2532.84326 3027.73193
3097.0 0.0003229 2532.43970 3068.88037
3098.0 0.0003228 2532.03589 3112.64502
3035.0 0.0003295 2531.63135 3158.40503
3189.0 0.0003136 2531.22705 3205.45337
3237.0 0.0003089 2530.82202 3252.99854
3243.0 0.0003084 2530.41699 3300.05664
3103.0 0.0003223 2530.01172 3345.35693
3223.0 0.0003103 2529.60620 3387.12671
3264.0 0.0003064 2529.20020 3423.19873
3503.0 0.0002855 2528.79395 3451.40869
3433.0 0.0002913 2528.38770 3469.83105
3385.0 0.0002954 2527.98071 3477.13940
3439.0 0.0002908 2527.57373 3472.73706
3483.0 0.0002871 2527.16650 3456.48755
3530.0 0.0002833 2526.75903 3428.30371
3368.0 0.0002969 2526.35107 3389.46606
3405.0 0.0002937 2525.94287 3340.72583
3291.0 0.0003039 2525.53467 3283.97070
3228.0 0.0003098 2525.12573 3221.73145
3165.0 0.0003160 2524.71680 3156.82935
3059.0 0.0003269 2524.30762 3091.94653
2939.0 0.0003403 2523.89795 3029.32935
2936.0 0.0003406 2523.48804 2970.66016
2895.0 0.0003454 2523.07812 2917.10181
2907.0 0.0003440 2522.66748 2869.34595
2752.0 0.000363 2522.25684 2827.70068
2749.0 0.000364 2521.84595 2792.15674
2656.0 0.000377 2521.43457 2762.46826
2734.0 0.000366 2521.02319 2738.26758
2700.0 0.000370 2520.61108 2718.84961
2683.0 0.000373 2520.19897 2703.47656
2739.0 0.000365 2519.78638 2691.76343
2706.0 0.000370 2519.37378 2682.84106
2619.0 0.000382 2518.96069 2676.00342
2674.0 0.000374 2518.54736 2670.60205
2666.0 0.000375 2518.13403 2666.06201
2759.0 0.000362 2517.71997 2661.90869
2673.0 0.000374 2517.30591 2657.81177
2658.0 0.000376 2516.89136 2653.55713
2737.0 0.000365 2516.47656 2648.86499
2704.0 0.000370 2516.06152 2644.23242
2582.0 0.000387 2515.64600 2639.04150
2607.0 0.000384 2515.23047 2633.51245
2542.0 0.000393 2514.81445 2627.67627
2646.0 0.000378 2514.39819 2621.68872
2580.0 0.000388 2513.98169 2615.49902
2608.0 0.000383 2513.56470 2609.32544
2527.0 0.000396 2513.14746 2603.30957
2585.0 0.000387 2512.73022 2597.77393
2713.0 0.000369 2512.31226 2592.43481
2603.0 0.000384 2511.89429 2587.56201
2608.0 0.000383 2511.47607 2583.21411
2509.0 0.000399 2511.05737 2579.43530
2582.0 0.000387 2510.63843 2576.28052
2617.0 0.000382 2510.21899 2573.73657
2644.0 0.000378 2509.79956 2571.85522
2506.0 0.000399 2509.37964 2570.67261
2589.0 0.000386 2508.95947 2570.22900
2607.0 0.000384 2508.53882 2570.56812
2612.0 0.000383 2508.11816 2571.98193
2693.0 0.000371 2507.69727 2574.04614
2558.0 0.000391 2507.27563 2577.18628
2500.0 0.000400 2506.85400 2581.14258
2642.0 0.000379 2506.43188 2586.11401
2575.0 0.000388 2506.00977 2591.92554
2687.0 0.000372 2505.58691 2598.85376
2600.0 0.000385 2505.16406 2606.67212
2620.0 0.000382 2504.74097 2615.26270
2547.0 0.000393 2504.31738 2624.42554
2631.0 0.000380 2503.89355 2633.91431
2671.0 0.000374 2503.46924 2643.37402
2659.0 0.000376 2503.04492 2652.40625
2693.0 0.000371 2502.62012 2660.91675
2724.0 0.000367 2502.19507 2667.70117
2715.0 0.000368 2501.76953 2673.42920
2597.0 0.000385 2501.34399 2677.97021
2704.0 0.000370 2500.91797 2681.72852
2686.0 0.000372 2500.49170 2685.06128
2743.0 0.000365 2500.06494 2688.50171
2689.0 0.000372 2499.63794 2692.42798
2738.0 0.000365 2499.21069 2697.04224
2703.0 0.000370 2498.78320 2702.33911
2863.0 0.0003493 2498.35522 2708.29077
2743.0 0.000365 2497.92700 2714.05688
2650.0 0.000377 2497.49854 2719.14062
2779.0 0.000360 2497.06982 2722.75171
2573.0 0.000389 2496.64062 2724.07812
2711.0 0.000369 2496.21118 2722.47974
2674.0 0.000374 2495.78125 2717.66797
2698.0 0.000371 2495.35132 2709.77832
2653.0 0.000377 2494.92090 2699.27954
2694.0 0.000371 2494.49023 2686.90479
2666.0 0.000375 2494.05933 2673.26855
2706.0 0.000370 2493.62793 2659.07812
2676.0 0.000374 2493.19629 2644.89038
2603.0 0.000384 2492.76416 2631.15674
2581.0 0.000387 2492.33203 2618.23413
2592.0 0.000386 2491.89941 2606.38208
2598.0 0.000385 2491.46631 2595.77490
2533.0 0.000395 2491.03296 2586.50391
2657.0 0.000376 2490.59961 2578.59521
2514.0 0.000398 2490.16577 2572.01685
2565.0 0.000390 2489.73145 2566.69531
2602.0 0.000384 2489.29712 2562.52368
2695.0 0.000371 2488.86230 2559.41821
2519.0 0.000397 2488.42700 2557.15112
2563.0 0.000390 2487.99146 2555.61670
2640.0 0.000379 2487.55591 2554.88696
2564.0 0.000390 2487.11963 2554.62695
2668.0 0.000375 2486.68335 2554.53735
2587.0 0.000387 2486.24658 2554.66919
2544.0 0.000393 2485.80957 2555.02759
2567.0 0.000390 2485.37207 2555.60815
2672.0 0.000374 2484.93433 2556.44531
2608.0 0.000383 2484.49658 2557.58496
2579.0 0.000388 2484.05811 2559.09253
2503.0 0.000400 2483.61938 2561.01489
2602.0 0.000384 2483.18066 2563.40063
2631.0 0.000380 2482.74121 2566.26831
2523.0 0.000396 2482.30176 2569.62842
2632.0 0.000380 2481.86182 2573.46533
2591.0 0.000386 2481.42163 2577.77612
2603.0 0.000384 2480.98071 2582.56445
2616.0 0.000382 2480.54004 2587.84375
2586.0 0.000387 2480.09888 2593.64819
2586.0 0.000387 2479.65723 2599.99512
2537.0 0.000394 2479.21558 2606.97900
2569.0 0.000389 2478.77319 2614.39307
2557.0 0.000391 2478.33081 2622.25732
2571.0 0.000389 2477.88794 2630.45435
2701.0 0.000370 2477.44482 2638.80469
2630.0 0.000380 2477.00146 2647.07202
2688.0 0.000372 2476.55762 2654.98975
2668.0 0.000375 2476.11353 2662.29932
2656.0 0.000377 2475.66919 2668.83521
2748.0 0.000364 2475.22461 2674.54053
2624.0 0.000381 2474.77930 2679.47339
2710.0 0.000369 2474.33423 2683.74390
2702.0 0.000370 2473.88843 2687.12427
2703.0 0.000370 2473.44238 2690.29712
2786.0 0.000359 2472.99585 2692.88818
2670.0 0.000375 2472.54956 2694.84521
2668.0 0.000375 2472.10254 2696.06006
2695.0 0.000371 2471.65503 2696.66528
2753.0 0.000363 2471.20776 2696.80103
2719.0 0.000368 2470.75952 2696.67236
2750.0 0.000364 2470.31152 2696.43091
2714.0 0.000368 2469.86279 2696.10425
2762.0 0.000362 2469.41406 2695.65381
2732.0 0.000366 2468.96484 2694.64404
2704.0 0.000370 2468.51514 2692.80127
2671.0 0.000374 2468.06567 2689.75659
2686.0 0.000372 2467.61523 2685.23828
2721.0 0.000368 2467.16479 2679.14722
2706.0 0.000370 2466.71411 2671.59131
2698.0 0.000371 2466.26294 2662.91479
2619.0 0.000382 2465.81152 2653.43604
2589.0 0.000386 2465.35986 2643.63721
2651.0 0.000377 2464.90771 2633.88379
2586.0 0.000387 2464.45532 2624.44800
2587.0 0.000387 2464.00269 2615.47437
2564.0 0.000390 2463.54980 2607.02173
2530.0 0.000395 2463.09644 2599.09424
2643.0 0.000378 2462.64258 2591.47754
2567.0 0.000390 2462.18896 2584.14722
2564.0 0.000390 2461.73462 2577.01978
2536.0 0.000394 2461.28003 2570.01392
2595.0 0.000385 2460.82520 2563.09082
2620.0 0.000382 2460.36987 2556.24487
2509.0 0.000399 2459.91431 2549.51318
2549.0 0.000392 2459.45850 2542.97168
2526.0 0.000396 2459.00244 2536.70996
2551.0 0.000392 2458.54590 2530.81006
2493.0 0.000401 2458.08911 2525.34570
2529.0 0.000395 2457.63184 2520.35791
2489.0 0.000402 2457.17456 2515.87842
2479.0 0.000403 2456.71680 2511.91821
2569.0 0.000389 2456.25879 2508.48193
2472.0 0.000405 2455.80054 2505.55884
2575.0 0.000388 2455.34180 2503.14307
2407.0 0.000415 2454.88281 2501.22534
2415.0 0.000414 2454.42358 2499.79736
2487.0 0.000402 2453.96387 2498.85376
2492.0 0.000401 2453.50391 2498.39160
2501.0 0.000400 2453.04370 2498.40503
2512.0 0.000398 2452.58350 2498.89502
2466.0 0.000406 2452.12256 2499.64038
2474.0 0.000404 2451.66138 2501.06592
2588.0 0.000386 2451.19995 2502.93970
2466.0 0.000406 2450.73828 2505.23218
2519.0 0.000397 2450.27612 2507.90991
2476.0 0.000404 2449.81372 2510.91748
2490.0 0.000402 2449.35107 2514.18701
2470.0 0.000405 2448.88794 2517.61816
2483.0 0.000403 2448.42480 2521.08423
2576.0 0.000388 2447.96118 2524.41870
2551.0 0.000392 2447.49731 2527.42310
2432.0 0.000411 2447.03296 2529.87402
2490.0 0.000402 2446.56860 2531.57080
2498.0 0.000400 2446.10376 2532.35913
2555.0 0.000391 2445.63867 2532.19897
2481.0 0.000403 2445.17334 2530.88965
2428.0 0.000412 2444.70752 2529.18677
2533.0 0.000395 2444.24146 2527.00635
2600.0 0.000385 2443.77515 2524.63696
2511.0 0.000398 2443.30859 2522.31641
2485.0 0.000402 2442.84155 2520.25317
2470.0 0.000405 2442.37451 2518.62354
2528.0 0.000396 2441.90674 2517.48364
2470.0 0.000405 2441.43921 2517.08350
2555.0 0.000391 2440.97095 2517.41699
2467.0 0.000405 2440.50244 2518.52734
2502.0 0.000400 2440.03394 2520.43408
2533.0 0.000395 2439.56470 2523.13623
2542.0 0.000393 2439.09546 2526.59448
2547.0 0.000393 2438.62598 2530.76611
2552.0 0.000392 2438.15601 2535.58667
2486.0 0.000402 2437.68579 2540.95947
2534.0 0.000395 2437.21533 2546.79712
2625.0 0.000381 2436.74463 2552.85718
2541.0 0.000394 2436.27344 2559.39307
2553.0 0.000392 2435.80225 2566.30981
2545.0 0.000393 2435.33057 2573.62915
2598.0 0.000385 2434.85864 2581.53516
2608.0 0.000383 2434.38623 2590.37573
2637.0 0.000379 2433.91382 2600.37793
2596.0 0.000385 2433.44116 2611.80005
2608.0 0.000383 2432.96802 2624.84619
2586.0 0.000387 2432.49463 2639.48901
2597.0 0.000385 2432.02100 2656.26074
2708.0 0.000369 2431.54688 2674.61108
2751.0 0.000364 2431.07251 2694.52466
2711.0 0.000369 2430.59814 2715.67993
2793.0 0.000358 2430.12329 2737.57446
2714.0 0.000368 2429.64819 2759.53271
2821.0 0.000354 2429.17310 2780.72925
2782.0 0.000359 2428.69727 2800.24023
2712.0 0.000369 2428.22144 2817.11523
2883.0 0.0003469 2427.74512 2830.53809
2729.0 0.000366 2427.26880 2839.71704
2877.0 0.0003476 2426.79175 2844.13135
2838.0 0.000352 2426.31470 2843.79980
2816.0 0.000355 2425.83765 2839.06372
2883.0 0.0003469 2425.35986 2830.60889
2847.0 0.000351 2424.88208 2819.32617
2782.0 0.000359 2424.40381 2806.14893
2789.0 0.000359 2423.92554 2791.94116
2840.0 0.000352 2423.44678 2777.41211
2831.0 0.000353 2422.96777 2763.12354
2786.0 0.000359 2422.48853 2749.47412
2713.0 0.000369 2422.00903 2736.81787
2686.0 0.000372 2421.52930 2725.45947
2780.0 0.000360 2421.04932 2715.66870
2686.0 0.000372 2420.56909 2707.68701
2736.0 0.000365 2420.08838 2701.68433
2717.0 0.000368 2419.60767 2697.75098
2745.0 0.000364 2419.12646 2695.88013
2600.0 0.000385 2418.64502 2695.99170
2706.0 0.000370 2418.16333 2697.94189
2770.0 0.000361 2417.68164 2701.56592
2668.0 0.000375 2417.19946 2706.72388
2639.0 0.000379 2416.71680 2713.31714
2723.0 0.000367 2416.23438 2721.32666
2718.0 0.000368 2415.75122 2730.77661
2781.0 0.000360 2415.26807 2741.74829
2762.0 0.000362 2414.78442 2754.30469
2860.0 0.0003497 2414.30103 2768.49951
2825.0 0.000354 2413.81714 2784.29004
2854.0 0.0003504 2413.33276 2801.55322
2861.0 0.0003495 2412.84839 2820.06592
2869.0 0.0003486 2412.36353 2839.45361
2883.0 0.0003469 2411.87866 2859.20557
2819.0 0.000355 2411.39331 2878.69604
2945.0 0.0003396 2410.90796 2897.30981
2961.0 0.0003377 2410.42212 2914.60767
2951.0 0.0003389 2409.93604 2930.49707
2916.0 0.0003429 2409.44995 2945.30371
2968.0 0.0003369 2408.96338 2959.68335
2987.0 0.0003348 2408.47681 2973.94238
3157.0 0.0003168 2407.98975 2989.82300
2982.0 0.0003353 2407.50269 3007.26953
3024.0 0.0003307 2407.01489 3026.14941
3014.0 0.0003318 2406.52759 3046.23145
3066.0 0.0003262 2406.03931 3066.75415
3018.0 0.0003313 2405.55127 3086.68701
3100.0 0.0003226 2405.06299 3104.98169
3010.0 0.0003322 2404.57422 3120.88599
3068.0 0.0003259 2404.08545 3134.17188
3054.0 0.0003274 2403.59619 3145.27490
3138.0 0.0003187 2403.10693 3155.18774
3252.0 0.0003075 2402.61743 3165.09985
3139.0 0.0003186 2402.12744 3176.11475
3190.0 0.0003135 2401.63770 3188.81812
3259.0 0.0003068 2401.14722 3203.21924
3317.0 0.0003015 2400.65674 3219.15967
3283.0 0.0003046 2400.16602 3235.47266
3308.0 0.0003023 2399.67505 3250.70898
3314.0 0.0003018 2399.18384 3263.18018
3351.0 0.0002984 2398.69238 3271.21875
3295.0 0.0003035 2398.20068 3273.50244
3189.0 0.0003136 2397.70898 3269.29883
3234.0 0.0003092 2397.21704 3258.59448
3295.0 0.0003035 2396.72461 3242.33252
3274.0 0.0003054 2396.23218 3221.15454
3200.0 0.0003125 2395.73950 3196.85791
3170.0 0.0003155 2395.24658 3171.10352
3082.0 0.0003245 2394.75342 3145.55127
3160.0 0.0003165 2394.26001 3121.71655
3135.0 0.0003190 2393.76636 3100.82349
3145.0 0.0003180 2393.27271 3083.78931
3127.0 0.0003198 2392.77881 3071.16699
3103.0 0.0003223 2392.28442 3063.23511
3124.0 0.0003201 2391.79004 3059.85083
3008.0 0.0003324 2391.29541 3060.77075
3092.0 0.0003234 2390.80054 3065.51953
3145.0 0.0003180 2390.30542 3073.43604
3119.0 0.0003206 2389.81030 3083.64795
3073.0 0.0003254 2389.31494 3095.04468
3132.0 0.0003193 2388.81934 3106.22485
3127.0 0.0003198 2388.32349 3115.51270
3137.0 0.0003188 2387.82739 3121.07178
3232.0 0.0003094 2387.33130 3121.12939
3102.0 0.0003224 2386.83472 3114.31689
3180.0 0.0003145 2386.33813 3099.94849
3085.0 0.0003241 2385.84131 3078.21680
3000.0 0.0003333 2385.34424 3050.11133
2933.0 0.0003409 2384.84717 3017.19849
2992.0 0.0003342 2384.34961 2981.21753
2846.0 0.000351 2383.85205 2943.89380
2825.0 0.000354 2383.35425 2906.69653
2855.0 0.0003503 2382.85645 2870.80762
2885.0 0.0003466 2382.35815 2836.98438
2799.0 0.000357 2381.85986 2805.80811
2751.0 0.000364 2381.36133 2777.59229
2818.0 0.000355 2380.86279 2752.46826
2777.0 0.000360 2380.36401 2730.40039
2603.0 0.000384 2379.86475 2711.20190
2700.0 0.000370 2379.36572 2694.56592
2650.0 0.000377 2378.86621 2680.08887
2619.0 0.000382 2378.36670 2667.39380
2700.0 0.000370 2377.86694 2656.02100
2678.0 0.000373 2377.36719 2645.96753
2580.0 0.000388 2376.86694 2636.79810
2614.0 0.000383 2376.36670 2628.76392
2623.0 0.000381 2375.86646 2621.99438
2646.0 0.000378 2375.36572 2616.63159
2687.0 0.000372 2374.86499 2612.70996
2564.0 0.000390 2374.36401 2610.18213
2629.0 0.000380 2373.86304 2608.91016
2581.0 0.000387 2373.36157 2608.61841
2561.0 0.000390 2372.86035 2608.90381
2564.0 0.000390 2372.35889 2609.25293
2589.0 0.000386 2371.85693 2609.07544
2544.0 0.000393 2371.35522 2607.77515
2518.0 0.000397 2370.85303 2604.85156
2551.0 0.000392 2370.35107 2600.01440
2544.0 0.000393 2369.84839 2593.26782
2562.0 0.000390 2369.34619 2584.83496
2533.0 0.000395 2368.84351 2575.16357
2568.0 0.000389 2368.34058 2564.80127
2523.0 0.000396 2367.83789 2554.31104
2486.0 0.000402 2367.33472 2544.13452
2595.0 0.000385 2366.83154 2534.69849
2519.0 0.000397 2366.32788 2526.32666
2523.0 0.000396 2365.82471 2519.43311
2498.0 0.000400 2365.32080 2513.85229
2445.0 0.000409 2364.81714 2509.86401
2530.0 0.000395 2364.31348 2507.76489
2574.0 0.000389 2363.80908 2507.09473
2531.0 0.000395 2363.30493 2508.05469
2534.0 0.000395 2362.80078 2510.56616
2508.0 0.000399 2362.29614 2514.52271
2508.0 0.000399 2361.79150 2519.77026
2551.0 0.000392 2361.28687 2526.11646
2614.0 0.000383 2360.78198 2533.37524
2570.0 0.000389 2360.27710 2541.26636
2622.0 0.000381 2359.77197 2549.50415
2545.0 0.000393 2359.26685 2557.80859
2623.0 0.000381 2358.76147 2565.89478
2606.0 0.000384 2358.25586 2573.53125
2600.0 0.000385 2357.75049 2580.42822
2534.0 0.000395 2357.24463 2586.57153
2579.0 0.000388 2356.73877 2591.96240
2595.0 0.000385 2356.23291 2596.53418
2562.0 0.000390 2355.72681 2600.30591
2464.0 0.000406 2355.22070 2603.20361
2566.0 0.000390 2354.71436 2605.09937
2526.0 0.000396 2354.20825 2605.80591
2543.0 0.000393 2353.70142 2605.14062
2555.0 0.000391 2353.19507 2602.89014
2659.0 0.000376 2352.68823 2598.94360
2571.0 0.000389 2352.18164 2593.43579
2566.0 0.000390 2351.67456 2586.39429
2604.0 0.000384 2351.16748 2578.02710
2576.0 0.000388 2350.66064 2568.58521
2580.0 0.000388 2350.15332 2558.47925
2510.0 0.000398 2349.64600 2547.74048
2574.0 0.000389 2349.13843 2536.76782
2511.0 0.000398 2348.63110 2525.81494
2470.0 0.000405 2348.12329 2515.08496
2492.0 0.000401 2347.61572 2504.74805
2453.0 0.000408 2347.10815 2494.95557
2462.0 0.000406 2346.60010 2485.83765
2444.0 0.000409 2346.09229 2477.49854
2603.0 0.000384 2345.58423 2470.02539
2471.0 0.000405 2345.07617 2463.47827
2395.0 0.000418 2344.56787 2457.89990
2402.0 0.000416 2344.05957 2453.31201
2396.0 0.000417 2343.55127 2449.70947
2577.0 0.000388 2343.04272 2447.10938
2508.0 0.000399 2342.53442 2445.39233
2505.0 0.000399 2342.02563 2444.61011
2405.0 0.000416 2341.51709 2444.26562
2394.0 0.000418 2341.00830 2444.82031
2376.0 0.000421 2340.49951 2445.89917
2444.0 0.000409 2339.99048 2447.37964
2449.0 0.000408 2339.48169 2449.16284
2419.0 0.000413 2338.97266 2451.15308
2423.0 0.000413 2338.46362 2453.34961
2423.0 0.000413 2337.95435 2455.79248
2351.0 0.000425 2337.44507 2458.55615
2419.0 0.000413 2336.93604 2461.74536
2458.0 0.000407 2336.42651 2465.45068
2533.0 0.000395 2335.91724 2469.73853
2446.0 0.000409 2335.40771 2474.61621
2477.0 0.000404 2334.89819 2480.01636
2487.0 0.000402 2334.38867 2485.78076
2509.0 0.000399 2333.87891 2491.65015
2538.0 0.000394 2333.36938 2497.25562
2479.0 0.000403 2332.85962 2502.24731
2636.0 0.000379 2332.34985 2506.11841
2510.0 0.000398 2331.84009 2508.51562
2541.0 0.000394 2331.33032 2509.16187
2482.0 0.000403 2330.82031 2507.94189
2546.0 0.000393 2330.31030 2504.86328
2474.0 0.000404 2329.80054 2500.04565
2539.0 0.000394 2329.29028 2493.70020
2453.0 0.000408 2328.78027 2486.10229
2430.0 0.000412 2328.27002 2477.59644
2476.0 0.000404 2327.76001 2468.56641
2510.0 0.000398 2327.24976 2459.40601
2448.0 0.000408 2326.73950 2450.48389
2420.0 0.000413 2326.22949 2442.17554
2330.0 0.000429 2325.71899 2434.63770
2392.0 0.000418 2325.20874 2428.12964
2323.0 0.000430 2324.69824 2422.92139
2378.0 0.000421 2324.18799 2418.94897
2421.0 0.000413 2323.67749 2416.27661
2459.0 0.000407 2323.16724 2415.00586
2376.0 0.000421 2322.65674 2415.16577
2482.0 0.000403 2322.14624 2416.72534
2395.0 0.000418 2321.63574 2419.67285
2376.0 0.000421 2321.12524 2423.96069
2453.0 0.000408 2320.61475 2429.51636
2421.0 0.000413 2320.10400 2436.24512
2446.0 0.000409 2319.59351 2444.05029
2527.0 0.000396 2319.08301 2452.74194
2377.0 0.000421 2318.57227 2462.17798
2513.0 0.000398 2318.06177 2472.16431
2519.0 0.000397 2317.55127 2482.48535
2432.0 0.000411 2317.04053 2492.87183
2496.0 0.000401 2316.52979 2503.00024
2564.0 0.000390 2316.01929 2512.48462
2470.0 0.000405 2315.50854 2520.88037
2584.0 0.000387 2314.99805 2527.68994
2617.0 0.000382 2314.48730 2532.42993
2489.0 0.000402 2313.97681 2534.69043
2502.0 0.000400 2313.46606 2534.18457
2556.0 0.000391 2312.95532 2530.87866
2541.0 0.000394 2312.44482 2525.12769
2556.0 0.000391 2311.93408 2517.00659
2450.0 0.000408 2311.42358 2507.20532
2422.0 0.000413 2310.91284 2496.28638
2514.0 0.000398 2310.40210 2484.78345
2389.0 0.000419 2309.89136 2473.16528
2521.0 0.000397 2309.38110 2461.78223
2477.0 0.000404 2308.87036 2450.91675
2364.0 0.000423 2308.35962 2440.77222
2416.0 0.000414 2307.84937 2431.48828
2386.0 0.000419 2307.33862 2423.15576
2493.0 0.000401 2306.82812 2415.84033
2411.0 0.000415 2306.31738 2409.57397
2458.0 0.000407 2305.80713 2404.41162
2447.0 0.000409 2305.29663 2400.31348
2460.0 0.000407 2304.78613 2397.30640
2428.0 0.000412 2304.27588 2395.38574
2388.0 0.000419 2303.76514 2394.54175
2373.0 0.000421 2303.25488 2394.75317
2293.0 0.000436 2302.74438 2395.99316
2435.0 0.000411 2302.23413 2398.21899
2349.0 0.000426 2301.72388 2401.40283
2382.0 0.000420 2301.21362 2405.49878
2352.0 0.000425 2300.70337 2410.46509
2520.0 0.000397 2300.19312 2416.25244
2453.0 0.000408 2299.68286 2422.78125
2517.0 0.000397 2299.17261 2429.97705
2517.0 0.000397 2298.66260 2437.73779
2437.0 0.000410 2298.15234 2445.94629
2468.0 0.000405 2297.64233 2454.47510
2455.0 0.000407 2297.13232 2463.20508
2522.0 0.000397 2296.62231 2472.06079
2428.0 0.000412 2296.11255 2481.08325
2537.0 0.000394 2295.60254 2490.24854
2550.0 0.000392 2295.09277 2499.76538
2539.0 0.000394 2294.58276 2509.85913
2477.0 0.000404 2294.07324 2520.84106
2559.0 0.000391 2293.56323 2532.81128
2579.0 0.000388 2293.05371 2545.84033
2762.0 0.000362 2292.54395 2559.97852
2509.0 0.000399 2292.03467 2575.07812
2515.0 0.000398 2291.52515 2590.81885
2632.0 0.000380 2291.01538 2606.69116
2562.0 0.000390 2290.50610 2621.97998
2642.0 0.000379 2289.99658 2635.78931
2667.0 0.000375 2289.48730 2647.09106
2654.0 0.000377 2288.97803 2654.84521
2751.0 0.000364 2288.46875 2658.18530
2650.0 0.000377 2287.95972 2656.59302
2707.0 0.000369 2287.45044 2650.04834
2672.0 0.000374 2286.94165 2639.01685
2670.0 0.000375 2286.43262 2624.33105
2633.0 0.000380 2285.92358 2607.03149
2548.0 0.000392 2285.41479 2588.17285
2525.0 0.000396 2284.90601 2568.70776
2451.0 0.000408 2284.39697 2549.43018
2422.0 0.000413 2283.88843 2530.96045
2443.0 0.000409 2283.37988 2513.76709
2479.0 0.000403 2282.87134 2498.18311
2522.0 0.000397 2282.36279 2484.43579
2529.0 0.000395 2281.85449 2472.66968
2504.0 0.000399 2281.34619 2462.96558
2425.0 0.000412 2280.83765 2455.37500
2431.0 0.000411 2280.32959 2450.14868
2408.0 0.000415 2279.82129 2446.80005
2484.0 0.000403 2279.31323 2445.53809
2381.0 0.000420 2278.80542 2446.32031
2455.0 0.000407 2278.29736 2449.08276
2421.0 0.000413 2277.78955 2453.76392
2529.0 0.000395 2277.28174 2460.28149
2518.0 0.000397 2276.77417 2468.51636
2527.0 0.000396 2276.26636 2478.42261
2538.0 0.000394 2275.75879 2489.94849
2424.0 0.000413 2275.25146 2503.05469
2582.0 0.000387 2274.74390 2517.69507
2630.0 0.000380 2274.23657 2533.80029
2680.0 0.000373 2273.72925 2551.23169
2607.0 0.000384 2273.22217 2569.76050
2636.0 0.000379 2272.71509 2589.07031
2657.0 0.000376 2272.20801 2608.70630
2650.0 0.000377 2271.70093 2628.14648
2663.0 0.000376 2271.19434 2646.80859
2643.0 0.000378 2270.68774 2663.73438
2712.0 0.000369 2270.18091 2678.63794
2763.0 0.000362 2269.67432 2690.31860
2667.0 0.000375 2269.16772 2698.22852
2663.0 0.000376 2268.66138 2701.90991
2671.0 0.000374 2268.15503 2701.38696
2624.0 0.000381 2267.64893 2696.94482
2615.0 0.000382 2267.14258 2689.42358
2655.0 0.000377 2266.63672 2679.86304
2654.0 0.000377 2266.13062 2669.38159
2596.0 0.000385 2265.62451 2659.03638
2633.0 0.000380 2265.11890 2649.72290
2668.0 0.000375 2264.61304 2642.15381
2693.0 0.000371 2264.10742 2636.91895
2656.0 0.000377 2263.60181 2634.21973
2593.0 0.000386 2263.09668 2634.30029
2650.0 0.000377 2262.59131 2637.20288
2626.0 0.000381 2262.08594 2642.86133
2738.0 0.000365 2261.58081 2651.13818
2684.0 0.000373 2261.07568 2661.85425
2787.0 0.000359 2260.57080 2674.67700
2650.0 0.000377 2260.06567 2689.32617
2719.0 0.000368 2259.56104 2705.41870
2729.0 0.000366 2259.05615 2722.52148
2741.0 0.000365 2258.55151 2740.13379
2870.0 0.0003484 2258.04736 2757.68457
2799.0 0.000357 2257.54272 2774.52661
2827.0 0.000354 2257.03833 2789.92065
2932.0 0.0003411 2256.53418 2803.06079
2783.0 0.000359 2256.03003 2813.15991
2871.0 0.0003483 2255.52588 2819.59497
2762.0 0.000362 2255.02197 2822.04614
2877.0 0.0003476 2254.51831 2820.62109
2867.0 0.0003488 2254.01440 2815.90991
2690.0 0.000372 2253.51099 2808.55103
2787.0 0.000359 2253.00708 2799.51733
2787.0 0.000359 2252.50391 2789.64917
2796.0 0.000358 2252.00049 2779.60669
2708.0 0.000369 2251.49731 2769.79004
2796.0 0.000358 2250.99414 2760.35986
2651.0 0.000377 2250.49097 2751.24634
2738.0 0.000365 2249.98804 2742.21826
2681.0 0.000373 2249.48511 2732.96655
2708.0 0.000369 2248.98242 2723.14307
2626.0 0.000381 2248.47974 2712.50610
2657.0 0.000376 2247.97729 2700.86157
2590.0 0.000386 2247.47461 2688.20044
2635.0 0.000380 2246.97241 2674.63721
2639.0 0.000379 2246.46997 2660.56470
2639.0 0.000379 2245.96802 2645.14404
2578.0 0.000388 2245.46582 2630.67163
2621.0 0.000382 2244.96387 2616.62134
2535.0 0.000394 2244.46216 2603.28101
2594.0 0.000386 2243.96021 2590.88696
2624.0 0.000381 2243.45850 2579.59644
2575.0 0.000388 2242.95679 2569.51538
2574.0 0.000389 2242.45557 2560.66406
2585.0 0.000387 2241.95410 2553.10889
2601.0 0.000384 2241.45288 2546.90015
2552.0 0.000392 2240.95190 2542.12451
2506.0 0.000399 2240.45068 2538.87256
2470.0 0.000405 2239.94971 2537.24585
2451.0 0.000408 2239.44873 2537.32935
2521.0 0.000397 2238.94800 2539.18726
2586.0 0.000387 2238.44727 2542.86743
2551.0 0.000392 2237.94678 2548.38379
2493.0 0.000401 2237.44629 2555.82471
2517.0 0.000397 2236.94580 2564.85913
2670.0 0.000375 2236.44556 2575.48145
2677.0 0.000374 2235.94531 2587.47534
2589.0 0.000386 2235.44531 2600.52686
2586.0 0.000387 2234.94507 2614.22046
2714.0 0.000368 2234.44531 2628.02588
2678.0 0.000373 2233.94556 2641.30737
2640.0 0.000379 2233.44580 2653.36328
2738.0 0.000365 2232.94629 2663.48389
2571.0 0.000389 2232.44653 2671.04712
2748.0 0.000364 2231.94727 2675.58105
2735.0 0.000366 2231.44775 2676.83301
2637.0 0.000379 2230.94873 2674.74243
2666.0 0.000375 2230.44946 2669.42358
2714.0 0.000368 2229.95044 2661.10327
2663.0 0.000376 2229.45117 2650.12280
2715.0 0.000368 2228.95264 2636.80908
2707.0 0.000369 2228.45386 2621.66309
2573.0 0.000389 2227.95508 2605.23730
2638.0 0.000379 2227.45654 2588.07178
2524.0 0.000396 2226.95776 2570.74487
2507.0 0.000399 2226.45947 2553.75830
2549.0 0.000392 2225.96094 2537.51489
2552.0 0.000392 2225.46289 2522.30225
2498.0 0.000400 2224.96484 2508.29590
2440.0 0.000410 2224.46655 2495.56079
2495.0 0.000401 2223.96875 2484.08154
2449.0 0.000408 2223.47070 2473.77759
2455.0 0.000407 2222.97290 2464.68726
2445.0 0.000409 2222.47510 2456.41577
2473.0 0.000404 2221.97754 2449.03735
2436.0 0.000411 2221.47974 2442.52051
2484.0 0.000403 2220.98242 2436.86987
2312.0 0.000433 2220.48511 2432.10352
2409.0 0.000415 2219.98755 2428.25562
2418.0 0.000414 2219.49048 2425.35010
2444.0 0.000409 2218.99316 2423.40942
2406.0 0.000416 2218.49609 2422.46777
2390.0 0.000418 2217.99902 2422.56787
2375.0 0.000421 2217.50220 2423.72485
2452.0 0.000408 2217.00513 2425.97998
2393.0 0.000418 2216.50830 2429.32935
2369.0 0.000422 2216.01196 2433.67383
2403.0 0.000416 2215.51514 2438.93433
2436.0 0.000411 2215.01855 2444.91333
2543.0 0.000393 2214.52197 2451.37622
2503.0 0.000400 2214.02563 2458.00000
2548.0 0.000392 2213.52905 2464.56055
2463.0 0.000406 2213.03271 2470.35645
2472.0 0.000405 2212.53687 2475.14062
2451.0 0.000408 2212.04053 2478.55347
2470.0 0.000405 2211.54443 2480.09839
2538.0 0.000394 2211.04810 2480.04956
2388.0 0.000419 2210.55225 2478.09131
2474.0 0.000404 2210.05640 2474.21924
2449.0 0.000408 2209.56055 2468.50659
2367.0 0.000422 2209.06445 2461.07153
2369.0 0.000422 2208.56885 2452.12329
2411.0 0.000415 2208.07324 2441.93481
2355.0 0.000425 2207.57764 2430.82471
2465.0 0.000406 2207.08203 2419.14673
2303.0 0.000434 2206.58643 2407.24487
2352.0 0.000425 2206.09106 2395.43188
2348.0 0.000426 2205.59546 2383.96558
2336.0 0.000428 2205.10034 2373.04956
2362.0 0.000423 2204.60474 2362.82495
2367.0 0.000422 2204.10962 2353.39380
2314.0 0.000432 2203.61450 2344.80786
2355.0 0.000425 2203.11914 2337.09448
2315.0 0.000432 2202.62402 2330.26978
2412.0 0.000415 2202.12891 2324.33496
2322.0 0.000431 2201.63379 2319.45557
2368.0 0.000422 2201.13867 2315.29761
2269.0 0.000441 2200.64380 2312.01245
2272.0 0.000440 2200.14893 2309.58862
2345.0 0.000426 2199.65381 2308.00098
2284.0 0.000438 2199.15918 2307.21875
2390.0 0.000418 2198.66406 2307.00342
2295.0 0.000436 2198.16943 2307.72339
2272.0 0.000440 2197.67456 2309.12793
2270.0 0.000441 2197.17993 2311.15161
2302.0 0.000434 2196.68506 2313.73047
2297.0 0.000435 2196.19019 2316.77539
2276.0 0.000439 2195.69580 2320.19531
2344.0 0.000427 2195.20093 2323.87012
2391.0 0.000418 2194.70630 2327.68945
2314.0 0.000432 2194.21143 2331.53491
2346.0 0.000426 2193.71704 2335.31641
2336.0 0.000428 2193.22217 2338.91016
2200.0 0.000455 2192.72778 2342.27075
2439.0 0.000410 2192.23315 2345.38477
2352.0 0.000425 2191.73853 2348.29004
2448.0 0.000408 2191.24390 2351.07446
2336.0 0.000428 2190.74951 2353.95068
2325.0 0.000430 2190.25488 2357.10425
2347.0 0.000426 2189.76025 2360.81348
2381.0 0.000420 2189.26562 2365.33862
2394.0 0.000418 2188.77100 2370.96143
2396.0 0.000417 2188.27637 2377.91089
2386.0 0.000419 2187.78198 2386.40210
2474.0 0.000404 2187.28735 2396.59888
2488.0 0.000402 2186.79272 2408.77441
2384.0 0.000419 2186.29810 2422.72510
2415.0 0.000414 2185.80347 2438.52661
2341.0 0.000427 2185.30884 2456.16895
2381.0 0.000420 2184.81421 2475.53589
2532.0 0.000395 2184.31934 2496.42285
2528.0 0.000396 2183.82471 2518.53491
2588.0 0.000386 2183.33008 2541.47070
2553.0 0.000392 2182.83521 2564.77075
2607.0 0.000384 2182.34058 2587.63599
2682.0 0.000373 2181.84570 2609.36377
2644.0 0.000378 2181.35083 2629.11914
2609.0 0.000383 2180.85596 2646.06812
2591.0 0.000386 2180.36108 2659.44751
2787.0 0.000359 2179.86597 2668.70972
2719.0 0.000368 2179.37109 2673.55566
2799.0 0.000357 2178.87622 2673.96973
2607.0 0.000384 2178.38086 2670.16992
2633.0 0.000380 2177.88599 2662.56909
2667.0 0.000375 2177.39062 2651.66919
2649.0 0.000378 2176.89551 2637.99414
2637.0 0.000379 2176.40015 2622.06934
2623.0 0.000381 2175.90479 2604.33105
2486.0 0.000402 2175.40967 2585.06787
2617.0 0.000382 2174.91406 2565.05908
2503.0 0.000400 2174.41846 2544.53638
2465.0 0.000406 2173.92285 2523.99927
2473.0 0.000404 2173.42725 2503.95020
2426.0 0.000412 2172.93140 2484.91846
2403.0 0.000416 2172.43579 2467.53516
2495.0 0.000401 2171.93994 2452.03027
2422.0 0.000413 2171.44385 2438.93774
2431.0 0.000411 2170.94800 2428.58862
2439.0 0.000410 2170.45190 2421.24780
2402.0 0.000416 2169.95581 2417.09473
2445.0 0.000409 2169.45923 2416.22705
2407.0 0.000415 2168.96313 2418.67432
2461.0 0.000406 2168.46655 2424.37622
2410.0 0.000415 2167.96997 2433.19214
2520.0 0.000397 2167.47314 2444.88550
2534.0 0.000395 2166.97656 2459.12402
2495.0 0.000401 2166.47974 2475.46826
2386.0 0.000419 2165.98267 2493.35449
2594.0 0.000386 2165.48584 2512.13403
2613.0 0.000383 2164.98853 2530.92969
2612.0 0.000383 2164.49121 2548.85327
2602.0 0.000384 2163.99390 2564.85522
2604.0 0.000384 2163.49634 2577.95825
2578.0 0.000388 2162.99878 2587.25488
2647.0 0.000378 2162.50098 2592.05151
2650.0 0.000377 2162.00317 2591.94946
2607.0 0.000384 2161.50513 2586.92969
2466.0 0.000406 2161.00708 2577.34155
2550.0 0.000392 2160.50879 2563.85352
2567.0 0.000390 2160.01025 2547.35864
2516.0 0.000397 2159.51172 2528.92627
2458.0 0.000407 2159.01294 2509.36426
2474.0 0.000404 2158.51440 2489.64282
2456.0 0.000407 2158.01514 2470.60693
2506.0 0.000399 2157.51611 2452.66772
2452.0 0.000408 2157.01685 2436.36792
2434.0 0.000411 2156.51733 2422.02271
2388.0 0.000419 2156.01758 2409.82959
2390.0 0.000418 2155.51807 2399.96582
2426.0 0.000412 2155.01807 2392.17749
2442.0 0.000410 2154.51782 2386.46411
2414.0 0.000414 2154.01782 2382.83057
2464.0 0.000406 2153.51733 2380.63940
2486.0 0.000402 2153.01660 2379.80176
2417.0 0.000414 2152.51562 2380.03174
2439.0 0.000410 2152.01489 2381.05225
2472.0 0.000405 2151.51367 2382.61890
2436.0 0.000411 2151.01221 2384.50879
2418.0 0.000414 2150.51099 2386.51440
2416.0 0.000414 2150.00903 2388.44214
2461.0 0.000406 2149.50708 2390.09985
2323.0 0.000430 2149.00488 2391.31641
2378.0 0.000421 2148.50269 2391.89819
2427.0 0.000412 2148.00000 2391.72095
2337.0 0.000428 2147.49731 2390.70972
2351.0 0.000425 2146.99414 2388.88354
2353.0 0.000425 2146.49121 2386.10889
2394.0 0.000418 2145.98779 2382.56714
2407.0 0.000415 2145.48389 2378.42310
2357.0 0.000424 2144.98022 2373.89600
2379.0 0.000420 2144.47607 2369.24487
2409.0 0.000415 2143.97168 2364.78589
2420.0 0.000413 2143.46729 2360.69263
2351.0 0.000425 2142.96240 2357.26538
2303.0 0.000434 2142.45728 2354.65063
2369.0 0.000422 2141.95215 2352.95361
2347.0 0.000426 2141.44678 2352.37012
2368.0 0.000422 2140.94067 2352.87939
2332.0 0.000429 2140.43481 2354.46753
2333.0 0.000429 2139.92847 2357.05762
2360.0 0.000424 2139.42188 2360.51880
2381.0 0.000420 2138.91504 2364.65698
2377.0 0.000421 2138.40820 2369.19727
2373.0 0.000421 2137.90088 2373.90747
2339.0 0.000428 2137.39307 2378.31274
2321.0 0.000431 2136.88525 2382.06006
2452.0 0.000408 2136.37695 2384.75049
2328.0 0.000430 2135.86865 2386.03027
2367.0 0.000422 2135.35962 2385.72388
2326.0 0.000430 2134.85083 2383.56177
2355.0 0.000425 2134.34131 2379.65747
2367.0 0.000422 2133.83179 2374.19482
2355.0 0.000425 2133.32178 2367.46484
2368.0 0.000422 2132.81152 2359.82471
2299.0 0.000435 2132.30103 2351.66724
2375.0 0.000421 2131.79004 2343.27930
2338.0 0.000428 2131.27905 2334.99927
2301.0 0.000435 2130.76733 2327.08447
2245.0 0.000445 2130.25562 2319.74243
2373.0 0.000421 2129.74341 2313.15942
2236.0 0.000447 2129.23096 2307.43359
2356.0 0.000424 2128.71826 2302.67798
2279.0 0.000439 2128.20508 2298.97925
2366.0 0.000423 2127.69165 2296.40576
2299.0 0.000435 2127.17773 2295.02783
2289.0 0.000437 2126.66357 2294.91138
2292.0 0.000436 2126.14893 2296.13135
2296.0 0.000436 2125.63403 2298.75830
2275.0 0.000440 2125.11890 2302.85132
2388.0 0.000419 2124.60327 2308.52344
2359.0 0.000424 2124.08740 2315.90186
2334.0 0.000428 2123.57104 2324.84302
2440.0 0.000410 2123.05444 2335.41333
2229.0 0.000449 2122.53735 2347.59009
2306.0 0.000434 2122.01978 2361.27490
2418.0 0.000414 2121.50195 2376.33179
2341.0 0.000427 2120.98389 2392.58374
2404.0 0.000416 2120.46533 2409.72827
2517.0 0.000397 2119.94629 2427.50757
2445.0 0.000409 2119.42700 2445.57959
2522.0 0.000397 2118.90698 2463.57959
2559.0 0.000391 2118.38696 2481.08374
2522.0 0.000397 2117.86621 2497.66870
2567.0 0.000390 2117.34546 2512.71289
2627.0 0.000381 2116.82373 2525.61597
2637.0 0.000379 2116.30200 2535.96338
2543.0 0.000393 2115.77979 2543.18433
2632.0 0.000380 2115.25708 2546.94604
2493.0 0.000401 2114.73413 2547.14722
2621.0 0.000382 2114.21045 2543.95605
2550.0 0.000392 2113.68652 2537.79614
2529.0 0.000395 2113.16211 2529.26587
2582.0 0.000387 2112.63721 2519.05908
2414.0 0.000414 2112.11206 2507.88135
2427.0 0.000412 2111.58618 2496.38086
2578.0 0.000388 2111.06006 2485.11157
2598.0 0.000385 2110.53345 2474.50293
2432.0 0.000411 2110.00635 2464.88428
2363.0 0.000423 2109.47852 2456.45728
2458.0 0.000407 2108.95068 2449.30420
2512.0 0.000398 2108.42212 2443.44189
2419.0 0.000413 2107.89307 2438.63965
2480.0 0.000403 2107.36353 2434.68750
2322.0 0.000431 2106.83374 2431.25684
2477.0 0.000404 2106.30322 2427.96509
2381.0 0.000420 2105.77222 2424.42285
2399.0 0.000417 2105.24097 2420.30444
2431.0 0.000411 2104.70874 2415.36475
2378.0 0.000421 2104.17651 2409.49731
2543.0 0.000393 2103.64331 2402.68970
2451.0 0.000408 2103.11011 2395.04297
2343.0 0.000427 2102.57617 2386.72729
2362.0 0.000423 2102.04175 2377.94409
2418.0 0.000414 2101.50684 2368.91748
2311.0 0.000433 2100.97119 2359.87183
2382.0 0.000420 2100.43530 2351.01123
2392.0 0.000418 2099.89844 2342.52734
2314.0 0.000432 2099.36157 2334.58789
2299.0 0.000435 2098.82397 2327.32202
2331.0 0.000429 2098.28564 2320.81738
2323.0 0.000430 2097.74707 2315.12573
2294.0 0.000436 2097.20776 2310.24219
2274.0 0.000440 2096.66797 2306.19946
2229.0 0.000449 2096.12769 2302.80347
2293.0 0.000436 2095.58667 2300.01807
2362.0 0.000423 2095.04517 2297.74487
2248.0 0.000445 2094.50317 2295.87695
2320.0 0.000431 2093.96069 2294.33276
2246.0 0.000445 2093.41724 2293.05640
2306.0 0.000434 2092.87354 2292.02319
2310.0 0.000433 2092.32910 2291.28442
2287.0 0.000437 2091.78442 2290.84058
2276.0 0.000439 2091.23853 2290.79956
2320.0 0.000431 2090.69263 2291.26074
2255.0 0.000443 2090.14575 2292.33716
2320.0 0.000431 2089.59863 2294.13452
2336.0 0.000428 2089.05078 2296.76660
2337.0 0.000428 2088.50220 2300.32129
2318.0 0.000431 2087.95312 2304.87842
2337.0 0.000428 2087.40332 2310.31104
2293.0 0.000436 2086.85303 2317.02246
2279.0 0.000439 2086.30200 2324.81006
2275.0 0.000440 2085.75049 2333.60864
2422.0 0.000413 2085.19849 2343.29688
2375.0 0.000421 2084.64551 2353.68335
2402.0 0.000416 2084.09204 2364.52026
2476.0 0.000404 2083.53760 2375.51709
2385.0 0.000419 2082.98315 2386.30005
2483.0 0.000403 2082.42749 2396.50317
2418.0 0.000414 2081.87158 2405.76489
2432.0 0.000411 2081.31494 2413.67383
2424.0 0.000413 2080.75757 2419.73828
2452.0 0.000408 2080.19971 2423.95264
2441.0 0.000410 2079.64087 2425.93213
2400.0 0.000417 2079.08154 2425.55908
2401.0 0.000416 2078.52148 2422.88770
2295.0 0.000436 2077.96094 2418.12329
2440.0 0.000410 2077.39941 2411.67944
2401.0 0.000416 2076.83765 2404.09033
2406.0 0.000416 2076.27466 2395.99536
2398.0 0.000417 2075.71143 2387.98096
2386.0 0.000419 2075.14746 2380.66504
2342.0 0.000427 2074.58252 2374.57275
2395.0 0.000418 2074.01733 2370.15112
2324.0 0.000430 2073.45093 2367.75610
2371.0 0.000422 2072.88428 2367.65820
2320.0 0.000431 2072.31641 2370.03052
2319.0 0.000431 2071.74829 2374.96680
2326.0 0.000430 2071.17944 2382.46118
2472.0 0.000405 2070.60962 2392.42285
2423.0 0.000413 2070.03931 2404.66162
2383.0 0.000420 2069.46826 2418.88745
2494.0 0.000401 2068.89648 2434.71191
2413.0 0.000414 2068.32373 2451.64429
2471.0 0.000405 2067.75049 2469.11841
2497.0 0.000400 2067.17627 2486.24561
2463.0 0.000406 2066.60156 2502.97681
2601.0 0.000384 2066.02637 2518.17578
2551.0 0.000392 2065.44995 2531.37549
2677.0 0.000374 2064.87305 2542.07764
2548.0 0.000392 2064.29517 2549.89307
2523.0 0.000396 2063.71680 2554.55615
2592.0 0.000386 2063.13745 2555.91431
2488.0 0.000402 2062.55737 2553.94727
2508.0 0.000399 2061.97656 2548.77637
2619.0 0.000382 2061.39526 2540.66772
2484.0 0.000403 2060.81299 2530.01636
2467.0 0.000405 2060.22998 2517.28296
2522.0 0.000397 2059.64624 2503.03076
2513.0 0.000398 2059.06128 2487.59033
2511.0 0.000398 2058.47607 2471.46875
2464.0 0.000406 2057.88989 2455.06372
2377.0 0.000421 2057.30298 2438.75854
2344.0 0.000427 2056.71533 2422.91724
2404.0 0.000416 2056.12671 2407.95239
2356.0 0.000424 2055.53760 2394.08325
2369.0 0.000422 2054.94727 2381.65234
2304.0 0.000434 2054.35669 2370.85840
2299.0 0.000435 2053.76489 2361.85205
2362.0 0.000423 2053.17236 2354.68384
2332.0 0.000429 2052.57886 2349.32129
2336.0 0.000428 2051.98511 2345.68237
2269.0 0.000441 2051.39014 2343.50049
2332.0 0.000429 2050.79443 2342.58813
2367.0 0.000422 2050.19800 2342.65698
2386.0 0.000419 2049.60059 2343.39136
2316.0 0.000432 2049.00244 2344.43677
2299.0 0.000435 2048.40332 2345.42188
2343.0 0.000427 2047.80359 2345.91992
2352.0 0.000425 2047.20288 2345.54932
2285.0 0.000438 2046.60144 2343.92847
2391.0 0.000418 2045.99927 2340.75269
2335.0 0.000428 2045.39600 2335.88184
2278.0 0.000439 2044.79211 2329.15747
2259.0 0.000443 2044.18713 2320.74487
2282.0 0.000438 2043.58167 2310.89990
2396.0 0.000417 2042.97510 2299.98999
2347.0 0.000426 2042.36780 2288.42725
2307.0 0.000433 2041.75977 2276.62891
2190.0 0.000457 2041.15063 2264.98828
2220.0 0.000450 2040.54089 2253.84229
2212.0 0.000452 2039.93005 2243.47900
2163.0 0.000462 2039.31860 2234.12695
2237.0 0.000447 2038.70593 2225.96924
2220.0 0.000450 2038.09290 2219.14917
2235.0 0.000447 2037.47852 2213.45068
2196.0 0.000455 2036.86365 2209.59644
2243.0 0.000446 2036.24792 2207.32886
2214.0 0.000452 2035.63098 2206.71289
2190.0 0.000457 2035.01343 2207.85767
2260.0 0.000442 2034.39478 2210.74634
2177.0 0.000459 2033.77563 2215.50757
2270.0 0.000441 2033.15527 2222.34082
2241.0 0.000446 2032.53418 2231.06885
2238.0 0.000447 2031.91211 2241.84570
2334.0 0.000428 2031.28943 2254.65967
2256.0 0.000443 2030.66565 2269.44336
2269.0 0.000441 2030.04089 2286.05933
2336.0 0.000428 2029.41553 2304.29272
2355.0 0.000425 2028.78906 2323.83643
2339.0 0.000428 2028.16174 2344.28760
2349.0 0.000426 2027.53345 2365.13672
2443.0 0.000409 2026.90466 2385.84058
2336.0 0.000428 2026.27478 2405.50977
2435.0 0.000411 2025.64368 2423.41943
2396.0 0.000417 2025.01221 2438.73511
2429.0 0.000412 2024.37939 2450.65967
2503.0 0.000400 2023.74597 2458.54077
2366.0 0.000423 2023.11145 2461.94849
2408.0 0.000415 2022.47620 2460.75171
2440.0 0.000410 2021.83984 2455.12183
2443.0 0.000409 2021.20288 2445.53247
2305.0 0.000434 2020.56494 2432.64404
2310.0 0.000433 2019.92590 2417.25415
2331.0 0.000429 2019.28613 2400.26611
2361.0 0.000424 2018.64526 2382.23706
2290.0 0.000437 2018.00378 2363.92896
2329.0 0.000429 2017.36108 2345.88452
2251.0 0.000444 2016.71777 2328.52539
2276.0 0.000439 2016.07324 2312.14673
2330.0 0.000429 2015.42798 2296.93530
2245.0 0.000445 2014.78210 2282.98608
2297.0 0.000435 2014.13477 2270.29858
2225.0 0.000449 2013.48682 2258.82031
2316.0 0.000432 2012.83777 2248.44873
2312.0 0.000433 2012.18811 2239.04736
2243.0 0.000446 2011.53723 2230.45996
2202.0 0.000454 2010.88562 2222.51416
2136.0 0.000468 2010.23328 2215.05786
2237.0 0.000447 2009.57971 2207.95776
2263.0 0.000442 2008.92529 2201.11426
2178.0 0.000459 2008.26990 2194.49365
2182.0 0.000458 2007.61389 2188.11011
2196.0 0.000455 2006.95654 2182.03345
2172.0 0.000460 2006.29858 2176.35913
2206.0 0.000453 2005.63953 2171.20264
2107.0 0.000475 2004.97974 2166.68457
2214.0 0.000452 2004.31897 2162.90894
2109.0 0.000474 2003.65710 2159.96094
2195.0 0.000456 2002.99463 2157.70923
2150.0 0.000465 2002.33093 2156.58032
2194.0 0.000456 2001.66663 2156.38794
2176.0 0.000460 2001.00122 2157.11035
2145.0 0.000466 2000.33496 2158.69849
2181.0 0.000459 1999.66760 2161.15210
2239.0 0.000447 1998.99963 2164.20581
2170.0 0.000461 1998.33069 2167.79077
2198.0 0.000455 1997.66064 2171.73242
2139.0 0.000468 1996.98987 2175.82520
2189.0 0.000457 1996.31799 2179.84619
2232.0 0.000448 1995.64539 2183.57153
2286.0 0.000437 1994.97156 2186.78174
2249.0 0.000445 1994.29724 2189.33301
2200.0 0.000455 1993.62195 2191.09399
2204.0 0.000454 1992.94543 2192.07080
2159.0 0.000463 1992.26843 2192.33130
2210.0 0.000452 1991.59009 2192.02051
2226.0 0.000449 1990.91113 2191.32178
2227.0 0.000449 1990.23096 2190.43506
2180.0 0.000459 1989.55029 2189.55371
2191.0 0.000456 1988.86841 2188.84351
2222.0 0.000450 1988.18579 2188.43555
2153.0 0.000464 1987.50232 2188.42261
2206.0 0.000453 1986.81775 2188.86060
2258.0 0.000443 1986.13245 2189.76978
2321.0 0.000431 1985.44592 2191.18896
2132.0 0.000469 1984.75903 2193.04443
2130.0 0.000469 1984.07080 2195.30542
2072.0 0.000483 1983.38184 2197.94409
2236.0 0.000447 1982.69189 2200.90698
2265.0 0.000442 1982.00122 2204.12354
2106.0 0.000475 1981.30969 2207.57959
2168.0 0.000461 1980.61707 2211.01978
2185.0 0.000458 1979.92371 2214.38232
2195.0 0.000456 1979.22925 2217.51660
2198.0 0.000455 1978.53430 2220.25513
2185.0 0.000458 1977.83801 2222.43457
2232.0 0.000448 1977.14111 2223.90967
2170.0 0.000461 1976.44336 2224.57520
2180.0 0.000459 1975.74463 2224.38623
2255.0 0.000443 1975.04517 2223.37476
2198.0 0.000455 1974.34448 2221.62549
2124.0 0.000471 1973.64331 2219.32739
2225.0 0.000449 1972.94092 2216.60938
2252.0 0.000444 1972.23804 2213.72119
2213.0 0.000452 1971.53394 2210.80493
2203.0 0.000454 1970.82935 2208.03271
2175.0 0.000460 1970.12366 2205.50000
2181.0 0.000459 1969.41699 2203.25220
2224.0 0.000450 1968.70984 2201.30176
2167.0 0.000461 1968.00146 2199.55811
2257.0 0.000443 1967.29248 2197.94897
2189.0 0.000457 1966.58240 2196.36206
2169.0 0.000461 1965.87183 2194.68433
2147.0 0.000466 1965.16003 2192.76807
2221.0 0.000450 1964.44763 2190.51025
2235.0 0.000447 1963.73462 2187.79614
2117.0 0.000472 1963.02026 2184.53491
2122.0 0.000471 1962.30542 2180.64966
2106.0 0.000475 1961.58960 2176.07983
2231.0 0.000448 1960.87305 2170.79565
2234.0 0.000448 1960.15552 2164.80615
2125.0 0.000471 1959.43738 2158.15698
2180.0 0.000459 1958.71851 2150.93970
2091.0 0.000478 1957.99841 2143.27441
2187.0 0.000457 1957.27783 2135.30981
2048.0 0.000488 1956.55627 2127.20630
2104.0 0.000475 1955.83411 2119.12085
2068.0 0.000484 1955.11084 2111.20605
2072.0 0.000483 1954.38721 2103.58936
2082.0 0.000480 1953.66235 2096.38354
2132.0 0.000469 1952.93689 2089.67822
2035.0 0.000491 1952.21094 2083.53540
2048.0 0.000488 1951.48376 2078.00317
2110.0 0.000474 1950.75598 2073.10620
2105.0 0.000475 1950.02722 2068.85278
2015.0 0.000496 1949.29810 2065.24390
2075.0 0.000482 1948.56775 2062.26270
2073.0 0.000482 1947.83704 2059.88916
2040.0 0.000490 1947.10522 2058.10132
2079.0 0.000481 1946.37305 2056.87354
2081.0 0.000481 1945.63989 2056.19043
2080.0 0.000481 1944.90588 2056.06860
2021.0 0.000495 1944.17151 2056.43555
2024.0 0.000494 1943.43591 2057.32544
2060.0 0.000485 1942.69995 2058.74121
2091.0 0.000478 1941.96289 2060.68921
2034.0 0.000492 1941.22559 2063.17725
2065.0 0.000484 1940.48730 2066.21094
2083.0 0.000480 1939.74817 2069.79980
2104.0 0.000475 1939.00867 2073.95630
2091.0 0.000478 1938.26819 2078.69800
2039.0 0.000490 1937.52710 2084.04370
2121.0 0.000471 1936.78528 2089.56104
2105.0 0.000475 1936.04285 2096.16602
2171.0 0.000461 1935.29944 2103.41162
2090.0 0.000478 1934.55579 2111.29321
2119.0 0.000472 1933.81140 2119.77393
2120.0 0.000472 1933.06592 2128.80225
2162.0 0.000463 1932.32019 2138.29102
2230.0 0.000448 1931.57361 2148.11060
2247.0 0.000445 1930.82642 2158.12769
2218.0 0.000451 1930.07849 2168.06812
2209.0 0.000453 1929.33020 2177.71753
2237.0 0.000447 1928.58081 2186.79443
2175.0 0.000460 1927.83118 2195.00757
2217.0 0.000451 1927.08093 2202.06250
2178.0 0.000459 1926.32971 2207.70117
2200.0 0.000455 1925.57812 2211.71240
2241.0 0.000446 1924.82568 2213.96216
2224.0 0.000450 1924.07300 2214.39673
2194.0 0.000456 1923.31946 2213.04077
2146.0 0.000466 1922.56543 2210.01270
2106.0 0.000475 1921.81091 2205.45972
2222.0 0.000450 1921.05554 2199.61621
2165.0 0.000462 1920.29980 2192.73340
2142.0 0.000467 1919.54321 2185.17651
2065.0 0.000484 1918.78638 2177.04272
2196.0 0.000455 1918.02869 2168.68530
2138.0 0.000468 1917.27063 2160.33862
2142.0 0.000467 1916.51196 2152.21631
2203.0 0.000454 1915.75293 2144.44116
2156.0 0.000464 1914.99316 2137.14453
2175.0 0.000460 1914.23279 2130.36719
2160.0 0.000463 1913.47217 2124.13623
2184.0 0.000458 1912.71069 2118.39233
2192.0 0.000456 1911.94897 2113.06836
2051.0 0.000488 1911.18665 2108.05127
2081.0 0.000481 1910.42383 2103.20874
2048.0 0.000488 1909.66040 2098.41162
2112.0 0.000473 1908.89673 2093.50415
2028.0 0.000493 1908.13257 2088.39966
2079.0 0.000481 1907.36755 2083.07446
2035.0 0.000491 1906.60254 2077.47290
2046.0 0.000489 1905.83667 2071.72119
2076.0 0.000482 1905.07068 2065.79810
1995.0 0.000501 1904.30383 2059.86230
2035.0 0.000491 1903.53699 2054.02173
2079.0 0.000481 1902.76965 2048.38037
2075.0 0.000482 1902.00159 2043.02307
2079.0 0.000481 1901.23340 2038.01892
1994.0 0.000502 1900.46448 2033.41113
1957.0 0.000511 1899.69543 2029.22302
2062.0 0.000485 1898.92578 2025.45776
2097.0 0.000477 1898.15601 2022.10376
2023.0 0.000494 1897.38550 2019.12268
2019.0 0.000495 1896.61487 2016.47205
2008.0 0.000498 1895.84399 2014.09741
2012.0 0.000497 1895.07239 2011.93347
2048.0 0.000488 1894.30078 2009.91870
2007.0 0.000498 1893.52844 2007.98694
2024.0 0.000494 1892.75610 2006.08142
2089.0 0.000479 1891.98315 2004.15417
1984.0 0.000504 1891.21008 2002.16797
2111.0 0.000474 1890.43652 2000.17871
2073.0 0.000482 1889.66284 1998.00916
2092.0 0.000478 1888.88879 1995.75769
2017.0 0.000496 1888.11438 1993.46228
2041.0 0.000490 1887.33984 1991.02673
1965.0 0.000509 1886.56458 1988.53833
2041.0 0.000490 1885.78955 1986.02039
1905.0 0.000525 1885.01392 1983.49780
1919.0 0.000521 1884.23828 1980.99426
1968.0 0.000508 1883.46228 1978.52954
1961.0 0.000510 1882.68591 1976.12854
2009.0 0.000498 1881.90955 1973.80920
2014.0 0.000497 1881.13269 1971.72620
1899.0 0.000527 1880.35583 1969.64917
1856.0 0.000539 1879.57849 1967.74207
1855.0 0.000539 1878.80127 1966.10449
2031.0 0.000492 1878.02344 1964.66528
1891.0 0.000529 1877.24585 1963.53284
1998.0 0.000501 1876.46802 1962.75671
1978.0 0.000506 1875.68970 1962.38696
1965.0 0.000509 1874.91162 1962.47449
1982.0 0.000505 1874.13293 1963.06165
2010.0 0.000498 1873.35437 1964.19604
1956.0 0.000511 1872.57544 1965.89880
1895.0 0.000528 1871.79675 1968.20496
2012.0 0.000497 1871.01758 1971.13550
2018.0 0.000496 1870.23853 1974.70471
1980.0 0.000505 1869.45935 1978.91711
1979.0 0.000505 1868.67981 1983.76819
2039.0 0.000490 1867.90051 1989.24829
1998.0 0.000501 1867.12085 1995.33533
2022.0 0.000495 1866.34131 2002.00281
1998.0 0.000501 1865.56140 2009.25867
2034.0 0.000492 1864.78162 2016.97168
2042.0 0.000490 1864.00195 2025.12891
2076.0 0.000482 1863.22192 2033.68469
2097.0 0.000477 1862.44202 2042.44922
2040.0 0.000490 1861.66199 2051.40747
2054.0 0.000487 1860.88208 2060.35864
2093.0 0.000478 1860.10193 2068.98193
2108.0 0.000474 1859.32202 2077.61304
2182.0 0.000458 1858.54187 2085.92139
2063.0 0.000485 1857.76184 2093.82764
2078.0 0.000481 1856.98206 2101.28516
2037.0 0.000491 1856.20190 2108.26758
2205.0 0.000454 1855.42200 2114.75830
2124.0 0.000471 1854.64185 2120.74609
2198.0 0.000455 1853.86218 2126.19995
2034.0 0.000492 1853.08215 2131.15698
2177.0 0.000459 1852.30237 2135.41626
2189.0 0.000457 1851.52246 2138.99634
2179.0 0.000459 1850.74304 2141.82983
2142.0 0.000467 1849.96350 2143.85059
2091.0 0.000478 1849.18384 2144.96582
2137.0 0.000468 1848.40466 2145.07788
2136.0 0.000468 1847.62524 2144.07031
2154.0 0.000464 1846.84619 2141.84253
2125.0 0.000471 1846.06689 2138.39771
2136.0 0.000468 1845.28821 2133.33032
2146.0 0.000466 1844.50952 2126.78516
2132.0 0.000469 1843.73071 2118.80176
2091.0 0.000478 1842.95239 2109.49341
2108.0 0.000474 1842.17383 2099.04712
2091.0 0.000478 1841.39575 2087.69922
2028.0 0.000493 1840.61768 2075.70850
2017.0 0.000496 1839.83997 2063.34741
2065.0 0.000484 1839.06213 2050.86963
2061.0 0.000485 1838.28491 2038.50061
1978.0 0.000506 1837.50769 2026.43835
1988.0 0.000503 1836.73047 2014.84070
2036.0 0.000491 1835.95386 2003.83386
2016.0 0.000496 1835.17712 1993.50598
1924.0 0.000520 1834.40076 1983.92676
2003.0 0.000499 1833.62451 1975.12976
1902.0 0.000526 1832.84875 1967.13574
1991.0 0.000502 1832.07300 1959.94275
1985.0 0.000504 1831.29761 1953.53760
1883.0 0.000531 1830.52271 1947.88782
1923.0 0.000520 1829.74768 1943.29846
1846.0 0.000542 1828.97314 1939.03845
1959.0 0.000510 1828.19873 1935.40491
1968.0 0.000508 1827.42493 1932.33252
1985.0 0.000504 1826.65100 1929.83862
1911.0 0.000523 1825.87769 1927.75732
1943.0 0.000515 1825.10474 1926.10645
1916.0 0.000522 1824.33179 1924.76135
1915.0 0.000522 1823.55933 1923.96826
1916.0 0.000522 1822.78699 1923.49622
1942.0 0.000515 1822.01538 1923.41626
1912.0 0.000523 1821.24377 1923.74976
1922.0 0.000520 1820.47266 1924.53040
1909.0 0.000524 1819.70178 1925.79822
1969.0 0.000508 1818.93140 1927.60828
1952.0 0.000512 1818.16150 1930.01331
1904.0 0.000525 1817.39172 1933.07312
1953.0 0.000512 1816.62244 1936.83911
2027.0 0.000493 1815.85327 1941.36157
1865.0 0.000536 1815.08472 1946.68250
2032.0 0.000492 1814.31641 1952.85376
1921.0 0.000521 1813.54871 1959.84912
2058.0 0.000486 1812.78113 1967.69275
1987.0 0.000503 1812.01428 1976.36426
2006.0 0.000499 1811.24768 1985.82751
2034.0 0.000492 1810.48132 1996.01782
1969.0 0.000508 1809.71570 2006.84644
2072.0 0.000483 1808.95020 2018.18884
2068.0 0.000484 1808.18530 2029.88660
2084.0 0.000480 1807.42053 2041.74414
2085.0 0.000480 1806.65662 2053.53271
2104.0 0.000475 1805.89294 2064.97925
2093.0 0.000478 1805.12952 2075.79297
2121.0 0.000471 1804.36694 2085.66455
2153.0 0.000464 1803.60437 2094.32422
2119.0 0.000472 1802.84253 2101.43652
2029.0 0.000493 1802.08081 2106.81982
2138.0 0.000468 1801.32007 2110.33472
2055.0 0.000487 1800.55933 2111.93799
2066.0 0.000484 1799.79919 2111.68872
2084.0 0.000480 1799.03979 2109.66406
2027.0 0.000493 1798.28040 2106.03687
2042.0 0.000490 1797.52161 2100.99219
2123.0 0.000471 1796.76318 2094.70361
2029.0 0.000493 1796.00562 2087.33203
2052.0 0.000487 1795.24805 2078.81421
2001.0 0.000500 1794.49121 2069.68799
2083.0 0.000480 1793.73474 2059.81909
2059.0 0.000486 1792.97888 2049.35059
2043.0 0.000489 1792.22339 2038.41223
1982.0 0.000505 1791.46838 2027.15234
2072.0 0.000483 1790.71387 2015.73376
1978.0 0.000506 1789.95959 2004.32568
1965.0 0.000509 1789.20630 1993.09741
1994.0 0.000502 1788.45288 1982.20654
2000.0 0.000500 1787.70032 1971.79614
1996.0 0.000501 1786.94824 1961.98804
1973.0 0.000507 1786.19641 1952.88354
1918.0 0.000521 1785.44531 1944.56067
1930.0 0.000518 1784.69434 1937.08081
1916.0 0.000522 1783.94421 1930.48413
2037.0 0.000491 1783.19409 1924.80078
1919.0 0.000521 1782.44482 1920.04333
1876.0 0.000533 1781.69568 1916.22290
1941.0 0.000515 1780.94739 1913.33362
1873.0 0.000534 1780.19946 1911.36670
1930.0 0.000518 1779.45178 1910.30676
1916.0 0.000522 1778.70483 1910.13452
1928.0 0.000519 1777.95801 1910.86682
1952.0 0.000512 1777.21179 1912.38550
1891.0 0.000529 1776.46582 1914.69507
1924.0 0.000520 1775.72070 1917.75171
1913.0 0.000523 1774.97546 1921.50623
2047.0 0.000489 1774.23108 1925.89893
1948.0 0.000513 1773.48718 1930.86365
1898.0 0.000527 1772.74341 1936.32349
2075.0 0.000482 1772.00012 1942.19275
1942.0 0.000515 1771.25720 1948.37268
2002.0 0.000500 1770.51489 1954.75269
1917.0 0.000522 1769.77258 1961.24207
1948.0 0.000513 1769.03101 1967.65515
1974.0 0.000507 1768.28992 1973.88757
1889.0 0.000529 1767.54883 1979.80518
1968.0 0.000508 1766.80823 1985.28271
2021.0 0.000495 1766.06799 1990.20703
2022.0 0.000495 1765.32812 1994.47900
2023.0 0.000494 1764.58850 1998.02515
2016.0 0.000496 1763.84949 2000.80591
2005.0 0.000499 1763.11035 2002.81934
2014.0 0.000497 1762.37195 2004.12891
1956.0 0.000511 1761.63379 2004.74866
1998.0 0.000501 1760.89563 2004.82690
1945.0 0.000514 1760.15808 2004.50757
2007.0 0.000498 1759.42041 2003.94702
1968.0 0.000508 1758.68347 2003.30737
1952.0 0.000512 1757.94641 2002.74146
1994.0 0.000502 1757.20984 2002.37378
1992.0 0.000502 1756.47314 2002.30688
2053.0 0.000487 1755.73706 2002.62354
2032.0 0.000492 1755.00110 2003.37598
2019.0 0.000495 1754.26514 2004.59558
1929.0 0.000518 1753.52954 2006.29517
2054.0 0.000487 1752.79382 2008.46326
2001.0 0.000500 1752.05859 2011.08264
1981.0 0.000505 1751.32324 2014.10938
1917.0 0.000522 1750.58813 2017.51086
2025.0 0.000494 1749.85315 2021.07629
2007.0 0.000498 1749.11804 2024.96545
2069.0 0.000483 1748.38330 2028.96545
2010.0 0.000498 1747.64832 2032.97827
2025.0 0.000494 1746.91357 2036.86194
2060.0 0.000485 1746.17871 2040.38220
2033.0 0.000492 1745.44385 2043.40356
1978.0 0.000506 1744.70886 2045.73230
2050.0 0.000488 1743.97412 2047.16980
2066.0 0.000484 1743.23926 2047.52441
2102.0 0.000476 1742.50403 2046.63477
2089.0 0.000479 1741.76917 2044.39026
2098.0 0.000477 1741.03369 2040.74109
1988.0 0.000503 1740.29834 2035.71167
2010.0 0.000498 1739.56250 2029.39929
2037.0 0.000491 1738.82690 2021.96509
1994.0 0.000502 1738.09082 2013.61877
2065.0 0.000484 1737.35461 2004.58899
2076.0 0.000482 1736.61829 1995.11548
1995.0 0.000501 1735.88135 1985.46863
1974.0 0.000507 1735.14429 1975.75244
2084.0 0.000480 1734.40674 1966.18640
1907.0 0.000524 1733.66907 1956.91028
2043.0 0.000489 1732.93066 1948.00391
1935.0 0.000517 1732.19214 1939.53967
1974.0 0.000507 1731.45325 1931.54700
1927.0 0.000519 1730.71362 1924.02808
1886.0 0.000530 1729.97363 1916.97534
1887.0 0.000530 1729.23291 1910.31824
1883.0 0.000531 1728.49194 1904.09460
1886.0 0.000530 1727.75000 1898.07678
1907.0 0.000524 1727.00781 1892.29626
1939.0 0.000516 1726.26465 1886.68542
1887.0 0.000530 1725.52112 1881.22839
1806.0 0.000554 1724.77673 1875.89771
1899.0 0.000527 1724.03149 1870.70337
1830.0 0.000546 1723.28564 1865.64453
1814.0 0.000551 1722.53857 1860.75574
1801.0 0.000555 1721.79102 1856.06982
1824.0 0.000548 1721.04248 1851.62097
1855.0 0.000539 1720.29297 1847.43250
1845.0 0.000542 1719.54236 1843.52832
1791.0 0.000558 1718.79114 1839.92578
1806.0 0.000554 1718.03870 1836.61584
1875.0 0.000533 1717.28491 1833.60400
1853.0 0.000540 1716.53040 1830.88379
1827.0 0.000547 1715.77429 1828.44739
1892.0 0.000529 1715.01733 1826.24731
1848.0 0.000541 1714.25879 1824.35742
1864.0 0.000536 1713.49927 1822.74353
1740.0 0.000575 1712.73840 1821.41541
1853.0 0.000540 1711.97583 1820.38916
1774.0 0.000564 1711.21228 1819.69641
1753.0 0.000570 1710.44678 1819.45129
1785.0 0.000560 1709.68005 1819.52820
1843.0 0.000543 1708.91150 1820.05078
1780.0 0.000562 1708.14172 1821.05969
1830.0 0.000546 1707.36987 1822.59424
1867.0 0.000536 1706.59656 1824.68701
1815.0 0.000551 1705.82166 1827.36719
1864.0 0.000536 1705.04443 1830.65295
1841.0 0.000543 1704.26575 1834.56140
1843.0 0.000543 1703.48474 1839.04797
1794.0 0.000557 1702.70227 1844.20862
1880.0 0.000532 1701.91736 1849.99268
1852.0 0.000540 1701.13049 1856.36145
1890.0 0.000529 1700.34143 1863.29175
1813.0 0.000552 1699.55042 1870.73682
1900.0 0.000526 1698.75696 1878.63391
1907.0 0.000524 1697.96118 1886.89905
1920.0 0.000521 1697.16309 1895.44800
1969.0 0.000508 1696.36230 1904.12341
1901.0 0.000526 1695.55945 1912.79822
1944.0 0.000514 1694.75354 1921.30225
1883.0 0.000531 1693.94531 1929.52539
1914.0 0.000522 1693.13452 1937.09351
1919.0 0.000521 1692.32068 1943.85986
1952.0 0.000512 1691.50415 1949.59900
1996.0 0.000501 1690.68457 1954.09619
1968.0 0.000508 1689.86230 1957.17700
1971.0 0.000507 1689.03674 1958.71936
1961.0 0.000510 1688.20825 1958.67798
2020.0 0.000495 1687.37634 1957.08093
1994.0 0.000502 1686.54163 1954.02942
1921.0 0.000521 1685.70349 1949.68323
1956.0 0.000511 1684.86157 1944.23853
1937.0 0.000516 1684.01672 1937.91846
1908.0 0.000524 1683.16785 1930.94434
1901.0 0.000526 1682.31567 1923.52991
1818.0 0.000550 1681.45947 1915.87646
1895.0 0.000528 1680.59998 1908.16162
1848.0 0.000541 1679.73621 1900.54993
1898.0 0.000527 1678.86865 1893.18799
1910.0 0.000524 1677.99731 1886.20142
1794.0 0.000557 1677.12146 1879.69385
1866.0 0.000536 1676.24170 1873.75549
1846.0 0.000542 1675.35754 1868.44800
1871.0 0.000534 1674.46912 1863.81128
1884.0 0.000531 1673.57593 1859.86011
1893.0 0.000528 1672.67871 1856.58618
1834.0 0.000545 1671.77661 1853.95435
1862.0 0.000537 1670.86963 1851.91052
1811.0 0.000552 1669.95801 1850.38135
1864.0 0.000536 1669.04138 1849.27490
1811.0 0.000552 1668.11987 1848.48853
1872.0 0.000534 1667.19299 1847.91516
1805.0 0.000554 1666.26123 1847.44995
1798.0 0.000556 1665.32385 1846.99292
1856.0 0.000539 1664.38135 1846.46558
1785.0 0.000560 1663.43347 1845.80981
1780.0 0.000562 1662.47949 1844.98987
1830.0 0.000546 1661.52026 1843.99438
1863.0 0.000537 1660.55469 1842.82739
1818.0 0.000550 1659.58386 1841.50269
1815.0 0.000551 1658.60632 1840.03125
1806.0 0.000554 1657.62317 1838.41772
1831.0 0.000546 1656.63330 1836.65808
1856.0 0.000539 1655.63757 1834.74023
1931.0 0.000518 1654.63525 1832.64453
1865.0 0.000536 1653.62598 1830.35559
1833.0 0.000546 1652.61047 1827.87231
1834.0 0.000545 1651.58752 1825.20593
1810.0 0.000552 1650.55811 1822.39453
1854.0 0.000539 1649.52148 1819.50037
1870.0 0.000535 1648.47778 1816.60291
1828.0 0.000547 1647.42676 1813.80017
1799.0 0.000556 1646.36792 1811.19397
1802.0 0.000555 1645.30200 1808.88367
1804.0 0.000554 1644.22791 1806.96582
1884.0 0.000531 1643.14636 1805.52380
1842.0 0.000543 1642.05664 1804.62329
1849.0 0.000541 1640.95898 1804.32263
1799.0 . . .
loop_
_refln_index_h
_refln_index_k
_refln_index_l
_refln_observed_status
_refln_F_squared_meas
_refln_F_squared_calc
_refln_phase_calc
_refln_d_spacing
_gsas_i100_meas
0 0 2 o 2335.400 2963.099 0.00 8.69964 0.78
2 0 0 o 13128.952 12411.738 0.00 6.40149 2.95
2 0 -2 o 13449.319 9745.976 0.00 5.97035 2.67
1 1 0 o 14964.488 14555.040 180.00 4.99228 6.12
1 1 -1 o 220.874 201.574 0.00 4.93644 0.06
1 1 1 o 5687.458 6031.964 180.00 4.67181 1.39
2 0 2 o 8292.168 10237.549 180.00 4.60400 0.76
1 1 -2 o 338.609 731.302 180.00 4.53815 0.00
0 0 4 o 83904.97 91221.71 180.00 4.34982 9.20
1 1 2 o 450.002 489.309 180.00 4.14808 0.12
2 0 -4 o 69390.79 74058.12 0.00 4.14757 7.80
1 1 -3 o 1942.573 1998.235 180.00 3.99419 0.33
1 1 3 o 17242.742 10570.969 0.00 3.60320 2.55
1 1 -4 o 139116.02 132727.94 180.00 3.46242 18.70
3 1 -1 o 123.174 126.619 0.00 3.42873 0.02
3 1 0 o 220074.98 219046.39 0.00 3.35334 28.48
3 1 -2 o 179226.62 176973.14 180.00 3.37483 22.76
4 0 -2 o 38865.10 37217.63 0.00 3.30227 2.54
2 0 4 o 11028.635 11372.145 180.00 3.22117 1.13
4 0 0 o 684696.5 688028.1 180.00 3.20075 38.85
3 1 -3 o 2233.312 2221.852 0.00 3.20840 0.24
3 1 1 o 5181.611 5719.599 180.00 3.17176 0.56
1 1 4 o 923679.7 927864.8 0.00 3.12292 100.00
1 1 -5 o 16943.797 17909.215 180.00 3.00485 1.68
4 0 -4 o 68579.19 67637.99 180.00 2.98518 3.57
3 1 -4 o 877298.6 878520.4 180.00 2.97355 85.08
2 0 -6 o 28951.742 28328.244 180.00 2.95353 1.44
3 1 2 o 23996.914 20886.160 180.00 2.93000 2.63
0 0 6 o 7464.851 6232.232 0.00 2.89988 0.40
4 0 2 o 351565.1 354659.8 180.00 2.77408 14.75
1 1 5 o 26.848 27.021 180.00 2.72513 0.00
3 1 -5 o 12.355 12.405 180.00 2.71508 0.00
0 2 0 o 900591.6 902966.4 0.00 2.71071 36.43
3 1 3 o 18915.381 19421.482 180.00 2.67098 1.61
0 2 1 o 25322.514 25731.443 180.00 2.67840 2.01
1 1 -6 o 35848.93 36267.86 0.00 2.62887 2.60
0 2 2 o 11740.121 12199.935 0.00 2.58799 0.83
2 2 -1 o 336.991 1394.796 0.00 2.50771 0.06
4 0 -6 o -100.235 441.846 0.00 2.50659 0.02
2 2 0 o 2471.723 3306.133 180.00 2.49614 0.23
2 2 -2 o -84.359 3.002 0.00 2.46822 0.07
3 1 -6 o 30144.223 32770.641 0.00 2.46318 2.20
0 2 3 o 3153.576 3325.007 0.00 2.45573 0.22
2 0 6 o 20.394 26.301 0.00 2.41120 0.00
3 1 4 o 37605.50 38461.66 0.00 2.42205 2.25
2 2 1 o 39166.67 39671.98 180.00 2.43556 2.49
1 1 6 o 15641.324 16584.857 0.00 2.40159 0.81
2 2 -3 o 10835.326 11429.416 0.00 2.38445 0.74
5 1 -2 o 20652.236 21526.750 0.00 2.38468 1.16
5 1 -1 o 2914.745 3319.386 0.00 2.37095 0.20
5 1 -3 o 79.570 111.245 180.00 2.35432 0.02
2 2 2 o 76.904 76.471 180.00 2.33591 0.00
1 1 -7 o 5223.037 5047.231 180.00 2.32339 0.35
4 0 4 o 332495.16 324798.50 0.00 2.30200 9.93
5 1 0 o 7495.579 6593.273 0.00 2.31534 0.56
0 2 4 o 100332.12 96293.02 180.00 2.30056 6.16
2 2 -4 o 165015.06 158510.86 0.00 2.26907 10.25
5 1 -4 o 9651.725 9693.405 0.00 2.28465 0.73
2 0 -8 o 587781.0 574970.6 180.00 2.24981 16.37
3 1 -7 o 5480.724 4774.994 180.00 2.23277 0.34
5 1 1 o 10015.738 8815.836 180.00 2.22610 0.59
6 0 -2 o 49055.77 45004.68 180.00 2.21321 1.48
3 1 5 o 13975.261 12376.009 180.00 2.19600 0.75
2 2 3 o 897.522 810.055 0.00 2.21097 0.05
0 0 8 o 359096.2 355217.0 180.00 2.17491 9.44
5 1 -5 o 4977.981 4671.922 0.00 2.18550 0.27
6 0 -4 o 242779.12 242230.55 180.00 2.15611 6.48
1 1 7 o 5726.724 5723.917 0.00 2.13827 0.33
6 0 0 o 5331.722 5265.724 0.00 2.13383 0.19
0 2 5 o 7975.100 7981.128 0.00 2.13847 0.39
2 2 -5 o 31.305 30.481 180.00 2.13603 0.00
5 1 2 o 7905.257 8014.022 0.00 2.11451 0.56
4 2 -1 o 599.986 649.230 180.00 2.09682 0.03
4 2 -2 o 34027.418 36806.75 0.00 2.09522 1.81
1 1 -8 o 106626.12 110132.04 0.00 2.07432 5.77
2 2 4 o 66050.69 68039.51 180.00 2.07404 3.56
4 0 -8 o 170496.72 174916.52 0.00 2.07378 4.16
4 2 0 o 474174.1 474918.5 180.00 2.06856 22.57
5 1 -6 o 90094.34 90096.20 180.00 2.06837 4.50
4 2 -3 o 15604.323 15150.230 0.00 2.06395 0.74
3 1 -8 o -65.407 0.139 180.00 2.02874 0.01
4 2 1 o 546.663 1010.981 180.00 2.01387 0.02
2 2 -6 o 36589.08 39408.73 180.00 1.99710 1.66
3 1 6 o 13303.738 14322.081 0.00 1.99653 0.65
4 2 -4 o 4017.057 5848.711 180.00 2.00680 0.22
5 1 3 o 2831.458 2878.758 180.00 1.99156 0.14
6 0 -6 o 244934.06 243708.64 0.00 1.99012 5.44
0 2 6 o 3775.719 4218.563 0.00 1.98026 0.20
6 0 2 o 2239.584 2606.378 180.00 1.95545 0.05
2 2 5 o 3057.678 3031.095 180.00 1.93536 0.14
5 1 -7 o 62.139 66.043 180.00 1.94354 0.00
4 2 2 o 269843.88 271684.91 180.00 1.93878 11.19
4 0 6 o 78.321 54.746 0.00 1.91077 0.01
2 0 8 o 372333.8 357867.5 0.00 1.91021 7.77
1 1 8 o 152567.50 151790.95 180.00 1.92218 6.32
4 2 -5 o 95.422 95.006 180.00 1.92995 0.00
1 1 -9 o 2772.848 2626.963 180.00 1.86933 0.12
5 1 4 o 249222.16 245978.67 180.00 1.86599 9.92
2 2 -7 o 9776.310 9275.304 0.00 1.86052 0.36
3 1 -9 o 5092.883 5063.411 0.00 1.85074 0.20
4 2 3 o 4210.210 4232.028 0.00 1.85022 0.16
4 2 -6 o 29428.787 27422.766 0.00 1.84036 1.05
3 1 7 o 46.926 27.976 0.00 1.82276 0.00
0 2 7 o 8.196 0.990 180.00 1.83201 0.00
5 1 -8 o 36090.73 30450.596 180.00 1.81868 1.60
2 0 -10 o 5948.577 5317.364 180.00 1.80505 0.09
2 2 6 o 18090.930 17327.098 0.00 1.80160 0.65
1 3 0 o 33880.641 33514.750 180.00 1.78940 1.41
1 3 -1 o 40.698 40.399 0.00 1.78679 0.00
7 1 -3 o 3825.745 3795.494 0.00 1.78889 0.14
7 1 -2 o 482903.8 479070.7 0.00 1.78827 17.28
1 3 1 o 7963.503 8002.767 180.00 1.77331 0.27
7 1 -1 o 580.371 592.444 0.00 1.76908 0.03
6 0 -8 o 293650.38 294082.12 0.00 1.77809 5.05
1 3 -2 o -1.814 10.375 0.00 1.76572 0.01
7 1 -4 o 169854.97 169158.34 0.00 1.77087 5.88
4 2 4 o 174516.05 178744.03 0.00 1.75466 6.14
5 1 5 o 2907.021 3214.193 180.00 1.74374 0.09
1 1 9 o 3749.490 4153.065 0.00 1.74290 0.12
6 0 4 o 55178.39 60903.00 0.00 1.74119 0.95
0 0 10 o 10455.396 11396.445 0.00 1.73993 0.17
4 2 -7 o 6083.173 6722.878 0.00 1.74440 0.19
2 2 -8 o 361093.0 361324.6 180.00 1.73121 12.05
1 3 2 o 1334.321 1456.566 0.00 1.73998 0.04
1 3 -3 o 15287.319 15953.963 180.00 1.72808 0.50
4 0 -10 o 121434.14 124571.45 180.00 1.73469 2.08
7 1 0 o 138281.38 138721.53 180.00 1.73303 4.75
7 1 -5 o 193.409 204.504 180.00 1.73585 0.01
1 1 -10 o 55210.68 55642.68 180.00 1.69872 1.79
3 1 -10 o 5932.523 5942.798 0.00 1.69628 0.20
6 2 -2 o 21748.580 22472.768 180.00 1.71437 0.85
6 2 -1 o 757.360 778.396 0.00 1.70331 0.03
6 2 -3 o 9335.141 9008.696 0.00 1.70892 0.29
5 1 -9 o 433.375 436.175 0.00 1.69873 0.01
0 2 8 o 139316.44 139339.67 180.00 1.69638 4.45
7 1 1 o 16.510 16.481 0.00 1.68313 0.00
1 3 3 o 26389.459 27319.959 0.00 1.69222 0.84
6 2 -4 o 100484.85 100831.12 180.00 1.68742 3.37
1 3 -4 o 50925.29 49192.83 180.00 1.67695 1.64
7 1 -6 o 1617.518 1613.619 180.00 1.68675 0.08
2 2 7 o 1080.116 1043.718 0.00 1.67643 0.04
3 1 8 o 111669.73 111596.00 180.00 1.67201 3.72
6 2 0 o 858.479 789.348 0.00 1.67667 0.06
3 3 -1 o 2399.994 2395.455 0.00 1.67308 0.09
4 2 5 o 27057.990 26760.578 180.00 1.65728 0.84
3 3 -2 o 66523.46 66384.07 180.00 1.66670 2.08
3 3 0 o 113221.80 112925.23 0.00 1.66409 3.73
4 2 -8 o 89406.48 87839.73 0.00 1.64707 2.81
8 0 -2 o 1376.496 1435.170 0.00 1.65428 0.03
6 2 -5 o 4214.097 4232.937 180.00 1.65162 0.14
8 0 -4 o 21648.791 21546.943 0.00 1.65114 0.36
5 1 6 o 248468.72 250854.95 180.00 1.62830 7.34
3 3 -3 o 21505.766 21447.348 0.00 1.64548 0.65
3 3 1 o 33624.504 34806.723 180.00 1.64047 1.02
6 2 1 o 14064.407 14399.140 0.00 1.63657 0.41
1 3 4 o 490250.6 494774.2 0.00 1.63360 14.95
7 1 2 o 38059.50 39027.81 180.00 1.62300 1.20
2 2 -9 o 1134.849 1130.071 180.00 1.61158 0.04
4 0 8 o 60005.66 60131.82 0.00 1.61059 0.88
7 1 -7 o 808.932 810.856 180.00 1.62717 0.02
1 3 -5 o 41460.41 40907.75 180.00 1.61598 1.18
3 3 -4 o 385410.9 385459.9 180.00 1.61106 11.27
1 1 10 o 4575.239 4529.859 0.00 1.59243 0.16
8 0 0 o 28991.092 29763.742 0.00 1.60037 0.43
6 2 -6 o 226580.08 229123.72 0.00 1.60420 6.73
3 3 2 o 380.521 397.472 180.00 1.60402 0.04
5 1 -10 o 116088.12 118604.52 0.00 1.58641 3.47
6 2 2 o 1381.644 1420.040 180.00 1.58588 0.05
2 0 10 o 76036.19 72975.07 0.00 1.57616 1.01
8 0 -6 o 110793.26 109668.95 180.00 1.59187 1.58
0 2 9 o 22422.332 21192.652 0.00 1.57397 0.61
1 3 5 o 4139.899 4213.876 0.00 1.56779 0.12
3 3 -5 o 20074.264 20295.332 180.00 1.56587 0.55
7 1 3 o 3268.705 3385.758 0.00 1.55628 0.09
1 1 -11 o 94.614 97.926 180.00 1.55508 0.00
3 1 -11 o 67.323 66.909 0.00 1.56224 0.00
4 2 6 o 1560.825 1551.043 0.00 1.56176 0.05
2 2 8 o 210909.64 209884.89 0.00 1.56146 6.03
6 0 -10 o 9377.747 9552.618 180.00 1.56839 0.14
1 3 -6 o 16973.832 16811.039 0.00 1.54879 0.45
3 3 3 o -1.519 0.872 0.00 1.55727 0.00
6 0 6 o 15404.424 7957.513 180.00 1.53467 0.24
7 1 -8 o 66565.84 66472.94 0.00 1.56078 1.89
4 2 -9 o 25249.820 25123.043 0.00 1.55190 0.69
3 1 9 o 2017.658 1475.647 0.00 1.54115 0.05
6 2 -7 o 13885.759 13889.742 180.00 1.54824 0.39
5 1 7 o 137.764 70.022 180.00 1.52135 0.01
6 2 3 o 13429.519 9846.244 0.00 1.52770 0.37
3 3 -6 o 20660.992 16350.913 0.00 1.51272 0.60
8 0 2 o 361975.9 345588.25 0.00 1.50431 4.71
2 0 -12 o 11372.332 11096.891 0.00 1.50295 0.14
2 2 -10 o 264.758 261.140 180.00 1.50242 0.00
3 3 4 o 27424.195 26846.414 0.00 1.50304 0.69
1 3 6 o 35523.08 36344.92 0.00 1.49811 0.87
7 1 4 o 8319.674 8153.865 0.00 1.48620 0.25
6 2 -8 o 180990.27 178038.92 0.00 1.48677 4.46
1 3 -7 o 1516.649 1360.810 0.00 1.47855 0.04
5 3 -2 o 8755.199 8822.494 0.00 1.49398 0.20
8 0 -8 o 104.034 87.666 0.00 1.49259 0.02
7 1 -9 o 20.677 19.624 180.00 1.49083 0.00
5 3 -1 o 10700.865 10382.894 180.00 1.49059 0.29
5 1 -11 o 859.261 817.384 0.00 1.48289 0.03
5 3 -3 o 48539.44 47924.99 0.00 1.48643 1.19
4 2 7 o 294.391 284.328 180.00 1.47045 0.01
4 0 -12 o 2113.657 1199.199 180.00 1.47677 0.11
5 3 0 o 645.093 389.100 180.00 1.47647 0.06
6 2 4 o 22826.205 21107.164 0.00 1.46500 0.59
1 1 11 o 219.720 203.877 0.00 1.46473 0.01
0 2 10 o 86.133 52.527 0.00 1.46425 0.01
4 2 -10 o 64964.29 62480.48 180.00 1.46112 1.65
5 3 -4 o 10890.795 9987.210 0.00 1.46841 0.33
0 0 12 o 95510.77 99421.59 0.00 1.44994 1.27
2 2 9 o 3780.071 3860.508 0.00 1.45697 0.08
3 3 -7 o 12886.736 13589.440 0.00 1.45436 0.32
3 1 -12 o 284114.03 286613.25 0.00 1.44557 6.94
5 3 1 o 99.815 111.994 0.00 1.45251 0.00
1 1 -12 o 143879.39 139129.45 180.00 1.43281 3.51
3 3 5 o 47272.88 48758.25 180.00 1.44405 1.13
3 1 10 o 18927.752 19432.643 0.00 1.42717 0.42
5 3 -5 o 676.190 747.784 0.00 1.44105 0.02
5 1 8 o 78056.82 81848.83 0.00 1.42341 1.91
7 1 5 o 2180.042 2299.960 180.00 1.41535 0.06
1 3 7 o 6233.654 6408.236 180.00 1.42726 0.15
9 1 -3 o 55.337 57.657 180.00 1.42369 0.00
1 3 -8 o 52586.93 53509.71 0.00 1.40776 1.43
6 2 -9 o 1544.136 1598.533 0.00 1.42249 0.03
9 1 -4 o 2017.208 2105.831 180.00 1.42137 0.07
5 3 2 o 2671.767 2864.272 0.00 1.42013 0.11
7 1 -10 o 135864.80 141720.31 180.00 1.41997 3.18
2 2 -11 o 1891.863 1892.111 180.00 1.40359 0.05
9 1 -2 o 5090.730 5486.613 180.00 1.41653 0.15
8 2 -2 o 62.211 150.088 0.00 1.41209 0.02
9 1 -5 o -0.231 0.638 0.00 1.40972 0.00
8 2 -3 o 333.327 351.049 0.00 1.41578 0.01
6 2 5 o 2892.919 3097.743 180.00 1.40027 0.06
5 3 -6 o 37537.71 37520.27 180.00 1.40590 0.94
4 0 10 o 104007.00 105559.05 0.00 1.38205 1.19
8 2 -4 o 20356.922 21864.271 0.00 1.41013 0.52
8 0 4 o 64127.36 64704.08 180.00 1.38704 0.77
9 1 -1 o 4.624 7.009 0.00 1.40032 0.00
3 3 -8 o 5692.223 6296.485 180.00 1.39326 0.16
8 2 -1 o 233.036 270.906 0.00 1.39930 0.01
8 2 -5 o 246.822 294.360 180.00 1.39550 0.01
5 1 -12 o 144575.38 144262.17 0.00 1.38837 3.15
4 2 8 o 18769.549 18983.941 0.00 1.38462 0.40
3 3 6 o 24608.480 25008.443 0.00 1.38269 0.61
9 1 -6 o 53939.43 52935.00 0.00 1.38940 1.43
9 1 0 o 118.590 122.118 180.00 1.37597 0.01
4 2 -11 o 1588.176 1609.968 180.00 1.37592 0.03
6 0 -12 o 25031.484 25422.637 0.00 1.38252 0.29
5 3 3 o 164.772 169.592 0.00 1.38104 0.01
8 2 0 o 51984.69 52325.12 0.00 1.37812 1.17
2 2 10 o 31711.012 29632.500 0.00 1.36257 0.63
6 0 8 o 141082.64 141416.12 180.00 1.35362 1.59
8 0 -10 o 66029.58 67650.66 0.00 1.37420 0.83
0 2 11 o 20.090 16.690 180.00 1.36617 0.00
8 2 -6 o 51406.03 53805.36 180.00 1.37268 1.13
5 3 -7 o 2441.336 2233.150 0.00 1.36472 0.06
1 1 12 o 102668.02 103213.02 180.00 1.35523 2.24
6 2 -10 o 5629.640 5401.415 180.00 1.35754 0.14
1 3 8 o 59955.08 58019.61 180.00 1.35727 1.34
0 4 0 o 328011.69 330927.31 0.00 1.35536 3.62
9 1 -7 o 2759.777 2583.091 180.00 1.36153 0.06
2 0 12 o 28054.561 29468.006 180.00 1.33938 0.30
7 1 6 o 72117.37 73466.34 180.00 1.34563 1.57
1 3 -9 o 1521.682 1603.187 180.00 1.33827 0.04
0 4 1 o 5518.685 5341.082 180.00 1.35126 0.11
3 1 -13 o 8751.465 8888.775 0.00 1.34358 0.19
8 2 1 o 12958.161 12644.891 0.00 1.34968 0.28
5 1 9 o 800.284 829.294 0.00 1.33432 0.02
9 1 1 o 2807.135 2846.837 0.00 1.34475 0.06
7 1 -11 o 970.255 941.896 180.00 1.35013 0.02
6 2 6 o 736.192 866.075 0.00 1.33549 0.07
1 1 -13 o 5009.386 4987.468 0.00 1.32769 0.11
3 1 11 o 3745.716 3732.508 0.00 1.32745 0.09
0 4 2 o 288.370 321.859 180.00 1.33920 0.01
3 3 -9 o 2440.562 2448.331 0.00 1.33140 0.05
5 3 4 o 145941.11 152280.47 180.00 1.33704 3.21
8 2 -7 o 39719.86 40593.37 180.00 1.34287 0.85
2 2 -12 o 126.335 124.896 0.00 1.31443 0.00
2 4 -1 o 14251.348 14168.404 180.00 1.32769 0.30
2 4 0 o 1712.027 1732.346 180.00 1.32596 0.04
2 4 -2 o 2932.066 2807.530 0.00 1.32173 0.06
10 0 -4 o 20125.846 20006.100 0.00 1.32767 0.21
9 1 -8 o 16764.779 16685.314 0.00 1.32747 0.36
3 3 7 o 5142.671 4880.113 180.00 1.32087 0.11
0 4 3 o 5081.583 4771.278 0.00 1.31980 0.11
5 3 -8 o 41901.67 39253.48 180.00 1.31931 1.00
10 0 -2 o 80277.52 75992.02 0.00 1.31822 0.90
2 4 1 o 47364.12 45767.47 180.00 1.31664 0.94
8 2 2 o 224945.20 216992.83 0.00 1.31534 4.70
9 1 2 o 111.888 77.308 0.00 1.30809 0.04
4 2 9 o 164.268 166.536 180.00 1.30486 0.00
5 1 -13 o 434.267 431.470 0.00 1.30254 0.01
2 4 -3 o 1048.657 1026.051 180.00 1.30838 0.02
4 2 -12 o 12780.834 12488.516 180.00 1.29681 0.38
7 3 -3 o 4370.389 4299.905 0.00 1.30781 0.09
7 3 -2 o 210846.92 207977.56 0.00 1.30756 4.38
8 2 -8 o 16483.732 16248.858 180.00 1.30748 0.39
10 0 -6 o 352722.2 351855.1 180.00 1.30681 3.65
2 4 2 o 47.776 47.580 0.00 1.30019 0.00
7 3 -4 o 74489.55 74142.88 0.00 1.30072 1.50
2 4 -4 o 48691.23 48873.45 0.00 1.28831 1.12
7 3 -1 o 11626.895 11629.481 180.00 1.30000 0.24
0 4 4 o 35659.00 35246.81 180.00 1.29399 0.78
6 2 -11 o 6846.199 6770.317 180.00 1.29353 0.14
2 0 -14 o 1774.985 1905.923 180.00 1.28575 0.04
7 1 7 o 2747.868 2778.595 0.00 1.27834 0.05
5 3 5 o 19491.783 19097.396 180.00 1.28985 0.39
1 3 9 o 18087.811 17804.541 0.00 1.28951 0.35
10 0 0 o 7341.203 7311.203 180.00 1.28030 0.08
7 3 0 o 112014.81 116974.65 180.00 1.28550 2.35
4 0 -14 o 67292.05 67550.75 0.00 1.27913 0.70
0 2 12 o 102989.05 104236.20 0.00 1.27853 2.24
1 3 -10 o 46251.24 41727.59 180.00 1.27131 0.94
2 2 11 o 5826.474 5950.838 180.00 1.27747 0.12
9 1 -9 o 4058.529 4040.773 0.00 1.28872 0.09
7 1 -12 o 61355.07 62273.30 180.00 1.28265 1.28
8 2 3 o 1271.724 1299.404 180.00 1.27657 0.03
3 3 -10 o 326.788 254.314 0.00 1.27028 0.02
7 3 -5 o 3731.124 3850.858 0.00 1.28665 0.08
6 2 7 o 3387.306 2987.643 0.00 1.27209 0.07
8 0 6 o 125949.29 127200.16 180.00 1.26583 1.24
2 4 3 o 137.075 139.960 0.00 1.27740 0.00
5 3 -9 o 6534.296 5800.125 0.00 1.27131 0.14
9 1 3 o 154.190 156.060 180.00 1.26750 0.00
1 1 13 o 120.890 118.752 0.00 1.26044 0.00
2 4 -5 o 2524.731 2505.774 180.00 1.26244 0.05
8 2 -9 o 1279.096 1290.028 180.00 1.26796 0.03
7 3 -6 o 2494.892 2581.187 180.00 1.26627 0.06
3 3 8 o 67936.41 66318.87 180.00 1.25999 1.44
3 1 -14 o 40835.02 40412.83 180.00 1.25396 0.83
5 1 10 o 20046.572 19821.350 0.00 1.25355 0.35
7 3 1 o 20207.711 20152.229 0.00 1.26473 0.39
0 4 5 o 21830.033 21630.602 0.00 1.26294 0.43
10 0 -8 o 1202.545 1179.672 180.00 1.25963 0.01
0 0 14 o 113784.28 109971.26 180.00 1.24281 1.10
4 4 -1 o 15975.260 15866.961 180.00 1.25420 0.31
4 4 -2 o 17644.336 17474.682 0.00 1.25386 0.39
8 0 -12 o 1293.068 1260.719 0.00 1.25330 0.02
3 1 12 o 122734.77 121258.09 0.00 1.23973 2.48
2 4 4 o 24306.996 24059.586 180.00 1.24927 0.56
4 4 0 o 176566.09 176742.56 180.00 1.24807 3.46
1 1 -14 o 20091.518 20031.514 180.00 1.23646 0.34
4 4 -3 o 5236.253 5214.969 0.00 1.24706 0.09
9 1 -10 o 131346.67 130315.47 180.00 1.24672 2.56
5 3 6 o 92412.11 90728.23 180.00 1.24097 1.74
2 2 -13 o 10119.135 10238.817 0.00 1.23411 0.19
2 4 -6 o 17366.775 18090.180 180.00 1.23184 0.34
4 2 10 o 51565.60 53717.47 0.00 1.23125 0.99
7 3 -7 o 17700.896 17436.092 180.00 1.24047 0.35
8 2 4 o 38129.86 38342.64 180.00 1.23478 0.78
7 3 2 o 37581.43 37275.00 180.00 1.23862 0.76
6 2 -12 o 12450.875 13027.719 0.00 1.23159 0.25
4 4 1 o 1392.764 1389.979 180.00 1.23575 0.03
9 1 4 o 43393.64 44151.79 0.00 1.22437 0.82
4 2 -13 o 394.189 401.379 0.00 1.22384 0.01
4 4 -4 o 654.741 668.356 0.00 1.23411 0.02
0 4 6 o 2107.559 2104.469 0.00 1.22786 0.05
10 0 2 o 13488.890 13418.932 0.00 1.22071 0.13
7 1 8 o 24024.133 23606.824 0.00 1.21427 0.46
6 0 -14 o 74370.75 75622.88 180.00 1.22511 0.72
1 3 10 o 666.527 686.516 0.00 1.22487 0.02
5 1 -14 o 767.456 776.200 0.00 1.22476 0.01
5 3 -10 o 57992.08 58290.93 0.00 1.22212 1.14
8 2 -10 o 65721.77 66348.47 0.00 1.22570 1.38
1 3 -11 o 737.505 743.423 0.00 1.20762 0.01
7 1 -13 o 47.095 50.117 0.00 1.21835 0.00
6 0 10 o 50373.40 51648.66 180.00 1.20093 0.46
2 4 5 o 1039.512 1067.167 0.00 1.21693 0.02
4 0 12 o 93795.63 94307.43 180.00 1.20560 0.91
6 2 8 o 127170.52 124592.80 180.00 1.21103 2.46
3 3 -11 o 352.050 344.895 0.00 1.21097 0.01
4 4 -5 o 1477.896 1470.373 180.00 1.21558 0.03
4 4 2 o 68572.74 70429.22 180.00 1.21778 1.28
7 3 3 o 3047.784 3070.738 0.00 1.20819 0.05
2 2 12 o 21490.111 22019.781 180.00 1.20079 0.40
0 2 13 o 8735.176 8886.096 180.00 1.20009 0.16
7 3 -8 o 18538.215 18198.074 0.00 1.21029 0.36
2 4 -7 o 16805.783 17639.623 0.00 1.19766 0.29
3 3 9 o 14845.411 15252.183 0.00 1.20107 0.27
9 1 -11 o 27.004 27.393 0.00 1.20279 0.00
5 3 7 o 5589.926 6512.490 0.00 1.19162 0.10
8 2 5 o 63.367 76.900 180.00 1.19121 0.00
4 4 3 o 6716.294 7373.821 0.00 1.19489 0.12
4 4 -6 o 5512.084 6348.825 0.00 1.19223 0.09
5 1 11 o 420.146 436.513 180.00 1.18040 0.01
9 1 5 o 574.243 599.052 180.00 1.17989 0.01
0 4 7 o -1.680 1.906 180.00 1.18995 0.00
10 0 -10 o 2113.713 2316.056 180.00 1.19407 0.02
1 1 14 o 8111.363 8103.668 180.00 1.17768 0.15
10 2 -4 o 3436.311 4070.187 0.00 1.19234 0.06
10 2 -3 o 5985.265 7048.650 180.00 1.19168 0.11
3 1 -15 o 45.747 44.778 0.00 1.17477 0.00
10 2 -5 o 4142.683 4344.236 0.00 1.18743 0.07
8 2 -11 o 854.225 925.634 180.00 1.18190 0.02
2 4 6 o 168.642 183.804 0.00 1.18149 0.00
10 2 -2 o 108642.38 115901.77 0.00 1.18548 2.09
2 0 14 o 2340.038 2298.659 180.00 1.16345 0.01
5 3 -11 o 17917.492 17348.787 180.00 1.17287 0.31
6 2 -13 o 6.035 5.255 0.00 1.17241 0.00
7 3 -9 o 1195.588 1198.530 0.00 1.17679 0.02
11 1 -3 o 1232.035 1238.214 180.00 1.17602 0.02
7 3 4 o 1496.740 1450.072 0.00 1.17450 0.04
10 2 -1 o 5439.135 5255.374 180.00 1.17399 0.10
11 1 -4 o 5073.665 5054.252 180.00 1.17861 0.08
4 2 11 o 3601.941 3525.693 180.00 1.16360 0.06
10 2 -6 o 187030.16 186731.14 180.00 1.17716 3.36
3 1 13 o 0.516 0.266 0.00 1.16217 0.00
2 2 -14 o 9461.709 9042.190 0.00 1.16169 0.18
11 1 -5 o 356.632 358.118 0.00 1.17581 0.01
2 4 -8 o 153560.41 147540.58 180.00 1.16096 2.76
4 4 -7 o 25134.316 25319.037 0.00 1.16491 0.44
1 3 11 o 120.609 117.469 180.00 1.16382 0.00
11 1 -2 o 237518.62 233524.58 180.00 1.16815 4.30
4 4 4 o 57201.84 56317.51 0.00 1.16795 1.08
4 2 -14 o 63467.67 62690.38 0.00 1.15680 1.17
1 1 -15 o 55.939 55.259 180.00 1.15663 0.00
8 0 8 o 6747.888 6592.322 0.00 1.15100 0.07
3 3 -12 o 105195.29 101965.48 0.00 1.15414 1.88
7 1 9 o 545.965 532.144 180.00 1.15385 0.01
11 1 -6 o 33514.566 33110.723 180.00 1.16773 0.57
1 3 -12 o 106514.78 104416.75 180.00 1.14762 1.92
6 2 9 o 1325.766 1302.806 180.00 1.15289 0.02
5 1 -15 o 255.779 246.492 0.00 1.15432 0.01
9 1 -12 o 30764.746 30486.936 180.00 1.15803 0.48
10 0 4 o 4633.997 4509.734 180.00 1.14819 0.04
7 1 -14 o 76831.41 76093.97 0.00 1.15769 1.45
10 2 0 o 6428.808 6367.039 180.00 1.15767 0.13
10 2 -7 o 3379.296 3201.108 180.00 1.16193 0.06
8 2 6 o 47446.34 47173.67 180.00 1.14694 0.82
11 1 -1 o 1321.794 1281.121 0.00 1.15531 0.03
6 4 -3 o 13387.609 12934.158 0.00 1.15416 0.22
6 4 -1 o 192.066 186.707 180.00 1.15243 0.01
6 4 -2 o 22354.824 21828.859 180.00 1.15584 0.44
0 4 8 o 58501.42 56744.65 180.00 1.15028 1.05
11 1 -7 o 377.060 363.134 180.00 1.15469 0.01
3 3 10 o 4338.427 4529.032 0.00 1.14471 0.07
2 4 7 o 504.679 534.918 0.00 1.14400 0.01
6 4 -4 o 45264.41 44132.48 180.00 1.14747 0.86
5 3 8 o 57305.84 58789.55 0.00 1.14277 1.06
7 3 -10 o 65313.35 67154.02 180.00 1.14098 1.15
9 1 6 o 106079.77 106705.52 0.00 1.13507 1.92
6 4 0 o 2935.047 3130.347 0.00 1.14408 0.07
7 3 5 o 2573.050 2579.152 0.00 1.13858 0.05
11 1 0 o 793.085 780.815 0.00 1.13798 0.02
10 2 -8 o 13720.421 13944.305 180.00 1.14232 0.22
10 2 1 o 647.890 636.627 180.00 1.13712 0.01
2 2 13 o 3.684 3.698 0.00 1.13163 0.00
8 0 -14 o 38627.70 39652.27 180.00 1.13949 0.36
9 3 -2 o 2861.565 2937.985 180.00 1.13920 0.07
4 4 -8 o 53342.92 53910.96 0.00 1.13454 0.97
0 2 14 o 46139.36 45184.92 180.00 1.12973 0.79
9 3 -3 o 10689.762 10953.371 180.00 1.14291 0.18
4 4 5 o 20914.326 20638.105 180.00 1.13786 0.35
8 2 -12 o 105.265 84.976 180.00 1.13759 0.02
9 3 -4 o 1393.039 1432.680 180.00 1.14171 0.04
11 1 -8 o 2426.349 2369.789 180.00 1.13720 0.05
6 4 -5 o 1453.562 1445.794 180.00 1.13602 0.03
9 3 -5 o 212.289 212.672 180.00 1.13565 0.00
4 0 -16 o 18370.826 17847.379 0.00 1.12491 0.15
5 3 -12 o 64258.55 62943.98 0.00 1.12440 1.07
2 4 -9 o 689.121 687.153 180.00 1.12274 0.01
2 0 -16 o 157024.20 156825.73 0.00 1.12258 1.37
6 4 1 o 17579.094 17662.797 0.00 1.13109 0.29
9 3 -1 o 3722.562 3732.749 180.00 1.13072 0.06
5 1 12 o 7004.839 7387.007 0.00 1.11413 0.12
9 3 -6 o 55569.94 53525.95 0.00 1.12494 1.08
11 1 1 o 0.000 0.007 0.00 1.11678 0.00
6 2 -14 o 46694.27 47448.18 180.00 1.11639 0.83
6 4 -6 o 100712.34 103418.22 0.00 1.12024 1.79
10 2 -9 o 713.162 720.986 0.00 1.11902 0.01
10 0 -12 o 18587.061 18632.967 180.00 1.11881 0.16
1 1 15 o 220.491 218.815 0.00 1.10485 0.00
3 1 -16 o 26188.480 25952.229 180.00 1.10444 0.52
9 3 0 o 484.416 474.486 180.00 1.11778 0.01
10 2 2 o 2078.265 2189.215 0.00 1.11305 0.04
11 1 -9 o 165.732 172.714 0.00 1.11586 0.00
1 3 12 o 78178.40 77356.45 180.00 1.10657 1.36
4 2 12 o 101756.38 100015.80 180.00 1.10156 1.82
0 4 9 o 26422.615 26989.121 0.00 1.10979 0.43
6 4 2 o 2976.894 3198.424 180.00 1.11394 0.06
3 3 -13 o 23378.863 23120.799 0.00 1.10021 0.38
9 1 -13 o 0.479 0.702 180.00 1.11334 0.00
8 2 7 o 11645.085 11521.382 0.00 1.10280 0.19
6 2 10 o 48671.63 48334.61 180.00 1.09800 0.83
4 4 -9 o 31364.625 30897.738 0.00 1.10197 0.52
7 1 10 o 3669.074 3506.945 0.00 1.09725 0.11
7 3 6 o 16196.900 15908.941 180.00 1.10133 0.27
9 3 -7 o 5379.135 5491.085 180.00 1.10999 0.08
4 4 6 o 482.479 473.623 0.00 1.10549 0.01
2 2 -15 o 939.512 898.868 180.00 1.09632 0.02
2 4 8 o 126301.07 124612.86 0.00 1.10538 2.24
1 3 -13 o 5743.370 5851.421 0.00 1.09143 0.09
4 2 -15 o 5159.223 4971.688 180.00 1.09533 0.09
7 3 -11 o 14842.270 14748.956 180.00 1.10379 0.24
12 0 -4 o 1924.439 1905.960 0.00 1.10660 0.01
3 1 14 o 8206.998 8317.385 0.00 1.09320 0.12
9 3 1 o 7130.929 7002.770 0.00 1.10085 0.12
7 1 -15 o 141.373 137.800 180.00 1.10083 0.00
6 4 -7 o 1215.639 1198.049 180.00 1.10066 0.02
9 1 7 o 155.074 158.274 0.00 1.09068 0.00
5 3 9 o 2893.176 2795.013 180.00 1.09511 0.05
6 0 -16 o 89646.02 90120.29 180.00 1.09384 0.75
11 1 2 o 162862.36 166965.34 0.00 1.09239 2.81
12 0 -6 o 42312.93 41410.61 0.00 1.10076 0.40
0 0 16 o 35903.62 35027.449 180.00 1.08745 0.33
3 3 11 o 567.799 584.948 180.00 1.09129 0.01
1 1 -16 o 900.969 877.739 0.00 1.08625 0.01
5 1 -16 o 627.937 660.044 0.00 1.09048 0.02
12 0 -2 o 24256.523 23640.062 180.00 1.09478 0.20
8 2 -13 o 15.116 15.874 180.00 1.09357 0.00
6 4 3 o 6326.077 6469.910 0.00 1.09321 0.10
2 4 -10 o 34.968 26.435 180.00 1.08383 0.00
10 2 3 o 8732.738 8491.362 180.00 1.08619 0.14
10 2 -10 o 8322.709 8567.833 180.00 1.09275 0.14
11 1 -10 o 100546.63 103144.44 0.00 1.09135 1.75
9 3 -8 o 3559.244 3658.285 0.00 1.09131 0.07
6 0 12 o 18038.273 14148.697 0.00 1.07372 0.17
10 0 6 o 12910.170 12148.860 180.00 1.07064 0.14
5 3 -13 o 1394.446 1348.878 0.00 1.07733 0.03
9 3 2 o 3054.760 2692.095 180.00 1.08047 0.09
1 5 0 o 27536.635 25426.350 180.00 1.08042 0.51
1 5 -1 o 915.481 851.341 180.00 1.07984 0.02
4 0 14 o 565.610 541.500 0.00 1.06667 0.01
1 5 -2 o 24.223 9.014 0.00 1.07514 0.00
12 0 -8 o 2618.669 2569.596 180.00 1.07806 0.02
6 4 -8 o 58417.21 57145.65 0.00 1.07791 0.96
2 2 14 o 2753.481 2684.184 180.00 1.06913 0.04
1 5 1 o 4083.695 3947.436 180.00 1.07684 0.07
4 4 -10 o 36119.54 34354.230 180.00 1.06801 0.64
4 4 7 o 6472.744 5798.818 180.00 1.07164 0.11
0 2 15 o 5.452 4.425 180.00 1.06642 0.00
11 1 3 o 1118.335 1126.928 180.00 1.06551 0.02
0 4 10 o 3475.231 3370.321 0.00 1.06923 0.06
12 0 0 o 2123.469 2059.238 180.00 1.06692 0.01
1 5 -3 o 8674.926 8428.197 180.00 1.06647 0.14
2 4 9 o 10468.512 10188.895 0.00 1.06639 0.16
7 3 -12 o 28367.582 27991.283 180.00 1.06599 0.50
6 4 4 o 11326.650 11049.599 0.00 1.06953 0.20
9 3 -9 o 2965.647 2900.734 0.00 1.06947 0.05
9 1 -14 o 5706.383 5552.432 180.00 1.06939 0.10
1 5 2 o 228.743 224.194 0.00 1.06925 0.00
6 2 -15 o 72.646 77.297 180.00 1.06370 0.00
8 2 8 o 500.512 638.196 0.00 1.05945 0.01
7 3 7 o 11261.945 11952.179 0.00 1.06351 0.18
5 1 13 o 73.106 76.584 180.00 1.05400 0.00
10 2 4 o -52.655 0.333 180.00 1.05726 0.00
11 1 -11 o 3309.915 3471.294 0.00 1.06439 0.05
10 2 -11 o 3142.598 3308.549 0.00 1.06424 0.05
8 0 10 o 61597.60 60467.02 180.00 1.04714 0.52
3 3 -14 o 21240.914 20940.938 180.00 1.04935 0.38
9 3 3 o 39.269 66.696 180.00 1.05725 0.00
1 3 13 o 1952.034 1991.336 0.00 1.05314 0.03
9 1 8 o 2857.929 2780.802 180.00 1.04732 0.07
6 2 11 o 493.317 482.006 180.00 1.04647 0.01
1 5 -4 o 14665.306 15175.912 180.00 1.05411 0.26
1 5 3 o 13997.809 17071.307 0.00 1.05787 0.23
2 4 -11 o 389.284 380.427 180.00 1.04492 0.01
5 3 10 o 10685.761 10535.450 0.00 1.04911 0.16
4 2 13 o 3194.883 3143.573 0.00 1.04471 0.05
7 1 11 o 1994.915 1965.693 180.00 1.04445 0.03
6 4 -9 o 5215.779 5298.907 0.00 1.05264 0.08
1 3 -14 o 3194.273 3154.662 180.00 1.03903 0.04
8 2 -14 o 26642.170 26531.387 180.00 1.05045 0.47
3 1 -17 o 1762.388 1740.994 180.00 1.04164 0.03
3 5 -1 o 437.547 452.413 0.00 1.05315 0.01
1 1 16 o 98876.58 97151.00 0.00 1.04032 1.74
7 1 -16 o 3051.680 2985.758 180.00 1.04779 0.07
3 5 -2 o 25192.143 25436.785 180.00 1.05155 0.42
4 2 -16 o 19099.641 18767.369 0.00 1.03899 0.31
3 5 0 o 54054.23 54197.91 0.00 1.05090 0.98
3 5 -3 o 10365.838 10073.033 0.00 1.04616 0.17
2 2 -16 o 106296.59 106177.11 0.00 1.03716 1.80
3 3 12 o 59930.45 58933.12 0.00 1.04097 1.06
8 4 -2 o 122.433 105.875 180.00 1.04841 0.02
8 4 -4 o 2966.514 2908.118 0.00 1.04761 0.06
6 4 5 o 3998.629 3987.984 180.00 1.04355 0.06
1 5 4 o 130518.21 130475.02 0.00 1.04309 2.24
8 4 -3 o 747.539 736.645 0.00 1.04992 0.01
1 5 -5 o 27970.207 27532.879 180.00 1.03846 0.44
9 3 -10 o 72710.05 70878.37 180.00 1.04510 1.23
3 5 1 o 6773.155 6642.113 180.00 1.04487 0.10
11 1 4 o 1440.593 1446.595 180.00 1.03682 0.03
2 0 16 o 52294.53 52655.76 180.00 1.02786 0.46
3 1 15 o 863.964 917.901 0.00 1.03158 0.02
8 4 -1 o 142.624 142.824 180.00 1.04314 0.00
8 4 -5 o 43.410 42.662 0.00 1.04156 0.00
12 0 -10 o 28724.650 28198.760 180.00 1.04145 0.29
10 0 -14 o 152799.75 150123.22 0.00 1.04096 1.30
4 4 -11 o 528.838 547.220 180.00 1.03335 0.01
3 5 -4 o 87563.01 87392.86 180.00 1.03715 1.48
4 4 8 o 4629.235 4630.611 0.00 1.03702 0.07
8 0 -16 o 31312.869 31382.693 180.00 1.03689 0.23
5 1 -17 o 395.770 417.953 180.00 1.03252 0.01
5 3 -14 o 1598.557 1687.781 0.00 1.03206 0.02
1 1 -17 o 1173.750 1215.514 0.00 1.02376 0.02
3 5 2 o 3043.324 3105.264 0.00 1.03526 0.05
12 0 2 o 80635.46 84524.42 180.00 1.02648 0.71
11 1 -12 o 4666.649 4750.333 180.00 1.03565 0.07
7 3 -13 o 10661.448 10531.434 180.00 1.02822 0.17
9 3 4 o 19097.047 20505.068 0.00 1.03182 0.32
2 4 10 o 5795.237 5860.382 0.00 1.02766 0.08
10 2 5 o 279.887 288.856 0.00 1.02692 0.00
8 4 0 o 21751.146 22357.559 0.00 1.03428 0.36
10 2 -12 o 7851.048 8083.610 180.00 1.03418 0.13
7 3 8 o 18781.920 19670.066 0.00 1.02576 0.33
6 4 -10 o 234.945 251.338 180.00 1.02549 0.01
0 4 11 o 1468.769 1426.719 0.00 1.02920 0.03
3 5 -5 o 7572.553 7828.771 180.00 1.02479 0.12
8 4 -6 o 25779.822 27966.754 180.00 1.03197 0.44
1 5 -6 o 54.884 62.487 0.00 1.01996 0.01
9 1 -15 o 47.826 52.825 180.00 1.02668 0.00
1 5 5 o 29.123 33.027 0.00 1.02533 0.00
8 2 9 o 7.860 9.544 180.00 1.01734 0.00
3 5 3 o 1051.226 1136.656 180.00 1.02237 0.02
8 4 1 o 10234.897 11035.295 0.00 1.02209 0.16
12 2 -4 o 141.194 144.800 0.00 1.02452 0.00
12 2 -5 o 1626.826 1662.869 0.00 1.02396 0.02
2 2 15 o 1534.723 1493.153 0.00 1.01252 0.02
6 4 6 o 3038.361 3141.122 0.00 1.01589 0.08
8 4 -7 o 20092.059 20795.531 180.00 1.01913 0.31
9 3 -11 o 2166.149 2285.963 0.00 1.01881 0.04
12 2 -3 o 4215.540 4545.730 180.00 1.02154 0.07
6 2 -16 o 70965.95 70979.33 180.00 1.01437 1.18
2 4 -12 o 987.787 980.449 0.00 1.00653 0.01
0 2 16 o 34794.527 32482.537 180.00 1.00927 0.62
9 1 9 o 650.358 649.866 180.00 1.00537 0.01
12 2 -6 o 24781.594 25050.791 0.00 1.01988 0.47
12 2 -2 o 5026.570 5040.731 180.00 1.01512 0.07
11 1 5 o 257.702 252.693 180.00 1.00695 0.00
3 5 -6 o 558.591 495.010 0.00 1.00945 0.02
3 3 -15 o 1474.073 1429.955 180.00 1.00162 0.03
5 3 11 o 5408.692 5405.486 180.00 1.00510 0.08
8 2 -15 o 3073.087 2912.435 0.00 1.00865 0.05
1 3 14 o 3695.441 3509.756 180.00 1.00342 0.06
5 1 14 o 39623.62 38868.21 0.00 0.99935 0.65
7 1 12 o 88555.66 91185.11 180.00 0.99533 1.51
4 0 -18 o 21146.072 20316.176 0.00 1.00213 0.16
6 2 12 o 9213.390 8998.384 0.00 0.99826 0.18
12 2 -7 o 1324.973 1278.740 0.00 1.01240 0.02
10 0 8 o 45681.43 46327.20 0.00 0.99371 0.37
9 3 5 o 1353.450 1345.388 0.00 1.00478 0.02
8 4 2 o 110562.80 108840.35 0.00 1.00694 1.90
2 0 -18 o 4702.025 4900.323 180.00 0.99573 0.06
3 5 4 o 271.201 270.399 0.00 1.00655 0.00
1 5 -7 o 3642.044 3558.536 0.00 0.99910 0.06
11 1 -13 o 88.172 89.574 0.00 1.00573 0.00
4 4 9 o 1583.550 1510.782 180.00 1.00221 0.03
4 4 -12 o 17203.061 16725.227 180.00 0.99855 0.35
12 2 -1 o 117.140 118.696 0.00 1.00544 0.00
1 5 6 o 1049.221 1051.660 0.00 1.00507 0.01
1 3 -15 o 534.494 529.632 180.00 0.99030 0.01
13 1 -5 o 30.270 29.460 0.00 1.00390 0.00
5 5 -2 o 47.595 36.677 180.00 1.00382 0.00
8 4 -8 o 8860.933 8317.413 180.00 1.00340 0.17
4 2 14 o 527.844 528.476 0.00 0.99259 0.01
13 1 -4 o 83.284 67.332 0.00 1.00322 0.00
10 2 -13 o 298.298 281.927 180.00 1.00318 0.00
10 2 6 o 11960.709 12416.079 180.00 0.99578 0.25
5 5 -1 o 4.046 3.505 0.00 1.00279 0.00
7 1 -17 o 80.406 77.690 0.00 0.99843 0.00
5 5 -3 o 23111.002 22579.686 0.00 1.00152 0.35
13 1 -6 o 76188.50 74899.02 180.00 1.00125 1.37
3 3 13 o 9035.622 9180.867 0.00 0.99377 0.15
11 3 -4 o 831.241 806.999 180.00 1.00399 0.01
6 4 -11 o 5994.480 6013.739 180.00 0.99705 0.10
13 1 -3 o 295.532 287.585 0.00 0.99923 0.01
11 3 -3 o 6564.500 6206.324 180.00 1.00239 0.11
11 3 -5 o 2638.105 2498.065 0.00 1.00226 0.04
12 2 -8 o 1521.275 1473.709 180.00 1.00174 0.02
3 5 -7 o 2679.406 2639.567 0.00 0.99154 0.04
5 5 0 o 5988.229 5803.690 0.00 0.99846 0.11
4 2 -17 o 5709.685 5912.553 180.00 0.98735 0.10
7 3 -14 o 78855.66 77313.91 0.00 0.99096 1.42
2 2 -17 o 920.453 961.302 0.00 0.98349 0.01
11 3 -2 o 101186.77 100049.20 180.00 0.99750 1.72
12 2 0 o 11061.627 11101.561 180.00 0.99278 0.17
5 5 -4 o 17238.965 17885.223 0.00 0.99596 0.32
3 1 -18 o 42062.69 44016.90 0.00 0.98528 0.71
5 3 -15 o 9.734 10.589 180.00 0.98885 0.00
7 3 9 o 6536.111 6671.135 180.00 0.98855 0.11
13 1 -2 o 3965.211 3897.598 0.00 0.99205 0.11
13 1 -7 o 238.289 251.408 180.00 0.99534 0.01
12 0 -12 o 135.271 138.545 180.00 0.99506 0.00
9 3 -12 o 12648.249 12431.645 180.00 0.99118 0.18
11 3 -6 o 6096.439 6080.588 180.00 0.99724 0.09
0 4 12 o 52218.40 51482.29 0.00 0.99013 0.97
1 1 17 o 549.859 562.483 180.00 0.98276 0.01
2 4 11 o 2689.854 2681.260 180.00 0.98964 0.05
8 4 3 o 1632.114 1643.690 180.00 0.98922 0.03
3 5 5 o 18169.104 18657.832 180.00 0.98825 0.28
6 0 -18 o 67477.47 72193.77 0.00 0.98451 0.61
5 5 1 o 46.656 42.666 0.00 0.99095 0.00
5 5 -5 o 6778.165 7048.925 0.00 0.98729 0.12
6 4 7 o 434.430 460.305 180.00 0.98713 0.01
3 1 16 o 83.193 82.305 180.00 0.97623 0.00
11 3 -1 o 35.097 35.036 180.00 0.98947 0.00
11 3 -7 o 320.910 324.203 180.00 0.98909 0.01
9 1 -16 o 11307.227 11808.262 180.00 0.98552 0.20
8 4 -9 o 2474.197 2609.306 180.00 0.98520 0.04
12 2 -9 o 544.638 562.589 0.00 0.98821 0.01
12 0 4 o 408.172 405.474 180.00 0.97773 0.00
8 2 10 o 27603.957 27381.711 180.00 0.97679 0.47
11 1 6 o 5858.411 5821.595 0.00 0.97642 0.10
1 5 -8 o 48739.98 48406.22 0.00 0.97638 0.92
5 1 -18 o 24595.047 24437.119 180.00 0.97980 0.46
13 1 -8 o 1222.229 1272.922 0.00 0.98636 0.02
1 5 7 o 3894.467 4003.011 180.00 0.98282 0.07
6 0 14 o 26896.256 26204.459 0.00 0.96771 0.21
13 1 -1 o 1538.837 1556.132 0.00 0.98187 0.03
5 5 2 o 4534.077 4561.784 0.00 0.98048 0.10
9 3 6 o 74989.99 74357.71 0.00 0.97667 1.33
2 4 -13 o 6489.960 6126.054 0.00 0.96906 0.10
11 3 0 o 85.831 81.534 0.00 0.97852 0.01
1 1 -18 o 15021.351 14529.071 0.00 0.96794 0.25
12 2 1 o 1360.252 1347.012 180.00 0.97750 0.02
0 0 18 o 6280.008 6256.270 180.00 0.96663 0.05
5 5 -6 o 20255.523 20266.240 180.00 0.97576 0.37
9 1 10 o 44940.22 45630.46 180.00 0.96510 0.74
11 1 -14 o 26350.498 26546.088 180.00 0.97519 0.54
6 2 -17 o 6685.913 6394.396 180.00 0.96831 0.11
11 3 -8 o 1297.961 1281.254 180.00 0.97802 0.03
3 5 -8 o 412.185 395.271 0.00 0.97150 0.01
13 1 0 o 187.118 156.966 180.00 0.96899 0.01
10 2 -14 o 95512.03 92047.65 0.00 0.97177 1.67
8 2 -16 o 17547.311 16746.768 180.00 0.96846 0.26
13 1 -9 o 196.198 196.378 180.00 0.97454 0.00
6 4 -12 o 5920.670 5715.571 0.00 0.96784 0.11
10 2 7 o 2214.302 2244.387 0.00 0.96433 0.04
4 4 10 o 11219.595 10907.325 0.00 0.96768 0.20
4 4 -13 o 75.361 77.769 180.00 0.96407 0.00
5 3 12 o 5680.531 5619.083 0.00 0.96323 0.10
8 4 4 o 17666.455 16199.016 180.00 0.96939 0.33
12 2 -10 o 45243.29 43312.64 180.00 0.97217 0.88
8 0 12 o 13536.710 13462.800 0.00 0.95539 0.13
4 0 16 o 62499.32 62071.27 0.00 0.95511 0.56
3 5 6 o 2452.627 2360.056 0.00 0.96790 0.05
2 2 16 o 30765.730 29365.840 180.00 0.96109 0.56
5 5 3 o 34.674 29.250 0.00 0.96733 0.01
3 3 -16 o 15995.443 15807.535 180.00 0.95695 0.33
10 0 -16 o 266.351 272.355 0.00 0.96528 0.00
8 4 -10 o 29609.451 30474.980 0.00 0.96498 0.58
11 3 1 o 65.554 68.393 0.00 0.96494 0.00
5 5 -7 o 1837.597 1762.683 0.00 0.96168 0.03
0 2 17 o 4605.741 4545.315 180.00 0.95751 0.08
1 3 15 o 6675.056 6597.663 0.00 0.95722 0.11
12 2 2 o 64779.68 61919.51 180.00 0.95996 1.19
6 2 13 o 31.734 30.954 0.00 0.95329 0.00
7 1 13 o 82.522 82.890 180.00 0.94971 0.00
5 1 15 o 4.465 4.575 0.00 0.94957 0.00
9 3 -13 o 4110.316 4012.209 180.00 0.96272 0.07
1 5 8 o 7971.318 7738.367 180.00 0.95906 0.15
1 5 -9 o 139.381 133.109 0.00 0.95228 0.01
11 3 -9 o 167.250 170.752 0.00 0.96435 0.00
7 3 -15 o 5230.690 5167.782 0.00 0.95460 0.09
6 4 8 o 59443.10 58513.72 180.00 0.95777 1.08
13 1 1 o 250.521 242.955 0.00 0.95372 0.01
7 1 -18 o 15549.122 15178.055 180.00 0.95259 0.29
7 3 10 o 7374.829 7220.709 0.00 0.95226 0.17
1 3 -16 o 89.382 91.972 0.00 0.94504 0.00
5 3 -16 o 2105.479 2159.833 0.00 0.94782 0.05
13 1 -10 o 61864.36 58968.33 0.00 0.96020 1.03
3 5 -9 o 4503.943 4521.749 0.00 0.94980 0.08
3 3 14 o 4867.123 4881.236 0.00 0.94961 0.08
2 4 12 o 12265.415 11959.420 180.00 0.95268 0.22
0 4 13 o 3888.213 3820.868 180.00 0.95233 0.06
11 1 7 o 22.701 23.288 180.00 0.94571 0.00
5 5 4 o 73509.15 72929.38 180.00 0.95184 1.33
4 2 15 o 385.562 393.849 0.00 0.94477 0.01
9 3 7 o 347.186 352.505 0.00 0.94796 0.01
12 2 -11 o 5430.770 5306.234 0.00 0.95400 0.09
11 3 2 o 76137.12 76255.38 0.00 0.94908 1.38
8 4 5 o 233.929 239.224 0.00 0.94788 0.00
8 2 11 o 2445.426 2396.168 0.00 0.93800 0.04
14 0 -4 o 15662.624 16217.944 0.00 0.94714 0.14
8 0 -18 o 11214.696 11664.974 180.00 0.94640 0.10
4 2 -18 o 6073.000 6232.151 0.00 0.93995 0.09
9 1 -17 o 592.020 617.398 180.00 0.94614 0.01
3 5 7 o 3318.670 3437.817 180.00 0.94595 0.06
11 3 -10 o 65136.29 65683.74 0.00 0.94840 1.20
5 5 -8 o 17060.508 17646.574 180.00 0.94538 0.35
14 0 -6 o 61371.66 63101.44 0.00 0.94751 0.53
2 2 -18 o 2682.021 2625.651 180.00 0.93467 0.08
3 1 -19 o 3.365 3.318 180.00 0.93448 0.00
12 2 3 o 1817.608 1882.467 180.00 0.94057 0.03
8 4 -11 o 264.611 264.109 180.00 0.94316 0.00
10 4 -5 o 7065.067 7334.715 0.00 0.94597 0.12
10 4 -4 o 6834.434 6882.520 0.00 0.94844 0.13
10 4 -3 o 2282.364 2310.706 180.00 0.94811 0.04
2 4 -14 o 2774.578 2877.784 0.00 0.93280 0.05
10 4 -2 o 50596.13 52058.76 0.00 0.94498 0.96
11 1 -15 o 51.732 53.272 180.00 0.94448 0.00
6 4 -13 o 717.937 708.830 180.00 0.93832 0.01
13 1 -11 o 0.135 0.162 180.00 0.94369 0.00
1 1 18 o 19517.611 20103.740 180.00 0.93113 0.35
10 2 -15 o 4706.434 4896.417 0.00 0.94037 0.08
12 0 -14 o 23988.215 23878.209 0.00 0.94308 0.20
13 1 2 o 234.935 196.132 0.00 0.93642 0.01
9 1 11 o 1234.237 1199.017 0.00 0.92668 0.02
10 2 8 o 42924.50 44513.93 0.00 0.93300 0.76
14 0 -2 o 103677.43 98166.88 180.00 0.93576 0.96
7 5 -3 o 2929.368 3013.795 0.00 0.94112 0.05
7 5 -2 o 47940.13 49573.42 0.00 0.94103 0.88
10 4 -6 o 81931.80 85426.33 180.00 0.94075 1.49
5 1 -19 o 633.876 658.703 180.00 0.93173 0.01
4 4 11 o 7413.372 7584.766 180.00 0.93379 0.12
1 5 -10 o 9762.062 9534.694 180.00 0.92724 0.18
10 4 -1 o 12880.714 13056.664 180.00 0.93913 0.23
4 4 -14 o 26501.031 27344.812 0.00 0.93026 0.50
7 5 -4 o 19054.125 18875.941 0.00 0.93847 0.33
3 1 17 o 68.757 65.601 0.00 0.92630 0.00
7 5 -1 o 9333.265 9170.381 180.00 0.93820 0.17
5 5 5 o 3766.081 3765.331 180.00 0.93436 0.06
1 5 9 o 7342.660 7383.337 0.00 0.93423 0.12
11 3 3 o 12854.697 13254.516 180.00 0.93129 0.22
14 0 -8 o 1046.646 1002.089 0.00 0.93682 0.01
9 3 -14 o 1041.962 1072.812 180.00 0.93388 0.02
12 0 6 o 83671.31 83171.14 0.00 0.92469 0.78
7 5 -5 o 521.527 548.381 0.00 0.93314 0.01
10 0 10 o 33575.746 31267.684 0.00 0.92080 0.35
8 2 -17 o 188.188 194.167 180.00 0.93005 0.00
3 5 -10 o 2002.399 1941.709 0.00 0.92684 0.04
2 0 18 o 21917.463 20661.750 180.00 0.92030 0.20
12 2 -12 o 583.237 594.303 0.00 0.93411 0.01
6 2 -18 o 47503.88 46540.95 0.00 0.92537 0.94
6 4 9 o 6055.359 6042.918 180.00 0.92822 0.11
10 4 0 o 1340.065 1396.302 180.00 0.93071 0.03
11 3 -11 o 13462.938 13898.284 0.00 0.93054 0.23
10 4 -7 o 196.103 201.166 180.00 0.93292 0.00
5 5 -9 o 8.776 2.048 180.00 0.92724 0.00
7 5 0 o 16562.689 17427.799 180.00 0.93270 0.33
1 1 -19 o 92.346 90.727 0.00 0.91779 0.00
5 3 13 o 1311.355 1308.754 0.00 0.92358 0.03
8 4 6 o 21589.592 21336.920 180.00 0.92511 0.40
3 3 -17 o 3039.757 2979.463 180.00 0.91522 0.06
11 1 8 o 1567.295 1529.082 0.00 0.91518 0.04
7 3 11 o 3914.712 3768.004 180.00 0.91713 0.07
3 5 8 o 29744.609 29685.383 180.00 0.92282 0.61
12 2 4 o 1012.074 978.049 180.00 0.91973 0.02
13 1 -12 o 1362.885 1342.050 0.00 0.92537 0.02
7 5 -6 o 1015.988 992.110 180.00 0.92528 0.03
7 3 -16 o 13.928 3.371 0.00 0.91939 0.01
9 3 8 o 5288.165 5286.949 180.00 0.91907 0.12
7 5 1 o 5814.944 5814.798 0.00 0.92468 0.10
13 1 3 o 32.602 31.782 180.00 0.91747 0.00
6 2 14 o 10663.729 10466.742 0.00 0.91138 0.17
8 4 -12 o 1271.448 1144.409 0.00 0.92018 0.03
2 2 17 o 3.772 3.811 0.00 0.91424 0.00
10 4 -8 o 4069.966 4066.529 180.00 0.92268 0.06
2 4 13 o 3373.838 3235.511 0.00 0.91702 0.06
7 1 14 o 5053.547 4984.862 180.00 0.90735 0.12
0 4 14 o 12075.952 11615.134 180.00 0.91601 0.23
14 0 0 o 1.035 0.140 180.00 0.91450 0.00
10 4 1 o 408.973 382.911 180.00 0.91993 0.01
1 3 16 o 52912.97 52931.65 0.00 0.91433 1.08
0 2 18 o 33.413 31.358 180.00 0.91047 0.00
5 1 16 o 40084.71 39477.55 180.00 0.90410 0.86
5 5 6 o 26590.527 25982.492 180.00 0.91527 0.51
7 5 -7 o 2804.858 2760.127 180.00 0.91507 0.05
11 3 4 o 3578.482 3566.361 180.00 0.91195 0.08
5 3 -17 o 3656.547 3566.685 180.00 0.90902 0.07
1 3 -17 o 2749.193 2764.336 0.00 0.90303 0.05
6 4 -14 o 26178.943 25603.027 180.00 0.90885 0.53
3 3 15 o 389.483 386.329 0.00 0.90838 0.01
11 1 -16 o 6770.239 6850.501 0.00 0.91396 0.14
14 0 -10 o 50526.65 48303.07 0.00 0.91616 0.47
7 1 -19 o 5.604 4.249 180.00 0.91003 0.00
7 5 2 o 18490.031 18544.279 180.00 0.91432 0.37
9 1 -18 o 63978.95 63102.00 0.00 0.90864 1.29
10 2 9 o 80.003 80.738 0.00 0.90209 0.00
5 5 -10 o 39417.35 39304.69 0.00 0.90763 0.80
12 2 -13 o 64.929 66.437 180.00 0.91289 0.00
1 5 -11 o 1920.361 1921.992 0.00 0.90164 0.04
8 2 12 o 2156.345 2122.602 0.00 0.90106 0.07
10 2 -16 o 1405.639 1351.082 0.00 0.90934 0.03
2 4 -15 o 281.028 287.874 0.00 0.89792 0.01
4 2 16 o 55789.59 55024.80 0.00 0.90083 1.14
1 5 10 o 4.041 2.827 180.00 0.90875 0.00
11 3 -12 o 772.104 749.508 180.00 0.91115 0.01
3 5 -11 o 177.772 179.345 0.00 0.90303 0.00
4 0 -20 o 620.640 635.912 0.00 0.90252 0.01
9 3 -15 o 2354.406 2269.177 0.00 0.90503 0.04
10 4 -9 o 12.088 9.461 0.00 0.91027 0.00
10 4 2 o 397.307 386.754 0.00 0.90705 0.02
4 4 12 o 41200.67 40493.87 180.00 0.90080 0.88
4 4 -15 o 2731.107 2785.852 180.00 0.89738 0.05
13 1 4 o 10898.245 11097.801 180.00 0.89724 0.19
4 2 -19 o 42.545 43.083 0.00 0.89640 0.00
6 4 10 o 18088.467 18312.697 180.00 0.89885 0.37
8 4 7 o 8178.758 8169.246 0.00 0.90148 0.14
0 6 0 o 65055.21 65247.52 0.00 0.90357 0.67
12 2 5 o 244.437 250.030 0.00 0.89781 0.00
13 1 -13 o 12.499 11.540 0.00 0.90561 0.00
7 5 -8 o 2324.393 2363.971 0.00 0.90275 0.05
2 0 -20 o 32232.689 32562.564 180.00 0.89440 0.35
0 6 1 o 9622.837 9759.033 180.00 0.90235 0.19
7 5 3 o 8826.854 8900.877 0.00 0.90188 0.17
3 5 9 o 5318.829 5374.451 0.00 0.89890 0.10
9 1 12 o 739.159 718.314 180.00 0.89017 0.01
2 2 -19 o 65.714 63.692 0.00 0.89012 0.00
8 4 -13 o 357.629 364.024 180.00 0.89641 0.01
0 6 2 o 1481.732 1503.827 0.00 0.89874 0.03
8 2 -18 o 14646.289 15090.107 180.00 0.89351 0.31
9 3 9 o 1155.618 1109.466 180.00 0.89033 0.02
6 0 -20 o 1286.442 1360.986 0.00 0.89297 0.02
5 5 7 o 393.446 393.669 0.00 0.89492 0.01
10 0 -18 o 27439.438 27677.213 180.00 0.89441 0.31
11 3 5 o 94.299 95.815 0.00 0.89142 0.00
10 4 -10 o 4429.795 4449.594 180.00 0.89596 0.09
2 6 -2 o 352.551 367.794 0.00 0.89340 0.01
0 6 3 o 580.793 613.122 0.00 0.89280 0.02
2 6 -1 o 7371.613 7359.217 180.00 0.89523 0.14
10 4 3 o 5168.829 5341.376 180.00 0.89233 0.09
2 6 0 o 161.537 162.029 180.00 0.89470 0.00
14 2 -4 o 11791.571 11962.062 0.00 0.89413 0.24
14 2 -5 o 2.201 2.139 180.00 0.89547 0.00
14 2 -6 o 35413.72 35617.50 0.00 0.89444 0.70
2 6 1 o 28685.842 29450.861 180.00 0.89182 0.56
12 2 -14 o 27266.350 26446.305 0.00 0.89071 0.55
11 3 -13 o 270.436 257.990 0.00 0.89058 0.01
14 2 -3 o 391.558 373.860 180.00 0.89046 0.01
14 2 -7 o 961.657 952.347 0.00 0.89107 0.02
