#------------------------------------------------------------------------------
#$Date: 2021-09-06 14:10:56 +0300 (Mon, 06 Sep 2021) $
#$Revision: 268760 $
#$URL: file:///home/coder/svn-repositories/cod/cif/7/70/76/7707609.cif $
#------------------------------------------------------------------------------
#
# This file is available in the Crystallography Open Database (COD),
# http://www.crystallography.net/
#
# All data on this site have been placed in the public domain by the
# contributors.
#
data_7707609
loop_
_publ_author_name
'Mullens, Bryce G.'
'Avdeev, Maxim'
'Brand, Helen E. A.'
'Mondal, S.'
'Vaitheeswaran, G.'
'Kennedy, Brendan J.'
_publ_section_title
;
 Insights into the structural variations in
 SmNb<sub>1-<i>x</i></sub>Ta<sub><i>x</i></sub>O<sub>4</sub> and
 HoNb<sub>1-<i>x</i></sub>Ta<sub><i>x</i></sub>O<sub>4</sub> combined
 experimental and computational studies.
;
_journal_issue                   26
_journal_name_full
'Dalton transactions (Cambridge, England : 2003)'
_journal_page_first              9103
_journal_page_last               9117
_journal_paper_doi               10.1039/d1dt01051d
_journal_volume                  50
_journal_year                    2021
_chemical_formula_sum            'Nb O4 Sm'
_chemical_formula_weight         307.30
_space_group_IT_number           15
_space_group_name_Hall           '-I 2ya'
_space_group_name_H-M_alt        'I 1 2/a 1'
_symmetry_cell_setting           monoclinic
_symmetry_space_group_name_H-M   'I 1 2/a 1'
_audit_creation_date             2021-05-20T14:21
_audit_creation_method           'from EXP file using GSAS2CIF'
_audit_update_record
' 2021-05-20T14:21  Initial CIF as created by GSAS2CIF'
_cell_angle_alpha                90.0
_cell_angle_beta                 94.67780(10)
_cell_angle_gamma                90.0
_cell_formula_units_Z            4
_cell_length_a                   5.420642(6)
_cell_length_b                   11.175429(14)
_cell_length_c                   5.119937(6)
_cell_volume                     309.1224(6)
_computing_structure_refinement  GSAS
_diffrn_radiation_polarisn_ratio 0.99
_diffrn_radiation_probe          x-ray
_diffrn_radiation_wavelength     0.687514
_exptl_absorpt_correction_T_max  1.00000
_exptl_absorpt_correction_T_min  1.00000
_exptl_absorpt_process_details
;   GSAS Absorption/surface roughness correction: function number 0
 No correction is applied.
;
_pd_block_id
2021-05-20T14:21|SMNBO4_X0|bjk|Australian_Synchrotron
_pd_calc_method                  'Rietveld Refinement'
_pd_instr_location               ' ?'
_pd_meas_number_of_points        19879
_pd_phase_name                   'SMNBO4_X0  Lambda = 0.6875139'
_pd_proc_info_datetime           2021-05-20T14:21:04
_pd_proc_info_excluded_regions   ' ?'
_pd_proc_ls_background_function
;   GSAS Background function number 1 with 18 terms.
 Shifted Chebyshev function of 1st kind
      1:    6176.08     2:   -7824.88     3:    5606.97     4:   -3351.33    
      5:    1652.96     6:   -552.752     7:    71.9928     8:    60.9060    
      9:   -2.43028    10:   -57.1157    11:    90.9999    12:   -43.5172    
     13:    21.1325    14:    20.3264    15:   -34.7208    16:    36.5522    
     17:   -26.6427    18:    13.4507    
;
_pd_proc_ls_peak_cutoff          0.00010
_pd_proc_ls_profile_function
;
 CW Profile function number 4 with  21 terms
 Pseudovoigt profile coefficients as parameterized in
 P. Thompson, D.E. Cox & J.B. Hastings (1987). J. Appl. Cryst.,20,79-83.
 Asymmetry correction of L.W. Finger, D.E. Cox & A. P. Jephcoat (1994).
 J. Appl. Cryst.,27,892-900.
 Microstrain broadening by P.W. Stephens,  (1999). J. Appl. Cryst.,32,281-289.
 #1(GU)   =    7.493 #2(GV)   =   -0.845 #3(GW)   =   -1.401
 #4(GP)   =    1.537 #5(LX)   =    0.667 #6(ptec) =     0.00
 #7(trns) =     0.00 #8(shft) =   0.0000 #9(sfec) =     0.00
 #10(S/L) =   0.0005 #11(H/L) =   0.0005 #12(eta) =   1.0000
 #13(S400 ) =  4.9E-04 #14(S040 ) =  0.0E+00 #15(S004 ) =  1.3E-03
 #16(S220 ) =  1.7E-04 #17(S202 ) =  2.2E-03 #18(S022 ) =  2.4E-04
 #19(S301 ) = -1.8E-03 #20(S103 ) =  3.7E-03 #21(S121 ) =  2.4E-04
 Peak tails are ignored  where the intensity is below 0.0001 times the peak
   Aniso. broadening axis   0.0   0.0   1.0
;
_pd_proc_ls_prof_R_factor        0.0323
_pd_proc_ls_prof_wR_expected     0.0132
_pd_proc_ls_prof_wR_factor       0.0475
_pd_proc_number_of_points        19879
_pd_spec_mounting                ' ?'
_refine_ls_goodness_of_fit_all   3.60
_refine_ls_matrix_type           full
_refine_ls_number_parameters     46
_refine_ls_number_restraints     0
_refine_ls_R_Fsqd_factor         0.04827
_refine_ls_shift/su_max          0.19
_refine_ls_shift/su_mean         0.02
_reflns_d_resolution_high        0.549
_reflns_d_resolution_low         5.588
_reflns_limit_h_max              9
_reflns_limit_h_min              0
_reflns_limit_k_max              20
_reflns_limit_k_min              0
_reflns_limit_l_max              9
_reflns_limit_l_min              -9
_reflns_number_total             983
_cod_data_source_file            d1dt01051d5.cif
_cod_data_source_block           SMNBO4_X0_publ
_cod_depositor_comments
;
The following automatic conversions were performed:

data item '_geom_angle_publ_flag' value 'N' was changed to 'n' in
accordance with the
/home/data/users/saulius/crontab/automatic-downloads/rss-feeds/RSC/lib/dictionaries/cif_core.dic
dictionary named 'cif_core.dic' version 2.4.2 last updated on
2011-04-26 (40 times).

data item '_geom_bond_publ_flag' value 'N' was changed to 'n' in
accordance with the
/home/data/users/saulius/crontab/automatic-downloads/rss-feeds/RSC/lib/dictionaries/cif_core.dic
dictionary named 'cif_core.dic' version 2.4.2 last updated on
2011-04-26 (29 times).

Automatic conversion script
Id: cif_fix_values 7556 2019-12-06 15:28:31Z antanas 

 Adding full bibliography for 7707607--7707609.cif.
;
_cod_original_cell_volume        309.1220(10)
_cod_database_code               7707609
_gsas_exptl_extinct_corr_t_min   1.00000
_gsas_exptl_extinct_corr_t_max   1.00000
loop_
_symmetry_equiv_pos_site_id
_symmetry_equiv_pos_as_xyz
1 +x,+y,+z
2 -x+1/2,+y,-z
-1 -x,-y,-z
-2 +x+1/2,-y,+z
101 +x+1/2,+y+1/2,+z+1/2
102 -x,+y+1/2,-z+1/2
-101 -x+1/2,-y+1/2,-z+1/2
-102 +x,-y+1/2,+z+1/2
loop_
_atom_site_type_symbol
_atom_site_label
_atom_site_fract_x
_atom_site_fract_y
_atom_site_fract_z
_atom_site_occupancy
_atom_site_thermal_displace_type
_atom_site_U_iso_or_equiv
_atom_site_symmetry_multiplicity
Sm SM1 0.25 0.12078(4) 0.0 1.0 Uiso 0.00284(6) 4
Nb Nb1 0.25 0.64619(4) 0.0 1.0 Uiso 0.01219(14) 4
O- O1 0.0076(4) 0.71551(20) 0.2029(5) 1.0 Uiso 0.0121(6) 8
O- O2 0.9039(4) 0.45567(20) 0.2463(4) 1.0 Uiso 0.0091(5) 8
loop_
_atom_type_symbol
_atom_type_number_in_cell
_atom_type_scat_dispersion_real
_atom_type_scat_dispersion_imag
_atom_type_scat_Cromer_Mann_a1
_atom_type_scat_Cromer_Mann_a2
_atom_type_scat_Cromer_Mann_a3
_atom_type_scat_Cromer_Mann_a4
_atom_type_scat_Cromer_Mann_b1
_atom_type_scat_Cromer_Mann_b2
_atom_type_scat_Cromer_Mann_b3
_atom_type_scat_Cromer_Mann_b4
_atom_type_scat_Cromer_Mann_c
_atom_type_scat_source
Sm+3 4.0 0.000 0.000 23.1504 2.31641 20.2599 0.17408 11.9202 12.1571 2.71488
24.8242 0.95459 International_Tables_Vol_C
Nb+5 4.0 0.000 0.000 17.9163 1.12446 13.3417 0.02878 10.7990 9.28206 0.33790
25.7228 -6.3934 International_Tables_Vol_C
O-2 16.0 0.000 0.000 3.76936 15.0797 2.53342 6.30430 1.91579 40.3445 1.55094
0.31291 0.22789 International_Tables_Vol_C
Ta+5 0.0 0.000 0.000 29.1587 1.50711 18.8407 0.11674 12.8268 6.31524 5.38695
12.4244 1.78555 International_Tables_Vol_C
loop_
_geom_angle_atom_site_label_1
_geom_angle_atom_site_label_2
_geom_angle_atom_site_label_3
_geom_angle
_geom_angle_site_symmetry_1
_geom_angle_site_symmetry_2
_geom_angle_site_symmetry_3
_geom_angle_publ_flag
O1 SM1 O1 84.82(11) -1_565 . -2_554 n
O1 SM1 O1 75.23(9) -1_565 . 101_544 n
O1 SM1 O1 66.54(5) -1_565 . 102_334 n
O1 SM1 O2 122.69(8) -1_565 . 101_444 n
O1 SM1 O2 125.13(8) -1_565 . 102_434 n
O1 SM1 O2 153.64(8) -1_565 . -101_544 n
O1 SM1 O2 68.90(8) -1_565 . -102_343 n
O1 SM1 O1 66.54(5) -2_554 . 101_544 n
O1 SM1 O1 75.23(9) -2_554 . 102_334 n
O1 SM1 O2 125.13(8) -2_554 . 101_444 n
O1 SM1 O2 122.69(8) -2_554 . 102_434 n
O1 SM1 O2 68.90(8) -2_554 . -101_544 n
O1 SM1 O2 153.64(8) -2_554 . -102_343 n
O1 SM1 O1 127.51(11) 101_544 . 102_334 n
O1 SM1 O2 75.75(8) 101_544 . 101_444 n
O1 SM1 O2 156.11(7) 101_544 . 102_434 n
O1 SM1 O2 91.80(7) 101_544 . -101_544 n
O1 SM1 O2 106.84(8) 101_544 . -102_343 n
O1 SM1 O2 156.11(7) 102_334 . 101_444 n
O1 SM1 O2 75.75(8) 102_334 . 102_434 n
O1 SM1 O2 106.84(8) 102_334 . -101_544 n
O1 SM1 O2 91.80(7) 102_334 . -102_343 n
O2 SM1 O2 81.87(10) 101_444 . 102_434 n
O2 SM1 O2 74.21(8) 101_444 . -101_544 n
O2 SM1 O2 73.96(5) 101_444 . -102_343 n
O2 SM1 O2 73.96(5) 102_434 . -101_544 n
O2 SM1 O2 74.21(8) 102_434 . -102_343 n
O2 SM1 O2 137.43(11) -101_544 . -102_343 n
O1 Nb1 O1 132.00(14) 1_555 . 2_555 n
O1 Nb1 O2 109.25(10) 1_555 . -1_665 n
O1 Nb1 O2 99.89(9) 1_555 . -2_454 n
O1 Nb1 O2 99.89(9) 2_555 . -1_665 n
O1 Nb1 O2 109.25(10) 2_555 . -2_454 n
O2 Nb1 O2 103.88(14) -1_665 . -2_454 n
SM1 O1 SM1 104.77(9) -1_565 . 101_455 n
SM1 O1 Nb1 117.51(11) -1_565 . 1_555 n
SM1 O1 Nb1 129.10(11) 101_455 . 1_555 n
SM1 O2 SM1 105.79(8) 101_555 . -101_555 n
SM1 O2 Nb1 132.37(12) 101_555 . -1_665 n
SM1 O2 Nb1 116.65(11) -101_755 . -1_665 n
loop_
_geom_bond_atom_site_label_1
_geom_bond_atom_site_label_2
_geom_bond_distance
_geom_bond_site_symmetry_1
_geom_bond_site_symmetry_2
_geom_bond_publ_flag
SM1 SM1 3.8254(6) . -1_555 n
SM1 SM1 3.8254(6) . -1_655 n
SM1 SM1 3.8593(6) . -101_443 n
SM1 SM1 3.8593(6) . -101_444 n
SM1 Nb1 3.584440(30) . 101_444 n
SM1 Nb1 3.584440(30) . 101_545 n
SM1 O1 2.4778(24) . -1_565 n
SM1 O1 2.4778(24) . -2_565 n
SM1 O1 2.3940(23) . 101_544 n
SM1 O1 2.3940(23) . 102_545 n
SM1 O2 2.4425(22) . 101_444 n
SM1 O2 2.4425(22) . 102_645 n
SM1 O2 2.3536(22) . -101_544 n
SM1 O2 2.3536(22) . -102_343 n
Nb1 SM1 3.584440(30) . 101_454 n
Nb1 SM1 3.584440(30) . 101_555 n
Nb1 O1 1.9047(23) . 1_555 n
Nb1 O1 1.9047(23) . 2_555 n
Nb1 O1 2.4704(24) . -101_454 n
Nb1 O1 2.4704(24) . -102_453 n
Nb1 O2 1.8467(22) . -1_665 n
Nb1 O2 1.8467(22) . -2_465 n
O1 SM1 2.4778(24) . -1_565 n
O1 SM1 2.3940(23) . 101_455 n
O1 Nb1 1.9047(23) . 1_555 n
O1 Nb1 2.4704(24) . -101_454 n
O2 SM1 2.4425(22) . 101_555 n
O2 SM1 2.3536(22) . -101_544 n
O2 Nb1 1.8467(22) . -1_665 n
loop_
_pd_meas_2theta_scan
_pd_proc_2theta_corrected
_pd_meas_intensity_total
_pd_proc_ls_weight
_pd_proc_intensity_bkg_calc
_pd_calc_intensity_total
3.0094 2.9963 690(170) 0.0 27012. .
3.0244 3.0113 28380(170) 0.0 27003. .
3.0282 3.0151 28620(170) 0.0 27000. .
3.0320 3.0188 28420(170) 0.0 26998. .
3.0357 3.0226 28400(170) 0.0 26995. .
3.0395 3.0264 28500(170) 0.0 26993. .
3.0432 3.0301 28530(170) 0.0 26990. .
3.0470 3.0339 28610(170) 0.0 26988. .
3.0507 3.0376 28570(170) 0.0 26985. .
3.0545 3.0414 28390(170) 0.0 26982. .
3.0582 3.0451 28580(170) 0.0 26980. .
3.0620 3.0489 28750(170) 0.0 26977. .
3.0657 3.0526 28880(180) 0.0 26974. .
3.0695 3.0564 28550(170) 0.0 26971. .
3.0733 3.0601 28390(170) 0.0 26968. .
3.0770 3.0639 28130(170) 0.0 26965. .
3.0808 3.0677 28300(170) 0.0 26962. .
3.0845 3.0714 28180(170) 0.0 26959. .
3.0883 3.0752 28130(170) 0.0 26956. .
3.0920 3.0789 28430(170) 0.0 26953. .
3.0958 3.0827 28150(170) 0.0 26950. .
3.0995 3.0864 28670(170) 0.0 26947. .
3.1033 3.0902 28340(170) 0.0 26943. .
3.1071 3.0939 28370(170) 0.0 26940. .
3.1108 3.0977 28540(170) 0.0 26937. .
3.1146 3.1015 28370(170) 0.0 26933. .
3.1183 3.1052 28280(170) 0.0 26930. .
3.1221 3.1090 28240(170) 0.0 26926. .
3.1258 3.1127 28270(170) 0.0 26923. .
3.1296 3.1165 28190(170) 0.0 26919. .
3.1333 3.1202 28320(170) 0.0 26915. .
3.1371 3.1240 28390(170) 0.0 26912. .
3.1408 3.1277 28820(180) 0.0 26908. .
3.1446 3.1315 28730(170) 0.0 26904. .
3.1484 3.1352 28840(170) 0.0 26900. .
3.1521 3.1390 28380(170) 0.0 26896. .
3.1559 3.1428 28480(170) 0.0 26893. .
3.1596 3.1465 28340(170) 0.0 26889. .
3.1634 3.1503 28500(170) 0.0 26885. .
3.1671 3.1540 28460(170) 0.0 26881. .
3.1709 3.1578 28380(170) 0.0 26877. .
3.1746 3.1615 28840(180) 0.0 26872. .
3.1784 3.1653 28590(170) 0.0 26868. .
3.1822 3.1690 28530(170) 0.0 26864. .
3.1859 3.1728 28760(170) 0.0 26860. .
3.1897 3.1766 28260(170) 0.0 26856. .
3.1934 3.1803 28470(170) 0.0 26851. .
3.1972 3.1841 28280(170) 0.0 26847. .
3.2009 3.1878 28450(170) 0.0 26843. .
3.2047 3.1916 28560(170) 0.0 26838. .
3.2084 3.1953 28590(170) 0.0 26834. .
3.2122 3.1991 28510(180) 0.0 26829. .
3.2160 3.2028 28540(170) 0.0 26825. .
3.2197 3.2066 28790(180) 0.0 26820. .
3.2235 3.2104 28440(170) 0.0 26815. .
3.2272 3.2141 28450(170) 0.0 26811. .
3.2310 3.2179 28530(170) 0.0 26806. .
3.2347 3.2216 28720(180) 0.0 26801. .
3.2385 3.2254 28550(170) 0.0 26797. .
3.2422 3.2291 28390(170) 0.0 26792. .
3.2460 3.2329 28480(170) 0.0 26787. .
3.2498 3.2367 28390(170) 0.0 26782. .
3.2535 3.2404 28650(180) 0.0 26777. .
3.2573 3.2442 28630(180) 0.0 26772. .
3.2610 3.2479 28490(180) 0.0 26767. .
3.2648 3.2517 28580(180) 0.0 26762. .
3.2685 3.2554 28190(170) 0.0 26757. .
3.2723 3.2592 28160(170) 0.0 26752. .
3.2761 3.2629 28550(170) 0.0 26747. .
3.2798 3.2667 28260(170) 0.0 26741. .
3.2836 3.2705 28260(170) 0.0 26736. .
3.2873 3.2742 28350(170) 0.0 26731. .
3.2911 3.2780 28320(170) 0.0 26726. .
3.2948 3.2817 28580(180) 0.0 26720. .
3.2986 3.2855 28310(170) 0.0 26715. .
3.3023 3.2892 28320(170) 0.0 26710. .
3.3061 3.2930 28400(170) 0.0 26704. .
3.3099 3.2967 28090(170) 0.0 26699. .
3.3136 3.3005 28080(170) 0.0 26693. .
3.3174 3.3043 28280(170) 0.0 26688. .
3.3211 3.3080 28090(170) 0.0 26682. .
3.3249 3.3118 28140(170) 0.0 26677. .
3.3286 3.3155 27930(170) 0.0 26671. .
3.3324 3.3193 28220(170) 0.0 26665. .
3.3362 3.3230 28560(180) 0.0 26659. .
3.3399 3.3268 28300(170) 0.0 26654. .
3.3437 3.3306 28090(170) 0.0 26648. .
3.3474 3.3343 28360(170) 0.0 26642. .
3.3512 3.3381 28010(170) 0.0 26636. .
3.3549 3.3418 28290(170) 0.0 26630. .
3.3587 3.3456 27810(170) 0.0 26625. .
3.3624 3.3493 28090(170) 0.0 26619. .
3.3662 3.3531 28140(170) 0.0 26613. .
3.3700 3.3568 28120(170) 0.0 26607. .
3.3737 3.3606 27970(170) 0.0 26601. .
3.3775 3.3644 27730(170) 0.0 26595. .
3.3812 3.3681 28430(170) 0.0 26588. .
3.3850 3.3719 27910(170) 0.0 26582. .
3.3887 3.3756 28230(170) 0.0 26576. .
3.3925 3.3794 28130(180) 0.0 26570. .
3.3963 3.3831 28050(170) 0.0 26564. .
3.4000 3.3869 28390(170) 0.0 26557. .
3.4038 3.3907 27810(170) 0.0 26551. .
3.4075 3.3944 28020(180) 0.0 26545. .
3.4113 3.3982 28020(170) 0.0 26539. .
3.4150 3.4019 28040(170) 0.0 26532. .
3.4188 3.4057 27570(170) 0.0 26526. .
3.4226 3.4094 28140(170) 0.0 26519. .
3.4263 3.4132 28210(180) 0.0 26513. .
3.4301 3.4170 27950(170) 0.0 26506. .
3.4338 3.4207 27850(170) 0.0 26500. .
3.4376 3.4245 27980(170) 0.0 26493. .
3.4413 3.4282 28170(170) 0.0 26487. .
3.4451 3.4320 27950(170) 0.0 26480. .
3.4488 3.4357 27930(180) 0.0 26473. .
3.4526 3.4395 27600(170) 0.0 26467. .
3.4564 3.4433 28220(170) 0.0 26460. .
3.4601 3.4470 27620(170) 0.0 26453. .
3.4639 3.4508 27700(170) 0.0 26447. .
3.4676 3.4545 27680(170) 0.0 26440. .
3.4714 3.4583 27560(170) 0.0 26433. .
3.4751 3.4620 27620(170) 0.0 26426. .
3.4789 3.4658 27550(170) 0.0 26419. .
3.4827 3.4696 27910(180) 0.0 26412. .
3.4864 3.4733 27580(170) 0.0 26405. .
3.4902 3.4771 27420(170) 0.0 26399. .
3.4939 3.4808 27720(170) 0.0 26392. .
3.4977 3.4846 27210(170) 0.0 26385. .
3.5014 3.4883 27520(170) 0.0 26378. .
3.5052 3.4921 27700(170) 0.0 26370. .
3.5090 3.4958 27690(170) 0.0 26363. .
3.5127 3.4996 27310(170) 0.0 26356. .
3.5165 3.5034 27920(170) 0.0 26349. .
3.5202 3.5071 27400(170) 0.0 26342. .
3.5240 3.5109 27430(170) 0.0 26335. .
3.5277 3.5146 27650(170) 0.0 26328. .
3.5315 3.5184 27330(170) 0.0 26320. .
3.5353 3.5221 27680(170) 0.0 26313. .
3.5390 3.5259 27860(170) 0.0 26306. .
3.5428 3.5297 27360(170) 0.0 26298. .
3.5465 3.5334 27400(170) 0.0 26291. .
3.5503 3.5372 27500(170) 0.0 26284. .
3.5540 3.5409 27580(170) 0.0 26276. .
3.5578 3.5447 27490(170) 0.0 26269. .
3.5616 3.5485 27290(170) 0.0 26262. .
3.5653 3.5522 27410(170) 0.0 26254. .
3.5691 3.5560 27190(170) 0.0 26247. .
3.5728 3.5597 27460(170) 0.0 26239. .
3.5766 3.5635 27420(170) 0.0 26232. .
3.5803 3.5672 27570(170) 0.0 26224. .
3.5841 3.5710 27350(170) 0.0 26216. .
3.5879 3.5748 27170(170) 0.0 26209. .
3.5916 3.5785 27030(170) 0.0 26201. .
3.5954 3.5823 27510(170) 0.0 26193. .
3.5991 3.5860 27320(170) 0.0 26186. .
3.6029 3.5898 27300(170) 0.0 26178. .
3.6066 3.5935 27270(170) 0.0 26170. .
3.6104 3.5973 27360(170) 0.0 26163. .
3.6142 3.6011 27490(170) 0.0 26155. .
3.6179 3.6048 26990(160) 0.0 26147. .
3.6217 3.6086 27280(170) 0.0 26139. .
3.6254 3.6123 27340(170) 0.0 26131. .
3.6292 3.6161 27190(170) 0.0 26124. .
3.6330 3.6198 27390(170) 0.0 26116. .
3.6367 3.6236 27340(170) 0.0 26108. .
3.6405 3.6274 27410(170) 0.0 26100. .
3.6442 3.6311 27620(170) 0.0 26092. .
3.6480 3.6349 27390(170) 0.0 26084. .
3.6517 3.6386 27420(170) 0.0 26076. .
3.6555 3.6424 27090(170) 0.0 26068. .
3.6593 3.6461 27050(170) 0.0 26060. .
3.6630 3.6499 27300(170) 0.0 26052. .
3.6668 3.6537 27180(170) 0.0 26044. .
3.6705 3.6574 27310(170) 0.0 26036. .
3.6743 3.6612 27330(170) 0.0 26028. .
3.6780 3.6649 26760(160) 0.0 26019. .
3.6818 3.6687 27240(170) 0.0 26011. .
3.6856 3.6725 27280(170) 0.0 26003. .
3.6893 3.6762 27120(170) 0.0 25995. .
3.6931 3.6800 27310(170) 0.0 25987. .
3.6968 3.6837 27510(170) 0.0 25978. .
3.7006 3.6875 27290(160) 0.0 25970. .
3.7043 3.6912 27290(170) 0.0 25962. .
3.7081 3.6950 27370(170) 0.0 25954. .
3.7119 3.6988 27140(170) 0.0 25945. .
3.7156 3.7025 27150(170) 0.0 25937. .
3.7194 3.7063 27600(170) 0.0 25929. .
3.7231 3.7100 27020(170) 0.0 25920. .
3.7269 3.7138 26990(160) 0.0 25912. .
3.7307 3.7175 27170(170) 0.0 25903. .
3.7344 3.7213 27100(170) 0.0 25895. .
3.7382 3.7251 26930(170) 0.0 25886. .
3.7419 3.7288 27440(170) 0.0 25878. .
3.7457 3.7326 27170(170) 0.0 25870. .
3.7494 3.7363 27020(170) 0.0 25861. .
3.7532 3.7401 26720(160) 0.0 25852. .
3.7570 3.7439 26800(170) 0.0 25844. .
3.7607 3.7476 26970(170) 0.0 25835. .
3.7645 3.7514 27170(170) 0.0 25827. .
3.7682 3.7551 27000(170) 0.0 25818. .
3.7720 3.7589 26900(160) 0.0 25810. .
3.7758 3.7626 26640(170) 0.0 25801. .
3.7795 3.7664 26900(170) 0.0 25792. .
3.7833 3.7702 26800(170) 0.0 25784. .
3.7870 3.7739 27030(160) 0.0 25775. .
3.7908 3.7777 26730(170) 0.0 25766. .
3.7945 3.7814 27170(170) 0.0 25757. .
3.7983 3.7852 26750(160) 0.0 25749. .
3.8021 3.7889 26940(170) 0.0 25740. .
3.8058 3.7927 26740(170) 0.0 25731. .
3.8096 3.7965 26660(160) 0.0 25722. .
3.8133 3.8002 26620(170) 0.0 25714. .
3.8171 3.8040 26630(170) 0.0 25705. .
3.8209 3.8077 26590(160) 0.0 25696. .
3.8246 3.8115 26560(170) 0.0 25687. .
3.8284 3.8153 26480(170) 0.0 25678. .
3.8321 3.8190 26410(160) 0.0 25669. .
3.8359 3.8228 26060(160) 0.0 25660. .
3.8396 3.8265 26550(170) 0.0 25652. .
3.8434 3.8303 26170(160) 0.0 25643. .
3.8472 3.8341 26420(160) 0.0 25634. .
3.8509 3.8378 26460(170) 0.0 25625. .
3.8547 3.8416 26400(170) 0.0 25616. .
3.8584 3.8453 26250(160) 0.0 25607. .
3.8622 3.8491 26600(170) 0.0 25598. .
3.8660 3.8528 26280(170) 0.0 25589. .
3.8697 3.8566 25940(160) 0.0 25580. .
3.8735 3.8604 26020(160) 0.0 25571. .
3.8772 3.8641 25800(160) 0.0 25562. .
3.8810 3.8679 25800(160) 0.0 25552. .
3.8847 3.8716 26090(160) 0.0 25543. .
3.8885 3.8754 26210(160) 0.0 25534. .
3.8923 3.8792 26090(160) 0.0 25525. .
3.8960 3.8829 25330(160) 0.0 25516. .
3.8998 3.8867 26410(170) 0.0 25507. .
3.9035 3.8904 26010(160) 0.0 25498. .
3.9073 3.8942 26100(160) 0.0 25489. .
3.9111 3.8979 25570(160) 0.0 25479. .
3.9148 3.9017 25960(160) 0.0 25470. .
3.9186 3.9055 25830(160) 0.0 25461. .
3.9223 3.9092 25600(160) 0.0 25452. .
3.9261 3.9130 25760(160) 0.0 25442. .
3.9298 3.9167 26260(160) 0.0 25433. .
3.9336 3.9205 25700(160) 0.0 25424. .
3.9374 3.9243 25760(160) 0.0 25415. .
3.9411 3.9280 25670(160) 0.0 25405. .
3.9449 3.9318 26010(160) 0.0 25396. .
3.9486 3.9355 25870(160) 0.0 25387. .
3.9524 3.9393 25590(160) 0.0 25377. .
3.9562 3.9431 25540(160) 0.0 25368. .
3.9599 3.9468 25480(160) 0.0 25359. .
3.9637 3.9506 25810(170) 0.0 25349. .
3.9674 3.9543 26110(170) 0.0 25340. .
3.9712 3.9581 25560(160) 0.0 25330. .
3.9750 3.9618 26040(160) 0.0 25321. .
3.9787 3.9656 25750(160) 0.0 25312. .
3.9825 3.9694 25960(160) 0.0 25302. .
3.9862 3.9731 25600(160) 0.0 25293. .
3.9900 3.9769 25550(160) 0.0 25283. .
3.9937 3.9806 25520(160) 0.0 25274. .
3.9975 3.9844 25660(160) 0.0 25264. .
4.0013 3.9882 25510(160) 0.0000389 25255. 25255.
4.0050 3.9919 25590(160) 0.0000394 25245. 25245.
4.0088 3.9957 25450(160) 0.0000394 25236. 25236.
4.0125 3.9994 25550(160) 0.0000381 25226. 25226.
4.0163 4.0032 25340(160) 0.0000390 25217. 25217.
4.0201 4.0070 25180(160) 0.0000386 25207. 25207.
4.0238 4.0107 25470(160) 0.0000382 25197. 25197.
4.0276 4.0145 25660(160) 0.0000382 25188. 25188.
4.0313 4.0182 25470(160) 0.0000385 25178. 25178.
4.0351 4.0220 25530(160) 0.0000381 25169. 25169.
4.0389 4.0257 25090(160) 0.0000396 25159. 25159.
4.0426 4.0295 25380(160) 0.0000394 25149. 25149.
4.0464 4.0333 25590(160) 0.0000374 25140. 25140.
4.0501 4.0370 25590(160) 0.0000390 25130. 25130.
4.0539 4.0408 25640(160) 0.0000387 25121. 25121.
4.0577 4.0445 25670(160) 0.0000384 25111. 25111.
4.0614 4.0483 25140(160) 0.0000390 25101. 25101.
4.0652 4.0521 25550(160) 0.0000381 25092. 25092.
4.0689 4.0558 25100(160) 0.0000386 25082. 25082.
4.0727 4.0596 25000(160) 0.0000404 25072. 25072.
4.0764 4.0633 24970(160) 0.0000392 25062. 25062.
4.0802 4.0671 24990(160) 0.0000403 25053. 25053.
4.0840 4.0709 25110(160) 0.0000388 25043. 25043.
4.0877 4.0746 25400(160) 0.0000395 25033. 25033.
4.0915 4.0784 25160(160) 0.0000392 25023. 25023.
4.0952 4.0821 25460(160) 0.0000387 25014. 25014.
4.0990 4.0859 25270(160) 0.0000376 25004. 25004.
4.1028 4.0897 25360(160) 0.0000389 24994. 24994.
4.1065 4.0934 25160(160) 0.0000389 24984. 24984.
4.1103 4.0972 25070(160) 0.0000390 24975. 24975.
4.1140 4.1009 25210(160) 0.0000381 24965. 24965.
4.1178 4.1047 25350(160) 0.0000387 24955. 24955.
4.1216 4.1084 25130(160) 0.0000394 24945. 24945.
4.1253 4.1122 25180(160) 0.0000383 24935. 24935.
4.1291 4.1160 25200(160) 0.0000383 24925. 24925.
4.1328 4.1197 24920(160) 0.0000392 24916. 24916.
4.1366 4.1235 25100(160) 0.0000385 24906. 24906.
4.1404 4.1272 25100(160) 0.0000383 24896. 24896.
4.1441 4.1310 25200(160) 0.0000391 24886. 24886.
4.1479 4.1348 24850(160) 0.0000392 24876. 24876.
4.1516 4.1385 25220(160) 0.0000385 24866. 24866.
4.1554 4.1423 25180(160) 0.0000392 24856. 24856.
4.1592 4.1460 24820(160) 0.0000393 24846. 24846.
4.1629 4.1498 24980(160) 0.0000389 24836. 24836.
4.1667 4.1536 24770(160) 0.0000390 24827. 24827.
4.1704 4.1573 24900(160) 0.0000393 24817. 24817.
4.1742 4.1611 24760(160) 0.0000398 24807. 24807.
4.1780 4.1648 24930(160) 0.0000389 24797. 24797.
4.1817 4.1686 24630(160) 0.0000408 24787. 24787.
4.1855 4.1724 25160(160) 0.0000384 24777. 24777.
4.1892 4.1761 25010(160) 0.0000395 24767. 24767.
4.1930 4.1799 24940(160) 0.0000399 24757. 24757.
4.1967 4.1836 24810(160) 0.0000390 24747. 24747.
4.2005 4.1874 24770(160) 0.0000401 24737. 24737.
4.2043 4.1912 24770(160) 0.0000394 24727. 24727.
4.2080 4.1949 24950(160) 0.0000392 24717. 24717.
4.2118 4.1987 24530(160) 0.0000389 24707. 24707.
4.2155 4.2024 24770(160) 0.0000397 24697. 24697.
4.2193 4.2062 24830(160) 0.0000392 24687. 24687.
4.2231 4.2100 24950(160) 0.0000395 24677. 24677.
4.2268 4.2137 24660(160) 0.0000410 24667. 24667.
4.2306 4.2175 24790(160) 0.0000391 24657. 24657.
4.2343 4.2212 24720(160) 0.0000396 24647. 24647.
4.2381 4.2250 25080(160) 0.0000392 24637. 24637.
4.2419 4.2288 24600(160) 0.0000394 24626. 24626.
4.2456 4.2325 24480(160) 0.0000403 24616. 24616.
4.2494 4.2363 24460(160) 0.0000399 24606. 24606.
4.2531 4.2400 24940(160) 0.0000394 24596. 24596.
4.2569 4.2438 24960(160) 0.0000395 24586. 24586.
4.2607 4.2476 24650(160) 0.0000401 24576. 24576.
4.2644 4.2513 24870(160) 0.0000382 24566. 24566.
4.2682 4.2551 24850(160) 0.0000393 24556. 24556.
4.2719 4.2588 24680(160) 0.0000394 24546. 24546.
4.2757 4.2626 24610(160) 0.0000407 24536. 24536.
4.2795 4.2664 24570(160) 0.0000396 24525. 24525.
4.2832 4.2701 24730(160) 0.0000391 24515. 24515.
4.2870 4.2739 24600(160) 0.0000390 24505. 24505.
4.2907 4.2776 24740(160) 0.0000393 24495. 24495.
4.2945 4.2814 24620(160) 0.0000396 24485. 24485.
4.2983 4.2851 24520(160) 0.0000390 24475. 24475.
4.3020 4.2889 24360(160) 0.0000402 24465. 24465.
4.3058 4.2927 24720(160) 0.0000396 24454. 24454.
4.3095 4.2964 24480(160) 0.0000403 24444. 24444.
4.3133 4.3002 24720(160) 0.0000391 24434. 24434.
4.3170 4.3039 24280(160) 0.0000398 24424. 24424.
4.3208 4.3077 24610(160) 0.0000397 24414. 24414.
4.3246 4.3115 24390(160) 0.0000403 24403. 24403.
4.3283 4.3152 24560(160) 0.0000394 24393. 24393.
4.3321 4.3190 24290(160) 0.0000399 24383. 24383.
4.3359 4.3227 24570(160) 0.0000389 24373. 24373.
4.3396 4.3265 24450(160) 0.0000396 24363. 24363.
4.3434 4.3303 24220(160) 0.0000406 24352. 24352.
4.3471 4.3340 24380(160) 0.0000402 24342. 24342.
4.3509 4.3378 24740(160) 0.0000391 24332. 24332.
4.3547 4.3415 24160(160) 0.0000411 24322. 24322.
4.3584 4.3453 24090(160) 0.0000408 24312. 24312.
4.3622 4.3491 24420(160) 0.0000386 24301. 24301.
4.3659 4.3528 24660(160) 0.0000379 24291. 24291.
4.3697 4.3566 24110(160) 0.0000402 24281. 24281.
4.3735 4.3603 24570(160) 0.0000390 24271. 24271.
4.3772 4.3641 24380(160) 0.0000397 24260. 24260.
4.3810 4.3679 24490(160) 0.0000398 24250. 24250.
4.3847 4.3716 24430(160) 0.0000404 24240. 24240.
4.3885 4.3754 24670(160) 0.0000381 24229. 24229.
4.3923 4.3791 24300(160) 0.0000392 24219. 24219.
4.3960 4.3829 24100(160) 0.0000403 24209. 24209.
4.3998 4.3867 23990(160) 0.0000399 24199. 24199.
4.4035 4.3904 24530(160) 0.0000389 24188. 24188.
4.4073 4.3942 24200(160) 0.0000405 24178. 24178.
4.4111 4.3979 24160(160) 0.0000413 24168. 24168.
4.4148 4.4017 24050(160) 0.0000406 24157. 24157.
4.4186 4.4055 24450(160) 0.0000389 24147. 24147.
4.4223 4.4092 24290(160) 0.0000397 24137. 24137.
4.4261 4.4130 24070(160) 0.0000407 24127. 24127.
4.4299 4.4167 24270(160) 0.0000402 24116. 24116.
4.4336 4.4205 24390(160) 0.0000401 24106. 24106.
4.4374 4.4243 24020(160) 0.0000401 24096. 24096.
4.4411 4.4280 24040(160) 0.0000408 24085. 24085.
4.4449 4.4318 23930(160) 0.0000395 24075. 24075.
4.4487 4.4355 24480(150) 0.0000427 24065. 24065.
4.4524 4.4393 23890(150) 0.0000437 24054. 24054.
4.4562 4.4431 24100(150) 0.0000425 24044. 24044.
4.4599 4.4468 23940(150) 0.0000429 24034. 24034.
4.4637 4.4506 24110(150) 0.0000426 24023. 24023.
4.4675 4.4544 24100(150) 0.0000428 24013. 24013.
4.4712 4.4581 24060(150) 0.0000435 24003. 24003.
4.4750 4.4619 23790(150) 0.0000437 23992. 23992.
4.4787 4.4656 23700(150) 0.0000439 23982. 23982.
4.4825 4.4694 23660(150) 0.0000439 23972. 23972.
4.4863 4.4732 23790(150) 0.0000429 23961. 23961.
4.4900 4.4769 23500(150) 0.0000437 23951. 23951.
4.4938 4.4807 23650(150) 0.0000436 23940. 23940.
4.4975 4.4844 23750(150) 0.0000433 23930. 23930.
4.5013 4.4882 23600(150) 0.0000433 23920. 23920.
4.5051 4.4920 23530(150) 0.0000435 23909. 23909.
4.5088 4.4957 23720(150) 0.0000436 23899. 23899.
4.5126 4.4995 23730(150) 0.0000438 23889. 23889.
4.5163 4.5032 23960(150) 0.0000428 23878. 23878.
4.5201 4.5070 23730(150) 0.0000429 23868. 23868.
4.5239 4.5108 23890(150) 0.0000429 23858. 23858.
4.5276 4.5145 23690(150) 0.0000433 23847. 23847.
4.5314 4.5183 23740(150) 0.0000431 23837. 23837.
4.5351 4.5220 23720(150) 0.0000433 23826. 23826.
4.5389 4.5258 23790(150) 0.0000436 23816. 23816.
4.5427 4.5296 23470(150) 0.0000435 23806. 23806.
4.5464 4.5333 23740(150) 0.0000433 23795. 23795.
4.5502 4.5371 23300(150) 0.0000443 23785. 23785.
4.5539 4.5408 23810(150) 0.0000430 23775. 23775.
4.5577 4.5446 23790(150) 0.0000426 23764. 23764.
4.5615 4.5484 22920(150) 0.0000454 23754. 23754.
4.5652 4.5521 23630(150) 0.0000431 23743. 23743.
4.5690 4.5559 23400(150) 0.0000437 23733. 23733.
4.5727 4.5596 23170(150) 0.0000441 23723. 23723.
4.5765 4.5634 23460(150) 0.0000445 23712. 23712.
4.5803 4.5672 23620(150) 0.0000435 23702. 23702.
4.5840 4.5709 23920(150) 0.0000432 23691. 23691.
4.5878 4.5747 23320(150) 0.0000444 23681. 23681.
4.5916 4.5784 23600(150) 0.0000426 23671. 23671.
4.5953 4.5822 23500(150) 0.0000445 23660. 23660.
4.5991 4.5860 23580(150) 0.0000428 23650. 23650.
4.6028 4.5897 23270(150) 0.0000434 23639. 23639.
4.6066 4.5935 23370(150) 0.0000444 23629. 23629.
4.6104 4.5972 23170(150) 0.0000439 23619. 23619.
4.6141 4.6010 23380(150) 0.0000437 23608. 23608.
4.6179 4.6048 23460(150) 0.0000442 23598. 23598.
4.6216 4.6085 23440(150) 0.0000441 23587. 23587.
4.6254 4.6123 23500(150) 0.0000432 23577. 23577.
4.6292 4.6160 23440(150) 0.0000439 23566. 23566.
4.6329 4.6198 23420(150) 0.0000441 23556. 23556.
4.6367 4.6236 23530(150) 0.0000442 23546. 23546.
4.6404 4.6273 22930(150) 0.0000442 23535. 23535.
4.6442 4.6311 23570(150) 0.0000436 23525. 23525.
4.6480 4.6348 23790(150) 0.0000428 23514. 23514.
4.6517 4.6386 23420(150) 0.0000434 23504. 23504.
4.6555 4.6424 23750(150) 0.0000427 23494. 23494.
4.6592 4.6461 23360(150) 0.0000439 23483. 23483.
4.6630 4.6499 23390(150) 0.0000434 23473. 23473.
4.6668 4.6537 23400(150) 0.0000433 23462. 23462.
4.6705 4.6574 23170(150) 0.0000437 23452. 23452.
4.6743 4.6612 23530(150) 0.0000431 23442. 23442.
4.6780 4.6649 23330(150) 0.0000444 23431. 23431.
4.6818 4.6687 23310(150) 0.0000438 23421. 23421.
4.6856 4.6725 23230(150) 0.0000432 23410. 23410.
4.6893 4.6762 23280(150) 0.0000426 23400. 23400.
4.6931 4.6800 22920(150) 0.0000447 23389. 23389.
4.6968 4.6837 23170(150) 0.0000441 23379. 23379.
4.7006 4.6875 23210(150) 0.0000438 23369. 23369.
4.7044 4.6913 23490(150) 0.0000428 23358. 23358.
4.7081 4.6950 23090(150) 0.0000442 23348. 23348.
4.7119 4.6988 23410(150) 0.0000436 23337. 23337.
4.7157 4.7025 23230(150) 0.0000438 23327. 23327.
4.7194 4.7063 23460(150) 0.0000445 23317. 23317.
4.7232 4.7101 22860(150) 0.0000442 23306. 23306.
4.7269 4.7138 23260(150) 0.0000441 23296. 23296.
4.7307 4.7176 23200(150) 0.0000440 23285. 23285.
4.7345 4.7213 23460(150) 0.0000436 23275. 23275.
4.7382 4.7251 23220(150) 0.0000444 23264. 23264.
4.7420 4.7289 23200(150) 0.0000433 23254. 23254.
4.7457 4.7326 23070(150) 0.0000439 23244. 23244.
4.7495 4.7364 23160(150) 0.0000439 23233. 23233.
4.7533 4.7401 23070(150) 0.0000441 23223. 23223.
4.7570 4.7439 22970(150) 0.0000451 23212. 23212.
4.7608 4.7477 22570(150) 0.0000459 23202. 23202.
4.7645 4.7514 23160(150) 0.0000437 23192. 23192.
4.7683 4.7552 23120(150) 0.0000438 23181. 23181.
4.7721 4.7590 22900(150) 0.0000445 23171. 23171.
4.7758 4.7627 23210(150) 0.0000435 23160. 23160.
4.7796 4.7665 23270(150) 0.0000429 23150. 23150.
4.7833 4.7702 22810(150) 0.0000446 23140. 23140.
4.7871 4.7740 22750(150) 0.0000452 23129. 23129.
4.7909 4.7778 22790(150) 0.0000443 23119. 23119.
4.7946 4.7815 23240(150) 0.0000433 23108. 23108.
4.7984 4.7853 22680(150) 0.0000450 23098. 23098.
4.8021 4.7890 23050(150) 0.0000445 23088. 23088.
4.8059 4.7928 22790(150) 0.0000444 23077. 23077.
4.8097 4.7966 23330(150) 0.0000436 23067. 23067.
4.8134 4.8003 22760(150) 0.0000454 23057. 23057.
4.8172 4.8041 22880(150) 0.0000448 23046. 23046.
4.8210 4.8078 22590(150) 0.0000447 23036. 23036.
4.8247 4.8116 23070(150) 0.0000441 23025. 23025.
4.8285 4.8154 22830(150) 0.0000442 23015. 23015.
4.8322 4.8191 23130(150) 0.0000442 23005. 23005.
4.8360 4.8229 22850(150) 0.0000443 22994. 22994.
4.8398 4.8266 23040(150) 0.0000444 22984. 22984.
4.8435 4.8304 23090(150) 0.0000439 22973. 22973.
4.8473 4.8342 23140(150) 0.0000438 22963. 22963.
4.8510 4.8379 22630(150) 0.0000442 22953. 22953.
4.8548 4.8417 22770(150) 0.0000445 22942. 22942.
4.8586 4.8455 22820(150) 0.0000444 22932. 22932.
4.8623 4.8492 22840(150) 0.0000437 22922. 22922.
4.8661 4.8530 22920(150) 0.0000434 22911. 22911.
4.8698 4.8567 22740(150) 0.0000455 22901. 22901.
4.8736 4.8605 22650(150) 0.0000452 22890. 22890.
4.8774 4.8643 22710(150) 0.0000455 22880. 22880.
4.8811 4.8680 22810(150) 0.0000443 22870. 22870.
4.8849 4.8718 22870(150) 0.0000452 22859. 22859.
4.8886 4.8755 22770(150) 0.0000449 22849. 22849.
4.8924 4.8793 22890(150) 0.0000448 22839. 22839.
4.8962 4.8831 22600(150) 0.0000456 22828. 22828.
4.8999 4.8868 22690(150) 0.0000447 22818. 22818.
4.9037 4.8906 22600(150) 0.0000451 22808. 22808.
4.9075 4.8943 22850(150) 0.0000442 22797. 22797.
4.9112 4.8981 22680(150) 0.0000448 22787. 22787.
4.9150 4.9019 23110(150) 0.0000432 22777. 22777.
4.9187 4.9056 22430(150) 0.0000461 22766. 22766.
4.9225 4.9094 22870(150) 0.0000443 22756. 22756.
4.9263 4.9131 22990(150) 0.0000433 22746. 22746.
4.9300 4.9169 22910(150) 0.0000445 22735. 22735.
4.9338 4.9207 22670(150) 0.0000454 22725. 22725.
4.9375 4.9244 22670(150) 0.0000450 22715. 22715.
4.9413 4.9282 22390(150) 0.0000456 22704. 22704.
4.9451 4.9320 22700(150) 0.0000456 22694. 22694.
4.9488 4.9357 22410(150) 0.0000461 22684. 22684.
4.9526 4.9395 22490(150) 0.0000457 22673. 22673.
4.9563 4.9432 22370(150) 0.0000468 22663. 22663.
4.9601 4.9470 22620(150) 0.0000462 22653. 22653.
4.9639 4.9508 22510(150) 0.0000450 22642. 22642.
4.9676 4.9545 22710(150) 0.0000447 22632. 22632.
4.9714 4.9583 22330(150) 0.0000466 22622. 22622.
4.9751 4.9620 22350(150) 0.0000455 22612. 22612.
4.9789 4.9658 22410(150) 0.0000451 22601. 22601.
4.9827 4.9696 22640(150) 0.0000453 22591. 22591.
4.9864 4.9733 22530(150) 0.0000461 22581. 22581.
4.9902 4.9771 22310(150) 0.0000459 22570. 22570.
4.9940 4.9808 22290(150) 0.0000457 22560. 22560.
4.9977 4.9846 22650(150) 0.0000452 22550. 22550.
5.0015 4.9884 22230(150) 0.0000461 22539. 22539.
5.0052 4.9921 22450(150) 0.0000452 22529. 22529.
5.0090 4.9959 22150(150) 0.0000471 22519. 22519.
5.0128 4.9996 22550(150) 0.0000458 22509. 22509.
5.0165 5.0034 22530(150) 0.0000451 22498. 22498.
5.0203 5.0072 22530(150) 0.0000461 22488. 22488.
5.0240 5.0109 22520(150) 0.0000459 22478. 22478.
5.0278 5.0147 22230(150) 0.0000470 22468. 22468.
5.0316 5.0185 22050(150) 0.0000466 22457. 22457.
5.0353 5.0222 22500(150) 0.0000470 22447. 22447.
5.0391 5.0260 22220(150) 0.0000456 22437. 22437.
5.0428 5.0297 22360(150) 0.0000458 22427. 22427.
5.0466 5.0335 22210(150) 0.0000468 22416. 22416.
5.0504 5.0373 22340(150) 0.0000456 22406. 22406.
5.0541 5.0410 22100(150) 0.0000459 22396. 22396.
5.0579 5.0448 22400(150) 0.0000460 22386. 22386.
5.0617 5.0485 22280(150) 0.0000462 22375. 22375.
5.0654 5.0523 22300(150) 0.0000454 22365. 22365.
5.0692 5.0561 22260(150) 0.0000456 22355. 22355.
5.0729 5.0598 22560(150) 0.0000448 22345. 22345.
5.0767 5.0636 22060(150) 0.0000475 22335. 22335.
5.0805 5.0673 22340(150) 0.0000465 22324. 22324.
5.0842 5.0711 22390(150) 0.0000457 22314. 22314.
5.0880 5.0749 22390(150) 0.0000456 22304. 22304.
5.0917 5.0786 21940(150) 0.0000470 22294. 22294.
5.0955 5.0824 22180(150) 0.0000458 22284. 22284.
5.0993 5.0862 22130(150) 0.0000455 22273. 22273.
5.1030 5.0899 22320(150) 0.0000462 22263. 22263.
5.1068 5.0937 22060(150) 0.0000460 22253. 22253.
5.1105 5.0974 22230(150) 0.0000470 22243. 22243.
5.1143 5.1012 22420(150) 0.0000454 22233. 22233.
5.1181 5.1050 21940(150) 0.0000475 22222. 22222.
5.1218 5.1087 22240(150) 0.0000452 22212. 22212.
5.1256 5.1125 22360(150) 0.0000463 22202. 22202.
5.1294 5.1162 22100(150) 0.0000456 22192. 22192.
5.1331 5.1200 22100(150) 0.0000465 22182. 22182.
5.1369 5.1238 22080(150) 0.0000457 22172. 22172.
5.1406 5.1275 22150(150) 0.0000464 22161. 22161.
5.1444 5.1313 21680(150) 0.0000478 22151. 22151.
5.1482 5.1350 22180(150) 0.0000459 22141. 22141.
5.1519 5.1388 22040(150) 0.0000464 22131. 22131.
5.1557 5.1426 21920(150) 0.0000475 22121. 22121.
5.1594 5.1463 21960(150) 0.0000474 22111. 22111.
5.1632 5.1501 22060(150) 0.0000467 22101. 22101.
5.1670 5.1539 22180(150) 0.0000467 22090. 22090.
5.1707 5.1576 22170(150) 0.0000466 22080. 22080.
5.1745 5.1614 22100(150) 0.0000457 22070. 22070.
5.1782 5.1651 21880(150) 0.0000473 22060. 22060.
5.1820 5.1689 21850(150) 0.0000471 22050. 22050.
5.1858 5.1727 22090(150) 0.0000465 22040. 22040.
5.1895 5.1764 21890(150) 0.0000476 22030. 22030.
5.1933 5.1802 22270(150) 0.0000463 22020. 22020.
5.1971 5.1839 21740(140) 0.0000483 22010. 22010.
5.2008 5.1877 21820(150) 0.0000473 22000. 22000.
5.2046 5.1915 21850(150) 0.0000474 21989. 21989.
5.2083 5.1952 21990(150) 0.0000468 21979. 21979.
5.2121 5.1990 22050(150) 0.0000456 21969. 21969.
5.2159 5.2028 21840(150) 0.0000473 21959. 21959.
5.2196 5.2065 21740(150) 0.0000478 21949. 21949.
5.2234 5.2103 21880(150) 0.0000470 21939. 21939.
5.2271 5.2140 21840(150) 0.0000477 21929. 21929.
5.2309 5.2178 21670(140) 0.0000479 21919. 21919.
5.2347 5.2216 21760(150) 0.0000477 21909. 21909.
5.2384 5.2253 22030(150) 0.0000471 21899. 21899.
5.2422 5.2291 21740(150) 0.0000476 21889. 21889.
5.2460 5.2328 21720(140) 0.0000483 21879. 21879.
5.2497 5.2366 21760(140) 0.0000479 21869. 21869.
5.2535 5.2404 22040(150) 0.0000461 21859. 21859.
5.2572 5.2441 21490(140) 0.0000487 21849. 21849.
5.2610 5.2479 21840(150) 0.0000470 21839. 21839.
5.2648 5.2516 21640(150) 0.0000472 21829. 21829.
5.2685 5.2554 22010(150) 0.0000462 21819. 21819.
5.2723 5.2592 21490(140) 0.0000490 21809. 21809.
5.2760 5.2629 21980(150) 0.0000461 21799. 21799.
5.2798 5.2667 21480(150) 0.0000478 21789. 21789.
5.2836 5.2705 21600(150) 0.0000479 21779. 21779.
5.2873 5.2742 21770(150) 0.0000472 21769. 21769.
5.2911 5.2780 22000(150) 0.0000474 21759. 21759.
5.2948 5.2817 21480(140) 0.0000484 21749. 21749.
5.2986 5.2855 21950(150) 0.0000465 21739. 21739.
5.3024 5.2893 21790(150) 0.0000467 21729. 21729.
5.3061 5.2930 22070(150) 0.0000469 21719. 21719.
5.3099 5.2968 21490(140) 0.0000479 21709. 21709.
5.3137 5.3005 21570(140) 0.0000489 21699. 21699.
5.3174 5.3043 21650(150) 0.0000470 21689. 21689.
5.3212 5.3081 21710(150) 0.0000470 21679. 21679.
5.3249 5.3118 21610(150) 0.0000476 21669. 21669.
5.3287 5.3156 21760(150) 0.0000476 21659. 21659.
5.3325 5.3193 21570(140) 0.0000480 21649. 21649.
5.3362 5.3231 21410(140) 0.0000496 21639. 21639.
5.3400 5.3269 21150(140) 0.0000492 21629. 21629.
5.3437 5.3306 21830(150) 0.0000467 21619. 21619.
5.3475 5.3344 21340(140) 0.0000488 21609. 21609.
5.3513 5.3382 21490(140) 0.0000479 21600. 21600.
5.3550 5.3419 21630(140) 0.0000480 21590. 21590.
5.3588 5.3457 21600(140) 0.0000488 21580. 21580.
5.3625 5.3494 21270(140) 0.0000487 21570. 21570.
5.3663 5.3532 21770(150) 0.0000462 21560. 21560.
5.3701 5.3570 21500(140) 0.0000490 21550. 21550.
5.3738 5.3607 21610(150) 0.0000477 21540. 21540.
5.3776 5.3645 21530(140) 0.0000494 21530. 21530.
5.3814 5.3682 21390(140) 0.0000483 21520. 21520.
5.3851 5.3720 21260(140) 0.0000479 21511. 21511.
5.3889 5.3758 21290(140) 0.0000485 21501. 21501.
5.3926 5.3795 21620(150) 0.0000475 21491. 21491.
5.3964 5.3833 21610(150) 0.0000475 21481. 21481.
5.4002 5.3871 21370(150) 0.0000476 21471. 21471.
5.4039 5.3908 21580(150) 0.0000472 21461. 21461.
5.4077 5.3946 21510(140) 0.0000480 21452. 21452.
5.4114 5.3983 21530(150) 0.0000454 21442. 21442.
5.4152 5.4021 21310(150) 0.0000459 21432. 21432.
5.4190 5.4059 21830(150) 0.0000454 21422. 21422.
5.4227 5.4096 21260(150) 0.0000464 21412. 21412.
5.4265 5.4134 21360(150) 0.0000469 21402. 21402.
5.4303 5.4171 21250(150) 0.0000455 21393. 21393.
5.4340 5.4209 21260(150) 0.0000462 21383. 21383.
5.4378 5.4247 21320(150) 0.0000456 21373. 21373.
5.4415 5.4284 21440(150) 0.0000461 21363. 21363.
5.4453 5.4322 21360(150) 0.0000460 21353. 21353.
5.4491 5.4359 21640(150) 0.0000458 21344. 21344.
5.4528 5.4397 21040(150) 0.0000472 21334. 21334.
5.4566 5.4435 21270(150) 0.0000465 21324. 21324.
5.4603 5.4472 21200(150) 0.0000458 21314. 21314.
5.4641 5.4510 20850(150) 0.0000471 21305. 21305.
5.4679 5.4548 21190(150) 0.0000452 21295. 21295.
5.4716 5.4585 21190(150) 0.0000469 21285. 21285.
5.4754 5.4623 21080(150) 0.0000462 21275. 21275.
5.4791 5.4660 21140(150) 0.0000465 21266. 21266.
5.4829 5.4698 20870(150) 0.0000471 21256. 21256.
5.4867 5.4736 21520(150) 0.0000465 21246. 21246.
5.4904 5.4773 21020(150) 0.0000470 21236. 21236.
5.4942 5.4811 20950(140) 0.0000479 21227. 21227.
5.4980 5.4848 20890(150) 0.0000471 21217. 21217.
5.5017 5.4886 21070(150) 0.0000467 21207. 21207.
5.5055 5.4924 20870(150) 0.0000465 21198. 21198.
5.5092 5.4961 21020(150) 0.0000467 21188. 21188.
5.5130 5.4999 20800(150) 0.0000476 21178. 21178.
5.5168 5.5036 21480(150) 0.0000446 21169. 21169.
5.5205 5.5074 20730(150) 0.0000471 21159. 21159.
5.5243 5.5112 21180(150) 0.0000464 21149. 21149.
5.5280 5.5149 21060(150) 0.0000464 21140. 21140.
5.5318 5.5187 21270(150) 0.0000472 21130. 21130.
5.5356 5.5225 20920(150) 0.0000473 21120. 21120.
5.5393 5.5262 21180(150) 0.0000470 21111. 21111.
5.5431 5.5300 21010(150) 0.0000470 21101. 21101.
5.5468 5.5337 21260(150) 0.0000464 21091. 21091.
5.5506 5.5375 20760(140) 0.0000480 21082. 21082.
5.5544 5.5413 21030(150) 0.0000473 21072. 21072.
5.5581 5.5450 20940(150) 0.0000460 21062. 21062.
5.5619 5.5488 20950(150) 0.0000474 21053. 21053.
5.5657 5.5525 20680(150) 0.0000470 21043. 21043.
5.5694 5.5563 21200(150) 0.0000464 21034. 21034.
5.5732 5.5601 21020(150) 0.0000461 21024. 21024.
5.5769 5.5638 21060(150) 0.0000472 21014. 21014.
5.5807 5.5676 20620(150) 0.0000477 21005. 21005.
5.5845 5.5714 21000(150) 0.0000463 20995. 20995.
5.5882 5.5751 21000(150) 0.0000463 20986. 20986.
5.5920 5.5789 21020(150) 0.0000462 20976. 20976.
5.5957 5.5826 20830(150) 0.0000478 20967. 20967.
5.5995 5.5864 20860(150) 0.0000474 20957. 20957.
5.6033 5.5902 20740(150) 0.0000471 20948. 20948.
5.6070 5.5939 20930(150) 0.0000473 20938. 20938.
5.6108 5.5977 20650(140) 0.0000483 20928. 20928.
5.6145 5.6014 20870(150) 0.0000465 20919. 20919.
5.6183 5.6052 20760(150) 0.0000475 20909. 20909.
5.6221 5.6090 20670(150) 0.0000478 20900. 20900.
5.6258 5.6127 20860(150) 0.0000466 20890. 20890.
5.6296 5.6165 20900(150) 0.0000467 20881. 20881.
5.6334 5.6202 20780(150) 0.0000467 20871. 20871.
5.6371 5.6240 21050(150) 0.0000461 20862. 20862.
5.6409 5.6278 20570(150) 0.0000473 20852. 20852.
5.6446 5.6315 20770(150) 0.0000466 20843. 20843.
5.6484 5.6353 20590(150) 0.0000479 20833. 20833.
5.6522 5.6391 20710(150) 0.0000475 20824. 20824.
5.6559 5.6428 20600(140) 0.0000481 20814. 20814.
5.6597 5.6466 20890(150) 0.0000473 20805. 20805.
5.6634 5.6503 20430(150) 0.0000470 20795. 20795.
5.6672 5.6541 21050(150) 0.0000459 20786. 20786.
5.6710 5.6579 20500(140) 0.0000484 20777. 20777.
5.6747 5.6616 20650(150) 0.0000479 20767. 20767.
5.6785 5.6654 20320(140) 0.0000494 20758. 20758.
5.6823 5.6691 20930(150) 0.0000468 20748. 20748.
5.6860 5.6729 20790(150) 0.0000463 20739. 20739.
5.6898 5.6767 20980(150) 0.0000449 20729. 20729.
5.6935 5.6804 20810(150) 0.0000465 20720. 20720.
5.6973 5.6842 21120(150) 0.0000462 20711. 20711.
5.7011 5.6879 20290(140) 0.0000488 20701. 20701.
5.7048 5.6917 20220(140) 0.0000500 20692. 20692.
5.7086 5.6955 20380(140) 0.0000480 20682. 20682.
5.7123 5.6992 20770(150) 0.0000477 20673. 20673.
5.7161 5.7030 20560(140) 0.0000483 20664. 20664.
5.7199 5.7068 21000(150) 0.0000459 20654. 20654.
5.7236 5.7105 20440(150) 0.0000476 20645. 20645.
5.7274 5.7143 20810(150) 0.0000467 20635. 20635.
5.7311 5.7180 20260(140) 0.0000484 20626. 20626.
5.7349 5.7218 20760(150) 0.0000465 20617. 20617.
5.7387 5.7256 20450(150) 0.0000474 20607. 20607.
5.7424 5.7293 20670(150) 0.0000472 20598. 20598.
5.7462 5.7331 20690(150) 0.0000467 20589. 20589.
5.7500 5.7368 21010(150) 0.0000458 20579. 20579.
5.7650 5.7519 20780(150) 0.0000465 20542. 20542.
5.7688 5.7556 20750(150) 0.0000461 20533. 20533.
5.7725 5.7594 20740(150) 0.0000471 20524. 20524.
5.7763 5.7632 20430(140) 0.0000479 20514. 20514.
5.7800 5.7669 20580(140) 0.0000483 20505. 20505.
5.7838 5.7707 20180(140) 0.0000490 20496. 20496.
5.7876 5.7745 20450(140) 0.0000480 20486. 20486.
5.7913 5.7782 20530(150) 0.0000465 20477. 20477.
5.7951 5.7820 20830(150) 0.0000459 20468. 20468.
5.7988 5.7857 20310(150) 0.0000469 20459. 20459.
5.8026 5.7895 20730(150) 0.0000464 20449. 20449.
5.8064 5.7933 20150(140) 0.0000490 20440. 20440.
5.8101 5.7970 20540(150) 0.0000475 20431. 20431.
5.8139 5.8008 20160(150) 0.0000475 20422. 20422.
5.8177 5.8045 20610(150) 0.0000472 20413. 20413.
5.8214 5.8083 20520(150) 0.0000463 20403. 20403.
5.8252 5.8121 20440(150) 0.0000466 20394. 20394.
5.8289 5.8158 20360(150) 0.0000476 20385. 20385.
5.8327 5.8196 20540(150) 0.0000465 20376. 20376.
5.8365 5.8233 20160(140) 0.0000484 20367. 20367.
5.8402 5.8271 20520(150) 0.0000475 20357. 20357.
5.8440 5.8309 19880(140) 0.0000480 20348. 20348.
5.8477 5.8346 20550(150) 0.0000477 20339. 20339.
5.8515 5.8384 20300(140) 0.0000494 20330. 20330.
5.8553 5.8422 20420(150) 0.0000467 20321. 20321.
5.8590 5.8459 19880(140) 0.0000501 20312. 20312.
5.8628 5.8497 20330(140) 0.0000482 20302. 20302.
5.8665 5.8534 20270(150) 0.0000472 20293. 20293.
5.8703 5.8572 20420(140) 0.0000480 20284. 20284.
5.8741 5.8610 20090(140) 0.0000486 20275. 20275.
5.8778 5.8647 20080(140) 0.0000486 20266. 20266.
5.8816 5.8685 20260(150) 0.0000473 20257. 20257.
5.8853 5.8722 20420(150) 0.0000464 20248. 20248.
5.8891 5.8760 20280(150) 0.0000470 20239. 20239.
5.8929 5.8798 20290(140) 0.0000480 20229. 20229.
5.8966 5.8835 20200(140) 0.0000482 20220. 20220.
5.9004 5.8873 20350(140) 0.0000486 20211. 20211.
5.9042 5.8910 20250(140) 0.0000489 20202. 20202.
5.9079 5.8948 20380(150) 0.0000477 20193. 20193.
5.9117 5.8986 20170(140) 0.0000480 20184. 20184.
5.9154 5.9023 20420(150) 0.0000476 20175. 20175.
5.9192 5.9061 20150(140) 0.0000494 20166. 20166.
5.9230 5.9098 20400(140) 0.0000486 20157. 20157.
5.9267 5.9136 19830(140) 0.0000496 20148. 20148.
5.9305 5.9174 20380(140) 0.0000488 20139. 20139.
5.9342 5.9211 20000(140) 0.0000506 20130. 20130.
5.9380 5.9249 20300(140) 0.0000493 20121. 20121.
5.9418 5.9287 19790(140) 0.0000496 20112. 20112.
5.9455 5.9324 20380(150) 0.0000477 20103. 20103.
5.9493 5.9362 19990(140) 0.0000501 20094. 20094.
5.9530 5.9399 20090(140) 0.0000493 20085. 20085.
5.9568 5.9437 19950(140) 0.0000497 20076. 20076.
5.9606 5.9475 19960(140) 0.0000490 20067. 20067.
5.9643 5.9512 19720(140) 0.0000498 20058. 20058.
5.9681 5.9550 20560(150) 0.0000463 20049. 20049.
5.9719 5.9587 19690(140) 0.0000504 20040. 20040.
5.9756 5.9625 20070(140) 0.0000482 20031. 20031.
5.9794 5.9663 19760(140) 0.0000494 20022. 20022.
5.9831 5.9700 20180(140) 0.0000485 20013. 20013.
5.9869 5.9738 19810(140) 0.0000491 20004. 20004.
5.9907 5.9775 19970(140) 0.0000489 19995. 19995.
5.9944 5.9813 19460(140) 0.0000525 19986. 19986.
5.9982 5.9851 20170(140) 0.0000483 19977. 19977.
6.0019 5.9888 19730(140) 0.0000500 19968. 19968.
6.0057 5.9926 20330(140) 0.0000481 19959. 19959.
6.0095 5.9963 19590(140) 0.0000497 19950. 19950.
6.0132 6.0001 20360(140) 0.0000484 19942. 19942.
6.0170 6.0039 19630(140) 0.0000498 19933. 19933.
6.0207 6.0076 20200(140) 0.0000482 19924. 19924.
6.0245 6.0114 19910(140) 0.0000481 19915. 19915.
6.0283 6.0152 20090(150) 0.0000477 19906. 19906.
6.0320 6.0189 19810(140) 0.0000497 19897. 19897.
6.0358 6.0227 19930(140) 0.0000491 19888. 19888.
6.0395 6.0264 19760(140) 0.0000485 19879. 19879.
6.0433 6.0302 19690(140) 0.0000498 19871. 19871.
6.0471 6.0340 19710(140) 0.0000501 19862. 19862.
6.0508 6.0377 19910(140) 0.0000495 19853. 19853.
6.0546 6.0415 19600(140) 0.0000495 19844. 19844.
6.0583 6.0452 20000(140) 0.0000496 19835. 19835.
6.0621 6.0490 19350(140) 0.0000507 19826. 19826.
6.0659 6.0528 19610(140) 0.0000491 19818. 19818.
6.0696 6.0565 19790(140) 0.0000491 19809. 19809.
6.0734 6.0603 20250(150) 0.0000474 19800. 19800.
6.0772 6.0640 19810(140) 0.0000498 19791. 19791.
6.0809 6.0678 19830(140) 0.0000502 19782. 19782.
6.0847 6.0716 19670(140) 0.0000487 19774. 19774.
6.0884 6.0753 20060(150) 0.0000478 19765. 19765.
6.0922 6.0791 19700(140) 0.0000492 19756. 19756.
6.0960 6.0828 19780(140) 0.0000498 19747. 19747.
6.0997 6.0866 19460(140) 0.0000509 19738. 19738.
6.1035 6.0904 19870(140) 0.0000483 19730. 19730.
6.1072 6.0941 19670(140) 0.0000489 19721. 19721.
6.1110 6.0979 20070(150) 0.0000478 19712. 19712.
6.1148 6.1016 19210(140) 0.0000513 19703. 19703.
6.1185 6.1054 19580(140) 0.0000509 19695. 19695.
6.1223 6.1092 19650(140) 0.0000497 19686. 19686.
6.1260 6.1129 19880(140) 0.0000486 19677. 19677.
6.1298 6.1167 19400(140) 0.0000500 19669. 19669.
6.1336 6.1205 19830(140) 0.0000494 19660. 19660.
6.1373 6.1242 19630(140) 0.0000503 19651. 19651.
6.1411 6.1280 19510(140) 0.0000496 19642. 19642.
6.1448 6.1317 19480(140) 0.0000498 19634. 19634.
6.1486 6.1355 19490(140) 0.0000511 19625. 19625.
6.1524 6.1393 19470(140) 0.0000503 19616. 19616.
6.1561 6.1430 19920(140) 0.0000492 19608. 19608.
6.1599 6.1468 19040(140) 0.0000515 19599. 19599.
6.1636 6.1505 19760(140) 0.0000499 19590. 19590.
6.1674 6.1543 19540(140) 0.0000506 19582. 19582.
6.1712 6.1581 19490(140) 0.0000502 19573. 19573.
6.1749 6.1618 19520(140) 0.0000504 19565. 19565.
6.1787 6.1656 19370(140) 0.0000510 19556. 19556.
6.1825 6.1693 19370(140) 0.0000522 19547. 19547.
6.1862 6.1731 19470(140) 0.0000506 19539. 19539.
6.1900 6.1769 19170(140) 0.0000508 19530. 19530.
6.1937 6.1806 19310(140) 0.0000510 19521. 19521.
6.1975 6.1844 19290(140) 0.0000507 19513. 19513.
6.2013 6.1881 19560(140) 0.0000503 19504. 19504.
6.2050 6.1919 19340(140) 0.0000500 19496. 19496.
6.2088 6.1957 19520(140) 0.0000513 19487. 19487.
6.2125 6.1994 19350(140) 0.0000510 19478. 19478.
6.2163 6.2032 19690(140) 0.0000491 19470. 19470.
6.2201 6.2069 19190(140) 0.0000512 19461. 19461.
6.2238 6.2107 19530(140) 0.0000496 19453. 19453.
6.2276 6.2145 19380(140) 0.0000508 19444. 19444.
6.2313 6.2182 19650(140) 0.0000490 19436. 19436.
6.2351 6.2220 19450(140) 0.0000504 19427. 19427.
6.2389 6.2257 19570(140) 0.0000498 19419. 19419.
6.2426 6.2295 19400(140) 0.0000505 19410. 19410.
6.2464 6.2333 19540(140) 0.0000513 19402. 19402.
6.2501 6.2370 19310(140) 0.0000509 19393. 19393.
6.2539 6.2408 19490(140) 0.0000505 19385. 19385.
6.2577 6.2446 19190(140) 0.0000503 19376. 19376.
6.2614 6.2483 19640(140) 0.0000495 19367. 19367.
6.2652 6.2521 18890(140) 0.0000513 19359. 19359.
6.2689 6.2558 19840(150) 0.0000476 19351. 19351.
6.2727 6.2596 19280(140) 0.0000500 19342. 19342.
6.2765 6.2634 19230(140) 0.0000509 19334. 19334.
6.2802 6.2671 19340(140) 0.0000510 19325. 19325.
6.2840 6.2709 19520(140) 0.0000503 19317. 19317.
6.2877 6.2746 19140(140) 0.0000517 19308. 19308.
6.2915 6.2784 19750(140) 0.0000482 19300. 19300.
6.2953 6.2822 18940(140) 0.0000509 19291. 19291.
6.2990 6.2859 19330(140) 0.0000504 19283. 19283.
6.3028 6.2897 19080(140) 0.0000506 19274. 19274.
6.3065 6.2934 19470(140) 0.0000507 19266. 19266.
6.3103 6.2972 19360(140) 0.0000495 19258. 19258.
6.3141 6.3010 19690(140) 0.0000483 19249. 19249.
6.3178 6.3047 19220(140) 0.0000495 19241. 19241.
6.3216 6.3085 19440(140) 0.0000494 19232. 19232.
6.3253 6.3122 19140(140) 0.0000504 19224. 19224.
6.3291 6.3160 19570(140) 0.0000492 19216. 19216.
6.3329 6.3198 18950(140) 0.0000515 19207. 19207.
6.3366 6.3235 19360(140) 0.0000504 19199. 19199.
6.3404 6.3273 19080(140) 0.0000498 19190. 19190.
6.3441 6.3310 19410(140) 0.0000488 19182. 19182.
6.3479 6.3348 18900(140) 0.0000521 19174. 19174.
6.3517 6.3386 19270(140) 0.0000503 19165. 19165.
6.3554 6.3423 19030(140) 0.0000508 19157. 19157.
6.3592 6.3461 19470(140) 0.0000502 19149. 19149.
6.3629 6.3498 18990(140) 0.0000515 19140. 19140.
6.3667 6.3536 19470(140) 0.0000496 19132. 19132.
6.3705 6.3574 18920(140) 0.0000510 19124. 19124.
6.3742 6.3611 19620(140) 0.0000491 19115. 19115.
6.3780 6.3649 18910(140) 0.0000513 19107. 19107.
6.3817 6.3686 19040(140) 0.0000515 19099. 19099.
6.3855 6.3724 18690(140) 0.0000521 19090. 19090.
6.3893 6.3762 19300(140) 0.0000509 19082. 19082.
6.3930 6.3799 19040(140) 0.0000501 19074. 19074.
6.3968 6.3837 19400(140) 0.0000498 19066. 19066.
6.4006 6.3874 18710(140) 0.0000504 19057. 19057.
6.4043 6.3912 19230(140) 0.0000494 19049. 19049.
6.4081 6.3950 18710(140) 0.0000513 19041. 19041.
6.4118 6.3987 19050(140) 0.0000507 19032. 19032.
6.4156 6.4025 18820(140) 0.0000526 19024. 19024.
6.4194 6.4062 19020(140) 0.0000510 19016. 19016.
6.4231 6.4100 18810(140) 0.0000523 19008. 19008.
6.4269 6.4138 18940(140) 0.0000506 19000. 19000.
6.4306 6.4175 18860(140) 0.0000499 18991. 18991.
6.4344 6.4213 18870(140) 0.0000510 18983. 18983.
6.4382 6.4250 18800(140) 0.0000519 18975. 18975.
6.4419 6.4288 19020(140) 0.0000500 18967. 18967.
6.4457 6.4326 18220(140) 0.0000531 18958. 18958.
6.4494 6.4363 19250(140) 0.0000504 18950. 18950.
6.4532 6.4401 18860(140) 0.0000509 18942. 18942.
6.4570 6.4438 18980(140) 0.0000497 18934. 18934.
6.4607 6.4476 18820(140) 0.0000509 18926. 18926.
6.4645 6.4514 19050(140) 0.0000503 18918. 18918.
6.4682 6.4551 18780(140) 0.0000520 18909. 18909.
6.4720 6.4589 19200(140) 0.0000494 18901. 18901.
6.4757 6.4626 18860(140) 0.0000509 18893. 18893.
6.4795 6.4664 18800(140) 0.0000511 18885. 18885.
6.4833 6.4702 18700(140) 0.0000507 18877. 18877.
6.4870 6.4739 18880(140) 0.0000529 18869. 18869.
6.4908 6.4777 18710(140) 0.0000532 18860. 18860.
6.4946 6.4814 18640(140) 0.0000509 18852. 18852.
6.4983 6.4852 18610(140) 0.0000531 18844. 18844.
6.5021 6.4890 18890(140) 0.0000511 18836. 18836.
6.5058 6.4927 18510(140) 0.0000529 18828. 18828.
6.5096 6.4965 19100(140) 0.0000494 18820. 18820.
6.5133 6.5002 18790(140) 0.0000501 18812. 18812.
6.5171 6.5040 19130(140) 0.0000486 18804. 18804.
6.5209 6.5078 18640(140) 0.0000511 18796. 18796.
6.5246 6.5115 18910(140) 0.0000495 18788. 18788.
6.5284 6.5153 18330(140) 0.0000528 18779. 18779.
6.5321 6.5190 18820(140) 0.0000508 18771. 18771.
6.5359 6.5228 18610(140) 0.0000524 18763. 18763.
6.5397 6.5266 19010(140) 0.0000505 18755. 18755.
6.5434 6.5303 18600(140) 0.0000513 18747. 18747.
6.5472 6.5341 18730(140) 0.0000516 18739. 18739.
6.5509 6.5378 18330(140) 0.0000531 18731. 18731.
6.5547 6.5416 18900(140) 0.0000503 18723. 18723.
6.5585 6.5454 18520(140) 0.0000520 18715. 18715.
6.5622 6.5491 19070(140) 0.0000512 18707. 18707.
6.5660 6.5529 18570(140) 0.0000509 18699. 18699.
6.5697 6.5566 19150(140) 0.0000495 18691. 18692.
6.5735 6.5604 18800(140) 0.0000508 18683. 18684.
6.5773 6.5642 18660(140) 0.0000519 18675. 18676.
6.5810 6.5679 18380(140) 0.0000528 18667. 18668.
6.5848 6.5717 18860(140) 0.0000514 18659. 18660.
6.5885 6.5754 18770(140) 0.0000505 18651. 18652.
6.5923 6.5792 18670(140) 0.0000522 18643. 18644.
6.5961 6.5830 18310(140) 0.0000529 18635. 18636.
6.5998 6.5867 18800(140) 0.0000516 18627. 18628.
6.6036 6.5905 18530(140) 0.0000525 18619. 18620.
6.6073 6.5942 18850(140) 0.0000498 18611. 18612.
6.6111 6.5980 18420(140) 0.0000530 18603. 18604.
6.6149 6.6018 18840(140) 0.0000515 18595. 18596.
6.6186 6.6055 18330(140) 0.0000516 18587. 18588.
6.6224 6.6093 18890(140) 0.0000506 18579. 18580.
6.6261 6.6130 18300(140) 0.0000538 18571. 18573.
6.6299 6.6168 18800(140) 0.0000513 18564. 18565.
6.6337 6.6205 18420(140) 0.0000525 18556. 18557.
6.6374 6.6243 18880(140) 0.0000514 18548. 18549.
6.6412 6.6281 18390(140) 0.0000535 18540. 18541.
6.6449 6.6318 18890(140) 0.0000499 18532. 18533.
6.6487 6.6356 18640(140) 0.0000515 18524. 18525.
6.6525 6.6393 18970(140) 0.0000504 18516. 18517.
6.6562 6.6431 18320(140) 0.0000528 18508. 18509.
6.6600 6.6469 18730(140) 0.0000508 18500. 18502.
6.6637 6.6506 18440(140) 0.0000516 18493. 18494.
6.6675 6.6544 18940(140) 0.0000493 18485. 18486.
6.6713 6.6581 18480(140) 0.0000518 18477. 18478.
6.6750 6.6619 18760(140) 0.0000531 18469. 18470.
6.6788 6.6657 18460(140) 0.0000527 18461. 18462.
6.6825 6.6694 18840(140) 0.0000507 18453. 18455.
6.6863 6.6732 18290(140) 0.0000519 18445. 18447.
6.6901 6.6769 18970(140) 0.0000485 18438. 18439.
6.6938 6.6807 18340(140) 0.0000518 18430. 18431.
6.6976 6.6845 18670(140) 0.0000507 18422. 18423.
6.7013 6.6882 18290(140) 0.0000532 18414. 18416.
6.7051 6.6920 18570(140) 0.0000516 18406. 18408.
6.7088 6.6957 18050(140) 0.0000525 18399. 18400.
6.7126 6.6995 18710(140) 0.0000511 18391. 18392.
6.7164 6.7033 18090(140) 0.0000538 18383. 18385.
6.7201 6.7070 18820(140) 0.0000531 18375. 18377.
6.7239 6.7108 18140(140) 0.0000532 18367. 18369.
6.7276 6.7145 18720(140) 0.0000501 18360. 18361.
6.7314 6.7183 18290(140) 0.0000526 18352. 18354.
6.7352 6.7221 18480(140) 0.0000511 18344. 18346.
6.7389 6.7258 18310(140) 0.0000528 18336. 18338.
6.7427 6.7296 18450(140) 0.0000523 18329. 18330.
6.7464 6.7333 18090(140) 0.0000520 18321. 18323.
6.7502 6.7371 18700(140) 0.0000504 18313. 18315.
6.7540 6.7408 18380(140) 0.0000515 18305. 18307.
6.7577 6.7446 18710(140) 0.0000510 18298. 18300.
6.7615 6.7484 18060(140) 0.0000537 18290. 18292.
6.7652 6.7521 18270(140) 0.0000540 18282. 18284.
6.7690 6.7559 18420(140) 0.0000510 18275. 18277.
6.7728 6.7596 18920(140) 0.0000495 18267. 18269.
6.7765 6.7634 18190(140) 0.0000526 18259. 18261.
6.7803 6.7672 18500(140) 0.0000523 18251. 18254.
6.7840 6.7709 18340(140) 0.0000524 18244. 18246.
6.7878 6.7747 18450(140) 0.0000518 18236. 18239.
6.7915 6.7784 18120(140) 0.0000529 18228. 18231.
6.7953 6.7822 18660(140) 0.0000508 18221. 18223.
6.7991 6.7860 18030(140) 0.0000539 18213. 18216.
6.8028 6.7897 18480(140) 0.0000515 18205. 18208.
6.8066 6.7935 18060(140) 0.0000530 18198. 18201.
6.8103 6.7972 18540(140) 0.0000514 18190. 18193.
6.8141 6.8010 17980(140) 0.0000520 18182. 18185.
6.8179 6.8048 18290(140) 0.0000524 18175. 18178.
6.8216 6.8085 18160(140) 0.0000533 18167. 18170.
6.8254 6.8123 18420(140) 0.0000518 18159. 18163.
6.8291 6.8160 18100(140) 0.0000519 18152. 18155.
6.8329 6.8198 18580(140) 0.0000509 18144. 18148.
6.8367 6.8235 18080(140) 0.0000532 18137. 18140.
6.8404 6.8273 18560(140) 0.0000528 18129. 18133.
6.8442 6.8311 17890(140) 0.0000530 18121. 18125.
6.8479 6.8348 18130(140) 0.0000520 18114. 18118.
6.8517 6.8386 18070(140) 0.0000515 18106. 18110.
6.8555 6.8423 18560(140) 0.0000541 18099. 18103.
6.8592 6.8461 18120(130) 0.0000569 18091. 18096.
6.8630 6.8499 18400(140) 0.0000541 18083. 18088.
6.8667 6.8536 17970(130) 0.0000565 18076. 18081.
6.8705 6.8574 18330(130) 0.0000553 18068. 18073.
6.8742 6.8611 17810(130) 0.0000559 18061. 18066.
6.8780 6.8649 18170(130) 0.0000556 18053. 18059.
6.8818 6.8687 17710(130) 0.0000569 18046. 18051.
6.8855 6.8724 18320(140) 0.0000535 18038. 18044.
6.8893 6.8762 17900(130) 0.0000572 18031. 18037.
6.8930 6.8799 18050(130) 0.0000558 18023. 18029.
6.8968 6.8837 17890(140) 0.0000549 18015. 18022.
6.9006 6.8874 18190(140) 0.0000548 18008. 18015.
6.9043 6.8912 18080(130) 0.0000555 18000. 18008.
6.9081 6.8950 18210(140) 0.0000544 17993. 18001.
6.9118 6.8987 17810(130) 0.0000562 17985. 17993.
6.9156 6.9025 18320(140) 0.0000542 17978. 17986.
6.9194 6.9062 17970(140) 0.0000552 17970. 17979.
6.9231 6.9100 17900(130) 0.0000581 17963. 17972.
6.9269 6.9138 17770(130) 0.0000559 17955. 17965.
6.9306 6.9175 18260(140) 0.0000547 17948. 17958.
6.9344 6.9213 17880(130) 0.0000558 17940. 17951.
6.9381 6.9250 18070(130) 0.0000555 17933. 17945.
6.9419 6.9288 17970(130) 0.0000561 17926. 17938.
6.9457 6.9326 18150(130) 0.0000558 17918. 17931.
6.9494 6.9363 17500(130) 0.0000567 17911. 17925.
6.9532 6.9401 18330(130) 0.0000555 17903. 17918.
6.9569 6.9438 17730(140) 0.0000552 17896. 17912.
6.9607 6.9476 17920(130) 0.0000556 17888. 17905.
6.9644 6.9513 17620(130) 0.0000583 17881. 17899.
6.9682 6.9551 18170(140) 0.0000544 17873. 17893.
6.9720 6.9589 17880(130) 0.0000553 17866. 17887.
6.9757 6.9626 18140(140) 0.0000535 17859. 17882.
6.9795 6.9664 17900(140) 0.0000552 17851. 17876.
6.9832 6.9701 18130(140) 0.0000545 17844. 17871.
6.9870 6.9739 17760(130) 0.0000555 17836. 17866.
6.9908 6.9777 17780(130) 0.0000559 17829. 17862.
6.9945 6.9814 17570(130) 0.0000561 17822. 17858.
6.9983 6.9852 18130(140) 0.0000547 17814. 17855.
7.0020 6.9889 17650(130) 0.0000561 17807. 17852.
7.0058 6.9927 18070(130) 0.0000554 17799. 17850.
7.0096 6.9964 17710(130) 0.0000562 17792. 17850.
7.0133 7.0002 18290(140) 0.0000543 17785. 17851.
7.0171 7.0040 17550(130) 0.0000568 17777. 17854.
7.0208 7.0077 18180(130) 0.0000562 17770. 17859.
7.0246 7.0115 17540(130) 0.0000567 17763. 17867.
7.0283 7.0152 18060(140) 0.0000547 17755. 17881.
7.0321 7.0190 17580(130) 0.0000562 17748. 17901.
7.0359 7.0228 18470(140) 0.0000545 17741. 17931.
7.0396 7.0265 17800(140) 0.0000550 17733. 17977.
7.0434 7.0303 18350(140) 0.0000540 17726. 18048.
7.0471 7.0340 17890(140) 0.0000547 17719. 18164.
7.0509 7.0378 18820(140) 0.0000524 17711. 18388.
7.0547 7.0415 19610(140) 0.0000503 17704. 18959.
7.0584 7.0453 23320(160) 0.0000415 17697. 20523.
7.0622 7.0491 26420(160) 0.0000374 17689. 23742.
7.0659 7.0528 30030(180) 0.0000318 17682. 27231.
7.0697 7.0566 28220(170) 0.0000341 17675. 26265.
7.0734 7.0603 23700(160) 0.0000406 17667. 22422.
7.0772 7.0641 20030(140) 0.0000500 17660. 19771.
7.0810 7.0678 19100(140) 0.0000515 17653. 18638.
7.0847 7.0716 18160(140) 0.0000544 17646. 18222.
7.0885 7.0754 18000(140) 0.0000548 17638. 18034.
7.0922 7.0791 17720(130) 0.0000566 17631. 17922.
7.0960 7.0829 18080(140) 0.0000540 17624. 17847.
7.0997 7.0866 17590(130) 0.0000572 17617. 17793.
7.1035 7.0904 18160(140) 0.0000540 17609. 17752.
7.1073 7.0942 17560(130) 0.0000560 17602. 17720.
7.1110 7.0979 18020(140) 0.0000550 17595. 17694.
7.1148 7.1017 17480(130) 0.0000561 17588. 17672.
7.1185 7.1054 17930(140) 0.0000549 17580. 17653.
7.1223 7.1092 17680(130) 0.0000560 17573. 17636.
7.1260 7.1129 17790(130) 0.0000555 17566. 17621.
7.1298 7.1167 17460(130) 0.0000579 17559. 17608.
7.1336 7.1205 17780(130) 0.0000564 17551. 17595.
7.1373 7.1242 17680(130) 0.0000564 17544. 17583.
7.1411 7.1280 17920(140) 0.0000553 17537. 17572.
7.1448 7.1317 17450(130) 0.0000553 17530. 17562.
7.1486 7.1355 18090(140) 0.0000545 17523. 17552.
7.1524 7.1392 17630(140) 0.0000544 17515. 17542.
7.1561 7.1430 17710(130) 0.0000558 17508. 17533.
7.1599 7.1468 17580(130) 0.0000555 17501. 17524.
7.1636 7.1505 18000(140) 0.0000544 17494. 17515.
7.1674 7.1543 17350(130) 0.0000564 17487. 17506.
7.1711 7.1580 18170(140) 0.0000540 17480. 17497.
7.1749 7.1618 17580(130) 0.0000563 17472. 17489.
7.1787 7.1656 17920(130) 0.0000553 17465. 17481.
7.1824 7.1693 17480(130) 0.0000558 17458. 17473.
7.1862 7.1731 17950(140) 0.0000550 17451. 17465.
7.1899 7.1768 17500(130) 0.0000563 17444. 17457.
7.1937 7.1806 17690(130) 0.0000569 17437. 17449.
7.1975 7.1843 17040(130) 0.0000588 17430. 17441.
7.2012 7.1881 17560(130) 0.0000568 17422. 17433.
7.2050 7.1919 17490(130) 0.0000557 17415. 17426.
7.2087 7.1956 17900(140) 0.0000544 17408. 17418.
7.2125 7.1994 17120(130) 0.0000580 17401. 17410.
7.2162 7.2031 17740(140) 0.0000549 17394. 17403.
7.2200 7.2069 17530(130) 0.0000563 17387. 17395.
7.2238 7.2106 17720(140) 0.0000551 17380. 17388.
7.2275 7.2144 17520(130) 0.0000555 17373. 17380.
7.2313 7.2182 17780(140) 0.0000546 17366. 17373.
7.2350 7.2219 17210(130) 0.0000569 17358. 17365.
7.2388 7.2257 17720(140) 0.0000547 17351. 17358.
7.2425 7.2294 17190(130) 0.0000565 17344. 17351.
7.2463 7.2332 17570(130) 0.0000562 17337. 17343.
7.2501 7.2369 17150(130) 0.0000571 17330. 17336.
7.2538 7.2407 17780(140) 0.0000550 17323. 17329.
7.2576 7.2445 17420(130) 0.0000561 17316. 17321.
7.2613 7.2482 17580(130) 0.0000553 17309. 17314.
7.2651 7.2520 17150(130) 0.0000576 17302. 17307.
7.2688 7.2557 17450(130) 0.0000556 17295. 17300.
7.2726 7.2595 17290(130) 0.0000559 17288. 17293.
7.2764 7.2632 17890(140) 0.0000543 17281. 17285.
7.2801 7.2670 17220(130) 0.0000591 17274. 17278.
7.2839 7.2708 17820(140) 0.0000550 17267. 17271.
7.2876 7.2745 17040(130) 0.0000573 17260. 17264.
7.2914 7.2783 17680(130) 0.0000557 17253. 17257.
7.2951 7.2820 17110(130) 0.0000570 17246. 17250.
7.2989 7.2858 17330(130) 0.0000581 17239. 17242.
7.3026 7.2895 17230(130) 0.0000574 17232. 17235.
7.3064 7.2933 17450(130) 0.0000565 17225. 17228.
7.3102 7.2971 17120(130) 0.0000593 17218. 17221.
7.3139 7.3008 17610(130) 0.0000564 17211. 17214.
7.3177 7.3046 17090(130) 0.0000580 17204. 17207.
7.3214 7.3083 17480(130) 0.0000564 17197. 17200.
7.3252 7.3121 17290(130) 0.0000569 17190. 17193.
7.3290 7.3158 17470(130) 0.0000564 17183. 17186.
7.3327 7.3196 17430(140) 0.0000533 17176. 17179.
7.3365 7.3234 18000(130) 0.0000577 17169. 17172.
7.3402 7.3271 17070(130) 0.0000614 17162. 17165.
7.3440 7.3309 17680(130) 0.0000587 17155. 17158.
7.3477 7.3346 16980(130) 0.0000615 17148. 17151.
7.3515 7.3384 17330(130) 0.0000593 17141. 17144.
7.3553 7.3421 16930(130) 0.0000617 17134. 17137.
7.3590 7.3459 17190(130) 0.0000605 17127. 17130.
7.3628 7.3497 17080(130) 0.0000606 17120. 17123.
7.3665 7.3534 17430(130) 0.0000604 17113. 17116.
7.3703 7.3572 17050(130) 0.0000602 17106. 17109.
7.3740 7.3609 17460(130) 0.0000590 17100. 17102.
7.3778 7.3647 17080(130) 0.0000609 17093. 17095.
7.3816 7.3684 17330(130) 0.0000598 17086. 17088.
7.3853 7.3722 16980(130) 0.0000611 17079. 17081.
7.3891 7.3760 17150(130) 0.0000605 17072. 17074.
7.3928 7.3797 16770(130) 0.0000619 17065. 17067.
7.3966 7.3835 17400(130) 0.0000595 17058. 17060.
7.4003 7.3872 16880(130) 0.0000619 17051. 17053.
7.4041 7.3910 17440(130) 0.0000600 17044. 17046.
7.4079 7.3947 16990(130) 0.0000610 17038. 17039.
7.4116 7.3985 17410(130) 0.0000594 17031. 17032.
7.4154 7.4023 16900(130) 0.0000617 17024. 17025.
7.4191 7.4060 17300(130) 0.0000600 17017. 17018.
7.4229 7.4098 17130(130) 0.0000606 17010. 17012.
7.4266 7.4135 17390(130) 0.0000589 17003. 17005.
7.4304 7.4173 17020(130) 0.0000616 16996. 16998.
7.4341 7.4210 17190(130) 0.0000596 16989. 16991.
7.4379 7.4248 16800(130) 0.0000615 16983. 16984.
7.4417 7.4285 17220(130) 0.0000606 16976. 16977.
7.4454 7.4323 17130(130) 0.0000599 16969. 16970.
7.4492 7.4361 17570(130) 0.0000584 16962. 16963.
7.4529 7.4398 16820(130) 0.0000609 16955. 16957.
7.4567 7.4436 17080(130) 0.0000602 16948. 16950.
7.4604 7.4473 16960(130) 0.0000608 16942. 16943.
7.4642 7.4511 17350(130) 0.0000593 16935. 16936.
7.4680 7.4548 16630(130) 0.0000635 16928. 16929.
7.4717 7.4586 17510(130) 0.0000578 16921. 16922.
7.4755 7.4624 17140(130) 0.0000604 16914. 16916.
7.4792 7.4661 17350(130) 0.0000588 16908. 16909.
7.4830 7.4699 17050(130) 0.0000602 16901. 16902.
7.4867 7.4736 17260(130) 0.0000582 16894. 16895.
7.4905 7.4774 16760(130) 0.0000615 16887. 16888.
7.4942 7.4811 17390(130) 0.0000598 16880. 16882.
7.4980 7.4849 16640(130) 0.0000617 16874. 16875.
7.5018 7.4887 17200(130) 0.0000607 16867. 16868.
7.5055 7.4924 16810(130) 0.0000606 16860. 16861.
7.5093 7.4962 17390(130) 0.0000579 16853. 16854.
7.5130 7.4999 16950(130) 0.0000608 16847. 16848.
7.5168 7.5037 17140(130) 0.0000599 16840. 16841.
7.5205 7.5074 16960(130) 0.0000603 16833. 16834.
7.5243 7.5112 17090(130) 0.0000603 16826. 16827.
7.5281 7.5149 16780(130) 0.0000609 16820. 16821.
7.5318 7.5187 16910(130) 0.0000597 16813. 16814.
7.5356 7.5225 17060(130) 0.0000601 16806. 16807.
7.5393 7.5262 16910(130) 0.0000614 16799. 16800.
7.5431 7.5300 16940(130) 0.0000615 16793. 16794.
7.5468 7.5337 17060(130) 0.0000596 16786. 16787.
7.5506 7.5375 16840(130) 0.0000614 16779. 16780.
7.5543 7.5412 17100(130) 0.0000596 16773. 16773.
7.5581 7.5450 16870(130) 0.0000610 16766. 16767.
7.5619 7.5487 17130(130) 0.0000600 16759. 16760.
7.5656 7.5525 16860(130) 0.0000602 16752. 16753.
7.5694 7.5563 17050(130) 0.0000593 16746. 16746.
7.5731 7.5600 16930(130) 0.0000601 16739. 16740.
7.5769 7.5638 17100(130) 0.0000586 16732. 16733.
7.5806 7.5675 16470(130) 0.0000630 16726. 16726.
7.5844 7.5713 17160(130) 0.0000597 16719. 16720.
7.5882 7.5750 16900(130) 0.0000602 16712. 16713.
7.5919 7.5788 17010(130) 0.0000607 16706. 16706.
7.5957 7.5826 16560(130) 0.0000617 16699. 16700.
7.5994 7.5863 16980(130) 0.0000603 16692. 16693.
7.6032 7.5901 16740(130) 0.0000608 16686. 16686.
7.6069 7.5938 17390(130) 0.0000587 16679. 16680.
7.6107 7.5976 16720(130) 0.0000609 16672. 16673.
7.6144 7.6013 16930(130) 0.0000617 16666. 16666.
7.6182 7.6051 16550(130) 0.0000616 16659. 16660.
7.6220 7.6089 17070(130) 0.0000602 16652. 16655.
7.6257 7.6126 16700(130) 0.0000614 16646. 16648.
7.6295 7.6164 17070(130) 0.0000608 16639. 16641.
7.6332 7.6201 16630(130) 0.0000610 16632. 16634.
7.6370 7.6239 16990(130) 0.0000604 16626. 16627.
7.6407 7.6276 16710(130) 0.0000613 16619. 16621.
7.6445 7.6314 16930(130) 0.0000609 16613. 16614.
7.6482 7.6351 16800(130) 0.0000605 16606. 16608.
7.6520 7.6389 17140(130) 0.0000595 16599. 16601.
7.6558 7.6426 16820(130) 0.0000599 16593. 16594.
7.6595 7.6464 17170(130) 0.0000588 16586. 16588.
7.6633 7.6502 16540(130) 0.0000623 16579. 16581.
7.6670 7.6539 16820(130) 0.0000613 16573. 16575.
7.6708 7.6577 16760(130) 0.0000605 16566. 16568.
7.6745 7.6614 16860(130) 0.0000604 16560. 16562.
7.6783 7.6652 16760(130) 0.0000613 16553. 16555.
7.6820 7.6689 16890(130) 0.0000610 16547. 16549.
7.6858 7.6727 16590(130) 0.0000623 16540. 16542.
7.6896 7.6764 17140(130) 0.0000592 16533. 16535.
7.6933 7.6802 16640(130) 0.0000614 16527. 16529.
7.6971 7.6840 17110(130) 0.0000596 16520. 16522.
7.7008 7.6877 16720(130) 0.0000604 16514. 16516.
7.7046 7.6915 17200(130) 0.0000574 16507. 16509.
7.7083 7.6952 16570(130) 0.0000607 16501. 16503.
7.7121 7.6990 16950(130) 0.0000596 16494. 16496.
7.7158 7.7027 16540(130) 0.0000613 16487. 16490.
7.7196 7.7065 16760(130) 0.0000609 16481. 16483.
7.7233 7.7102 16550(130) 0.0000628 16474. 16477.
7.7271 7.7140 16910(130) 0.0000602 16468. 16470.
7.7309 7.7177 16460(130) 0.0000612 16461. 16464.
7.7346 7.7215 16750(130) 0.0000620 16455. 16457.
7.7384 7.7253 16380(130) 0.0000644 16448. 16451.
7.7421 7.7290 16900(130) 0.0000595 16442. 16444.
7.7459 7.7328 16470(130) 0.0000624 16435. 16438.
7.7496 7.7365 16630(130) 0.0000611 16429. 16431.
7.7534 7.7403 16390(130) 0.0000628 16422. 16425.
7.7571 7.7440 16540(130) 0.0000618 16416. 16419.
7.7609 7.7478 16480(130) 0.0000617 16409. 16412.
7.7647 7.7515 16890(130) 0.0000613 16403. 16406.
7.7684 7.7553 16270(130) 0.0000631 16396. 16399.
7.7722 7.7591 16820(130) 0.0000595 16390. 16393.
7.7759 7.7628 16450(130) 0.0000620 16383. 16386.
7.7797 7.7666 16930(130) 0.0000605 16377. 16380.
7.7834 7.7703 16300(130) 0.0000629 16370. 16374.
7.7872 7.7741 16920(130) 0.0000607 16364. 16367.
7.7909 7.7778 16220(130) 0.0000630 16357. 16361.
7.7947 7.7816 16650(130) 0.0000622 16351. 16354.
7.7972 7.7841 16550(130) 0.0000597 16346. 16350.
7.8009 7.7878 16390(130) 0.0000620 16340. 16344.
7.8047 7.7916 16530(130) 0.0000602 16333. 16337.
7.8084 7.7953 16010(130) 0.0000621 16327. 16331.
7.8122 7.7991 16660(130) 0.0000592 16321. 16325.
7.8159 7.8028 16370(130) 0.0000603 16314. 16318.
7.8197 7.8066 16590(130) 0.0000595 16308. 16312.
7.8235 7.8104 16430(130) 0.0000566 16301. 16306.
7.8272 7.8141 17020(130) 0.0000611 16295. 16299.
7.8310 7.8179 15980(120) 0.0000657 16288. 16293.
7.8347 7.8216 16480(130) 0.0000631 16282. 16287.
7.8385 7.8254 16220(130) 0.0000645 16275. 16280.
7.8422 7.8291 16530(130) 0.0000622 16269. 16274.
7.8460 7.8329 16000(120) 0.0000654 16263. 16268.
7.8498 7.8367 16690(130) 0.0000623 16256. 16262.
7.8535 7.8404 16120(130) 0.0000644 16250. 16255.
7.8573 7.8442 16240(120) 0.0000649 16243. 16249.
7.8610 7.8479 16260(130) 0.0000632 16237. 16243.
7.8648 7.8517 16490(130) 0.0000626 16230. 16237.
7.8685 7.8554 15970(120) 0.0000654 16224. 16230.
7.8723 7.8592 16620(130) 0.0000625 16218. 16224.
7.8761 7.8630 16080(120) 0.0000647 16211. 16218.
7.8798 7.8667 16340(130) 0.0000637 16205. 16212.
7.8836 7.8705 16180(130) 0.0000643 16198. 16205.
7.8873 7.8742 16380(130) 0.0000633 16192. 16199.
7.8911 7.8780 16070(120) 0.0000652 16186. 16193.
7.8948 7.8817 16500(130) 0.0000635 16179. 16187.
7.8986 7.8855 16260(130) 0.0000638 16173. 16181.
7.9024 7.8892 16410(130) 0.0000632 16167. 16175.
7.9061 7.8930 16050(120) 0.0000650 16160. 16169.
7.9099 7.8968 16310(130) 0.0000638 16154. 16163.
7.9136 7.9005 16020(120) 0.0000650 16147. 16157.
7.9174 7.9043 16660(130) 0.0000616 16141. 16151.
7.9211 7.9080 15890(120) 0.0000661 16135. 16145.
7.9249 7.9118 16500(130) 0.0000622 16128. 16139.
7.9287 7.9155 16390(130) 0.0000631 16122. 16133.
7.9324 7.9193 16480(130) 0.0000634 16116. 16127.
7.9362 7.9231 16140(130) 0.0000636 16109. 16121.
7.9399 7.9268 16490(130) 0.0000624 16103. 16115.
7.9437 7.9306 16150(130) 0.0000635 16097. 16109.
7.9474 7.9343 16270(130) 0.0000633 16090. 16103.
7.9512 7.9381 16160(130) 0.0000639 16084. 16098.
7.9549 7.9418 16350(130) 0.0000631 16078. 16092.
7.9587 7.9456 15890(120) 0.0000666 16071. 16086.
7.9625 7.9494 16490(130) 0.0000615 16065. 16081.
7.9662 7.9531 16190(130) 0.0000641 16059. 16075.
7.9700 7.9569 16300(130) 0.0000627 16052. 16070.
7.9737 7.9606 16030(130) 0.0000641 16046. 16064.
7.9775 7.9644 16220(130) 0.0000621 16040. 16059.
7.9812 7.9681 16060(130) 0.0000643 16033. 16054.
7.9850 7.9719 16570(130) 0.0000629 16027. 16049.
7.9888 7.9756 15960(130) 0.0000644 16021. 16044.
7.9925 7.9794 16320(130) 0.0000641 16014. 16039.
7.9963 7.9832 15950(130) 0.0000640 16008. 16034.
8.0000 7.9869 16560(130) 0.0000609 16002. 16029.
8.0038 7.9907 15920(120) 0.0000648 15995. 16025.
8.0075 7.9944 16300(130) 0.0000630 15989. 16021.
8.0113 7.9982 16240(130) 0.0000631 15983. 16025.
8.0150 8.0019 16420(130) 0.0000628 15977. 16021.
8.0188 8.0057 16130(130) 0.0000634 15970. 16018.
8.0226 8.0095 16370(130) 0.0000617 15964. 16015.
8.0263 8.0132 15980(130) 0.0000643 15958. 16012.
8.0301 8.0170 16100(120) 0.0000646 15952. 16010.
8.0338 8.0207 15870(120) 0.0000657 15945. 16008.
8.0376 8.0245 16350(130) 0.0000622 15939. 16007.
8.0413 8.0282 16250(130) 0.0000637 15933. 16007.
8.0451 8.0320 16430(130) 0.0000621 15927. 16007.
8.0489 8.0357 15940(120) 0.0000647 15920. 16009.
8.0526 8.0395 16360(130) 0.0000629 15914. 16012.
8.0530 8.0399 16020(130) 0.0000634 15913. 16013.
8.0568 8.0437 15890(130) 0.0000621 15907. 16018.
8.0605 8.0474 15880(130) 0.0000634 15901. 16025.
8.0643 8.0512 15910(130) 0.0000627 15895. 16035.
8.0680 8.0549 16010(130) 0.0000618 15888. 16049.
8.0718 8.0587 15830(130) 0.0000628 15882. 16068.
8.0755 8.0624 15910(130) 0.0000626 15876. 16094.
8.0793 8.0662 15880(130) 0.0000615 15870. 16128.
8.0831 8.0699 16140(130) 0.0000616 15863. 16176.
8.0868 8.0737 15790(130) 0.0000627 15857. 16243.
8.0906 8.0775 16340(130) 0.0000611 15851. 16340.
8.0943 8.0812 15980(130) 0.0000612 15845. 16484.
8.0981 8.0850 16670(130) 0.0000596 15839. 16716.
8.1018 8.0887 17330(130) 0.0000566 15832. 17152.
8.1056 8.0925 19930(140) 0.0000487 15826. 18217.
8.1093 8.0962 24760(160) 0.0000394 15820. 20969.
8.1131 8.1000 34150(190) 0.0000276 15814. 26441.
8.1169 8.1037 39820(210) 0.0000232 15808. 32584.
8.1206 8.1075 37470(200) 0.0000251 15801. 31661.
8.1244 8.1113 27300(170) 0.0000353 15795. 25148.
8.1281 8.1150 21360(150) 0.0000463 15789. 20200.
8.1319 8.1188 18540(140) 0.0000527 15783. 17876.
8.1356 8.1225 17500(140) 0.0000548 15777. 16984.
8.1394 8.1263 16390(130) 0.0000593 15770. 16594.
8.1431 8.1300 16220(130) 0.0000604 15764. 16373.
8.1469 8.1338 15980(130) 0.0000609 15758. 16228.
8.1506 8.1375 16130(130) 0.0000608 15752. 16126.
8.1544 8.1413 15490(130) 0.0000632 15746. 16051.
8.1582 8.1451 16150(130) 0.0000600 15740. 15995.
8.1619 8.1488 15530(130) 0.0000636 15733. 15950.
8.1657 8.1526 15950(130) 0.0000621 15727. 15914.
8.1694 8.1563 15700(130) 0.0000626 15721. 15885.
8.1732 8.1601 15800(130) 0.0000617 15715. 15860.
8.1769 8.1638 15250(130) 0.0000637 15709. 15839.
8.1807 8.1676 15900(130) 0.0000608 15703. 15820.
8.1844 8.1713 15340(120) 0.0000655 15696. 15803.
8.1882 8.1751 15840(130) 0.0000641 15690. 15788.
8.1920 8.1788 15460(130) 0.0000631 15684. 15775.
8.1957 8.1826 15880(130) 0.0000615 15678. 15763.
8.1995 8.1864 15530(130) 0.0000636 15672. 15751.
8.2032 8.1901 15730(130) 0.0000612 15666. 15741.
8.2070 8.1939 15300(120) 0.0000649 15660. 15731.
8.2107 8.1976 15950(130) 0.0000622 15654. 15721.
8.2145 8.2014 15450(130) 0.0000623 15647. 15712.
8.2182 8.2051 15800(130) 0.0000617 15641. 15703.
8.2220 8.2089 15370(130) 0.0000643 15635. 15695.
8.2258 8.2127 15460(130) 0.0000630 15629. 15687.
8.2295 8.2164 15360(130) 0.0000641 15623. 15680.
8.2333 8.2202 15750(130) 0.0000635 15617. 15672.
8.2370 8.2239 15250(130) 0.0000644 15611. 15665.
8.2408 8.2277 15940(130) 0.0000617 15605. 15658.
8.2445 8.2314 15290(130) 0.0000631 15598. 15651.
8.2483 8.2352 15680(130) 0.0000627 15592. 15645.
8.2520 8.2389 15440(130) 0.0000633 15586. 15638.
8.2558 8.2427 15680(130) 0.0000615 15580. 15632.
8.2596 8.2464 15390(130) 0.0000634 15574. 15626.
8.2633 8.2502 15590(130) 0.0000632 15568. 15619.
8.2671 8.2540 15200(120) 0.0000650 15562. 15613.
8.2708 8.2577 15750(130) 0.0000619 15556. 15608.
8.2746 8.2615 15330(130) 0.0000628 15550. 15602.
8.2783 8.2652 15450(130) 0.0000639 15544. 15596.
8.2821 8.2690 14890(120) 0.0000660 15538. 15591.
8.2859 8.2727 15560(130) 0.0000638 15532. 15585.
8.2896 8.2765 15290(120) 0.0000651 15525. 15580.
8.2934 8.2803 15370(130) 0.0000633 15519. 15575.
8.2971 8.2840 15310(130) 0.0000643 15513. 15570.
8.3009 8.2878 15480(130) 0.0000633 15507. 15565.
8.3046 8.2915 15030(120) 0.0000652 15501. 15560.
8.3084 8.2953 15720(130) 0.0000613 15495. 15556.
8.3121 8.2990 15450(130) 0.0000630 15489. 15551.
8.3159 8.3028 15480(130) 0.0000621 15483. 15547.
8.3197 8.3065 15080(130) 0.0000639 15477. 15542.
8.3234 8.3103 15680(130) 0.0000623 15471. 15538.
8.3272 8.3141 15150(120) 0.0000653 15465. 15534.
8.3309 8.3178 15390(130) 0.0000625 15459. 15531.
8.3347 8.3216 15270(130) 0.0000640 15453. 15527.
8.3384 8.3253 15770(130) 0.0000618 15447. 15524.
8.3422 8.3291 15350(130) 0.0000640 15441. 15521.
8.3459 8.3328 15880(130) 0.0000612 15435. 15518.
8.3497 8.3366 14950(130) 0.0000643 15429. 15515.
8.3535 8.3404 15800(130) 0.0000603 15423. 15513.
8.3572 8.3441 15080(130) 0.0000642 15417. 15511.
8.3610 8.3479 15650(130) 0.0000623 15411. 15509.
8.3647 8.3516 15400(130) 0.0000644 15405. 15508.
8.3685 8.3554 15400(130) 0.0000624 15399. 15507.
8.3722 8.3591 15200(130) 0.0000642 15393. 15506.
8.3760 8.3629 15500(130) 0.0000632 15387. 15506.
8.3798 8.3666 15310(120) 0.0000657 15381. 15507.
8.3835 8.3704 15750(130) 0.0000621 15374. 15508.
8.3873 8.3742 15150(130) 0.0000644 15368. 15510.
8.3910 8.3779 15650(130) 0.0000619 15362. 15513.
8.3948 8.3817 15190(120) 0.0000649 15356. 15517.
8.3985 8.3854 15540(130) 0.0000623 15350. 15522.
8.4023 8.3892 15170(130) 0.0000628 15344. 15527.
8.4060 8.3929 15510(130) 0.0000621 15338. 15535.
8.4098 8.3967 15190(130) 0.0000637 15333. 15544.
8.4136 8.4005 15780(130) 0.0000612 15327. 15555.
8.4173 8.4042 15000(120) 0.0000649 15321. 15567.
8.4211 8.4080 15770(130) 0.0000613 15315. 15583.
8.4248 8.4117 15230(130) 0.0000631 15309. 15601.
8.4286 8.4155 15600(130) 0.0000616 15303. 15624.
8.4323 8.4192 15290(130) 0.0000621 15297. 15650.
8.4361 8.4230 15640(130) 0.0000616 15291. 15682.
8.4399 8.4268 15310(130) 0.0000620 15285. 15720.
8.4436 8.4305 15930(130) 0.0000608 15279. 15766.
8.4474 8.4343 15740(130) 0.0000607 15273. 15822.
8.4511 8.4380 15590(130) 0.0000620 15267. 15891.
8.4549 8.4418 15650(130) 0.0000606 15261. 15976.
8.4586 8.4455 15600(130) 0.0000620 15255. 16083.
8.4624 8.4493 15860(130) 0.0000618 15249. 16219.
8.4662 8.4530 16070(130) 0.0000602 15243. 16394.
8.4699 8.4568 16210(130) 0.0000592 15237. 16626.
8.4737 8.4606 17010(130) 0.0000565 15231. 16938.
8.4812 8.4681 17730(140) 0.0000548 15219. 17998.
8.4849 8.4718 18580(140) 0.0000505 15213. 18950.
8.4887 8.4756 21050(150) 0.0000462 15207. 20578.
8.4924 8.4793 26290(160) 0.0000372 15201. 24081.
8.4962 8.4831 42220(210) 0.0000221 15195. 33095.
8.5000 8.4869 71220(280) 0.0000124 15189. 53467.
8.5037 8.4906 106570(360) 7.68e-6 15184. 84512.
8.5075 8.4944 109770(360) 7.54e-6 15178. 99731.
8.5112 8.4981 80870(310) 0.0000106 15172. 75729.
8.5150 8.5019 46900(230) 0.0000194 15166. 46474.
8.5188 8.5056 30890(180) 0.0000306 15160. 29695.
8.5225 8.5094 22900(150) 0.0000428 15154. 22734.
8.5263 8.5132 19940(140) 0.0000492 15148. 19955.
8.5300 8.5169 17570(130) 0.0000557 15142. 18570.
8.5338 8.5207 17180(130) 0.0000568 15136. 17716.
8.5375 8.5244 16300(130) 0.0000590 15130. 17140.
8.5413 8.5282 16520(130) 0.0000589 15124. 16733.
8.5451 8.5319 15930(130) 0.0000625 15118. 16434.
8.5488 8.5357 16050(130) 0.0000605 15113. 16208.
8.5526 8.5395 15430(120) 0.0000653 15107. 16033.
8.5563 8.5432 15600(130) 0.0000624 15101. 15894.
8.5601 8.5470 15280(120) 0.0000646 15095. 15781.
8.5638 8.5507 15530(120) 0.0000648 15089. 15689.
8.5676 8.5545 15230(120) 0.0000652 15083. 15612.
8.5714 8.5582 15250(130) 0.0000637 15077. 15547.
8.5751 8.5620 15250(130) 0.0000627 15071. 15491.
8.5789 8.5658 15300(130) 0.0000643 15065. 15443.
8.5826 8.5695 14810(120) 0.0000663 15060. 15401.
8.5864 8.5733 15200(130) 0.0000635 15054. 15364.
8.5901 8.5770 15070(120) 0.0000662 15048. 15331.
8.5939 8.5808 15250(120) 0.0000646 15042. 15301.
8.5977 8.5845 14780(120) 0.0000649 15036. 15275.
8.6014 8.5883 15170(130) 0.0000635 15030. 15250.
8.6052 8.5921 14840(130) 0.0000641 15024. 15228.
8.6089 8.5958 15140(130) 0.0000631 15018. 15208.
8.6127 8.5996 14720(120) 0.0000673 15013. 15189.
8.6164 8.6033 15240(120) 0.0000662 15007. 15171.
8.6202 8.6071 14910(130) 0.0000643 15001. 15155.
8.6240 8.6109 14980(120) 0.0000658 14995. 15139.
8.6277 8.6146 14770(120) 0.0000656 14989. 15125.
8.6315 8.6184 15120(120) 0.0000662 14983. 15111.
8.6352 8.6221 14670(120) 0.0000669 14977. 15098.
8.6390 8.6259 15050(120) 0.0000655 14972. 15085.
8.6427 8.6296 14820(120) 0.0000673 14966. 15073.
8.6465 8.6334 15090(120) 0.0000655 14960. 15062.
8.6503 8.6372 14840(120) 0.0000667 14954. 15051.
8.6540 8.6409 14810(120) 0.0000664 14948. 15040.
8.6578 8.6447 14580(120) 0.0000664 14942. 15030.
8.6615 8.6484 14900(120) 0.0000671 14936. 15020.
8.6653 8.6522 14490(120) 0.0000705 14931. 15010.
8.6691 8.6559 14810(120) 0.0000660 14925. 15001.
8.6728 8.6597 14660(120) 0.0000665 14919. 14991.
8.6766 8.6635 14870(120) 0.0000663 14913. 14982.
8.6803 8.6672 14880(120) 0.0000654 14907. 14972.
8.6841 8.6710 14890(120) 0.0000662 14901. 14964.
8.6878 8.6747 14600(120) 0.0000678 14896. 14955.
8.6916 8.6785 14900(120) 0.0000664 14890. 14947.
8.6954 8.6822 14570(120) 0.0000670 14884. 14939.
8.6991 8.6860 14980(130) 0.0000643 14878. 14931.
8.7029 8.6898 14690(120) 0.0000667 14872. 14923.
8.7066 8.6935 14910(120) 0.0000663 14867. 14916.
8.7104 8.6973 14770(120) 0.0000661 14861. 14908.
8.7141 8.7010 15080(130) 0.0000645 14855. 14901.
8.7179 8.7048 14720(120) 0.0000666 14849. 14893.
8.7217 8.7086 14870(120) 0.0000650 14843. 14886.
8.7254 8.7123 14680(120) 0.0000675 14838. 14879.
8.7292 8.7161 15070(130) 0.0000640 14832. 14871.
8.7329 8.7198 14510(120) 0.0000685 14826. 14864.
8.7367 8.7236 14900(120) 0.0000652 14820. 14857.
8.7404 8.7273 14490(120) 0.0000676 14814. 14850.
8.7442 8.7311 14860(120) 0.0000675 14809. 14843.
8.7480 8.7349 14620(120) 0.0000669 14803. 14836.
8.7517 8.7386 14810(120) 0.0000671 14797. 14830.
8.7555 8.7424 14570(120) 0.0000673 14791. 14823.
8.7592 8.7461 14810(120) 0.0000664 14785. 14816.
8.7630 8.7499 14520(120) 0.0000670 14780. 14809.
8.7668 8.7537 14730(120) 0.0000689 14774. 14803.
8.7705 8.7574 14420(120) 0.0000685 14768. 14796.
8.7743 8.7612 15030(120) 0.0000664 14762. 14790.
8.7780 8.7649 14480(120) 0.0000672 14756. 14783.
8.7818 8.7687 14870(120) 0.0000665 14751. 14777.
8.7855 8.7724 14570(120) 0.0000689 14745. 14770.
8.7893 8.7762 14910(120) 0.0000669 14739. 14764.
8.7931 8.7800 14500(120) 0.0000676 14733. 14757.
8.7968 8.7837 14710(120) 0.0000672 14728. 14751.
8.8006 8.7875 14270(120) 0.0000715 14722. 14745.
8.8119 8.7987 14710(120) 0.0000688 14705. 14726.
8.8156 8.8025 14440(120) 0.0000687 14699. 14719.
8.8194 8.8063 14630(120) 0.0000683 14693. 14713.
8.8231 8.8100 14410(120) 0.0000687 14687. 14707.
8.8269 8.8138 14710(120) 0.0000664 14682. 14701.
8.8306 8.8175 14490(120) 0.0000674 14676. 14694.
8.8344 8.8213 14840(120) 0.0000661 14670. 14688.
8.8382 8.8251 14240(120) 0.0000690 14664. 14682.
8.8419 8.8288 14700(120) 0.0000668 14659. 14676.
8.8457 8.8326 14200(120) 0.0000700 14653. 14670.
8.8494 8.8363 14600(120) 0.0000674 14647. 14664.
8.8532 8.8401 14600(120) 0.0000660 14641. 14658.
8.8570 8.8439 14570(120) 0.0000680 14636. 14652.
8.8607 8.8476 14700(120) 0.0000668 14630. 14646.
8.8645 8.8514 14420(120) 0.0000682 14624. 14639.
8.8682 8.8551 14100(120) 0.0000721 14618. 14633.
8.8720 8.8589 14810(120) 0.0000658 14613. 14627.
8.8757 8.8626 14300(120) 0.0000683 14607. 14621.
8.8795 8.8664 14570(120) 0.0000666 14601. 14615.
8.8833 8.8702 14370(120) 0.0000681 14595. 14609.
8.8870 8.8739 14460(120) 0.0000693 14590. 14603.
8.8908 8.8777 14150(120) 0.0000693 14584. 14597.
8.8945 8.8814 14790(120) 0.0000662 14578. 14591.
8.8983 8.8852 14200(120) 0.0000690 14573. 14585.
8.9021 8.8889 14580(120) 0.0000676 14567. 14579.
8.9058 8.8927 14250(120) 0.0000689 14561. 14574.
8.9096 8.8965 14520(120) 0.0000667 14555. 14568.
8.9133 8.9002 14230(120) 0.0000698 14550. 14562.
8.9171 8.9040 14480(120) 0.0000680 14544. 14556.
8.9208 8.9077 14200(120) 0.0000691 14538. 14550.
8.9246 8.9115 14750(120) 0.0000663 14533. 14544.
8.9284 8.9153 14150(120) 0.0000696 14527. 14538.
8.9321 8.9190 14410(120) 0.0000684 14521. 14532.
8.9359 8.9228 14510(120) 0.0000671 14516. 14526.
8.9396 8.9265 14420(120) 0.0000679 14510. 14520.
8.9434 8.9303 14150(120) 0.0000697 14504. 14514.
8.9472 8.9340 14280(120) 0.0000704 14498. 14509.
8.9509 8.9378 14020(120) 0.0000700 14493. 14503.
8.9547 8.9416 14520(120) 0.0000679 14487. 14497.
8.9584 8.9453 13940(120) 0.0000709 14481. 14491.
8.9622 8.9491 14610(120) 0.0000667 14476. 14485.
8.9660 8.9529 14120(120) 0.0000693 14470. 14479.
8.9697 8.9566 14310(120) 0.0000690 14464. 14473.
8.9735 8.9604 14110(120) 0.0000701 14459. 14468.
8.9772 8.9641 14280(120) 0.0000691 14453. 14462.
8.9810 8.9679 14150(120) 0.0000712 14447. 14456.
8.9847 8.9716 14620(120) 0.0000675 14442. 14450.
8.9885 8.9754 14120(120) 0.0000701 14436. 14444.
8.9923 8.9792 14410(120) 0.0000687 14430. 14439.
8.9960 8.9829 13960(120) 0.0000716 14425. 14433.
8.9998 8.9867 14280(120) 0.0000710 14419. 14427.
9.0035 8.9904 14190(120) 0.0000703 14413. 14421.
9.0073 8.9942 14500(120) 0.0000682 14408. 14415.
9.0111 8.9979 14160(120) 0.0000693 14402. 14410.
9.0148 9.0017 14590(120) 0.0000681 14396. 14404.
9.0186 9.0055 13920(120) 0.0000712 14391. 14398.
9.0223 9.0092 14270(120) 0.0000688 14385. 14392.
9.0261 9.0130 13870(120) 0.0000724 14379. 14387.
9.0299 9.0167 14400(120) 0.0000678 14374. 14381.
9.0336 9.0205 14090(120) 0.0000701 14368. 14375.
9.0374 9.0243 14330(120) 0.0000686 14362. 14369.
9.0411 9.0280 14070(120) 0.0000718 14357. 14364.
9.0449 9.0318 14450(120) 0.0000687 14351. 14358.
9.0486 9.0355 13820(120) 0.0000721 14345. 14352.
9.0524 9.0393 14580(120) 0.0000679 14340. 14346.
9.0562 9.0431 13750(120) 0.0000707 14334. 14341.
9.0599 9.0468 14220(120) 0.0000700 14328. 14335.
9.0637 9.0506 13670(120) 0.0000739 14323. 14329.
9.0674 9.0543 14170(120) 0.0000707 14317. 14323.
9.0712 9.0581 14090(120) 0.0000688 14312. 14318.
9.0750 9.0619 14530(120) 0.0000680 14306. 14312.
9.0787 9.0656 14090(120) 0.0000708 14300. 14300.
9.0825 9.0694 14110(120) 0.0000720 14295. 14295.
9.0862 9.0731 13970(120) 0.0000717 14289. 14289.
9.0900 9.0769 14160(120) 0.0000689 14283. 14283.
9.0938 9.0806 13790(120) 0.0000713 14278. 14278.
9.0975 9.0844 14220(120) 0.0000689 14272. 14272.
9.1013 9.0882 14070(120) 0.0000702 14267. 14267.
9.1050 9.0919 14370(120) 0.0000697 14261. 14261.
9.1088 9.0957 13860(120) 0.0000730 14255. 14255.
9.1126 9.0995 14310(120) 0.0000696 14250. 14250.
9.1163 9.1032 13910(120) 0.0000711 14244. 14244.
9.1201 9.1070 14220(120) 0.0000698 14238. 14238.
9.1238 9.1107 13830(120) 0.0000720 14233. 14233.
9.1276 9.1145 14160(120) 0.0000709 14227. 14227.
9.1314 9.1182 13690(120) 0.0000726 14222. 14222.
9.1351 9.1220 14190(120) 0.0000699 14216. 14216.
9.1389 9.1258 13940(120) 0.0000715 14210. 14210.
9.1426 9.1295 14070(120) 0.0000702 14205. 14205.
9.1464 9.1333 13910(120) 0.0000725 14199. 14199.
9.1501 9.1370 14090(120) 0.0000704 14194. 14194.
9.1539 9.1408 13820(120) 0.0000712 14188. 14188.
9.1577 9.1446 14160(120) 0.0000709 14182. 14182.
9.1614 9.1483 13880(120) 0.0000692 14177. 14177.
9.1652 9.1521 14440(120) 0.0000686 14171. 14171.
9.1689 9.1558 13710(120) 0.0000724 14166. 14166.
9.1727 9.1596 14270(120) 0.0000685 14160. 14160.
9.1765 9.1634 13820(120) 0.0000718 14154. 14154.
9.1802 9.1671 13880(120) 0.0000715 14149. 14149.
9.1840 9.1709 13660(120) 0.0000725 14143. 14143.
9.1877 9.1746 14220(120) 0.0000687 14138. 14138.
9.1915 9.1784 13650(120) 0.0000717 14132. 14132.
9.1953 9.1822 14130(120) 0.0000701 14126. 14126.
9.1990 9.1859 13730(120) 0.0000750 14121. 14121.
9.2028 9.1897 14260(120) 0.0000684 14115. 14115.
9.2065 9.1934 13710(120) 0.0000723 14110. 14110.
9.2103 9.1972 14190(120) 0.0000689 14104. 14104.
9.2141 9.2009 13710(120) 0.0000720 14099. 14099.
9.2178 9.2047 14080(120) 0.0000703 14093. 14093.
9.2216 9.2085 13660(120) 0.0000730 14087. 14087.
9.2253 9.2122 14130(120) 0.0000695 14082. 14082.
9.2291 9.2160 13630(120) 0.0000742 14076. 14076.
9.2329 9.2197 13880(120) 0.0000714 14071. 14071.
9.2366 9.2235 13740(120) 0.0000730 14065. 14065.
9.2404 9.2273 14150(120) 0.0000685 14060. 14060.
9.2441 9.2310 13760(120) 0.0000743 14054. 14054.
9.2479 9.2348 14100(120) 0.0000701 14048. 14048.
9.2517 9.2385 13610(120) 0.0000732 14043. 14043.
9.2554 9.2423 14230(120) 0.0000685 14037. 14037.
9.2592 9.2461 13750(120) 0.0000726 14032. 14032.
9.2629 9.2498 14030(120) 0.0000694 14026. 14026.
9.2667 9.2536 13570(120) 0.0000716 14021. 14021.
9.2705 9.2573 14030(120) 0.0000694 14015. 14015.
9.2742 9.2611 13590(120) 0.0000733 14009. 14009.
9.2780 9.2649 13920(120) 0.0000720 14004. 14004.
9.2817 9.2686 13590(120) 0.0000732 13998. 13998.
9.2855 9.2724 13900(120) 0.0000704 13993. 13993.
9.2892 9.2761 13720(120) 0.0000715 13987. 13987.
9.2930 9.2799 13830(120) 0.0000711 13982. 13982.
9.2968 9.2837 13570(120) 0.0000730 13976. 13976.
9.3005 9.2874 14040(120) 0.0000704 13971. 13971.
9.3043 9.2912 13710(120) 0.0000710 13965. 13965.
9.3080 9.2949 13980(120) 0.0000698 13960. 13960.
9.3118 9.2987 13600(120) 0.0000731 13954. 13954.
9.3156 9.3025 13920(120) 0.0000703 13948. 13948.
9.3193 9.3062 13410(120) 0.0000733 13943. 13943.
9.3231 9.3100 14040(120) 0.0000696 13937. 13937.
9.3268 9.3137 13530(120) 0.0000743 13932. 13932.
9.3306 9.3175 13790(120) 0.0000713 13926. 13926.
9.3344 9.3213 13650(120) 0.0000719 13921. 13921.
9.3381 9.3250 13930(120) 0.0000702 13915. 13915.
9.3419 9.3288 13730(120) 0.0000706 13910. 13910.
9.3456 9.3325 14020(120) 0.0000695 13904. 13904.
9.3494 9.3363 13480(120) 0.0000735 13899. 13899.
9.3532 9.3401 14110(120) 0.0000703 13893. 13893.
9.3569 9.3438 13760(120) 0.0000722 13888. 13888.
9.3607 9.3476 14030(120) 0.0000696 13882. 13882.
9.3644 9.3513 13740(120) 0.0000716 13877. 13877.
9.3682 9.3551 13820(120) 0.0000721 13871. 13871.
9.3720 9.3589 13690(120) 0.0000709 13866. 13866.
9.3757 9.3626 14060(120) 0.0000682 13860. 13860.
9.3795 9.3664 13510(120) 0.0000739 13855. 13855.
9.3832 9.3701 13710(120) 0.0000711 13849. 13849.
9.3870 9.3739 13850(120) 0.0000694 13844. 13844.
9.3908 9.3777 13770(120) 0.0000695 13838. 13838.
9.3945 9.3814 13350(120) 0.0000759 13832. 13832.
9.3983 9.3852 13940(120) 0.0000715 13827. 13827.
9.4020 9.3889 13590(120) 0.0000723 13821. 13821.
9.4058 9.3927 14110(120) 0.0000695 13816. 13816.
9.4096 9.3965 13600(120) 0.0000715 13810. 13810.
9.4133 9.4002 13900(120) 0.0000719 13805. 13805.
9.4171 9.4040 13380(120) 0.0000751 13799. 13799.
9.4208 9.4077 13850(120) 0.0000717 13794. 13794.
9.4246 9.4115 13450(120) 0.0000741 13788. 13788.
9.4284 9.4153 13600(120) 0.0000721 13783. 13783.
9.4321 9.4190 13590(120) 0.0000722 13777. 13777.
9.4359 9.4228 13960(120) 0.0000703 13772. 13772.
9.4396 9.4265 13400(120) 0.0000726 13766. 13766.
9.4434 9.4303 13970(120) 0.0000700 13761. 13761.
9.4472 9.4341 13720(120) 0.0000711 13755. 13755.
9.4509 9.4378 13980(120) 0.0000693 13750. 13750.
9.4547 9.4416 13510(120) 0.0000726 13745. 13745.
9.4584 9.4453 13790(120) 0.0000716 13739. 13739.
9.4622 9.4491 13450(120) 0.0000723 13734. 13734.
9.4660 9.4529 13660(120) 0.0000708 13728. 13728.
9.4697 9.4566 13430(120) 0.0000744 13723. 13723.
9.4735 9.4604 14040(120) 0.0000684 13717. 13717.
9.4772 9.4641 13600(120) 0.0000722 13712. 13712.
9.4810 9.4679 13800(120) 0.0000713 13706. 13706.
9.4848 9.4717 13320(120) 0.0000751 13701. 13701.
9.4885 9.4754 13880(120) 0.0000713 13695. 13695.
9.4923 9.4792 13370(120) 0.0000754 13690. 13690.
9.4998 9.4867 13400(120) 0.0000746 13679. 13679.
9.5036 9.4905 13630(120) 0.0000711 13673. 13673.
9.5073 9.4942 13320(120) 0.0000745 13668. 13668.
9.5111 9.4980 13550(120) 0.0000718 13662. 13662.
9.5148 9.5017 13430(120) 0.0000722 13657. 13657.
9.5186 9.5055 13710(120) 0.0000715 13651. 13651.
9.5224 9.5093 13280(120) 0.0000738 13646. 13646.
9.5261 9.5130 13440(120) 0.0000722 13640. 13640.
9.5299 9.5168 13420(120) 0.0000739 13635. 13635.
9.5337 9.5205 13680(120) 0.0000727 13630. 13630.
9.5374 9.5243 13470(120) 0.0000730 13624. 13624.
9.5412 9.5281 13700(120) 0.0000697 13619. 13619.
9.5449 9.5318 13400(120) 0.0000721 13613. 13613.
9.5487 9.5356 13640(120) 0.0000711 13608. 13608.
9.5525 9.5393 13330(120) 0.0000726 13602. 13602.
9.5562 9.5431 13770(120) 0.0000717 13597. 13597.
9.5600 9.5469 13130(120) 0.0000727 13591. 13591.
9.5637 9.5506 13720(120) 0.0000721 13586. 13586.
9.5675 9.5544 13250(120) 0.0000758 13580. 13580.
9.5713 9.5581 13640(120) 0.0000728 13575. 13575.
9.5750 9.5619 13360(120) 0.0000722 13570. 13570.
9.5788 9.5657 13540(120) 0.0000722 13564. 13564.
9.5825 9.5694 13180(120) 0.0000753 13559. 13559.
9.5863 9.5732 13630(120) 0.0000715 13553. 13553.
9.5900 9.5769 13200(120) 0.0000739 13548. 13548.
9.5938 9.5807 13780(120) 0.0000705 13542. 13542.
9.5976 9.5845 13450(120) 0.0000722 13537. 13537.
9.6013 9.5882 13400(120) 0.0000730 13531. 13531.
9.6051 9.5920 13220(120) 0.0000742 13526. 13526.
9.6089 9.5957 13540(120) 0.0000719 13521. 13521.
9.6126 9.5995 13440(120) 0.0000725 13515. 13515.
9.6164 9.6033 13720(120) 0.0000708 13510. 13510.
9.6201 9.6070 13290(120) 0.0000735 13504. 13504.
9.6239 9.6108 13510(120) 0.0000718 13499. 13499.
9.6277 9.6146 13270(120) 0.0000738 13493. 13493.
9.6314 9.6183 13470(120) 0.0000735 13488. 13488.
9.6352 9.6221 13170(120) 0.0000755 13483. 13483.
9.6389 9.6258 13370(120) 0.0000736 13477. 13477.
9.6427 9.6296 13240(120) 0.0000744 13472. 13472.
9.6465 9.6334 13510(120) 0.0000725 13466. 13466.
9.6502 9.6371 13310(120) 0.0000750 13461. 13461.
9.6540 9.6409 13600(120) 0.0000716 13455. 13455.
9.6577 9.6446 13360(120) 0.0000738 13450. 13450.
9.6615 9.6484 13520(120) 0.0000740 13445. 13445.
9.6690 9.6559 13310(110) 0.0000774 13434. 13434.
9.6728 9.6597 13350(120) 0.0000726 13428. 13428.
9.6765 9.6634 13600(120) 0.0000715 13423. 13423.
9.6803 9.6672 13370(120) 0.0000739 13418. 13418.
9.6841 9.6710 13490(120) 0.0000728 13412. 13412.
9.6878 9.6747 13120(120) 0.0000742 13407. 13407.
9.6916 9.6785 13390(120) 0.0000734 13401. 13401.
9.6954 9.6823 13200(120) 0.0000737 13396. 13396.
9.6991 9.6860 13370(120) 0.0000746 13390. 13390.
9.7029 9.6898 13110(120) 0.0000748 13385. 13385.
9.7066 9.6935 13310(120) 0.0000748 13380. 13380.
9.7104 9.6973 13260(120) 0.0000740 13374. 13374.
9.7142 9.7010 13310(120) 0.0000739 13369. 13369.
9.7179 9.7048 13020(120) 0.0000742 13363. 13363.
9.7217 9.7086 13260(120) 0.0000743 13358. 13358.
9.7254 9.7123 13080(120) 0.0000747 13353. 13353.
9.7292 9.7161 13450(120) 0.0000729 13347. 13347.
9.7330 9.7198 13060(120) 0.0000751 13342. 13342.
9.7367 9.7236 13360(110) 0.0000771 13336. 13336.
9.7405 9.7274 12930(110) 0.0000766 13331. 13331.
9.7442 9.7311 13440(120) 0.0000749 13326. 13326.
9.7480 9.7349 13170(120) 0.0000757 13320. 13320.
9.7518 9.7387 13510(120) 0.0000728 13315. 13315.
9.7555 9.7424 13050(120) 0.0000750 13309. 13309.
9.7593 9.7462 13520(120) 0.0000723 13304. 13304.
9.7630 9.7499 13180(120) 0.0000738 13299. 13299.
9.7668 9.7537 13270(120) 0.0000748 13293. 13293.
9.7706 9.7575 12960(120) 0.0000759 13288. 13288.
9.7743 9.7612 13730(120) 0.0000697 13283. 13283.
9.7781 9.7650 13110(120) 0.0000762 13277. 13277.
9.7818 9.7687 13310(110) 0.0000763 13272. 13272.
9.7856 9.7725 12980(120) 0.0000752 13266. 13266.
9.7894 9.7763 13280(120) 0.0000729 13261. 13261.
9.7931 9.7800 13150(120) 0.0000737 13256. 13256.
9.7969 9.7838 13310(120) 0.0000741 13250. 13250.
9.8006 9.7875 12920(120) 0.0000758 13245. 13245.
9.8044 9.7913 13370(120) 0.0000726 13240. 13240.
9.8082 9.7951 13090(120) 0.0000739 13234. 13234.
9.8119 9.7988 13210(120) 0.0000747 13229. 13229.
9.8157 9.8026 13080(120) 0.0000749 13223. 13223.
9.8195 9.8063 13120(120) 0.0000745 13218. 13218.
9.8232 9.8101 12890(110) 0.0000778 13213. 13213.
9.8270 9.8139 13080(110) 0.0000763 13207. 13207.
9.8307 9.8176 12970(110) 0.0000764 13202. 13202.
9.8345 9.8214 13330(120) 0.0000728 13197. 13197.
9.8383 9.8251 12950(110) 0.0000771 13191. 13191.
9.8420 9.8289 13280(120) 0.0000734 13186. 13186.
9.8458 9.8327 13040(120) 0.0000739 13180. 13180.
9.8495 9.8364 13110(120) 0.0000745 13175. 13175.
9.8533 9.8402 12840(110) 0.0000769 13170. 13170.
9.8571 9.8440 13480(120) 0.0000712 13164. 13164.
9.8608 9.8477 12750(110) 0.0000767 13159. 13159.
9.8646 9.8515 13210(120) 0.0000750 13154. 13154.
9.8683 9.8552 12900(110) 0.0000768 13148. 13148.
9.8721 9.8590 13000(120) 0.0000748 13143. 13143.
9.8759 9.8628 12840(120) 0.0000754 13138. 13138.
9.8796 9.8665 13290(120) 0.0000729 13132. 13132.
9.8834 9.8703 12910(120) 0.0000754 13127. 13127.
9.8871 9.8740 13230(120) 0.0000735 13122. 13122.
9.8909 9.8778 13090(110) 0.0000776 13116. 13116.
9.8947 9.8816 12980(120) 0.0000760 13111. 13111.
9.8984 9.8853 12690(110) 0.0000773 13105. 13105.
9.9022 9.8891 12990(120) 0.0000758 13100. 13100.
9.9060 9.8928 12960(120) 0.0000755 13095. 13095.
9.9097 9.8966 13230(120) 0.0000753 13089. 13089.
9.9135 9.9004 13020(110) 0.0000775 13084. 13084.
9.9172 9.9041 13310(120) 0.0000730 13079. 13079.
9.9210 9.9079 12940(120) 0.0000761 13073. 13073.
9.9248 9.9116 13120(120) 0.0000732 13068. 13068.
9.9285 9.9154 12860(120) 0.0000746 13063. 13063.
9.9323 9.9192 13100(120) 0.0000754 13057. 13057.
9.9360 9.9229 12830(110) 0.0000769 13052. 13052.
9.9398 9.9267 13070(120) 0.0000761 13047. 13047.
9.9436 9.9305 12880(110) 0.0000773 13041. 13041.
9.9473 9.9342 12670(110) 0.0000793 13036. 13036.
9.9511 9.9380 12690(110) 0.0000780 13031. 13031.
9.9548 9.9417 13120(110) 0.0000770 13025. 13025.
9.9586 9.9455 12770(110) 0.0000790 13020. 13020.
9.9624 9.9493 13080(120) 0.0000755 13015. 13015.
9.9661 9.9530 12880(110) 0.0000768 13009. 13009.
9.9699 9.9568 12950(110) 0.0000776 13004. 13004.
9.9736 9.9605 12950(120) 0.0000753 12999. 12999.
9.9774 9.9643 13100(120) 0.0000753 12993. 12993.
9.9812 9.9681 12700(110) 0.0000781 12988. 12988.
9.9849 9.9718 13090(120) 0.0000754 12983. 12983.
9.9887 9.9756 12800(110) 0.0000782 12977. 12977.
9.9924 9.9793 13310(120) 0.0000746 12972. 12972.
9.9962 9.9831 12720(110) 0.0000788 12967. 12967.
10.0000 9.9869 12840(110) 0.0000782 12961. 12961.
10.0037 9.9906 12860(110) 0.0000771 12956. 12956.
10.0075 9.9944 12950(120) 0.0000755 12951. 12951.
10.0113 9.9982 12750(110) 0.0000777 12945. 12945.
10.0150 10.0019 12910(110) 0.0000767 12940. 12940.
10.0188 10.0057 12840(110) 0.0000776 12935. 12935.
10.0225 10.0094 12880(110) 0.0000773 12930. 12930.
10.0263 10.0132 12690(110) 0.0000780 12924. 12924.
10.0301 10.0170 13090(120) 0.0000756 12919. 12919.
10.0338 10.0207 12710(110) 0.0000793 12914. 12914.
10.0376 10.0245 13010(110) 0.0000774 12908. 12908.
10.0413 10.0282 12820(110) 0.0000772 12903. 12903.
10.0451 10.0320 12940(110) 0.0000776 12898. 12898.
10.0489 10.0358 12620(110) 0.0000785 12892. 12892.
10.0526 10.0395 12920(120) 0.0000760 12887. 12887.
10.0564 10.0433 12680(110) 0.0000767 12882. 12882.
10.0601 10.0470 13300(120) 0.0000719 12877. 12877.
10.0639 10.0508 12850(110) 0.0000775 12871. 12871.
10.0677 10.0546 12970(110) 0.0000777 12866. 12866.
10.0714 10.0583 12560(110) 0.0000788 12861. 12861.
10.0752 10.0621 13180(120) 0.0000742 12855. 12855.
10.0790 10.0659 12690(110) 0.0000778 12850. 12850.
10.0827 10.0696 13040(110) 0.0000764 12845. 12845.
10.0865 10.0734 12550(110) 0.0000794 12839. 12839.
10.0902 10.0771 12660(110) 0.0000803 12834. 12834.
10.0940 10.0809 12630(110) 0.0000784 12829. 12829.
10.0978 10.0847 12960(110) 0.0000767 12823. 12823.
10.1015 10.0884 12650(110) 0.0000777 12818. 12818.
10.1053 10.0922 12780(110) 0.0000780 12813. 12813.
10.1090 10.0959 12620(110) 0.0000774 12808. 12808.
10.1128 10.0997 13120(120) 0.0000745 12802. 12802.
10.1166 10.1035 12600(110) 0.0000785 12797. 12797.
10.1203 10.1072 12900(110) 0.0000769 12792. 12792.
10.1241 10.1110 12840(120) 0.0000760 12786. 12786.
10.1278 10.1147 12820(110) 0.0000776 12781. 12781.
10.1316 10.1185 12740(110) 0.0000764 12776. 12776.
10.1354 10.1223 13050(120) 0.0000753 12771. 12771.
10.1391 10.1260 12670(110) 0.0000779 12765. 12765.
10.1429 10.1298 12850(110) 0.0000769 12760. 12760.
10.1467 10.1336 12920(120) 0.0000760 12755. 12755.
10.1504 10.1373 13160(120) 0.0000749 12750. 12750.
10.1542 10.1411 12820(110) 0.0000767 12744. 12744.
10.1579 10.1448 12830(110) 0.0000771 12739. 12739.
10.1617 10.1486 12420(110) 0.0000796 12734. 12734.
10.1655 10.1524 12820(110) 0.0000779 12728. 12728.
10.1692 10.1561 12580(110) 0.0000810 12723. 12723.
10.1730 10.1599 13100(120) 0.0000743 12718. 12718.
10.1767 10.1636 12650(110) 0.0000776 12713. 12713.
10.1805 10.1674 12850(110) 0.0000769 12707. 12707.
10.1843 10.1712 12660(110) 0.0000778 12702. 12702.
10.1880 10.1749 12680(110) 0.0000784 12697. 12697.
10.1918 10.1787 12350(110) 0.0000800 12692. 12691.
10.1955 10.1824 12780(110) 0.0000784 12686. 12686.
10.1993 10.1862 12370(110) 0.0000791 12681. 12681.
10.2031 10.1900 12780(110) 0.0000765 12676. 12676.
10.2068 10.1937 12380(110) 0.0000804 12671. 12671.
10.2106 10.1975 12770(110) 0.0000776 12665. 12665.
10.2144 10.2013 12310(110) 0.0000808 12660. 12660.
10.2181 10.2050 12640(110) 0.0000785 12655. 12655.
10.2219 10.2088 12300(110) 0.0000788 12649. 12649.
10.2256 10.2125 12740(110) 0.0000782 12644. 12644.
10.2294 10.2163 12240(110) 0.0000819 12639. 12639.
10.2332 10.2201 12600(110) 0.0000775 12634. 12634.
10.2369 10.2238 12330(110) 0.0000799 12628. 12628.
10.2407 10.2276 12770(110) 0.0000776 12623. 12623.
10.2444 10.2313 12400(110) 0.0000787 12618. 12618.
10.2482 10.2351 12830(110) 0.0000770 12613. 12613.
10.2520 10.2389 12250(110) 0.0000817 12607. 12607.
10.2557 10.2426 12610(110) 0.0000775 12602. 12602.
10.2595 10.2464 12410(110) 0.0000790 12597. 12597.
10.2632 10.2501 12690(110) 0.0000779 12592. 12592.
10.2670 10.2539 12340(110) 0.0000791 12586. 12586.
10.2708 10.2577 12670(110) 0.0000775 12581. 12581.
10.2745 10.2614 12320(110) 0.0000789 12576. 12576.
10.2783 10.2652 12690(120) 0.0000762 12571. 12571.
10.2821 10.2690 12430(110) 0.0000793 12565. 12565.
10.2858 10.2727 12650(110) 0.0000773 12560. 12560.
10.2896 10.2765 12200(110) 0.0000811 12555. 12555.
10.2933 10.2802 12790(120) 0.0000759 12550. 12550.
10.2971 10.2840 12280(110) 0.0000806 12544. 12544.
10.3009 10.2878 12500(110) 0.0000797 12539. 12539.
10.3046 10.2915 12420(110) 0.0000792 12534. 12534.
10.3084 10.2953 12650(110) 0.0000786 12529. 12529.
10.3121 10.2990 12330(110) 0.0000790 12524. 12524.
10.3159 10.3028 12560(110) 0.0000777 12518. 12518.
10.3197 10.3066 12270(110) 0.0000805 12513. 12513.
10.3234 10.3103 12570(110) 0.0000770 12508. 12508.
10.3272 10.3141 12250(110) 0.0000803 12503. 12503.
10.3309 10.3178 12620(110) 0.0000786 12497. 12497.
10.3347 10.3216 12370(110) 0.0000804 12492. 12492.
10.3385 10.3254 12440(110) 0.0000781 12487. 12487.
10.3422 10.3291 12250(110) 0.0000808 12482. 12482.
10.3460 10.3329 12470(110) 0.0000807 12476. 12476.
10.3498 10.3367 12360(110) 0.0000805 12471. 12471.
10.3535 10.3404 12580(110) 0.0000781 12466. 12466.
10.3573 10.3442 12220(110) 0.0000792 12461. 12461.
10.3610 10.3479 12690(110) 0.0000782 12456. 12456.
10.3648 10.3517 12470(110) 0.0000799 12450. 12450.
10.3686 10.3555 12480(110) 0.0000795 12445. 12445.
10.3723 10.3592 12370(110) 0.0000777 12440. 12440.
10.3761 10.3630 12530(110) 0.0000770 12435. 12435.
10.3798 10.3667 12250(110) 0.0000808 12429. 12429.
10.3836 10.3705 12470(110) 0.0000805 12424. 12424.
10.3874 10.3743 12220(110) 0.0000813 12419. 12419.
10.3911 10.3780 12660(110) 0.0000766 12414. 12414.
10.3949 10.3818 12290(110) 0.0000800 12409. 12409.
10.3986 10.3855 12600(110) 0.0000778 12403. 12403.
10.4024 10.3893 12110(110) 0.0000808 12398. 12398.
10.4062 10.3931 12450(110) 0.0000803 12393. 12393.
10.4099 10.3968 12170(110) 0.0000816 12388. 12388.
10.4137 10.4006 12520(110) 0.0000786 12382. 12382.
10.4175 10.4044 12360(110) 0.0000805 12377. 12377.
10.4212 10.4081 12230(110) 0.0000827 12372. 12372.
10.4250 10.4119 12190(110) 0.0000828 12367. 12367.
10.4287 10.4156 12200(110) 0.0000817 12362. 12362.
10.4325 10.4194 12100(110) 0.0000834 12356. 12356.
10.4363 10.4232 12670(110) 0.0000789 12351. 12351.
10.4400 10.4269 11830(110) 0.0000863 12346. 12346.
10.4438 10.4307 12500(110) 0.0000794 12341. 12341.
10.4475 10.4344 12140(110) 0.0000826 12336. 12336.
10.4513 10.4382 12380(110) 0.0000836 12330. 12330.
10.4551 10.4420 11930(110) 0.0000857 12325. 12325.
10.4588 10.4457 12430(110) 0.0000801 12320. 12320.
10.4626 10.4495 11990(110) 0.0000840 12315. 12315.
10.4663 10.4532 12480(110) 0.0000804 12310. 12310.
10.4701 10.4570 12050(110) 0.0000838 12304. 12304.
10.4739 10.4608 12380(110) 0.0000790 12299. 12299.
10.4776 10.4645 12070(110) 0.0000814 12294. 12294.
10.4814 10.4683 12370(110) 0.0000804 12289. 12289.
10.4852 10.4721 12030(110) 0.0000836 12284. 12284.
10.4889 10.4758 12560(110) 0.0000794 12278. 12278.
10.4927 10.4796 12210(110) 0.0000834 12273. 12273.
10.4964 10.4833 12400(110) 0.0000811 12268. 12268.
10.5002 10.4871 12140(110) 0.0000840 12263. 12263.
10.5040 10.4909 12440(110) 0.0000838 12258. 12258.
10.5077 10.4946 12010(110) 0.0000825 12253. 12253.
10.5115 10.4984 12400(110) 0.0000803 12247. 12247.
10.5152 10.5021 11870(110) 0.0000849 12242. 12242.
10.5190 10.5059 12340(110) 0.0000807 12237. 12237.
10.5228 10.5097 11980(110) 0.0000848 12232. 12232.
10.5265 10.5134 11990(110) 0.0000831 12227. 12227.
10.5303 10.5172 11850(110) 0.0000845 12221. 12221.
10.5340 10.5209 12490(110) 0.0000795 12216. 12216.
10.5378 10.5247 11920(110) 0.0000840 12211. 12211.
10.5416 10.5285 12200(110) 0.0000823 12206. 12206.
10.5453 10.5322 11790(110) 0.0000859 12201. 12201.
10.5491 10.5360 12340(110) 0.0000824 12196. 12196.
10.5529 10.5398 11970(110) 0.0000842 12190. 12190.
10.5566 10.5435 12200(110) 0.0000838 12185. 12185.
10.5604 10.5473 11880(110) 0.0000843 12180. 12180.
10.5641 10.5510 12390(110) 0.0000803 12175. 12175.
10.5679 10.5548 12050(110) 0.0000828 12170. 12170.
10.5717 10.5586 12200(110) 0.0000831 12164. 12164.
10.5754 10.5623 11790(110) 0.0000855 12159. 12159.
10.5792 10.5661 12300(110) 0.0000813 12154. 12154.
10.5829 10.5698 11820(110) 0.0000851 12149. 12149.
10.5867 10.5736 12100(110) 0.0000834 12144. 12144.
10.5905 10.5774 12010(110) 0.0000841 12139. 12139.
10.5942 10.5811 12050(110) 0.0000868 12134. 12134.
10.5980 10.5849 12020(110) 0.0000836 12128. 12128.
10.6018 10.5887 12280(110) 0.0000809 12123. 12123.
10.6055 10.5924 11780(110) 0.0000856 12118. 12118.
10.6093 10.5962 12160(110) 0.0000831 12113. 12113.
10.6130 10.5999 11980(110) 0.0000838 12108. 12108.
10.6168 10.6037 12250(110) 0.0000821 12103. 12103.
10.6206 10.6075 11590(110) 0.0000882 12097. 12097.
10.6243 10.6112 12080(110) 0.0000845 12092. 12092.
10.6281 10.6150 11620(110) 0.0000861 12087. 12087.
10.6318 10.6187 12180(110) 0.0000823 12082. 12082.
10.6356 10.6225 11910(110) 0.0000845 12077. 12077.
10.6394 10.6263 12190(110) 0.0000833 12072. 12072.
10.6431 10.6300 11900(110) 0.0000835 12067. 12067.
10.6469 10.6338 12080(110) 0.0000842 12061. 12061.
10.6506 10.6375 11790(110) 0.0000853 12056. 12056.
10.6544 10.6413 12050(110) 0.0000828 12051. 12051.
10.6845 10.6714 12050(110) 0.0000835 12010. 12010.
10.6883 10.6752 11930(110) 0.0000846 12005. 12005.
10.6920 10.6789 12030(110) 0.0000843 12000. 12000.
10.6958 10.6827 11760(110) 0.0000852 11994. 11994.
10.6995 10.6864 12100(110) 0.0000855 11989. 11989.
10.7033 10.6902 11830(110) 0.0000864 11984. 11984.
10.7071 10.6940 11950(110) 0.0000845 11979. 11979.
10.7108 10.6977 11690(110) 0.0000861 11974. 11974.
10.7146 10.7015 12020(110) 0.0000824 11969. 11969.
10.7183 10.7052 11630(110) 0.0000844 11964. 11964.
10.7221 10.7090 11980(110) 0.0000861 11959. 11959.
10.7259 10.7128 11680(110) 0.0000844 11953. 11953.
10.7296 10.7165 11950(110) 0.0000827 11948. 11948.
10.7334 10.7203 11580(110) 0.0000849 11943. 11943.
10.7372 10.7241 12180(110) 0.0000814 11938. 11938.
10.7409 10.7278 11710(110) 0.0000869 11933. 11933.
10.7447 10.7316 12020(110) 0.0000821 11928. 11928.
10.7484 10.7353 11770(110) 0.0000830 11923. 11923.
10.7522 10.7391 12000(110) 0.0000806 11918. 11918.
10.7560 10.7429 11910(110) 0.0000839 11912. 11912.
10.7597 10.7466 12080(110) 0.0000815 11907. 11907.
10.7635 10.7504 11600(110) 0.0000853 11902. 11902.
10.7672 10.7541 11930(110) 0.0000839 11897. 11897.
10.7710 10.7579 11820(110) 0.0000842 11892. 11892.
10.7748 10.7617 11950(110) 0.0000819 11887. 11887.
10.7785 10.7654 11770(110) 0.0000840 11882. 11882.
10.7823 10.7692 11980(110) 0.0000832 11877. 11877.
10.7860 10.7729 11600(110) 0.0000856 11872. 11872.
10.7898 10.7767 12000(110) 0.0000835 11866. 11866.
10.7936 10.7805 11690(110) 0.0000882 11861. 11861.
10.7973 10.7842 12110(110) 0.0000834 11856. 11856.
10.8011 10.7880 11610(110) 0.0000849 11851. 11851.
10.8048 10.7917 12000(110) 0.0000850 11846. 11846.
10.8086 10.7955 11530(110) 0.0000871 11841. 11841.
10.8124 10.7993 11850(110) 0.0000846 11836. 11836.
10.8161 10.8030 11710(110) 0.0000882 11831. 11831.
10.8199 10.8068 11930(110) 0.0000827 11825. 11825.
10.8237 10.8106 11700(110) 0.0000850 11820. 11820.
10.8274 10.8143 11710(110) 0.0000850 11815. 11815.
10.8312 10.8181 11750(110) 0.0000846 11810. 11810.
10.8349 10.8218 11900(110) 0.0000835 11805. 11805.
10.8387 10.8256 11700(110) 0.0000862 11800. 11800.
10.8425 10.8294 11960(110) 0.0000826 11795. 11795.
10.8462 10.8331 11770(110) 0.0000838 11790. 11790.
10.8500 10.8369 12080(110) 0.0000843 11785. 11785.
10.8537 10.8406 11460(110) 0.0000885 11780. 11780.
10.8575 10.8444 11950(110) 0.0000856 11774. 11774.
10.8613 10.8482 11550(110) 0.0000867 11769. 11769.
10.8650 10.8519 11890(110) 0.0000838 11764. 11764.
10.8688 10.8557 11630(110) 0.0000858 11759. 11759.
10.8725 10.8594 11940(110) 0.0000818 11754. 11754.
10.8763 10.8632 11520(110) 0.0000859 11749. 11749.
10.8801 10.8670 11870(110) 0.0000848 11744. 11744.
10.8838 10.8707 11360(110) 0.0000867 11739. 11739.
10.8876 10.8745 11610(110) 0.0000871 11734. 11734.
10.8914 10.8783 11440(110) 0.0000869 11729. 11729.
10.8951 10.8820 11870(110) 0.0000813 11724. 11724.
10.8989 10.8858 11460(110) 0.0000883 11718. 11718.
10.9026 10.8895 11940(110) 0.0000815 11713. 11713.
10.9064 10.8933 11430(110) 0.0000856 11708. 11708.
10.9102 10.8971 11740(110) 0.0000836 11703. 11703.
10.9139 10.9008 11340(110) 0.0000865 11698. 11698.
10.9177 10.9046 11970(110) 0.0000806 11693. 11693.
10.9214 10.9083 11320(110) 0.0000873 11688. 11688.
10.9252 10.9121 11750(110) 0.0000822 11683. 11683.
10.9290 10.9159 11590(110) 0.0000851 11678. 11678.
10.9327 10.9196 11720(110) 0.0000838 11673. 11673.
10.9365 10.9234 11570(110) 0.0000848 11668. 11668.
10.9402 10.9271 11660(110) 0.0000826 11663. 11663.
10.9440 10.9309 11460(110) 0.0000863 11658. 11658.
10.9478 10.9347 11800(110) 0.0000851 11652. 11652.
10.9515 10.9384 11300(110) 0.0000886 11647. 11647.
10.9553 10.9422 11720(110) 0.0000831 11642. 11642.
10.9590 10.9459 11250(110) 0.0000866 11637. 11637.
10.9628 10.9497 11850(110) 0.0000826 11632. 11632.
10.9666 10.9535 11310(110) 0.0000867 11627. 11627.
10.9703 10.9572 11540(110) 0.0000868 11622. 11622.
10.9741 10.9610 11440(110) 0.0000857 11617. 11617.
10.9779 10.9648 11630(110) 0.0000841 11612. 11612.
10.9816 10.9685 11340(110) 0.0000878 11607. 11607.
10.9854 10.9723 11770(110) 0.0000858 11602. 11602.
10.9891 10.9760 11400(110) 0.0000856 11597. 11597.
10.9929 10.9798 11730(110) 0.0000830 11592. 11592.
10.9967 10.9836 11460(110) 0.0000870 11587. 11587.
11.0004 10.9873 11660(110) 0.0000837 11582. 11582.
11.0042 10.9911 11370(110) 0.0000857 11576. 11576.
11.0079 10.9948 11750(110) 0.0000818 11571. 11571.
11.0117 10.9986 11380(110) 0.0000886 11566. 11566.
11.0155 11.0024 11420(110) 0.0000863 11561. 11561.
11.0192 11.0061 11270(110) 0.0000869 11556. 11556.
11.0230 11.0099 11530(110) 0.0000868 11551. 11551.
11.0267 11.0136 11430(110) 0.0000853 11546. 11546.
11.0305 11.0174 11490(110) 0.0000865 11541. 11541.
11.0343 11.0212 11590(110) 0.0000834 11536. 11536.
11.0380 11.0249 11690(110) 0.0000829 11531. 11531.
11.0418 11.0287 11410(110) 0.0000853 11526. 11526.
11.0455 11.0324 11590(110) 0.0000844 11521. 11521.
11.0493 11.0362 11230(110) 0.0000877 11516. 11516.
11.0531 11.0400 11490(110) 0.0000860 11511. 11511.
11.0568 11.0437 11180(110) 0.0000879 11506. 11506.
11.0606 11.0475 11870(110) 0.0000837 11501. 11501.
11.0643 11.0512 11350(110) 0.0000865 11496. 11496.
11.0681 11.0550 11520(110) 0.0000850 11491. 11491.
11.0719 11.0588 11530(110) 0.0000862 11486. 11486.
11.0756 11.0625 11550(110) 0.0000834 11481. 11481.
11.0794 11.0663 11310(110) 0.0000866 11476. 11476.
11.0832 11.0701 11800(110) 0.0000835 11470. 11470.
11.0869 11.0738 11250(110) 0.0000876 11466. 11466.
11.0907 11.0776 11610(110) 0.0000868 11460. 11460.
11.0944 11.0813 11330(110) 0.0000869 11455. 11455.
11.0982 11.0851 11650(110) 0.0000834 11450. 11450.
11.1020 11.0889 11340(110) 0.0000866 11445. 11445.
11.1057 11.0926 11610(110) 0.0000839 11440. 11440.
11.1095 11.0964 11240(110) 0.0000861 11435. 11435.
11.1132 11.1001 11670(110) 0.0000849 11430. 11430.
11.1170 11.1039 11140(110) 0.0000868 11425. 11425.
11.1208 11.1077 11590(110) 0.0000851 11420. 11420.
11.1245 11.1114 11360(110) 0.0000852 11415. 11415.
11.1283 11.1152 11430(110) 0.0000858 11410. 11410.
11.1320 11.1189 11320(110) 0.0000852 11405. 11405.
11.1358 11.1227 11380(110) 0.0000867 11400. 11400.
11.1396 11.1265 11110(110) 0.0000913 11395. 11395.
11.1433 11.1302 11430(110) 0.0000855 11390. 11390.
11.1471 11.1340 11250(110) 0.0000872 11385. 11385.
11.1508 11.1377 11590(110) 0.0000845 11380. 11380.
11.1546 11.1415 11150(110) 0.0000894 11375. 11375.
11.1584 11.1453 11520(110) 0.0000839 11370. 11370.
11.1621 11.1490 11310(110) 0.0000873 11365. 11365.
11.1659 11.1528 11430(110) 0.0000855 11360. 11360.
11.1696 11.1565 11050(110) 0.0000908 11355. 11355.
11.1734 11.1603 11210(110) 0.0000873 11350. 11350.
11.1772 11.1641 11230(110) 0.0000865 11345. 11345.
11.1809 11.1678 11500(110) 0.0000878 11340. 11340.
11.1847 11.1716 11210(110) 0.0000873 11335. 11335.
11.1884 11.1753 11390(110) 0.0000876 11330. 11330.
11.1922 11.1791 11130(110) 0.0000874 11325. 11325.
11.1960 11.1829 11600(110) 0.0000838 11320. 11320.
11.1997 11.1866 11070(110) 0.0000877 11315. 11315.
11.2035 11.1904 11180(110) 0.0000906 11310. 11310.
11.2072 11.1941 11180(110) 0.0000877 11305. 11305.
11.2110 11.1979 11370(110) 0.0000866 11300. 11300.
11.2148 11.2017 11120(110) 0.0000892 11295. 11295.
11.2185 11.2054 11450(110) 0.0000845 11290. 11290.
11.2223 11.2092 11260(110) 0.0000869 11285. 11285.
11.2261 11.2130 11210(110) 0.0000874 11280. 11280.
11.2298 11.2167 11120(110) 0.0000890 11275. 11275.
11.2336 11.2205 11420(110) 0.0000866 11270. 11270.
11.2373 11.2242 11030(110) 0.0000887 11265. 11265.
11.2411 11.2280 11180(110) 0.0000867 11260. 11260.
11.2449 11.2318 11190(110) 0.0000888 11255. 11255.
11.2486 11.2355 11480(110) 0.0000845 11250. 11250.
11.2524 11.2393 11030(110) 0.0000881 11245. 11245.
11.2561 11.2430 11180(110) 0.0000910 11240. 11240.
11.2599 11.2468 11120(110) 0.0000882 11235. 11235.
11.2637 11.2506 11270(110) 0.0000855 11230. 11230.
11.2674 11.2543 11170(110) 0.0000874 11225. 11225.
11.2712 11.2581 11270(110) 0.0000871 11220. 11220.
11.2749 11.2618 11090(110) 0.0000881 11215. 11215.
11.2787 11.2656 11390(110) 0.0000848 11210. 11210.
11.2825 11.2694 11010(110) 0.0000884 11205. 11205.
11.2862 11.2731 11350(110) 0.0000841 11200. 11200.
11.2900 11.2769 11080(100) 0.0000924 11195. 11195.
11.2937 11.2806 11310(110) 0.0000865 11190. 11190.
11.2975 11.2844 10810(110) 0.0000915 11185. 11185.
11.3013 11.2882 11310(110) 0.0000856 11180. 11180.
11.3050 11.2919 11050(100) 0.0000919 11175. 11175.
11.3088 11.2957 11270(110) 0.0000864 11170. 11170.
11.3125 11.2994 10940(110) 0.0000885 11165. 11165.
11.3163 11.3032 11540(110) 0.0000843 11160. 11160.
11.3201 11.3070 10990(110) 0.0000899 11155. 11155.
11.3238 11.3107 11170(110) 0.0000890 11150. 11150.
11.3276 11.3145 10990(110) 0.0000888 11145. 11145.
11.3313 11.3182 11410(110) 0.0000872 11140. 11140.
11.3351 11.3220 11060(110) 0.0000898 11135. 11135.
11.3389 11.3258 11250(110) 0.0000890 11130. 11130.
11.3426 11.3295 10790(110) 0.0000908 11126. 11126.
11.3464 11.3333 11170(110) 0.0000878 11121. 11121.
11.3501 11.3370 11170(110) 0.0000896 11116. 11116.
11.3539 11.3408 11230(110) 0.0000865 11111. 11111.
11.3577 11.3446 10930(110) 0.0000904 11106. 11106.
11.3614 11.3483 11280(110) 0.0000874 11101. 11101.
11.3652 11.3521 11050(110) 0.0000889 11096. 11096.
11.3689 11.3558 11120(110) 0.0000881 11091. 11091.
11.3727 11.3596 10620(100) 0.0000931 11086. 11086.
11.3765 11.3634 11150(110) 0.0000887 11081. 11081.
11.3802 11.3671 11130(110) 0.0000892 11076. 11076.
11.3840 11.3709 11210(110) 0.0000894 11071. 11071.
11.3877 11.3746 10860(100) 0.0000928 11066. 11066.
11.3915 11.3784 11240(110) 0.0000866 11061. 11061.
11.3953 11.3822 11100(110) 0.0000912 11056. 11056.
11.3990 11.3859 11160(110) 0.0000892 11051. 11051.
11.4028 11.3897 11150(110) 0.0000898 11046. 11046.
11.4065 11.3934 11090(110) 0.0000904 11041. 11041.
11.4103 11.3972 10890(110) 0.0000902 11036. 11036.
11.4141 11.4010 11190(110) 0.0000884 11031. 11031.
11.4178 11.4047 10870(110) 0.0000893 11026. 11026.
11.4216 11.4085 11080(110) 0.0000893 11021. 11021.
11.4253 11.4122 10860(100) 0.0000924 11017. 11017.
11.4291 11.4160 11190(110) 0.0000903 11012. 11012.
11.4329 11.4198 11010(110) 0.0000888 11007. 11007.
11.4366 11.4235 11100(110) 0.0000906 11002. 11002.
11.4404 11.4273 10780(100) 0.0000919 10997. 10997.
11.4441 11.4310 11110(110) 0.0000904 10992. 10992.
11.4479 11.4348 10880(100) 0.0000922 10987. 10987.
11.4517 11.4386 11240(110) 0.0000885 10982. 10982.
11.4554 11.4423 10800(110) 0.0000914 10977. 10977.
11.4592 11.4461 11180(110) 0.0000898 10972. 10972.
11.4629 11.4498 10900(110) 0.0000905 10967. 10967.
11.4667 11.4536 11360(110) 0.0000874 10962. 10962.
11.4705 11.4574 10790(100) 0.0000940 10957. 10957.
11.4742 11.4611 11020(100) 0.0000925 10952. 10952.
11.4780 11.4649 10840(110) 0.0000902 10947. 10947.
11.4817 11.4686 11210(110) 0.0000890 10943. 10943.
11.4855 11.4724 10880(100) 0.0000920 10938. 10938.
11.4893 11.4762 11020(100) 0.0000916 10933. 10933.
11.4930 11.4799 10750(100) 0.0000932 10928. 10928.
11.4968 11.4837 11180(110) 0.0000884 10923. 10923.
11.5005 11.4874 10790(100) 0.0000932 10918. 10918.
11.5043 11.4912 10990(110) 0.0000886 10913. 10913.
11.5081 11.4950 10850(100) 0.0000923 10908. 10908.
11.5118 11.4987 11110(110) 0.0000891 10903. 10903.
11.5156 11.5025 10740(100) 0.0000929 10898. 10898.
11.5193 11.5062 10990(110) 0.0000902 10893. 10893.
11.5231 11.5100 10840(100) 0.0000925 10889. 10889.
11.5269 11.5138 11090(110) 0.0000911 10884. 10884.
11.5306 11.5175 10690(100) 0.0000950 10879. 10879.
11.5344 11.5213 11140(110) 0.0000887 10874. 10874.
11.5381 11.5250 10840(110) 0.0000914 10869. 10869.
11.5419 11.5288 11210(110) 0.0000892 10864. 10864.
11.5457 11.5326 10840(110) 0.0000912 10859. 10859.
11.5494 11.5363 11080(110) 0.0000890 10854. 10854.
11.5532 11.5401 10650(100) 0.0000931 10849. 10849.
11.5569 11.5438 11080(110) 0.0000888 10844. 10844.
11.5607 11.5476 10890(110) 0.0000898 10839. 10839.
11.5645 11.5514 10870(100) 0.0000928 10834. 10834.
11.5682 11.5551 10660(100) 0.0000917 10830. 10830.
11.5720 11.5589 10720(100) 0.0000949 10825. 10825.
11.5757 11.5626 10730(110) 0.0000906 10820. 10820.
11.5795 11.5664 11180(110) 0.0000873 10815. 10815.
11.5833 11.5702 10600(100) 0.0000935 10810. 10810.
11.5870 11.5739 11050(100) 0.0000922 10805. 10805.
11.5908 11.5777 10570(100) 0.0000943 10800. 10800.
11.5945 11.5814 10950(100) 0.0000916 10795. 10795.
11.5983 11.5852 10660(100) 0.0000927 10791. 10790.
11.6021 11.5890 10910(110) 0.0000899 10786. 10786.
11.6058 11.5927 10650(100) 0.0000922 10781. 10781.
11.6096 11.5965 10900(110) 0.0000889 10776. 10776.
11.6133 11.6002 10770(100) 0.0000917 10771. 10771.
11.6171 11.6040 11110(110) 0.0000858 10766. 10766.
11.6209 11.6078 10610(110) 0.0000909 10761. 10761.
11.6246 11.6115 11210(110) 0.0000872 10756. 10756.
11.6284 11.6153 10710(100) 0.0000918 10751. 10751.
11.6321 11.6190 10800(110) 0.0000905 10747. 10747.
11.6359 11.6228 10770(110) 0.0000905 10742. 10742.
11.6396 11.6265 10940(110) 0.0000884 10737. 10737.
11.6434 11.6303 10620(100) 0.0000961 10732. 10732.
11.6472 11.6341 10960(110) 0.0000887 10727. 10727.
11.6509 11.6378 10650(100) 0.0000927 10722. 10722.
11.6547 11.6416 11020(110) 0.0000887 10717. 10717.
11.6584 11.6453 10700(100) 0.0000928 10712. 10712.
11.6622 11.6491 10950(110) 0.0000892 10708. 10708.
11.6660 11.6529 10690(100) 0.0000922 10703. 10703.
11.6697 11.6566 10980(110) 0.0000906 10698. 10698.
11.6735 11.6604 10660(110) 0.0000914 10693. 10693.
11.6772 11.6641 11040(110) 0.0000895 10688. 10688.
11.6810 11.6679 10690(100) 0.0000930 10683. 10683.
11.6848 11.6717 10830(100) 0.0000921 10678. 10678.
11.6885 11.6754 10740(110) 0.0000913 10674. 10674.
11.6923 11.6792 10770(110) 0.0000909 10669. 10669.
11.6960 11.6829 10430(100) 0.0000940 10664. 10664.
11.6998 11.6867 10830(100) 0.0000923 10659. 10659.
11.7036 11.6905 10750(100) 0.0000917 10654. 10654.
11.7073 11.6942 10870(110) 0.0000893 10649. 10649.
11.7111 11.6980 10660(110) 0.0000912 10644. 10644.
11.7148 11.7017 10830(110) 0.0000891 10640. 10640.
11.7186 11.7055 10460(100) 0.0000936 10635. 10635.
11.7224 11.7093 10790(100) 0.0000924 10630. 10630.
11.7261 11.7130 10500(100) 0.0000945 10625. 10625.
11.7299 11.7168 11010(110) 0.0000895 10620. 10620.
11.7336 11.7205 10440(100) 0.0000941 10615. 10615.
11.7374 11.7243 11010(100) 0.0000920 10610. 10610.
11.7411 11.7280 10520(100) 0.0000962 10606. 10606.
11.7449 11.7318 10840(100) 0.0000932 10601. 10601.
11.7487 11.7356 10360(100) 0.0000956 10596. 10596.
11.7524 11.7393 10940(110) 0.0000894 10591. 10591.
11.7562 11.7431 10560(100) 0.0000937 10586. 10586.
11.7599 11.7468 10690(110) 0.0000912 10581. 10581.
11.7637 11.7506 10480(100) 0.0000946 10577. 10577.
11.7675 11.7544 10560(100) 0.0000933 10572. 10572.
11.7712 11.7581 10300(100) 0.0000954 10567. 10567.
11.7750 11.7619 10570(100) 0.0000928 10562. 10562.
11.7787 11.7656 10540(100) 0.0000921 10557. 10557.
11.7825 11.7694 10710(100) 0.0000946 10552. 10552.
11.7863 11.7732 10410(100) 0.0000936 10547. 10547.
11.7900 11.7769 10910(110) 0.0000874 10543. 10543.
11.7938 11.7807 10700(110) 0.0000913 10538. 10538.
11.7975 11.7844 10960(110) 0.0000888 10533. 10533.
11.8013 11.7882 10550(100) 0.0000945 10528. 10528.
11.8051 11.7920 10620(100) 0.0000926 10523. 10523.
11.8088 11.7957 10460(100) 0.0000943 10519. 10519.
11.8126 11.7995 10870(110) 0.0000906 10514. 10514.
11.8163 11.8032 10530(110) 0.0000898 10509. 10509.
11.8201 11.8070 10890(110) 0.0000892 10504. 10504.
11.8238 11.8107 10320(100) 0.0000934 10499. 10499.
11.8276 11.8145 10700(100) 0.0000925 10494. 10494.
11.8314 11.8183 10350(100) 0.0000929 10490. 10490.
11.8351 11.8220 10410(100) 0.0000956 10485. 10485.
11.8389 11.8258 10410(100) 0.0000963 10480. 10480.
11.8426 11.8295 10550(100) 0.0000951 10475. 10475.
11.8464 11.8333 10430(100) 0.0000957 10470. 10470.
11.8502 11.8371 10730(100) 0.0000924 10466. 10466.
11.8539 11.8408 10440(110) 0.0000909 10461. 10461.
11.8577 11.8446 10900(110) 0.0000879 10456. 10456.
11.8614 11.8483 10490(110) 0.0000904 10451. 10451.
11.8652 11.8521 10490(100) 0.0000935 10446. 10446.
11.8690 11.8559 10510(100) 0.0000955 10442. 10442.
11.8727 11.8596 10760(100) 0.0000920 10437. 10437.
11.8765 11.8634 10220(100) 0.0000972 10432. 10432.
11.8802 11.8671 10500(100) 0.0000933 10427. 10427.
11.8840 11.8709 10420(100) 0.0000952 10422. 10422.
11.8877 11.8746 10720(100) 0.0000917 10418. 10418.
11.8915 11.8784 10410(100) 0.0000940 10413. 10413.
11.8953 11.8822 10640(100) 0.0000927 10408. 10408.
11.8990 11.8859 10530(110) 0.0000910 10403. 10403.
11.9028 11.8897 10740(100) 0.0000926 10398. 10398.
11.9065 11.8934 10300(100) 0.0000944 10394. 10394.
11.9103 11.8972 10600(100) 0.0000917 10389. 10389.
11.9141 11.9010 10440(100) 0.0000956 10384. 10384.
11.9178 11.9047 10860(110) 0.0000896 10379. 10379.
11.9216 11.9085 10560(100) 0.0000920 10374. 10374.
11.9253 11.9122 10730(110) 0.0000898 10370. 10370.
11.9291 11.9160 10180(100) 0.0000946 10365. 10365.
11.9329 11.9198 10420(110) 0.0000908 10360. 10360.
11.9366 11.9235 10560(100) 0.0000935 10355. 10355.
11.9404 11.9273 10630(110) 0.0000911 10350. 10350.
11.9441 11.9310 10490(100) 0.0000928 10346. 10346.
11.9479 11.9348 10670(110) 0.0000915 10341. 10341.
11.9516 11.9385 10210(100) 0.0000947 10336. 10336.
11.9554 11.9423 10300(100) 0.0000960 10331. 10331.
11.9592 11.9461 10500(100) 0.0000955 10327. 10327.
11.9629 11.9498 10680(110) 0.0000908 10322. 10322.
11.9667 11.9536 10250(100) 0.0000958 10317. 10317.
11.9704 11.9573 10570(100) 0.0000928 10312. 10312.
11.9742 11.9611 10260(100) 0.0000957 10308. 10410.
11.9780 11.9649 10460(110) 0.0000900 10303. 10407.
11.9817 11.9686 10290(100) 0.0000947 10298. 10404.
11.9855 11.9724 10730(110) 0.0000884 10293. 10401.
11.9892 11.9761 10190(100) 0.0000947 10289. 10398.
11.9930 11.9799 10510(100) 0.0000956 10284. 10396.
11.9967 11.9836 10250(100) 0.0000934 10279. 10393.
12.0005 11.9874 10750(110) 0.0000902 10274. 10390.
12.0043 11.9912 10230(100) 0.0000953 10269. 10387.
12.0080 11.9949 10560(100) 0.0000947 10265. 10385.
12.0118 11.9987 10250(100) 0.0000951 10260. 10382.
12.0155 12.0024 10670(110) 0.0000890 10255. 10380.
12.0193 12.0062 10200(100) 0.0000960 10250. 10377.
12.0231 12.0100 10460(100) 0.0000929 10246. 10375.
12.0268 12.0137 10320(100) 0.0000959 10241. 10373.
12.0306 12.0175 10540(100) 0.0000929 10236. 10371.
12.0343 12.0212 10270(100) 0.0000946 10231. 10369.
12.0381 12.0250 10580(110) 0.0000914 10227. 10367.
12.0418 12.0287 10210(100) 0.0000996 10222. 10365.
12.0456 12.0325 10510(110) 0.0000897 10217. 10363.
12.0494 12.0363 10350(110) 0.0000916 10212. 10361.
12.0531 12.0400 10500(110) 0.0000896 10208. 10359.
12.0569 12.0438 10160(100) 0.0000932 10203. 10358.
12.0606 12.0475 10290(100) 0.0000932 10198. 10356.
12.0644 12.0513 10410(100) 0.0000930 10194. 10355.
12.0681 12.0550 10470(100) 0.0000933 10189. 10354.
12.0719 12.0588 10300(100) 0.0000987 10184. 10353.
12.0757 12.0626 10320(100) 0.0000932 10179. 10352.
12.0794 12.0663 10280(100) 0.0000924 10175. 10351.
12.0832 12.0701 10530(100) 0.0000930 10170. 10350.
12.0869 12.0738 10360(100) 0.0000935 10165. 10349.
12.0907 12.0776 10450(100) 0.0000926 10160. 10349.
12.0945 12.0814 10390(110) 0.0000911 10156. 10349.
12.0982 12.0851 10470(100) 0.0000922 10151. 10348.
12.1020 12.0889 10160(100) 0.0000972 10146. 10348.
12.1057 12.0926 10360(100) 0.0000931 10142. 10349.
12.1095 12.0964 10180(100) 0.0000951 10137. 10349.
12.1132 12.1001 10310(100) 0.0000956 10132. 10350.
12.1170 12.1039 10170(100) 0.0000941 10127. 10350.
12.1208 12.1077 10410(100) 0.0000928 10123. 10351.
12.1245 12.1114 10290(100) 0.0000931 10118. 10352.
12.1283 12.1152 10420(110) 0.0000904 10113. 10354.
12.1320 12.1189 10220(100) 0.0000945 10109. 10356.
12.1358 12.1227 10510(100) 0.0000918 10104. 10357.
12.1395 12.1264 10300(100) 0.0000937 10099. 10360.
12.1433 12.1302 10390(100) 0.0000931 10094. 10362.
12.1471 12.1340 10270(100) 0.0000943 10090. 10365.
12.1508 12.1377 10460(110) 0.0000913 10085. 10368.
12.1546 12.1415 10130(100) 0.0000966 10080. 10371.
12.1583 12.1452 10500(110) 0.0000912 10076. 10375.
12.1621 12.1490 10280(100) 0.0000959 10071. 10379.
12.1659 12.1528 10470(110) 0.0000910 10066. 10384.
12.1696 12.1565 10090(100) 0.0000951 10061. 10389.
12.1734 12.1603 10350(100) 0.0000956 10057. 10395.
12.1771 12.1640 10320(100) 0.0000930 10052. 10400.
12.1809 12.1678 10850(110) 0.0000879 10047. 10407.
12.1846 12.1715 10200(100) 0.0000983 10043. 10414.
12.1884 12.1753 10420(110) 0.0000915 10038. 10421.
12.1922 12.1791 10250(100) 0.0000933 10033. 10430.
12.1959 12.1828 10510(110) 0.0000912 10029. 10438.
12.1997 12.1866 10250(100) 0.0000941 10024. 10448.
12.2034 12.1903 10710(110) 0.0000885 10019. 10458.
12.2072 12.1941 10340(100) 0.0000950 10014. 10470.
12.2109 12.1978 10570(100) 0.0000936 10010. 10481.
12.2147 12.2016 10270(100) 0.0000951 10005. 10494.
12.2185 12.2054 10650(100) 0.0000935 10000. 10509.
12.2222 12.2091 10160(100) 0.0000951 9996. 10523.
12.2260 12.2129 10570(100) 0.0000925 9991. 10540.
12.2297 12.2166 10380(100) 0.0000923 9986. 10557.
12.2335 12.2204 10680(110) 0.0000909 9982. 10576.
12.2372 12.2241 10210(100) 0.0000949 9977. 10596.
12.2410 12.2279 10840(110) 0.0000891 9972. 10618.
12.2448 12.2317 10440(100) 0.0000916 9968. 10642.
12.2485 12.2354 10570(100) 0.0000942 9963. 10667.
12.2523 12.2392 10390(100) 0.0000922 9958. 10695.
12.2560 12.2429 10630(110) 0.0000912 9954. 10725.
12.2598 12.2467 10540(110) 0.0000912 9949. 10758.
12.2635 12.2504 10890(100) 0.0000919 9944. 10792.
12.2673 12.2542 10670(110) 0.0000911 9940. 10831.
12.2711 12.2580 10850(110) 0.0000915 9935. 10873.
12.2748 12.2617 10700(110) 0.0000894 9930. 10917.
12.2786 12.2655 11210(110) 0.0000875 9926. 10967.
12.2823 12.2692 10900(110) 0.0000873 9921. 11020.
12.2861 12.2730 11040(110) 0.0000879 9916. 11080.
12.2898 12.2767 10800(110) 0.0000893 9912. 11144.
12.2936 12.2805 11130(110) 0.0000869 9907. 11215.
12.2974 12.2843 11190(110) 0.0000843 9902. 11294.
12.3011 12.2880 11360(110) 0.0000850 9898. 11379.
12.3049 12.2918 11410(110) 0.0000829 9893. 11476.
12.3086 12.2955 11550(110) 0.0000836 9888. 11580.
12.3124 12.2993 11310(110) 0.0000839 9884. 11700.
12.3161 12.3030 11730(110) 0.0000820 9879. 11829.
12.3199 12.3068 11540(110) 0.0000822 9874. 11979.
12.3237 12.3106 12040(110) 0.0000803 9870. 12147.
12.3274 12.3143 11970(110) 0.0000816 9865. 12332.
12.3312 12.3181 12450(110) 0.0000766 9861. 12548.
12.3349 12.3218 11970(110) 0.0000802 9856. 12788.
12.3387 12.3256 12430(110) 0.0000820 9851. 13071.
12.3424 12.3293 12540(110) 0.0000810 9847. 13388.
12.3462 12.3331 13330(120) 0.0000744 9842. 13768.
12.3500 12.3369 13570(120) 0.0000723 9837. 14213.
12.3537 12.3406 14310(120) 0.0000678 9833. 14724.
12.3575 12.3444 14380(120) 0.0000696 9828. 15350.
12.3612 12.3481 15230(120) 0.0000670 9823. 16084.
12.3650 12.3519 15810(130) 0.0000631 9819. 17002.
12.3687 12.3556 16930(130) 0.0000589 9814. 18106.
12.3725 12.3594 17910(130) 0.0000563 9810. 19526.
12.3763 12.3632 20010(140) 0.0000484 9805. 21345.
12.3800 12.3669 21710(150) 0.0000445 9800. 23650.
12.3838 12.3707 24490(160) 0.0000400 9796. 26813.
12.3875 12.3744 27530(170) 0.0000354 9791. 31038.
12.3913 12.3782 34330(190) 0.0000279 9786. 37231.
12.3950 12.3819 42410(210) 0.0000219 9782. 46360.
12.3988 12.3857 60470(260) 0.0000149 9777. 62703.
12.4026 12.3895 96200(340) 8.77e-6 9773. 99100.
12.4063 12.3932 195510(520) 3.70e-6 9768. 186255.
12.4101 12.3970 397160(850) 1.397e-6 9763. 375813.
12.4138 12.4007 689900(1300) 5.93e-7 9759. 647657.
12.4176 12.4045 792100(1400) 4.81e-7 9754. 812277.
12.4213 12.4082 627400(1200) 7.05e-7 9750. 642520.
12.4251 12.4120 359090(790) 1.614e-6 9745. 364844.
12.4289 12.4158 199750(530) 3.60e-6 9740. 180429.
12.4326 12.4195 112140(370) 7.49e-6 9736. 96630.
12.4364 12.4233 70720(280) 0.0000127 9731. 61662.
12.4401 12.4270 46030(220) 0.0000206 9727. 46100.
12.4439 12.4308 35400(190) 0.0000265 9722. 36842.
12.4476 12.4345 28310(170) 0.0000342 9717. 30881.
12.4514 12.4383 24880(160) 0.0000396 9713. 26574.
12.4551 12.4420 21450(150) 0.0000456 9708. 23518.
12.4589 12.4458 20000(140) 0.0000511 9704. 21159.
12.4627 12.4496 17860(140) 0.0000550 9699. 19352.
12.4664 12.4533 17450(130) 0.0000564 9694. 17970.
12.4702 12.4571 15960(130) 0.0000626 9690. 16835.
12.4739 12.4608 15610(130) 0.0000637 9685. 15938.
12.4777 12.4646 14540(120) 0.0000698 9681. 15180.
12.4814 12.4683 14280(120) 0.0000688 9676. 14565.
12.4852 12.4721 13750(120) 0.0000721 9671. 14033.
12.4890 12.4759 13290(120) 0.0000746 9667. 13582.
12.4927 12.4796 12910(110) 0.0000770 9662. 13206.
12.4965 12.4834 12980(110) 0.0000767 9658. 12872.
12.5002 12.4871 12310(110) 0.0000804 9653. 12589.
12.5040 12.4909 12620(110) 0.0000805 9649. 12335.
12.5077 12.4946 12010(110) 0.0000857 9644. 12116.
12.5115 12.4984 12160(110) 0.0000815 9639. 11918.
12.5152 12.5021 11600(110) 0.0000857 9635. 11746.
12.5190 12.5059 12150(110) 0.0000819 9630. 11588.
12.5228 12.5097 11500(110) 0.0000880 9626. 11494.
12.5265 12.5134 11510(110) 0.0000881 9621. 11370.
12.5303 12.5172 11290(110) 0.0000891 9617. 11255.
12.5340 12.5209 11540(110) 0.0000866 9612. 11153.
12.5378 12.5247 11260(100) 0.0000917 9607. 11057.
12.5415 12.5284 11180(110) 0.0000902 9603. 10972.
12.5453 12.5322 10740(100) 0.0000942 9598. 10892.
12.5491 12.5360 10990(100) 0.0000917 9594. 10819.
12.5528 12.5397 10700(100) 0.0000926 9589. 10753.
12.5566 12.5435 11080(110) 0.0000913 9585. 10690.
12.5603 12.5472 10640(100) 0.0000937 9580. 10633.
12.5641 12.5510 10860(100) 0.0000922 9575. 10580.
12.5678 12.5547 10420(100) 0.0000979 9571. 10531.
12.5716 12.5585 10730(100) 0.0000937 9566. 10484.
12.5753 12.5622 10230(100) 0.0000993 9562. 10441.
12.5791 12.5660 10780(100) 0.0000919 9557. 10400.
12.5829 12.5698 10340(100) 0.0000968 9553. 10362.
12.5866 12.5735 10750(100) 0.0000921 9548. 10327.
12.5904 12.5773 10220(100) 0.0000982 9544. 10293.
12.5941 12.5810 10690(100) 0.0000924 9539. 10262.
12.5979 12.5848 10200(100) 0.0000979 9535. 10232.
12.6016 12.5885 10450(100) 0.0000937 9530. 10204.
12.6054 12.5923 10100(100) 0.0000984 9526. 10177.
12.6091 12.5960 10550(100) 0.0000936 9521. 10152.
12.6129 12.5998 10320(100) 0.0000954 9516. 10128.
12.6167 12.6036 10450(100) 0.0000972 9512. 10105.
12.6204 12.6073 10060(100) 0.0000982 9507. 10083.
12.6242 12.6111 10440(100) 0.0000957 9503. 10063.
12.6279 12.6148 10060(100) 0.0000988 9498. 10043.
12.6317 12.6186 10430(100) 0.0000943 9494. 10024.
12.6354 12.6223 10250(100) 0.0000944 9489. 10007.
12.6392 12.6261 10220(100) 0.0000957 9485. 9989.
12.6429 12.6298 10010(100) 0.0000999 9480. 9973.
12.6467 12.6336 10170(100) 0.0000975 9476. 9958.
12.6505 12.6374 10003(99) 0.0001016 9471. 9943.
12.6542 12.6411 10220(100) 0.0000960 9467. 9929.
12.6580 12.6449 10090(100) 0.0000991 9462. 9915.
12.6617 12.6486 10160(100) 0.0000969 9458. 9902.
12.6655 12.6524 9920(100) 0.0001004 9453. 9890.
12.6692 12.6561 10220(100) 0.0000951 9449. 9878.
12.6730 12.6599 10040(100) 0.0000982 9444. 9866.
12.6767 12.6636 10300(100) 0.0000975 9440. 9855.
12.6805 12.6674 10160(100) 0.0000948 9435. 9845.
12.6843 12.6712 10230(100) 0.0000938 9431. 9835.
12.6880 12.6749 9900(100) 0.0001000 9426. 9825.
12.6918 12.6787 10410(100) 0.0000955 9422. 9816.
12.6955 12.6824 9900(100) 0.0000997 9417. 9807.
12.6993 12.6862 10160(100) 0.0000966 9413. 9799.
12.7030 12.6899 9870(100) 0.0000972 9408. 9791.
12.7068 12.6937 10230(100) 0.0000987 9404. 9784.
12.7105 12.6974 9970(100) 0.0000975 9399. 9777.
12.7143 12.7012 10130(100) 0.0000989 9395. 9770.
12.7180 12.7049 9970(100) 0.0001002 9390. 9764.
12.7218 12.7087 10420(100) 0.0000950 9386. 9758.
12.7256 12.7125 10130(100) 0.0000972 9381. 9752.
12.7293 12.7162 10060(100) 0.0001006 9377. 9747.
12.7331 12.7200 9990(100) 0.0000999 9372. 9742.
12.7368 12.7237 10220(100) 0.0000961 9368. 9738.
12.7406 12.7275 9880(100) 0.0000990 9363. 9734.
12.7443 12.7312 10430(100) 0.0000933 9359. 9731.
12.7481 12.7350 9789(99) 0.0001021 9354. 9728.
12.7518 12.7387 10320(100) 0.0000969 9350. 9726.
12.7556 12.7425 9936(99) 0.0001018 9345. 9724.
12.7594 12.7463 10070(100) 0.0001004 9341. 9723.
12.7631 12.7500 10070(100) 0.0001004 9336. 9723.
12.7669 12.7538 10140(100) 0.0000970 9332. 9723.
12.7706 12.7575 9996(99) 0.0001024 9327. 9724.
12.7744 12.7613 10020(100) 0.0000978 9323. 9726.
12.7781 12.7650 10000(100) 0.0000973 9319. 9729.
12.7819 12.7688 10180(100) 0.0000968 9314. 9733.
12.7856 12.7725 9752(99) 0.0001027 9310. 9738.
12.7894 12.7763 10129(99) 0.0001028 9305. 9744.
12.7931 12.7800 9825(97) 0.0001070 9301. 9752.
12.7969 12.7838 10060(100) 0.0001002 9296. 9762.
12.7994 12.7863 10210(100) 0.0000948 9293. 9769.
12.8031 12.7900 9730(100) 0.0000978 9289. 9782.
12.8069 12.7938 10110(100) 0.0000955 9284. 9798.
12.8107 12.7976 10160(100) 0.0000936 9280. 9818.
12.8144 12.8013 10430(100) 0.0000930 9275. 9840.
12.8182 12.8051 9970(100) 0.0000984 9271. 9868.
12.8219 12.8088 10430(100) 0.0000917 9267. 9901.
12.8257 12.8126 10000(100) 0.0000963 9262. 9942.
12.8294 12.8163 10200(100) 0.0001004 9258. 9991.
12.8332 12.8201 10096(99) 0.0001012 9253. 10053.
12.8370 12.8239 10460(100) 0.0000955 9249. 10130.
12.8407 12.8276 10230(100) 0.0000966 9244. 10226.
12.8445 12.8314 10850(110) 0.0000900 9240. 10353.
12.8482 12.8351 10800(100) 0.0000934 9235. 10515.
12.8520 12.8389 10980(100) 0.0000938 9231. 10740.
12.8557 12.8426 10970(100) 0.0000918 9227. 11044.
12.8595 12.8464 11800(110) 0.0000854 9222. 11494.
12.8633 12.8502 12150(110) 0.0000839 9218. 12204.
12.8670 12.8539 14070(120) 0.0000697 9213. 13496.
12.8708 12.8577 17930(140) 0.0000543 9209. 16615.
12.8745 12.8614 28100(170) 0.0000346 9204. 23955.
12.8783 12.8652 46820(220) 0.0000201 9200. 38589.
12.8820 12.8689 68000(280) 0.0000132 9196. 56453.
12.8858 12.8727 66990(280) 0.0000132 9191. 61370.
12.8895 12.8764 49840(230) 0.0000185 9187. 46262.
12.8933 12.8802 30720(180) 0.0000310 9182. 29022.
12.8971 12.8840 20570(150) 0.0000476 9178. 18817.
12.9008 12.8877 15460(130) 0.0000638 9173. 14452.
12.9046 12.8915 13320(120) 0.0000732 9169. 12627.
12.9083 12.8952 11880(110) 0.0000834 9165. 11771.
12.9121 12.8990 11440(110) 0.0000875 9160. 11241.
12.9158 12.9027 10860(110) 0.0000915 9156. 10895.
12.9196 12.9065 10800(100) 0.0000923 9151. 10645.
12.9234 12.9103 10510(100) 0.0000966 9147. 10464.
12.9271 12.9140 10550(100) 0.0000956 9143. 10334.
12.9309 12.9178 10290(100) 0.0000989 9138. 10232.
12.9346 12.9215 10510(100) 0.0000939 9134. 10157.
12.9384 12.9253 10390(100) 0.0000966 9129. 10098.
12.9421 12.9290 10350(100) 0.0000980 9125. 10054.
12.9459 12.9328 10130(100) 0.0000989 9121. 10020.
12.9497 12.9366 10213(99) 0.0001021 9116. 9994.
12.9534 12.9403 9990(100) 0.0000999 9112. 9977.
12.9572 12.9441 10180(100) 0.0000981 9107. 9965.
12.9609 12.9478 9981(99) 0.0001014 9103. 9958.
12.9647 12.9516 10270(100) 0.0000979 9099. 9956.
12.9684 12.9553 10060(99) 0.0001018 9094. 9959.
12.9722 12.9591 10560(100) 0.0000937 9090. 9965.
12.9759 12.9628 10060(100) 0.0000992 9085. 9975.
12.9797 12.9666 10300(100) 0.0000968 9081. 9989.
12.9835 12.9704 10260(100) 0.0000973 9077. 10006.
12.9872 12.9741 10520(100) 0.0000951 9072. 10027.
12.9910 12.9779 10060(100) 0.0000988 9068. 10052.
12.9947 12.9816 10390(100) 0.0000982 9064. 10080.
12.9985 12.9854 10217(99) 0.0001011 9059. 10113.
13.0022 12.9891 10580(100) 0.0000940 9055. 10149.
13.0060 12.9929 10450(100) 0.0000953 9050. 10191.
13.0098 12.9967 10500(100) 0.0000950 9046. 10238.
13.0135 13.0004 10420(100) 0.0000974 9042. 10289.
13.0173 13.0042 10630(100) 0.0000955 9037. 10347.
13.0179 13.0048 10370(100) 0.0000981 9037. 10357.
13.0216 13.0085 10730(100) 0.0000916 9032. 10422.
13.0254 13.0123 10560(100) 0.0000955 9028. 10496.
13.0291 13.0160 10760(100) 0.0000918 9024. 10523.
13.0329 13.0198 10630(100) 0.0000947 9019. 10616.
13.0366 13.0235 11150(110) 0.0000885 9015. 10718.
13.0404 13.0273 10860(100) 0.0000922 9010. 10835.
13.0441 13.0310 11300(110) 0.0000886 9006. 10963.
13.0479 13.0348 11170(110) 0.0000891 9002. 11111.
13.0516 13.0385 11650(110) 0.0000849 8997. 11274.
13.0554 13.0423 11390(110) 0.0000885 8993. 11465.
13.0592 13.0461 12010(110) 0.0000826 8989. 11684.
13.0629 13.0498 12130(110) 0.0000816 8984. 11928.
13.0667 13.0536 12440(110) 0.0000793 8980. 12217.
13.0704 13.0573 12480(110) 0.0000799 8976. 12544.
13.0742 13.0611 12980(120) 0.0000757 8971. 12937.
13.0779 13.0648 13480(120) 0.0000735 8967. 13388.
13.0817 13.0686 14080(120) 0.0000709 8963. 13939.
13.0854 13.0723 14580(120) 0.0000676 8958. 14583.
13.0892 13.0761 15250(120) 0.0000651 8954. 15388.
13.0930 13.0799 15990(130) 0.0000608 8950. 16380.
13.0967 13.0836 17680(140) 0.0000538 8945. 17587.
13.1005 13.0874 18240(140) 0.0000532 8941. 19162.
13.1042 13.0911 20490(150) 0.0000478 8937. 21146.
13.1080 13.0949 22500(150) 0.0000422 8932. 23850.
13.1117 13.0986 26630(170) 0.0000357 8928. 27433.
13.1155 13.1024 31260(180) 0.0000303 8924. 32629.
13.1192 13.1061 39650(210) 0.0000237 8919. 40207.
13.1230 13.1099 52510(240) 0.0000174 8915. 53481.
13.1267 13.1136 82540(310) 0.0000105 8911. 80432.
13.1305 13.1174 149440(440) 5.17e-6 8906. 145154.
13.1343 13.1212 302230(700) 2.040e-6 8902. 280724.
13.1380 13.1249 514900(1000) 9.25e-7 8898. 483732.
13.1418 13.1287 659900(1300) 6.35e-7 8893. 649410.
13.1455 13.1324 559600(1100) 8.18e-7 8889. 574312.
13.1493 13.1362 354680(790) 1.610e-6 8885. 359139.
13.1530 13.1399 190260(510) 3.80e-6 8881. 193118.
13.1568 13.1437 112120(370) 7.19e-6 8876. 101650.
13.1605 13.1474 68340(280) 0.0000127 8872. 62667.
13.1643 13.1512 46860(230) 0.0000197 8868. 44849.
13.1681 13.1550 33860(190) 0.0000282 8863. 35304.
13.1718 13.1587 27440(170) 0.0000348 8859. 29356.
13.1756 13.1625 24010(160) 0.0000401 8855. 25110.
13.1793 13.1662 21560(150) 0.0000441 8850. 22115.
13.1831 13.1700 18720(140) 0.0000539 8846. 19814.
13.1868 13.1737 17730(140) 0.0000550 8842. 18100.
13.1906 13.1775 16000(130) 0.0000601 8838. 16722.
13.1943 13.1812 15300(130) 0.0000643 8833. 15652.
13.1981 13.1850 14390(120) 0.0000680 8829. 14763.
13.2019 13.1888 13880(120) 0.0000708 8825. 14035.
13.2056 13.1925 13220(120) 0.0000742 8820. 13446.
13.2094 13.1963 13090(120) 0.0000757 8816. 12938.
13.2131 13.2000 12380(110) 0.0000831 8812. 12518.
13.2169 13.2038 12280(110) 0.0000800 8808. 12149.
13.2206 13.2075 11630(110) 0.0000837 8803. 11838.
13.2244 13.2113 11730(110) 0.0000822 8799. 11562.
13.2281 13.2150 11340(110) 0.0000862 8795. 11326.
13.2319 13.2188 11250(110) 0.0000903 8790. 11113.
13.2357 13.2226 10850(100) 0.0000934 8786. 10925.
13.2394 13.2263 10830(100) 0.0000922 8782. 10762.
13.2432 13.2301 10580(100) 0.0000929 8778. 10612.
13.2469 13.2338 10710(100) 0.0000926 8773. 10481.
13.2507 13.2376 10370(100) 0.0000959 8769. 10360.
13.2544 13.2413 10700(100) 0.0000922 8765. 10253.
13.2582 13.2451 10180(100) 0.0000981 8761. 10153.
13.2619 13.2488 10400(100) 0.0000965 8756. 10065.
13.2657 13.2526 9950(100) 0.0001001 8752. 9982.
13.2695 13.2564 10120(100) 0.0000987 8748. 9905.
13.2732 13.2601 9890(100) 0.0000990 8744. 9837.
13.2770 13.2639 10120(100) 0.0000983 8739. 9772.
13.2807 13.2676 9689(99) 0.0001021 8735. 9714.
13.2845 13.2714 9830(100) 0.0000999 8731. 9658.
13.2882 13.2751 9563(98) 0.0001048 8727. 9608.
13.2920 13.2789 9649(99) 0.0001029 8722. 9560.
13.2957 13.2826 9527(98) 0.0001047 8718. 9516.
13.2995 13.2864 9770(99) 0.0001012 8714. 9474.
13.3033 13.2902 9507(98) 0.0001040 8710. 9434.
13.3070 13.2939 9370(98) 0.0001033 8705. 9398.
13.3108 13.2977 9349(97) 0.0001073 8701. 9363.
13.3145 13.3014 9412(97) 0.0001058 8697. 9331.
13.3183 13.3052 9462(98) 0.0001045 8693. 9300.
13.3220 13.3089 9527(98) 0.0001035 8688. 9271.
13.3258 13.3127 9346(98) 0.0001037 8684. 9243.
13.3296 13.3165 9488(98) 0.0001035 8680. 9217.
13.3333 13.3202 9319(97) 0.0001052 8676. 9192.
13.3371 13.3240 9373(97) 0.0001063 8671. 9168.
13.3408 13.3277 9070(96) 0.0001089 8667. 9146.
13.3446 13.3315 9337(97) 0.0001055 8663. 9124.
13.3483 13.3352 9068(96) 0.0001084 8659. 9103.
13.3521 13.3390 9224(95) 0.0001097 8655. 9083.
13.3558 13.3427 9129(96) 0.0001076 8650. 9064.
13.3596 13.3465 9315(98) 0.0001051 8646. 9046.
13.3634 13.3503 8907(95) 0.0001109 8642. 9028.
13.3671 13.3540 9259(97) 0.0001063 8638. 9011.
13.3709 13.3578 8899(95) 0.0001113 8634. 8995.
13.3746 13.3615 9055(97) 0.0001072 8629. 8979.
13.3784 13.3653 9144(96) 0.0001087 8625. 8964.
13.3821 13.3690 9195(97) 0.0001069 8621. 8950.
13.3859 13.3728 8890(96) 0.0001078 8617. 8935.
13.3897 13.3766 9052(96) 0.0001074 8612. 8921.
13.3934 13.3803 8820(95) 0.0001110 8608. 8908.
13.3972 13.3841 9317(97) 0.0001059 8604. 8895.
13.4009 13.3878 8941(95) 0.0001100 8600. 8883.
13.4047 13.3916 9015(95) 0.0001099 8596. 8871.
13.4084 13.3953 8905(96) 0.0001092 8592. 8859.
13.4122 13.3991 9122(97) 0.0001066 8587. 8847.
13.4159 13.4028 8751(93) 0.0001144 8583. 8836.
13.4197 13.4066 9024(95) 0.0001119 8579. 8825.
13.4235 13.4104 8660(94) 0.0001127 8575. 8814.
13.4272 13.4141 8920(95) 0.0001108 8571. 8804.
13.4310 13.4179 8795(95) 0.0001117 8566. 8794.
13.4347 13.4216 9018(95) 0.0001100 8562. 8784.
13.4385 13.4254 8836(94) 0.0001130 8558. 8774.
13.4422 13.4291 9017(95) 0.0001097 8554. 8765.
13.4460 13.4329 8759(94) 0.0001126 8550. 8755.
13.4498 13.4367 8830(94) 0.0001126 8545. 8746.
13.4535 13.4404 8671(93) 0.0001146 8541. 8737.
13.4573 13.4442 8900(95) 0.0001113 8537. 8729.
13.4610 13.4479 8855(94) 0.0001124 8533. 8720.
13.4648 13.4517 9026(96) 0.0001088 8529. 8711.
13.4685 13.4554 8811(95) 0.0001105 8525. 8703.
13.4723 13.4592 8956(95) 0.0001103 8521. 8695.
13.4761 13.4630 8846(95) 0.0001102 8516. 8687.
13.4798 13.4667 8802(93) 0.0001160 8512. 8679.
13.4836 13.4705 8650(92) 0.0001189 8508. 8671.
13.4873 13.4742 8785(93) 0.0001167 8504. 8664.
13.4911 13.4780 8708(93) 0.0001162 8500. 8656.
13.4948 13.4817 8701(92) 0.0001191 8496. 8645.
13.4986 13.4855 8670(92) 0.0001176 8491. 8638.
13.5024 13.4893 8751(93) 0.0001167 8487. 8631.
13.5061 13.4930 8694(92) 0.0001171 8483. 8624.
13.5099 13.4968 8596(92) 0.0001192 8479. 8617.
13.5136 13.5005 8503(91) 0.0001212 8475. 8610.
13.5174 13.5043 8769(93) 0.0001152 8471. 8603.
13.5211 13.5080 8555(92) 0.0001187 8467. 8596.
13.5249 13.5118 8920(93) 0.0001145 8462. 8589.
13.5287 13.5156 8697(92) 0.0001185 8458. 8583.
13.5324 13.5193 8818(94) 0.0001142 8454. 8576.
13.5362 13.5231 8428(91) 0.0001198 8450. 8570.
13.5399 13.5268 8864(93) 0.0001149 8446. 8563.
13.5437 13.5306 8713(92) 0.0001182 8442. 8557.
13.5474 13.5343 8745(93) 0.0001155 8438. 8551.
13.5512 13.5381 8604(93) 0.0001168 8433. 8545.
13.5550 13.5419 8750(92) 0.0001174 8429. 8538.
13.5587 13.5456 8522(92) 0.0001174 8425. 8532.
13.5625 13.5494 8678(92) 0.0001186 8421. 8526.
13.5662 13.5531 8507(92) 0.0001183 8417. 8520.
13.5700 13.5569 8725(93) 0.0001163 8413. 8514.
13.5737 13.5606 8708(93) 0.0001152 8409. 8509.
13.5775 13.5644 8614(92) 0.0001182 8405. 8503.
13.5813 13.5682 8463(91) 0.0001202 8400. 8497.
13.5850 13.5719 8601(93) 0.0001162 8396. 8491.
13.5888 13.5757 8440(92) 0.0001190 8392. 8486.
13.5925 13.5794 8529(92) 0.0001193 8388. 8480.
13.5963 13.5832 8461(91) 0.0001214 8384. 8474.
13.6000 13.5869 8662(92) 0.0001173 8380. 8469.
13.6038 13.5907 8667(93) 0.0001160 8376. 8463.
13.6076 13.5945 8498(92) 0.0001194 8372. 8458.
13.6113 13.5982 8301(90) 0.0001234 8368. 8452.
13.6151 13.6020 8636(92) 0.0001192 8364. 8447.
13.6188 13.6057 8746(94) 0.0001129 8360. 8441.
13.6226 13.6095 8686(93) 0.0001161 8355. 8436.
13.6263 13.6132 8408(89) 0.0001253 8351. 8431.
13.6301 13.6170 8578(91) 0.0001214 8347. 8425.
13.6339 13.6208 8598(92) 0.0001178 8343. 8420.
13.6376 13.6245 8581(92) 0.0001179 8339. 8415.
13.6414 13.6283 8409(92) 0.0001193 8335. 8410.
13.6451 13.6320 8604(91) 0.0001203 8331. 8404.
13.6489 13.6358 8485(91) 0.0001206 8327. 8399.
13.6526 13.6395 8617(92) 0.0001182 8323. 8394.
13.6564 13.6433 8211(90) 0.0001228 8319. 8389.
13.6602 13.6471 8385(91) 0.0001196 8315. 8384.
13.6639 13.6508 8545(91) 0.0001199 8311. 8379.
13.6677 13.6546 8626(92) 0.0001179 8306. 8374.
13.6714 13.6583 8257(91) 0.0001208 8302. 8369.
13.6752 13.6621 8570(91) 0.0001207 8298. 8364.
13.6789 13.6658 8373(90) 0.0001222 8294. 8359.
13.6827 13.6696 8510(92) 0.0001190 8290. 8354.
13.6865 13.6734 8441(91) 0.0001197 8286. 8349.
13.6902 13.6771 8469(91) 0.0001197 8282. 8344.
13.6940 13.6809 8382(91) 0.0001207 8278. 8339.
13.6977 13.6846 8280(90) 0.0001224 8274. 8334.
13.7015 13.6884 8333(91) 0.0001219 8270. 8349.
13.7052 13.6921 8628(92) 0.0001175 8266. 8345.
13.7090 13.6959 8395(91) 0.0001207 8262. 8341.
13.7128 13.6997 8486(91) 0.0001210 8258. 8336.
13.7165 13.7034 8279(90) 0.0001230 8254. 8332.
13.7203 13.7072 8392(91) 0.0001209 8250. 8327.
13.7240 13.7109 8329(90) 0.0001223 8246. 8323.
13.7278 13.7147 8553(92) 0.0001183 8242. 8319.
13.7316 13.7185 8241(90) 0.0001239 8237. 8314.
13.7353 13.7222 8501(91) 0.0001203 8233. 8310.
13.7391 13.7260 8443(91) 0.0001209 8229. 8306.
13.7428 13.7297 8449(90) 0.0001243 8225. 8301.
13.7466 13.7335 8172(89) 0.0001252 8221. 8297.
13.7503 13.7372 8428(91) 0.0001213 8217. 8293.
13.7541 13.7410 8421(91) 0.0001195 8213. 8289.
13.7579 13.7448 8435(90) 0.0001243 8209. 8285.
13.7616 13.7485 8266(90) 0.0001238 8205. 8281.
13.7654 13.7523 8541(92) 0.0001172 8201. 8277.
13.7691 13.7560 8174(89) 0.0001258 8197. 8273.
13.7729 13.7598 8562(91) 0.0001196 8193. 8268.
13.7766 13.7635 8270(90) 0.0001233 8189. 8265.
13.7804 13.7673 8573(92) 0.0001190 8185. 8261.
13.7842 13.7711 8326(91) 0.0001219 8181. 8257.
13.7879 13.7748 8476(90) 0.0001224 8177. 8253.
13.7917 13.7786 8208(90) 0.0001245 8173. 8249.
13.7954 13.7823 8482(92) 0.0001193 8169. 8245.
13.7992 13.7861 8125(90) 0.0001248 8165. 8241.
13.8030 13.7899 8358(90) 0.0001226 8161. 8237.
13.8067 13.7936 8282(90) 0.0001239 8157. 8234.
13.8105 13.7974 8494(91) 0.0001195 8153. 8230.
13.8142 13.8011 8372(91) 0.0001208 8149. 8226.
13.8180 13.8049 8395(91) 0.0001205 8145. 8223.
13.8217 13.8086 8297(89) 0.0001250 8141. 8219.
13.8255 13.8124 8517(92) 0.0001192 8137. 8216.
13.8293 13.8162 8234(89) 0.0001259 8133. 8212.
13.8330 13.8199 8338(91) 0.0001215 8129. 8209.
13.8368 13.8237 8311(90) 0.0001243 8125. 8205.
13.8405 13.8274 8353(90) 0.0001224 8121. 8202.
13.8443 13.8312 8330(90) 0.0001226 8117. 8198.
13.8481 13.8350 8350(90) 0.0001229 8113. 8195.
13.8518 13.8387 8207(90) 0.0001237 8109. 8192.
13.8556 13.8425 8371(91) 0.0001212 8105. 8189.
13.8593 13.8462 8331(90) 0.0001223 8101. 8186.
13.8631 13.8500 8443(91) 0.0001206 8097. 8182.
13.8668 13.8537 8295(90) 0.0001226 8093. 8179.
13.8706 13.8575 8313(90) 0.0001226 8089. 8177.
13.8744 13.8613 8176(90) 0.0001245 8085. 8174.
13.8781 13.8650 8446(90) 0.0001223 8081. 8171.
13.8819 13.8688 8349(90) 0.0001237 8077. 8168.
13.8856 13.8725 8414(91) 0.0001204 8073. 8165.
13.8894 13.8763 8177(90) 0.0001241 8069. 8163.
13.8932 13.8801 8427(90) 0.0001223 8065. 8160.
13.8969 13.8838 8280(91) 0.0001217 8061. 8158.
13.9007 13.8876 8312(90) 0.0001245 8057. 8155.
13.9044 13.8913 8120(89) 0.0001256 8054. 8153.
13.9082 13.8951 8224(89) 0.0001259 8050. 8151.
13.9119 13.8988 8123(90) 0.0001244 8046. 8149.
13.9157 13.9026 8321(90) 0.0001234 8042. 8147.
13.9195 13.9064 8212(90) 0.0001238 8038. 8145.
13.9232 13.9101 8240(89) 0.0001252 8034. 8144.
13.9270 13.9139 7846(87) 0.0001313 8030. 8142.
13.9307 13.9176 8226(90) 0.0001244 8026. 8111.
13.9345 13.9214 8082(89) 0.0001269 8022. 8110.
13.9383 13.9252 8255(90) 0.0001234 8018. 8109.
13.9420 13.9289 8132(90) 0.0001244 8014. 8109.
13.9458 13.9327 8199(89) 0.0001265 8010. 8108.
13.9495 13.9364 8008(89) 0.0001262 8006. 8108.
13.9533 13.9402 8184(89) 0.0001255 8002. 8108.
13.9570 13.9439 8008(88) 0.0001288 7998. 8108.
13.9608 13.9477 8337(91) 0.0001220 7994. 8109.
13.9646 13.9515 8042(89) 0.0001264 7990. 8110.
13.9683 13.9552 8177(90) 0.0001243 7987. 8111.
13.9721 13.9590 8142(87) 0.0001315 7983. 8112.
13.9758 13.9627 8406(91) 0.0001206 7979. 8114.
13.9796 13.9665 8145(90) 0.0001241 7975. 8116.
13.9834 13.9703 8363(91) 0.0001203 7971. 8119.
13.9871 13.9740 8099(89) 0.0001251 7967. 8122.
13.9909 13.9778 8159(90) 0.0001248 7963. 8125.
13.9946 13.9815 8157(90) 0.0001237 7959. 8130.
13.9984 13.9853 8347(91) 0.0001218 7955. 8134.
14.0022 13.9891 7972(88) 0.0001277 7951. 8140.
14.0059 13.9928 8587(92) 0.0001172 7947. 8146.
14.0097 13.9966 8210(90) 0.0001231 7943. 8153.
14.0134 14.0003 8341(91) 0.0001213 7940. 8161.
14.0172 14.0041 8105(89) 0.0001253 7936. 8170.
14.0209 14.0078 8209(89) 0.0001250 7932. 8180.
14.0247 14.0116 8180(90) 0.0001248 7928. 8191.
14.0285 14.0154 8315(90) 0.0001231 7924. 8204.
14.0322 14.0191 7889(88) 0.0001280 7920. 8218.
14.0360 14.0229 8439(91) 0.0001196 7916. 8235.
14.0397 14.0266 8084(90) 0.0001244 7912. 8253.
14.0435 14.0304 8133(89) 0.0001251 7908. 8274.
14.0473 14.0342 8133(90) 0.0001245 7905. 8298.
14.0510 14.0379 8340(91) 0.0001214 7901. 8325.
14.0548 14.0417 8250(89) 0.0001254 7897. 8356.
14.0585 14.0454 8293(90) 0.0001227 7893. 8390.
14.0623 14.0492 8460(91) 0.0001206 7889. 8431.
14.0661 14.0530 8602(93) 0.0001168 7885. 8478.
14.0698 14.0567 8458(92) 0.0001187 7881. 8531.
14.0736 14.0605 8481(92) 0.0001190 7877. 8594.
14.0773 14.0642 8504(91) 0.0001199 7874. 8667.
14.0811 14.0680 8612(91) 0.0001195 7870. 8754.
14.0849 14.0718 8327(91) 0.0001206 7866. 8858.
14.0886 14.0755 8834(95) 0.0001120 7862. 8980.
14.0924 14.0793 8745(93) 0.0001156 7858. 9131.
14.0961 14.0830 9210(95) 0.0001105 7854. 9311.
14.0999 14.0868 9062(95) 0.0001117 7850. 9540.
14.1036 14.0905 9328(95) 0.0001098 7847. 9821.
14.1074 14.0943 9421(97) 0.0001068 7843. 10191.
14.1112 14.0981 9940(99) 0.0001011 7839. 10677.
14.1149 14.1018 10260(100) 0.0000967 7835. 11311.
14.1187 14.1056 11180(110) 0.0000910 7831. 12211.
14.1224 14.1093 12260(110) 0.0000812 7827. 13466.
14.1262 14.1131 14690(120) 0.0000690 7823. 15455.
14.1300 14.1169 19170(140) 0.0000508 7819. 19136.
14.1337 14.1206 30350(180) 0.0000319 7816. 27653.
14.1375 14.1244 59230(250) 0.0000157 7812. 50176.
14.1412 14.1281 120980(380) 6.88e-6 7808. 95784.
14.1450 14.1319 191510(510) 3.89e-6 7804. 160132.
14.1488 14.1357 219480(560) 3.184e-6 7800. 188703.
14.1525 14.1394 157670(450) 4.95e-6 7797. 143468.
14.1563 14.1432 88720(320) 9.79e-6 7793. 80870.
14.1600 14.1469 47150(230) 0.0000196 7789. 42171.
14.1638 14.1507 29050(170) 0.0000334 7785. 24470.
14.1676 14.1545 19600(140) 0.0000501 7781. 17727.
14.1713 14.1582 14890(120) 0.0000671 7777. 14782.
14.1751 14.1620 12210(110) 0.0000815 7774. 13022.
14.1788 14.1657 11490(110) 0.0000894 7770. 11879.
14.1826 14.1695 10440(100) 0.0000945 7766. 11050.
14.1863 14.1732 10120(100) 0.0001004 7762. 10457.
14.1901 14.1770 9536(98) 0.0001049 7758. 10021.
14.1939 14.1808 9658(98) 0.0001045 7754. 9667.
14.1976 14.1845 9167(95) 0.0001104 7751. 9396.
14.2014 14.1883 9292(96) 0.0001089 7747. 9173.
14.2051 14.1920 8712(93) 0.0001147 7743. 8995.
14.2089 14.1958 8932(95) 0.0001118 7739. 8845.
14.2127 14.1996 8662(93) 0.0001159 7735. 8719.
14.2164 14.2033 8733(93) 0.0001158 7732. 8615.
14.2202 14.2071 8555(92) 0.0001171 7728. 8524.
14.2239 14.2108 8414(91) 0.0001206 7724. 8448.
14.2277 14.2146 8199(91) 0.0001214 7720. 8380.
14.2315 14.2184 8508(92) 0.0001169 7716. 8320.
14.2352 14.2221 8194(90) 0.0001240 7713. 8269.
14.2390 14.2259 8312(91) 0.0001207 7709. 8223.
14.2427 14.2296 7900(89) 0.0001253 7705. 8182.
14.2465 14.2334 8365(92) 0.0001181 7701. 8145.
14.2503 14.2372 8095(90) 0.0001244 7697. 8112.
14.2540 14.2409 8190(90) 0.0001223 7694. 8082.
14.2578 14.2447 8009(88) 0.0001285 7690. 8055.
14.2615 14.2484 8015(89) 0.0001261 7686. 8030.
14.2653 14.2522 7951(89) 0.0001268 7682. 8007.
14.2691 14.2560 8167(90) 0.0001235 7679. 7986.
14.2728 14.2597 7992(89) 0.0001252 7675. 7967.
14.2766 14.2635 8062(90) 0.0001240 7671. 7949.
14.2803 14.2672 8132(91) 0.0001207 7667. 7932.
14.2841 14.2710 7919(88) 0.0001281 7664. 7916.
14.2879 14.2748 7735(88) 0.0001303 7660. 7902.
14.2916 14.2785 7965(90) 0.0001235 7656. 7888.
14.2954 14.2823 7945(89) 0.0001271 7652. 7875.
14.2991 14.2860 7885(89) 0.0001262 7649. 7863.
14.3029 14.2898 7761(87) 0.0001316 7645. 7852.
14.3067 14.2936 7905(90) 0.0001240 7641. 7841.
14.3104 14.2973 7934(90) 0.0001242 7637. 7831.
14.3142 14.3011 8069(90) 0.0001237 7633. 7821.
14.3179 14.3048 7810(88) 0.0001283 7630. 7812.
14.3217 14.3086 8047(90) 0.0001241 7626. 7804.
14.3255 14.3124 7933(88) 0.0001286 7622. 7795.
14.3292 14.3161 7966(89) 0.0001263 7618. 7787.
14.3330 14.3199 7790(87) 0.0001312 7615. 7780.
14.3367 14.3236 8121(89) 0.0001251 7611. 7773.
14.3405 14.3274 7742(88) 0.0001299 7607. 7766.
14.3443 14.3312 7992(90) 0.0001234 7603. 7759.
14.3480 14.3349 7927(89) 0.0001258 7600. 7753.
14.3518 14.3387 8023(90) 0.0001238 7596. 7747.
14.3555 14.3424 7794(88) 0.0001279 7592. 7741.
14.3593 14.3462 8089(90) 0.0001242 7589. 7736.
14.3631 14.3500 7743(89) 0.0001265 7585. 7730.
14.3668 14.3537 7912(88) 0.0001283 7581. 7725.
14.3706 14.3575 7558(87) 0.0001322 7577. 7720.
14.3743 14.3612 7721(87) 0.0001310 7574. 7716.
14.3781 14.3650 7728(88) 0.0001295 7570. 7711.
14.3818 14.3687 7859(88) 0.0001295 7566. 7707.
14.3856 14.3725 7568(86) 0.0001342 7563. 7703.
14.3894 14.3763 7828(89) 0.0001270 7559. 7699.
14.3931 14.3800 7700(88) 0.0001290 7555. 7696.
14.3969 14.3838 7716(88) 0.0001300 7551. 7693.
14.4006 14.3875 7658(88) 0.0001280 7548. 7689.
14.4044 14.3913 7756(88) 0.0001281 7544. 7686.
14.4082 14.3951 7429(87) 0.0001336 7540. 7684.
14.4119 14.3988 7864(89) 0.0001259 7537. 7681.
14.4157 14.4026 7619(87) 0.0001310 7533. 7679.
14.4194 14.4063 7740(89) 0.0001268 7529. 7677.
14.4232 14.4101 7670(88) 0.0001280 7526. 7675.
14.4270 14.4139 7570(88) 0.0001304 7522. 7673.
14.4307 14.4176 7780(90) 0.0001242 7518. 7672.
14.4345 14.4214 7597(88) 0.0001291 7514. 7671.
14.4382 14.4251 7676(89) 0.0001274 7511. 7670.
14.4420 14.4289 7712(86) 0.0001358 7507. 7669.
14.4458 14.4327 7557(85) 0.0001394 7503. 7669.
14.4495 14.4364 7681(85) 0.0001391 7500. 7669.
14.4533 14.4402 7571(84) 0.0001409 7496. 7670.
14.4570 14.4439 7698(86) 0.0001361 7492. 7670.
14.4608 14.4477 7519(84) 0.0001403 7489. 7672.
14.4646 14.4515 7701(86) 0.0001353 7485. 7673.
14.4683 14.4552 7466(84) 0.0001404 7481. 7675.
14.4721 14.4590 7669(85) 0.0001372 7478. 7678.
14.4758 14.4627 7519(84) 0.0001403 7474. 7681.
14.4796 14.4665 7660(86) 0.0001353 7470. 7685.
14.4834 14.4703 7550(85) 0.0001379 7467. 7690.
14.4871 14.4740 7873(86) 0.0001341 7463. 7695.
14.4909 14.4778 7629(85) 0.0001387 7459. 7701.
14.4946 14.4815 7809(86) 0.0001344 7456. 7707.
14.4984 14.4853 7675(86) 0.0001353 7452. 7715.
14.5022 14.4891 7798(86) 0.0001352 7448. 7724.
14.5059 14.4928 7533(84) 0.0001409 7445. 7734.
14.5097 14.4966 7778(87) 0.0001325 7441. 7745.
14.5134 14.5003 7588(85) 0.0001374 7437. 7758.
14.5172 14.5041 7930(87) 0.0001330 7434. 7772.
14.5210 14.5079 7600(85) 0.0001386 7430. 7789.
14.5247 14.5116 7772(86) 0.0001352 7427. 7807.
14.5285 14.5154 7700(86) 0.0001352 7423. 7828.
14.5323 14.5192 7801(86) 0.0001352 7419. 7852.
14.5360 14.5229 7770(85) 0.0001375 7416. 7879.
14.5398 14.5267 7994(87) 0.0001319 7412. 7910.
14.5435 14.5304 7799(86) 0.0001350 7408. 7945.
14.5473 14.5342 7987(88) 0.0001306 7405. 7985.
14.5511 14.5380 7903(87) 0.0001313 7401. 8032.
14.5548 14.5417 7899(86) 0.0001342 7397. 8085.
14.5586 14.5455 7941(87) 0.0001315 7394. 8147.
14.5623 14.5492 8129(88) 0.0001285 7390. 8218.
14.5661 14.5530 8003(88) 0.0001301 7387. 8304.
14.5699 14.5568 8300(89) 0.0001265 7383. 8406.
14.5736 14.5605 8031(88) 0.0001295 7379. 8524.
14.5774 14.5643 8268(90) 0.0001239 7376. 8670.
14.5811 14.5680 8518(91) 0.0001206 7372. 8843.
14.5849 14.5718 8644(90) 0.0001237 7368. 9061.
14.5887 14.5756 8939(92) 0.0001182 7365. 9335.
14.5924 14.5793 9424(95) 0.0001107 7361. 9673.
14.5962 14.5831 9444(96) 0.0001087 7358. 10122.
14.5999 14.5868 10070(99) 0.0001026 7354. 10698.
14.6037 14.5906 10480(100) 0.0000981 7350. 11502.
14.6075 14.5944 11870(110) 0.0000862 7347. 12635.
14.6112 14.5981 13040(110) 0.0000789 7343. 14269.
14.6150 14.6019 16380(130) 0.0000635 7340. 17093.
14.6187 14.6056 21540(150) 0.0000465 7336. 22844.
14.6225 14.6094 37430(200) 0.0000257 7332. 37117.
14.6263 14.6132 71940(280) 0.0000126 7329. 68632.
14.6300 14.6169 132130(400) 6.30e-6 7325. 118654.
14.6338 14.6207 171480(470) 4.45e-6 7322. 166441.
14.6375 14.6244 159150(450) 4.91e-6 7318. 158663.
14.6413 14.6282 105060(350) 8.33e-6 7315. 105708.
14.6451 14.6320 63650(260) 0.0000146 7311. 58489.
14.6488 14.6357 37520(200) 0.0000259 7307. 32642.
14.6526 14.6395 25470(160) 0.0000389 7304. 20993.
14.6563 14.6432 18260(140) 0.0000543 7300. 16235.
14.6601 14.6470 14440(120) 0.0000711 7297. 13768.
14.6639 14.6508 12410(110) 0.0000824 7293. 12247.
14.6676 14.6545 11340(110) 0.0000895 7290. 11229.
14.6714 14.6583 10630(100) 0.0000981 7286. 10474.
14.6751 14.6620 10086(99) 0.0001028 7282. 9926.
14.6789 14.6658 9484(96) 0.0001083 7279. 9497.
14.6827 14.6696 9367(95) 0.0001110 7275. 9162.
14.6864 14.6733 8918(93) 0.0001161 7272. 8902.
14.6902 14.6771 9045(93) 0.0001154 7268. 8687.
14.6939 14.6808 8686(91) 0.0001200 7265. 8514.
14.6977 14.6846 8676(92) 0.0001183 7261. 8366.
14.7015 14.6884 8221(89) 0.0001257 7257. 8242.
14.7052 14.6921 8315(89) 0.0001256 7254. 8140.
14.7090 14.6959 8122(89) 0.0001270 7250. 8049.
14.7127 14.6996 8075(89) 0.0001264 7247. 7973.
14.7165 14.7034 7788(87) 0.0001319 7243. 7905.
14.7203 14.7072 7989(88) 0.0001288 7240. 7845.
14.7240 14.7109 7931(88) 0.0001295 7236. 7793.
14.7278 14.7147 8013(88) 0.0001291 7233. 7746.
14.7316 14.7185 7761(87) 0.0001324 7229. 7703.
14.7353 14.7222 7844(87) 0.0001309 7226. 7666.
14.7391 14.7260 7815(87) 0.0001317 7222. 7632.
14.7428 14.7297 7738(87) 0.0001318 7219. 7602.
14.7466 14.7335 7531(86) 0.0001341 7215. 7573.
14.7504 14.7373 7803(87) 0.0001309 7212. 7547.
14.7541 14.7410 7750(87) 0.0001324 7208. 7524.
14.7579 14.7448 7778(87) 0.0001313 7204. 7501.
14.7616 14.7485 7703(86) 0.0001341 7201. 7471.
14.7654 14.7523 7714(87) 0.0001333 7197. 7452.
14.7692 14.7561 7503(85) 0.0001368 7194. 7434.
14.7729 14.7598 7742(87) 0.0001323 7190. 7418.
14.7767 14.7636 7625(86) 0.0001362 7187. 7402.
14.7804 14.7673 7752(87) 0.0001316 7183. 7388.
14.7842 14.7711 7416(84) 0.0001414 7180. 7374.
14.7880 14.7749 7361(84) 0.0001413 7176. 7361.
14.7917 14.7786 7452(84) 0.0001404 7173. 7349.
14.7955 14.7824 7588(86) 0.0001353 7169. 7337.
14.7992 14.7861 7473(85) 0.0001380 7166. 7326.
14.8030 14.7899 7604(86) 0.0001354 7162. 7316.
14.8068 14.7937 7245(83) 0.0001442 7159. 7305.
14.8105 14.7974 7486(85) 0.0001394 7155. 7296.
14.8143 14.8012 7423(86) 0.0001367 7152. 7286.
14.8180 14.8049 7577(86) 0.0001346 7148. 7278.
14.8218 14.8087 7322(84) 0.0001407 7145. 7269.
14.8256 14.8125 7443(85) 0.0001381 7141. 7260.
14.8293 14.8162 7245(84) 0.0001422 7138. 7253.
14.8331 14.8200 7375(85) 0.0001385 7135. 7245.
14.8368 14.8237 7350(85) 0.0001383 7131. 7237.
14.8406 14.8275 7518(86) 0.0001359 7128. 7230.
14.8444 14.8313 7260(85) 0.0001396 7124. 7223.
14.8481 14.8350 7398(85) 0.0001395 7121. 7216.
14.8519 14.8388 7311(85) 0.0001399 7117. 7209.
14.8557 14.8426 7220(84) 0.0001428 7114. 7202.
14.8594 14.8463 7247(84) 0.0001418 7110. 7196.
14.8632 14.8501 7229(84) 0.0001405 7107. 7190.
14.8669 14.8538 7374(85) 0.0001387 7103. 7184.
14.8707 14.8576 7300(84) 0.0001431 7100. 7178.
14.8745 14.8614 7240(85) 0.0001394 7096. 7172.
14.8782 14.8651 7305(85) 0.0001399 7093. 7166.
14.8820 14.8689 7202(84) 0.0001430 7089. 7169.
14.8857 14.8726 7339(84) 0.0001404 7086. 7164.
14.8895 14.8764 7209(84) 0.0001423 7083. 7158.
14.8933 14.8802 7228(84) 0.0001428 7079. 7153.
14.8970 14.8839 7213(83) 0.0001457 7076. 7148.
14.9008 14.8877 7099(83) 0.0001447 7072. 7143.
14.9045 14.8914 7175(84) 0.0001422 7069. 7138.
14.9083 14.8952 7272(84) 0.0001412 7065. 7133.
14.9121 14.8990 6801(82) 0.0001504 7062. 7128.
14.9158 14.9027 7194(84) 0.0001426 7058. 7123.
14.9196 14.9065 7065(84) 0.0001416 7055. 7118.
14.9233 14.9102 7301(83) 0.0001456 7052. 7114.
14.9271 14.9140 7220(81) 0.0001508 7048. 7109.
14.9309 14.9178 7231(82) 0.0001475 7045. 7104.
14.9346 14.9215 7168(81) 0.0001517 7041. 7100.
14.9384 14.9253 7192(82) 0.0001498 7038. 7095.
14.9421 14.9290 7029(81) 0.0001529 7034. 7091.
14.9459 14.9328 7270(83) 0.0001467 7031. 7087.
14.9497 14.9366 7051(81) 0.0001506 7028. 7082.
14.9534 14.9403 7078(81) 0.0001532 7024. 7078.
14.9572 14.9441 6964(80) 0.0001545 7021. 7074.
14.9610 14.9479 7332(82) 0.0001470 7017. 7069.
14.9647 14.9516 6953(81) 0.0001525 7014. 7065.
14.9685 14.9554 7062(81) 0.0001530 7011. 7061.
14.9722 14.9591 6984(81) 0.0001515 7007. 7057.
14.9760 14.9629 6972(81) 0.0001541 7004. 7053.
14.9798 14.9667 7102(82) 0.0001498 7000. 7049.
14.9835 14.9704 7095(81) 0.0001524 6997. 7045.
14.9873 14.9742 7046(81) 0.0001541 6994. 7041.
14.9910 14.9779 7096(82) 0.0001502 6990. 7037.
14.9948 14.9817 7082(82) 0.0001482 6987. 7033.
14.9986 14.9855 7025(81) 0.0001509 6983. 7029.
15.0023 14.9892 7099(81) 0.0001513 6980. 7026.
15.0061 14.9930 7165(82) 0.0001493 6977. 7022.
15.0098 14.9967 6975(80) 0.0001547 6973. 7018.
15.0136 15.0005 7190(82) 0.0001505 6970. 7014.
15.0174 15.0043 6980(81) 0.0001532 6966. 7010.
15.0211 15.0080 7086(81) 0.0001514 6963. 7007.
15.0249 15.0118 7003(80) 0.0001553 6960. 7003.
15.0286 15.0155 7045(81) 0.0001530 6956. 6999.
15.0324 15.0193 6823(80) 0.0001569 6953. 6996.
15.0362 15.0231 7059(82) 0.0001504 6949. 6992.
15.0399 15.0268 6969(81) 0.0001537 6946. 6988.
15.0437 15.0306 7084(82) 0.0001505 6943. 6985.
15.0475 15.0344 7027(81) 0.0001524 6939. 6981.
15.0512 15.0381 7062(81) 0.0001524 6936. 6978.
15.0550 15.0419 6752(79) 0.0001592 6933. 6974.
15.0587 15.0456 7014(81) 0.0001534 6929. 6971.
15.0625 15.0494 7004(80) 0.0001567 6926. 6967.
15.0663 15.0532 7093(82) 0.0001500 6923. 6964.
15.0700 15.0569 6854(80) 0.0001567 6919. 6960.
15.0738 15.0607 6979(80) 0.0001560 6916. 6957.
15.0775 15.0644 6944(80) 0.0001544 6913. 6953.
15.0813 15.0682 6912(80) 0.0001545 6909. 6950.
15.0851 15.0720 6785(80) 0.0001561 6906. 6947.
15.0888 15.0757 7037(81) 0.0001516 6903. 6943.
15.0926 15.0795 6795(80) 0.0001566 6899. 6940.
15.0963 15.0832 6894(80) 0.0001549 6896. 6937.
15.1001 15.0870 6818(80) 0.0001562 6892. 6933.
15.1039 15.0908 6987(81) 0.0001538 6889. 6930.
15.1076 15.0945 6936(81) 0.0001540 6886. 6927.
15.1114 15.0983 7055(81) 0.0001541 6882. 6924.
15.1151 15.1020 6816(80) 0.0001577 6879. 6921.
15.1189 15.1058 7069(81) 0.0001510 6876. 6917.
15.1227 15.1096 6963(81) 0.0001530 6872. 6914.
15.1264 15.1133 7009(81) 0.0001531 6869. 6911.
15.1302 15.1171 6776(80) 0.0001580 6866. 6908.
15.1340 15.1209 6884(80) 0.0001565 6862. 6905.
15.1377 15.1246 6868(80) 0.0001563 6859. 6902.
15.1415 15.1284 6934(80) 0.0001548 6856. 6899.
15.1452 15.1321 6823(80) 0.0001581 6853. 6896.
15.1490 15.1359 7017(81) 0.0001525 6849. 6893.
15.1528 15.1397 6821(80) 0.0001557 6846. 6890.
15.1565 15.1434 7031(81) 0.0001528 6843. 6887.
15.1603 15.1472 6736(79) 0.0001591 6839. 6884.
15.1640 15.1509 6931(80) 0.0001548 6836. 6881.
15.1678 15.1547 6744(79) 0.0001615 6833. 6878.
15.1716 15.1585 6997(81) 0.0001537 6829. 6875.
15.1753 15.1622 6695(79) 0.0001614 6826. 6873.
15.1791 15.1660 6915(80) 0.0001554 6823. 6870.
15.1828 15.1697 6819(80) 0.0001567 6820. 6867.
15.1866 15.1735 6859(80) 0.0001575 6816. 6865.
15.1904 15.1773 6755(79) 0.0001609 6813. 6862.
15.1941 15.1810 6792(79) 0.0001585 6810. 6859.
15.1979 15.1848 6781(79) 0.0001601 6806. 6857.
15.2017 15.1886 6852(80) 0.0001565 6803. 6854.
15.2054 15.1923 6806(80) 0.0001550 6800. 6852.
15.2092 15.1961 7045(81) 0.0001526 6796. 6849.
15.2129 15.1998 6553(78) 0.0001628 6793. 6847.
15.2167 15.2036 6874(80) 0.0001554 6790. 6844.
15.2205 15.2074 6872(80) 0.0001555 6787. 6842.
15.2242 15.2111 6911(80) 0.0001562 6783. 6840.
15.2280 15.2149 6724(79) 0.0001603 6780. 6838.
15.2317 15.2186 6904(80) 0.0001559 6777. 6836.
15.2355 15.2224 6766(80) 0.0001578 6774. 6833.
15.2393 15.2262 6961(80) 0.0001551 6770. 6831.
15.2430 15.2299 6663(79) 0.0001615 6767. 6830.
15.2468 15.2337 6846(80) 0.0001548 6764. 6828.
15.2505 15.2374 6730(79) 0.0001588 6761. 6814.
15.2543 15.2412 6870(79) 0.0001585 6757. 6813.
15.2581 15.2450 6725(79) 0.0001597 6754. 6811.
15.2618 15.2487 6745(79) 0.0001589 6751. 6810.
15.2656 15.2525 6728(79) 0.0001605 6748. 6809.
15.2694 15.2563 6932(80) 0.0001578 6744. 6807.
15.2731 15.2600 6855(80) 0.0001577 6741. 6806.
15.2769 15.2638 6842(80) 0.0001570 6738. 6805.
15.2806 15.2675 6686(79) 0.0001608 6735. 6804.
15.2844 15.2713 6936(81) 0.0001523 6731. 6803.
15.2882 15.2751 6876(80) 0.0001581 6728. 6803.
15.2919 15.2788 6970(81) 0.0001533 6725. 6802.
15.2957 15.2826 6852(80) 0.0001572 6722. 6802.
15.2994 15.2863 6913(80) 0.0001549 6718. 6802.
15.3032 15.2901 6852(80) 0.0001582 6715. 6802.
15.3070 15.2939 6920(80) 0.0001558 6712. 6802.
15.3107 15.2976 6905(81) 0.0001542 6709. 6802.
15.3145 15.3014 7090(81) 0.0001512 6705. 6803.
15.3182 15.3051 6727(80) 0.0001582 6702. 6804.
15.3220 15.3089 6875(80) 0.0001556 6699. 6805.
15.3258 15.3127 6819(80) 0.0001570 6696. 6806.
15.3295 15.3164 6779(80) 0.0001569 6693. 6808.
15.3333 15.3202 6821(80) 0.0001557 6689. 6810.
15.3371 15.3240 6815(79) 0.0001593 6686. 6813.
15.3408 15.3277 6659(79) 0.0001595 6683. 6816.
15.3446 15.3315 6961(81) 0.0001518 6680. 6819.
15.3483 15.3352 6838(80) 0.0001561 6677. 6823.
15.3521 15.3390 6891(80) 0.0001562 6673. 6827.
15.3559 15.3428 6771(80) 0.0001578 6670. 6832.
15.3596 15.3465 6979(81) 0.0001537 6667. 6838.
15.3634 15.3503 6968(81) 0.0001532 6664. 6844.
15.3671 15.3540 6982(81) 0.0001521 6661. 6851.
15.3709 15.3578 6975(81) 0.0001517 6657. 6859.
15.3747 15.3616 7116(81) 0.0001507 6654. 6868.
15.3784 15.3653 6779(79) 0.0001588 6651. 6879.
15.3822 15.3691 6952(81) 0.0001537 6648. 6890.
15.3859 15.3728 6854(79) 0.0001595 6645. 6903.
15.3897 15.3766 7034(81) 0.0001515 6641. 6918.
15.3935 15.3804 6934(81) 0.0001538 6638. 6935.
15.3972 15.3841 7036(81) 0.0001521 6635. 6954.
15.4010 15.3879 7027(81) 0.0001527 6632. 6976.
15.4047 15.3916 7513(86) 0.0001362 6629. 7000.
15.4085 15.3954 7045(83) 0.0001448 6625. 7028.
15.4123 15.3992 7166(84) 0.0001429 6622. 7061.
15.4160 15.4029 7264(84) 0.0001423 6619. 7097.
15.4198 15.4067 7455(86) 0.0001366 6616. 7140.
15.4236 15.4105 7224(83) 0.0001464 6613. 7191.
15.4273 15.4142 7504(84) 0.0001416 6610. 7248.
15.4311 15.4180 7254(84) 0.0001421 6606. 7317.
15.4348 15.4217 7684(87) 0.0001320 6603. 7397.
15.4386 15.4255 7558(85) 0.0001384 6600. 7495.
15.4424 15.4293 7676(86) 0.0001350 6597. 7614.
15.4461 15.4330 7766(87) 0.0001311 6594. 7755.
15.4499 15.4368 7924(87) 0.0001312 6591. 7934.
15.4536 15.4405 8171(90) 0.0001245 6588. 8151.
15.4574 15.4443 8463(91) 0.0001217 6584. 8436.
15.4612 15.4481 8717(92) 0.0001176 6581. 8808.
15.4649 15.4518 9145(94) 0.0001122 6578. 9289.
15.4687 15.4556 9573(96) 0.0001089 6575. 9964.
15.4724 15.4593 10800(100) 0.0000947 6572. 10899.
15.4762 15.4631 12040(110) 0.0000852 6569. 12378.
15.4800 15.4669 14990(120) 0.0000680 6566. 15093.
15.4837 15.4706 20090(140) 0.0000493 6562. 20929.
15.4875 15.4744 34150(190) 0.0000282 6559. 34635.
15.4913 15.4782 60710(260) 0.0000154 6556. 61108.
15.4950 15.4819 100690(340) 8.58e-6 6553. 96729.
15.4988 15.4857 117200(370) 7.22e-6 6550. 120399.
15.5025 15.4894 101600(350) 8.43e-6 6547. 103686.
15.5063 15.4932 64230(260) 0.0000143 6544. 66989.
15.5101 15.4970 39550(200) 0.0000247 6540. 38191.
15.5138 15.5007 24400(160) 0.0000404 6537. 22830.
15.5176 15.5045 17430(130) 0.0000585 6534. 15776.
15.5213 15.5082 13020(110) 0.0000777 6531. 12744.
15.5251 15.5120 10950(100) 0.0000930 6528. 11096.
15.5289 15.5158 9555(96) 0.0001074 6525. 10057.
15.5326 15.5195 9147(95) 0.0001108 6522. 9351.
15.5364 15.5233 8584(92) 0.0001191 6519. 8822.
15.5401 15.5270 8147(89) 0.0001275 6516. 8435.
15.5439 15.5308 7626(86) 0.0001348 6513. 8128.
15.5477 15.5346 7670(87) 0.0001335 6509. 7888.
15.5514 15.5383 7352(85) 0.0001399 6506. 7700.
15.5552 15.5421 7345(85) 0.0001384 6503. 7544.
15.5590 15.5459 6987(83) 0.0001466 6500. 7415.
15.5627 15.5496 7008(82) 0.0001471 6497. 7310.
15.5665 15.5534 6950(82) 0.0001496 6494. 7219.
15.5702 15.5571 7196(84) 0.0001418 6491. 7143.
15.5740 15.5609 6857(81) 0.0001511 6488. 7076.
15.5778 15.5647 7009(82) 0.0001481 6485. 7018.
15.5815 15.5684 6776(81) 0.0001514 6482. 6968.
15.5853 15.5722 6786(81) 0.0001510 6478. 6924.
15.5890 15.5759 6725(81) 0.0001533 6475. 6885.
15.5928 15.5797 6755(81) 0.0001515 6472. 6849.
15.5966 15.5835 6713(81) 0.0001510 6469. 6818.
15.6003 15.5872 6878(82) 0.0001504 6466. 6790.
15.6041 15.5910 6565(80) 0.0001553 6463. 6764.
15.6078 15.5947 6711(82) 0.0001505 6460. 6741.
15.6116 15.5985 6603(80) 0.0001551 6457. 6719.
15.6154 15.6023 6628(80) 0.0001569 6454. 6699.
15.6191 15.6060 6556(80) 0.0001564 6451. 6681.
15.6229 15.6098 6686(80) 0.0001557 6448. 6664.
15.6267 15.6136 6412(79) 0.0001589 6445. 6649.
15.6304 15.6173 6563(81) 0.0001532 6442. 6634.
15.6342 15.6211 6539(80) 0.0001557 6439. 6621.
15.6379 15.6248 6666(81) 0.0001530 6436. 6608.
15.6417 15.6286 6460(79) 0.0001588 6433. 6596.
15.6455 15.6324 6659(81) 0.0001530 6429. 6584.
15.6492 15.6361 6539(80) 0.0001578 6426. 6574.
15.6530 15.6399 6484(80) 0.0001553 6423. 6564.
15.6567 15.6436 6501(80) 0.0001581 6420. 6554.
15.6605 15.6474 6487(80) 0.0001559 6417. 6545.
15.6643 15.6512 6373(79) 0.0001620 6414. 6536.
15.6680 15.6549 6508(80) 0.0001565 6411. 6528.
15.6718 15.6587 6237(78) 0.0001630 6408. 6520.
15.6755 15.6624 6607(80) 0.0001565 6405. 6512.
15.6793 15.6662 6447(79) 0.0001585 6402. 6505.
15.6831 15.6700 6540(80) 0.0001551 6399. 6497.
15.6868 15.6737 6264(78) 0.0001643 6396. 6491.
15.6906 15.6775 6540(80) 0.0001549 6393. 6484.
15.6943 15.6812 6368(78) 0.0001623 6390. 6477.
15.6981 15.6850 6454(79) 0.0001610 6387. 6471.
15.7019 15.6888 6440(79) 0.0001590 6384. 6465.
15.7056 15.6925 6465(79) 0.0001597 6381. 6459.
15.7094 15.6963 6329(80) 0.0001581 6378. 6453.
15.7132 15.7001 6361(79) 0.0001588 6375. 6447.
15.7169 15.7038 6334(79) 0.0001603 6372. 6442.
15.7207 15.7076 6419(80) 0.0001558 6369. 6437.
15.7244 15.7113 6479(80) 0.0001555 6366. 6431.
15.7282 15.7151 6467(80) 0.0001554 6363. 6426.
15.7320 15.7189 6294(78) 0.0001635 6360. 6421.
15.7357 15.7226 6397(79) 0.0001588 6357. 6416.
15.7395 15.7264 6260(79) 0.0001617 6354. 6411.
15.7432 15.7301 6491(80) 0.0001566 6351. 6407.
15.7470 15.7339 6217(78) 0.0001635 6348. 6402.
15.7508 15.7377 6507(80) 0.0001549 6345. 6397.
15.7545 15.7414 6297(78) 0.0001623 6342. 6393.
15.7583 15.7452 6449(79) 0.0001599 6339. 6388.
15.7620 15.7489 6307(78) 0.0001645 6336. 6384.
15.7658 15.7527 6486(80) 0.0001544 6333. 6380.
15.7696 15.7565 6200(78) 0.0001637 6330. 6375.
15.7733 15.7602 6326(78) 0.0001628 6327. 6372.
15.7771 15.7640 6042(77) 0.0001682 6324. 6367.
15.7808 15.7677 6369(80) 0.0001578 6321. 6363.
15.7846 15.7715 6215(78) 0.0001627 6318. 6359.
15.7884 15.7753 6427(79) 0.0001600 6315. 6355.
15.7921 15.7790 6126(77) 0.0001683 6312. 6351.
15.7959 15.7828 6325(79) 0.0001612 6309. 6347.
15.7997 15.7866 6169(78) 0.0001640 6306. 6343.
15.8034 15.7903 6361(79) 0.0001596 6303. 6340.
15.8072 15.7941 6143(78) 0.0001663 6300. 6336.
15.8109 15.7978 6268(78) 0.0001624 6297. 6332.
15.8147 15.8016 6128(77) 0.0001671 6294. 6328.
15.8185 15.8054 6369(79) 0.0001602 6291. 6324.
15.8222 15.8091 6304(79) 0.0001601 6288. 6321.
15.8260 15.8129 6348(79) 0.0001609 6285. 6317.
15.8297 15.8166 6233(78) 0.0001641 6282. 6313.
15.8335 15.8204 6295(78) 0.0001626 6280. 6310.
15.8373 15.8242 6320(78) 0.0001625 6277. 6306.
15.8410 15.8279 6331(79) 0.0001595 6274. 6303.
15.8448 15.8317 6111(78) 0.0001650 6271. 6299.
15.8485 15.8354 6117(78) 0.0001635 6268. 6295.
15.8523 15.8392 6074(77) 0.0001668 6265. 6292.
15.8561 15.8430 6246(79) 0.0001599 6262. 6288.
15.8598 15.8467 6132(78) 0.0001640 6259. 6285.
15.8636 15.8505 6407(80) 0.0001568 6256. 6282.
15.8673 15.8542 5993(76) 0.0001719 6253. 6278.
15.8711 15.8580 6416(80) 0.0001578 6250. 6275.
15.8749 15.8618 6191(78) 0.0001660 6247. 6271.
15.8786 15.8655 6194(78) 0.0001631 6244. 6268.
15.8824 15.8693 6189(79) 0.0001601 6241. 6265.
15.8862 15.8731 6336(78) 0.0001624 6238. 6261.
15.8899 15.8768 5889(76) 0.0001754 6235. 6258.
15.8937 15.8806 6351(79) 0.0001620 6233. 6254.
15.8974 15.8843 6179(78) 0.0001656 6230. 6251.
15.9012 15.8881 6284(78) 0.0001633 6227. 6248.
15.9050 15.8919 6159(77) 0.0001682 6224. 6245.
15.9087 15.8956 6227(77) 0.0001671 6221. 6241.
15.9125 15.8994 6105(77) 0.0001692 6218. 6238.
15.9162 15.9031 6390(79) 0.0001618 6215. 6235.
15.9200 15.9069 6118(77) 0.0001678 6212. 6232.
15.9238 15.9107 6112(77) 0.0001686 6209. 6228.
15.9275 15.9144 6153(77) 0.0001706 6206. 6225.
15.9313 15.9182 6174(77) 0.0001682 6203. 6222.
15.9350 15.9219 6127(77) 0.0001699 6201. 6219.
15.9388 15.9257 6152(77) 0.0001674 6198. 6216.
15.9426 15.9295 6130(77) 0.0001698 6195. 6212.
15.9463 15.9332 6219(77) 0.0001669 6192. 6209.
15.9501 15.9370 5998(76) 0.0001725 6189. 6206.
15.9538 15.9407 6210(78) 0.0001662 6186. 6203.
15.9576 15.9445 6005(76) 0.0001720 6183. 6200.
15.9614 15.9483 6075(76) 0.0001716 6180. 6197.
15.9651 15.9520 6074(76) 0.0001713 6177. 6194.
15.9689 15.9558 6327(78) 0.0001623 6175. 6190.
15.9727 15.9596 6171(77) 0.0001695 6172. 6187.
15.9764 15.9633 6124(77) 0.0001674 6169. 6184.
15.9802 15.9671 6047(77) 0.0001693 6166. 6181.
15.9839 15.9708 6248(78) 0.0001627 6163. 6178.
15.9877 15.9746 5950(75) 0.0001779 6160. 6175.
15.9915 15.9784 6208(78) 0.0001660 6157. 6172.
15.9952 15.9821 5975(76) 0.0001727 6155. 6169.
15.9990 15.9859 6308(79) 0.0001602 6152. 6166.
16.0027 15.9896 5997(76) 0.0001725 6149. 6163.
16.0065 15.9934 6195(78) 0.0001664 6146. 6160.
16.0103 15.9972 5929(76) 0.0001732 6143. 6157.
16.0140 16.0009 6290(78) 0.0001633 6140. 6154.
16.0178 16.0047 6028(77) 0.0001705 6137. 6151.
16.0215 16.0084 6076(77) 0.0001698 6135. 6148.
16.0253 16.0122 6029(77) 0.0001688 6132. 6145.
16.0291 16.0160 6153(77) 0.0001689 6129. 6142.
16.0328 16.0197 6104(77) 0.0001688 6126. 6139.
16.0366 16.0235 6196(78) 0.0001649 6123. 6136.
16.0403 16.0272 5992(76) 0.0001725 6120. 6133.
16.0441 16.0310 6070(77) 0.0001683 6117. 6130.
16.0479 16.0348 5957(77) 0.0001700 6115. 6127.
16.0516 16.0385 6143(77) 0.0001673 6112. 6124.
16.0554 16.0423 6085(77) 0.0001668 6109. 6121.
16.0591 16.0460 6051(77) 0.0001707 6106. 6118.
16.0629 16.0498 6048(76) 0.0001723 6103. 6115.
16.0667 16.0536 6179(78) 0.0001664 6100. 6112.
16.0704 16.0573 5986(76) 0.0001717 6098. 6109.
16.0742 16.0611 5995(77) 0.0001697 6095. 6106.
16.0779 16.0648 6089(77) 0.0001692 6092. 6103.
16.0817 16.0686 6227(79) 0.0001617 6089. 6100.
16.0855 16.0724 5969(77) 0.0001708 6086. 6097.
16.0892 16.0761 6219(78) 0.0001639 6083. 6095.
16.0930 16.0799 6047(78) 0.0001650 6081. 6092.
16.0968 16.0837 6029(77) 0.0001697 6078. 6089.
16.1005 16.0874 5905(76) 0.0001749 6075. 6086.
16.1043 16.0912 5969(77) 0.0001709 6072. 6083.
16.1080 16.0949 6052(77) 0.0001676 6069. 6080.
16.1118 16.0987 6238(78) 0.0001627 6067. 6077.
16.1156 16.1025 5946(76) 0.0001725 6064. 6074.
16.1193 16.1062 6020(76) 0.0001728 6061. 6072.
16.1231 16.1100 5962(76) 0.0001710 6058. 6069.
16.1268 16.1137 6108(76) 0.0001718 6055. 6066.
16.1306 16.1175 5888(76) 0.0001739 6053. 6063.
16.1344 16.1213 6124(78) 0.0001656 6050. 6060.
16.1381 16.1250 5794(75) 0.0001778 6047. 6057.
16.1419 16.1288 6061(77) 0.0001707 6044. 6055.
16.1456 16.1325 5950(76) 0.0001718 6041. 6052.
16.1494 16.1363 5960(76) 0.0001715 6039. 6049.
16.1532 16.1401 6030(77) 0.0001707 6036. 6046.
16.1569 16.1438 5961(76) 0.0001713 6033. 6044.
16.1607 16.1476 5737(75) 0.0001782 6030. 6041.
16.1644 16.1513 6054(76) 0.0001731 6028. 6038.
16.1682 16.1551 5797(75) 0.0001755 6025. 6035.
16.1720 16.1589 6002(76) 0.0001712 6022. 6033.
16.1757 16.1626 5857(75) 0.0001780 6019. 6030.
16.1795 16.1664 5959(76) 0.0001731 6016. 6027.
16.1832 16.1701 5958(76) 0.0001718 6014. 6025.
16.1870 16.1739 6057(77) 0.0001692 6011. 6022.
16.1908 16.1777 5906(76) 0.0001712 6008. 6019.
16.1945 16.1814 6065(76) 0.0001711 6005. 6017.
16.1983 16.1852 5791(75) 0.0001788 6003. 6014.
16.2020 16.1889 6014(77) 0.0001676 6000. 6011.
16.2058 16.1927 5884(75) 0.0001755 5997. 6009.
16.2096 16.1965 5953(76) 0.0001727 5994. 6006.
16.2133 16.2002 5692(74) 0.0001810 5992. 6004.
16.2171 16.2040 5953(76) 0.0001731 5989. 6002.
16.2208 16.2077 5913(76) 0.0001734 5986. 5999.
16.2246 16.2115 5934(76) 0.0001735 5983. 5997.
16.2284 16.2153 5890(76) 0.0001751 5981. 5995.
16.2321 16.2190 6002(76) 0.0001712 5978. 5993.
16.2359 16.2228 5847(75) 0.0001765 5975. 5992.
16.2396 16.2265 6086(78) 0.0001662 5972. 5991.
16.2434 16.2303 5810(75) 0.0001762 5970. 5991.
16.2472 16.2341 5996(76) 0.0001735 5967. 5994.
16.2509 16.2378 5879(76) 0.0001744 5964. 6004.
16.2547 16.2416 5887(76) 0.0001730 5961. 6028.
16.2584 16.2453 5975(77) 0.0001701 5959. 6070.
16.2622 16.2491 6164(77) 0.0001686 5956. 6117.
16.2660 16.2529 6086(77) 0.0001704 5953. 6123.
16.2697 16.2566 6098(77) 0.0001668 5951. 6079.
16.2735 16.2604 5937(76) 0.0001736 5948. 6028.
16.2772 16.2641 6109(77) 0.0001674 5945. 5994.
16.2810 16.2679 5786(75) 0.0001764 5942. 5976.
16.2848 16.2717 5988(76) 0.0001714 5940. 5967.
16.2885 16.2754 5904(76) 0.0001721 5937. 5962.
16.2923 16.2792 6009(77) 0.0001705 5934. 5954.
16.2960 16.2829 5730(75) 0.0001778 5932. 5951.
16.2998 16.2867 5973(76) 0.0001720 5929. 5949.
16.3036 16.2905 5748(75) 0.0001797 5926. 5947.
16.3073 16.2942 5925(76) 0.0001728 5923. 5945.
16.3111 16.2980 5839(75) 0.0001774 5921. 5944.
16.3148 16.3017 5998(76) 0.0001716 5918. 5943.
16.3186 16.3055 5867(76) 0.0001753 5915. 5943.
16.3224 16.3093 5923(77) 0.0001704 5913. 5943.
16.3261 16.3130 5831(76) 0.0001736 5910. 5944.
16.3299 16.3168 5978(77) 0.0001683 5907. 5946.
16.3336 16.3205 5762(75) 0.0001795 5905. 5948.
16.3374 16.3243 5880(76) 0.0001732 5902. 5952.
16.3412 16.3281 5778(75) 0.0001781 5899. 5957.
16.3449 16.3318 5870(75) 0.0001790 5896. 5964.
16.3487 16.3356 5718(75) 0.0001780 5894. 5975.
16.3525 16.3394 5942(76) 0.0001722 5891. 5990.
16.3562 16.3431 5874(76) 0.0001754 5888. 6010.
16.3600 16.3469 5972(77) 0.0001695 5886. 6041.
16.3637 16.3506 5894(76) 0.0001728 5883. 6087.
16.3675 16.3544 6261(79) 0.0001606 5880. 6175.
16.3713 16.3582 6132(77) 0.0001682 5878. 6364.
16.3750 16.3619 7073(85) 0.0001392 5875. 6770.
16.3788 16.3657 7881(89) 0.0001253 5872. 7563.
16.3825 16.3694 9702(97) 0.0001056 5870. 8677.
16.3863 16.3732 10790(110) 0.0000912 5867. 9622.
16.3901 16.3770 10360(100) 0.0000982 5864. 9385.
16.3938 16.3807 8715(94) 0.0001133 5862. 8288.
16.3976 16.3845 7578(87) 0.0001323 5859. 7230.
16.4013 16.3882 6677(82) 0.0001497 5856. 6586.
16.4051 16.3920 6405(80) 0.0001576 5854. 6256.
16.4088 16.3957 6197(78) 0.0001641 5851. 6110.
16.4126 16.3995 6103(78) 0.0001625 5848. 6034.
16.4164 16.4033 5922(77) 0.0001673 5846. 5988.
16.4201 16.4070 5904(76) 0.0001713 5843. 5956.
16.4239 16.4108 5744(75) 0.0001760 5840. 5932.
16.4276 16.4145 6032(76) 0.0001714 5838. 5914.
16.4314 16.4183 5705(75) 0.0001773 5835. 5899.
16.4352 16.4221 5915(77) 0.0001696 5832. 5887.
16.4389 16.4258 5663(75) 0.0001800 5830. 5877.
16.4427 16.4296 5928(77) 0.0001675 5827. 5868.
16.4464 16.4333 5736(76) 0.0001728 5825. 5861.
16.4502 16.4371 5720(76) 0.0001738 5822. 5854.
16.4540 16.4409 5745(76) 0.0001754 5819. 5848.
16.4577 16.4446 5653(75) 0.0001778 5817. 5842.
16.4615 16.4484 5497(74) 0.0001804 5814. 5837.
16.4652 16.4521 5799(76) 0.0001729 5811. 5833.
16.4690 16.4559 5515(74) 0.0001813 5809. 5828.
16.4728 16.4597 5790(76) 0.0001736 5806. 5824.
16.4765 16.4634 5669(75) 0.0001761 5804. 5820.
16.4803 16.4672 5839(76) 0.0001723 5801. 5816.
16.4840 16.4709 5751(75) 0.0001773 5798. 5812.
16.4878 16.4747 5813(77) 0.0001698 5796. 5809.
16.4916 16.4785 5641(75) 0.0001761 5793. 5805.
16.4953 16.4822 5912(77) 0.0001677 5791. 5802.
16.4991 16.4860 5827(76) 0.0001725 5788. 5798.
16.5028 16.4897 5776(74) 0.0001810 5785. 5795.
16.5066 16.4935 5751(77) 0.0001697 5783. 5792.
16.5104 16.4973 5701(76) 0.0001732 5780. 5789.
16.5141 16.5010 5727(76) 0.0001739 5777. 5786.
16.5179 16.5048 5581(75) 0.0001800 5775. 5783.
16.5216 16.5085 5613(75) 0.0001774 5772. 5780.
16.5254 16.5123 5903(77) 0.0001688 5770. 5777.
16.5292 16.5161 5544(74) 0.0001803 5767. 5774.
16.5329 16.5198 5877(77) 0.0001699 5765. 5771.
16.5367 16.5236 5608(75) 0.0001769 5762. 5770.
16.5404 16.5273 5840(76) 0.0001727 5759. 5768.
16.5442 16.5311 5593(75) 0.0001783 5757. 5765.
16.5480 16.5349 5839(76) 0.0001716 5754. 5762.
16.5517 16.5386 5706(76) 0.0001735 5752. 5759.
16.5555 16.5424 5641(74) 0.0001824 5749. 5756.
16.5592 16.5461 5734(76) 0.0001731 5746. 5754.
16.5630 16.5499 5698(75) 0.0001758 5744. 5751.
16.5668 16.5537 5598(75) 0.0001781 5741. 5748.
16.5705 16.5574 5672(76) 0.0001730 5739. 5746.
16.5743 16.5612 5635(75) 0.0001782 5736. 5743.
16.5780 16.5649 5755(77) 0.0001692 5734. 5740.
16.5818 16.5687 5559(75) 0.0001789 5731. 5738.
16.5856 16.5725 5629(75) 0.0001783 5728. 5735.
16.5893 16.5762 5508(74) 0.0001806 5726. 5732.
16.5931 16.5800 5626(74) 0.0001802 5723. 5730.
16.5968 16.5837 5624(75) 0.0001775 5721. 5727.
16.6006 16.5875 5734(76) 0.0001710 5718. 5725.
16.6044 16.5913 5486(73) 0.0001866 5716. 5722.
16.6081 16.5950 5763(76) 0.0001733 5713. 5719.
16.6119 16.5988 5522(74) 0.0001804 5710. 5717.
16.6156 16.6025 5774(76) 0.0001730 5708. 5714.
16.6194 16.6063 5621(75) 0.0001796 5705. 5712.
16.6231 16.6100 5637(75) 0.0001761 5703. 5709.
16.6269 16.6138 5495(74) 0.0001839 5700. 5707.
16.6307 16.6176 5645(75) 0.0001792 5698. 5704.
16.6344 16.6213 5554(74) 0.0001810 5695. 5702.
16.6382 16.6251 5805(75) 0.0001762 5693. 5699.
16.6419 16.6288 5579(74) 0.0001816 5690. 5697.
16.6457 16.6326 5679(76) 0.0001749 5688. 5694.
16.6495 16.6364 5550(74) 0.0001829 5685. 5692.
16.6532 16.6401 5822(77) 0.0001704 5683. 5689.
16.6570 16.6439 5575(75) 0.0001773 5680. 5687.
16.6607 16.6476 5677(76) 0.0001751 5678. 5684.
16.6645 16.6514 5525(74) 0.0001813 5675. 5682.
16.6683 16.6552 5701(75) 0.0001761 5672. 5679.
16.6720 16.6589 5543(75) 0.0001776 5670. 5677.
16.6758 16.6627 5740(77) 0.0001698 5667. 5675.
16.6795 16.6664 5514(75) 0.0001780 5665. 5672.
16.6833 16.6702 5686(76) 0.0001734 5662. 5670.
16.6871 16.6740 5418(73) 0.0001856 5660. 5667.
16.6908 16.6777 5691(76) 0.0001752 5657. 5665.
16.6946 16.6815 5522(74) 0.0001814 5655. 5663.
16.6983 16.6852 5757(75) 0.0001766 5652. 5660.
16.7021 16.6890 5461(72) 0.0001907 5650. 5658.
16.7059 16.6928 5666(75) 0.0001784 5647. 5656.
16.7096 16.6965 5518(74) 0.0001847 5645. 5653.
16.7134 16.7003 5571(75) 0.0001780 5642. 5651.
16.7171 16.7040 5448(73) 0.0001861 5640. 5649.
16.7209 16.7078 5700(76) 0.0001747 5637. 5646.
16.7246 16.7115 5375(74) 0.0001851 5635. 5644.
16.7284 16.7153 5653(75) 0.0001780 5632. 5642.
16.7322 16.7191 5449(74) 0.0001813 5630. 5639.
16.7359 16.7228 5655(75) 0.0001758 5627. 5637.
16.7397 16.7266 5508(74) 0.0001828 5625. 5635.
16.7434 16.7303 5689(76) 0.0001732 5622. 5633.
16.7472 16.7341 5504(74) 0.0001832 5620. 5631.
16.7510 16.7379 5708(75) 0.0001781 5617. 5628.
16.7547 16.7416 5413(73) 0.0001862 5615. 5626.
16.7585 16.7454 5714(77) 0.0001693 5612. 5624.
16.7622 16.7491 5415(74) 0.0001824 5610. 5622.
16.7660 16.7529 5526(74) 0.0001847 5607. 5620.
16.7698 16.7567 5586(75) 0.0001774 5605. 5618.
16.7735 16.7604 5714(76) 0.0001742 5602. 5616.
16.7773 16.7642 5501(75) 0.0001789 5600. 5614.
16.7810 16.7679 5597(75) 0.0001771 5598. 5612.
16.7848 16.7717 5509(75) 0.0001778 5595. 5610.
16.7886 16.7755 5441(74) 0.0001828 5593. 5608.
16.7923 16.7792 5498(74) 0.0001818 5590. 5606.
16.7961 16.7830 5558(75) 0.0001788 5588. 5604.
16.7998 16.7867 5518(75) 0.0001787 5585. 5602.
16.8036 16.7905 5681(75) 0.0001768 5583. 5600.
16.8073 16.7942 5567(75) 0.0001790 5580. 5599.
16.8111 16.7980 5698(76) 0.0001743 5578. 5597.
16.8149 16.8018 5540(75) 0.0001790 5575. 5595.
16.8186 16.8055 5571(75) 0.0001787 5573. 5594.
16.8224 16.8093 5473(74) 0.0001832 5570. 5592.
16.8261 16.8130 5558(75) 0.0001786 5568. 5591.
16.8299 16.8168 5586(75) 0.0001793 5566. 5590.
16.8337 16.8206 5495(74) 0.0001824 5563. 5589.
16.8374 16.8243 5476(74) 0.0001846 5561. 5587.
16.8412 16.8281 5487(74) 0.0001823 5558. 5586.
16.8449 16.8318 5498(76) 0.0001748 5556. 5586.
16.8487 16.8356 5658(75) 0.0001760 5553. 5585.
16.8524 16.8393 5454(73) 0.0001883 5551. 5584.
16.8562 16.8431 5470(74) 0.0001835 5549. 5584.
16.8600 16.8469 5599(74) 0.0001841 5546. 5584.
16.8637 16.8506 5445(73) 0.0001861 5544. 5584.
16.8675 16.8544 5475(74) 0.0001845 5541. 5584.
16.8712 16.8581 5543(74) 0.0001835 5539. 5585.
16.8750 16.8619 5324(73) 0.0001889 5536. 5589.
16.8788 16.8657 5509(74) 0.0001838 5534. 5591.
16.8825 16.8694 5394(73) 0.0001899 5532. 5592.
16.8863 16.8732 5609(74) 0.0001829 5529. 5595.
16.8900 16.8769 5538(74) 0.0001849 5527. 5598.
16.8938 16.8807 5686(75) 0.0001781 5524. 5602.
16.8976 16.8845 5501(73) 0.0001853 5522. 5607.
16.9013 16.8882 5601(74) 0.0001804 5519. 5613.
16.9051 16.8920 5557(75) 0.0001792 5517. 5620.
16.9088 16.8957 5620(74) 0.0001821 5515. 5629.
16.9126 16.8995 5460(73) 0.0001874 5512. 5640.
16.9163 16.9032 5533(74) 0.0001840 5510. 5653.
16.9201 16.9070 5554(75) 0.0001799 5507. 5670.
16.9239 16.9108 5705(75) 0.0001777 5505. 5692.
16.9276 16.9145 5538(74) 0.0001832 5503. 5719.
16.9314 16.9183 5789(76) 0.0001752 5500. 5754.
16.9351 16.9220 5557(74) 0.0001817 5498. 5798.
16.9389 16.9258 5744(75) 0.0001765 5495. 5859.
16.9427 16.9296 5643(75) 0.0001789 5493. 5943.
16.9464 16.9333 5972(76) 0.0001732 5491. 6058.
16.9502 16.9371 6178(78) 0.0001653 5488. 6235.
16.9539 16.9408 6645(81) 0.0001509 5486. 6537.
16.9577 16.9446 7212(84) 0.0001401 5484. 7229.
16.9614 16.9483 9099(95) 0.0001110 5481. 8911.
16.9652 16.9521 13060(110) 0.0000789 5479. 12680.
16.9690 16.9559 20150(140) 0.0000491 5476. 18739.
16.9727 16.9596 25640(160) 0.0000382 5474. 24151.
16.9765 16.9634 24590(160) 0.0000391 5472. 23502.
16.9802 16.9671 18130(140) 0.0000539 5469. 17630.
16.9840 16.9709 12700(110) 0.0000791 5467. 11867.
16.9878 16.9747 9427(97) 0.0001069 5464. 8502.
16.9915 16.9784 7736(88) 0.0001305 5462. 7056.
16.9953 16.9822 6659(81) 0.0001528 5460. 6460.
16.9990 16.9859 6377(79) 0.0001585 5457. 6189.
17.0028 16.9897 5828(76) 0.0001729 5455. 6025.
17.0065 16.9934 5943(76) 0.0001721 5453. 5919.
17.0103 16.9972 5722(76) 0.0001747 5450. 5843.
17.0141 17.0010 5745(75) 0.0001757 5448. 5791.
17.0178 17.0047 5711(75) 0.0001783 5446. 5757.
17.0216 17.0085 5650(75) 0.0001776 5443. 5739.
17.0253 17.0122 5561(74) 0.0001817 5441. 5740.
17.0291 17.0160 5796(76) 0.0001728 5439. 5774.
17.0329 17.0198 5803(76) 0.0001739 5436. 5887.
17.0366 17.0235 6099(78) 0.0001627 5434. 6152.
17.0404 17.0273 6377(80) 0.0001563 5431. 6652.
17.0441 17.0310 7159(84) 0.0001409 5429. 7283.
17.0479 17.0348 7213(85) 0.0001389 5427. 7657.
17.0516 17.0385 7050(83) 0.0001464 5424. 7332.
17.0554 17.0423 6320(80) 0.0001582 5422. 6664.
17.0592 17.0461 6016(77) 0.0001687 5420. 6120.
17.0629 17.0498 5641(75) 0.0001792 5417. 5813.
17.0667 17.0536 5651(75) 0.0001768 5415. 5662.
17.0704 17.0573 5501(74) 0.0001843 5413. 5593.
17.0742 17.0611 5704(76) 0.0001726 5410. 5554.
17.0779 17.0648 5410(74) 0.0001835 5408. 5529.
17.0817 17.0686 5319(72) 0.0001936 5406. 5510.
17.0855 17.0724 5297(73) 0.0001878 5403. 5494.
17.0892 17.0761 5433(73) 0.0001863 5401. 5482.
17.0930 17.0799 5440(74) 0.0001830 5399. 5472.
17.0967 17.0836 5436(74) 0.0001836 5397. 5463.
17.1005 17.0874 5357(73) 0.0001871 5394. 5455.
17.1043 17.0912 5504(74) 0.0001811 5392. 5449.
17.1080 17.0949 5316(72) 0.0001918 5390. 5443.
17.1118 17.0987 5419(74) 0.0001821 5387. 5437.
17.1155 17.1024 5360(72) 0.0001948 5385. 5432.
17.1193 17.1062 5410(74) 0.0001830 5383. 5427.
17.1230 17.1099 5273(73) 0.0001902 5380. 5423.
17.1268 17.1137 5428(74) 0.0001851 5378. 5418.
17.1306 17.1175 5471(75) 0.0001793 5376. 5414.
17.1343 17.1212 5470(74) 0.0001829 5373. 5411.
17.1381 17.1250 5334(72) 0.0001922 5371. 5407.
17.1418 17.1287 5412(75) 0.0001801 5369. 5403.
17.1456 17.1325 5230(72) 0.0001926 5367. 5400.
17.1493 17.1362 5415(73) 0.0001852 5364. 5397.
17.1531 17.1400 5388(73) 0.0001854 5362. 5394.
17.1569 17.1438 5366(73) 0.0001877 5360. 5391.
17.1606 17.1475 5107(71) 0.0001990 5357. 5388.
17.1644 17.1513 5236(71) 0.0001972 5355. 5385.
17.1681 17.1550 5283(72) 0.0001930 5353. 5382.
17.1719 17.1588 5320(73) 0.0001878 5351. 5379.
17.1756 17.1625 5276(72) 0.0001923 5348. 5377.
17.1794 17.1663 5359(73) 0.0001856 5346. 5374.
17.1832 17.1701 5335(73) 0.0001881 5344. 5371.
17.1869 17.1738 5404(74) 0.0001819 5341. 5369.
17.1907 17.1776 5180(71) 0.0001976 5339. 5366.
17.1944 17.1813 5416(73) 0.0001852 5337. 5364.
17.1982 17.1851 5074(71) 0.0002001 5335. 5362.
17.2019 17.1888 5321(73) 0.0001874 5332. 5359.
17.2057 17.1926 5318(72) 0.0001929 5330. 5357.
17.2095 17.1964 5537(73) 0.0001862 5328. 5355.
17.2132 17.2001 5378(72) 0.0001921 5326. 5353.
17.2170 17.2039 5335(73) 0.0001876 5323. 5350.
17.2207 17.2076 5121(71) 0.0001970 5321. 5348.
17.2245 17.2114 5382(73) 0.0001878 5319. 5346.
17.2282 17.2151 5174(71) 0.0002002 5316. 5344.
17.2320 17.2189 5376(73) 0.0001898 5314. 5342.
17.2358 17.2227 5155(72) 0.0001907 5312. 5340.
17.2395 17.2264 5338(73) 0.0001863 5310. 5338.
17.2433 17.2302 5267(73) 0.0001895 5307. 5336.
17.2470 17.2339 5331(73) 0.0001855 5305. 5335.
17.2508 17.2377 5195(72) 0.0001935 5303. 5333.
17.2545 17.2414 5275(72) 0.0001907 5301. 5331.
17.2583 17.2452 5163(70) 0.0002017 5298. 5329.
17.2621 17.2490 5349(73) 0.0001866 5296. 5328.
17.2658 17.2527 5263(73) 0.0001898 5294. 5326.
17.2696 17.2565 5377(73) 0.0001851 5292. 5325.
17.2733 17.2602 5141(72) 0.0001944 5290. 5323.
17.2771 17.2640 5524(75) 0.0001790 5287. 5322.
17.2808 17.2677 5256(72) 0.0001953 5285. 5320.
17.2846 17.2715 5299(73) 0.0001869 5283. 5319.
17.2884 17.2753 5232(72) 0.0001919 5281. 5318.
17.2921 17.2790 5329(74) 0.0001840 5278. 5317.
17.2959 17.2828 5158(72) 0.0001947 5276. 5315.
17.2996 17.2865 5331(74) 0.0001847 5274. 5314.
17.3034 17.2903 5322(73) 0.0001887 5272. 5314.
17.3071 17.2940 5328(73) 0.0001887 5269. 5313.
17.3109 17.2978 5153(72) 0.0001928 5267. 5312.
17.3147 17.3016 5331(73) 0.0001857 5265. 5311.
17.3184 17.3053 5203(72) 0.0001903 5263. 5311.
17.3222 17.3091 5294(73) 0.0001884 5261. 5311.
17.3259 17.3128 5318(74) 0.0001820 5258. 5310.
17.3297 17.3166 5235(71) 0.0001976 5256. 5310.
17.3334 17.3203 5233(70) 0.0002023 5254. 5311.
17.3372 17.3241 5278(72) 0.0001948 5252. 5311.
17.3410 17.3279 5185(71) 0.0001995 5250. 5312.
17.3447 17.3316 5258(71) 0.0002010 5247. 5312.
17.3485 17.3354 5193(70) 0.0002019 5245. 5313.
17.3522 17.3391 5379(72) 0.0001939 5243. 5315.
17.3560 17.3429 5145(70) 0.0002037 5241. 5316.
17.3597 17.3466 5199(71) 0.0001989 5239. 5318.
17.3635 17.3504 5215(71) 0.0002004 5236. 5321.
17.3673 17.3542 5383(71) 0.0001964 5234. 5324.
17.3710 17.3579 5378(72) 0.0001936 5232. 5327.
17.3748 17.3617 5241(71) 0.0001973 5230. 5331.
17.3785 17.3654 5307(72) 0.0001934 5228. 5335.
17.3823 17.3692 5468(73) 0.0001899 5225. 5341.
17.3860 17.3729 5223(71) 0.0001988 5223. 5350.
17.3898 17.3767 5334(72) 0.0001931 5221. 5357.
17.3936 17.3805 5391(73) 0.0001892 5219. 5365.
17.3973 17.3842 5499(72) 0.0001926 5217. 5375.
17.4011 17.3880 5402(72) 0.0001928 5214. 5387.
17.4048 17.3917 5433(72) 0.0001932 5212. 5400.
17.4086 17.3955 5456(72) 0.0001907 5210. 5415.
17.4123 17.3992 5486(73) 0.0001901 5208. 5433.
17.4161 17.4030 5288(71) 0.0001977 5206. 5455.
17.4198 17.4067 5405(72) 0.0001911 5204. 5481.
17.4236 17.4105 5464(73) 0.0001882 5201. 5512.
17.4274 17.4143 5603(73) 0.0001865 5199. 5550.
17.4311 17.4180 5500(73) 0.0001882 5197. 5595.
17.4349 17.4218 5614(74) 0.0001844 5195. 5652.
17.4386 17.4255 5439(72) 0.0001919 5193. 5722.
17.4424 17.4293 5879(75) 0.0001778 5191. 5814.
17.4461 17.4330 5838(75) 0.0001756 5188. 5933.
17.4499 17.4368 5990(76) 0.0001734 5186. 6107.
17.4537 17.4406 6257(78) 0.0001655 5184. 6385.
17.4574 17.4443 6650(80) 0.0001581 5182. 6854.
17.4612 17.4481 7626(86) 0.0001352 5180. 7651.
17.4649 17.4518 9133(94) 0.0001135 5178. 8762.
17.4687 17.4556 10103(99) 0.0001012 5176. 10114.
17.4724 17.4593 12210(110) 0.0000831 5173. 11870.
17.4762 17.4631 15460(120) 0.0000662 5171. 15839.
17.4799 17.4668 25290(160) 0.0000395 5169. 23663.
17.4837 17.4706 38150(200) 0.0000254 5167. 35174.
17.4875 17.4744 48240(220) 0.0000199 5165. 43686.
17.4912 17.4781 42340(210) 0.0000227 5163. 40119.
17.4950 17.4819 30480(180) 0.0000325 5161. 28489.
17.4987 17.4856 19500(140) 0.0000517 5158. 18278.
17.5025 17.4894 13650(120) 0.0000753 5156. 11890.
17.5062 17.4931 9876(99) 0.0001028 5154. 8893.
17.5100 17.4969 8276(89) 0.0001250 5152. 7529.
17.5138 17.5007 6907(81) 0.0001507 5150. 6864.
17.5175 17.5044 6446(79) 0.0001614 5148. 6476.
17.5213 17.5082 6021(76) 0.0001713 5146. 6203.
17.5250 17.5119 5991(76) 0.0001733 5143. 6009.
17.5288 17.5157 5695(74) 0.0001813 5141. 5860.
17.5325 17.5194 5626(73) 0.0001854 5139. 5748.
17.5363 17.5232 5463(73) 0.0001887 5137. 5657.
17.5400 17.5269 5682(75) 0.0001794 5135. 5586.
17.5438 17.5307 5413(73) 0.0001889 5133. 5527.
17.5476 17.5345 5521(74) 0.0001837 5131. 5478.
17.5513 17.5382 5371(72) 0.0001912 5129. 5438.
17.5551 17.5420 5466(72) 0.0001909 5127. 5403.
17.5588 17.5457 5303(72) 0.0001907 5124. 5374.
17.5626 17.5495 5422(72) 0.0001939 5122. 5348.
17.5663 17.5532 5118(71) 0.0002011 5120. 5326.
17.5701 17.5570 5390(73) 0.0001891 5118. 5306.
17.5738 17.5607 5337(71) 0.0001958 5116. 5289.
17.5776 17.5645 5247(71) 0.0001965 5114. 5273.
17.5814 17.5683 5150(71) 0.0001983 5112. 5259.
17.5851 17.5720 5417(73) 0.0001891 5110. 5247.
17.5889 17.5758 5149(71) 0.0002006 5108. 5235.
17.5926 17.5795 5379(72) 0.0001934 5106. 5225.
17.5964 17.5833 5101(70) 0.0002018 5103. 5216.
17.6001 17.5870 5422(73) 0.0001881 5101. 5207.
17.6039 17.5908 5012(69) 0.0002072 5099. 5199.
17.6076 17.5945 5153(71) 0.0001994 5097. 5191.
17.6114 17.5983 5060(70) 0.0002028 5095. 5184.
17.6152 17.6021 5095(71) 0.0001999 5093. 5177.
17.6189 17.6058 4992(70) 0.0002054 5091. 5171.
17.6227 17.6096 5293(72) 0.0001939 5089. 5165.
17.6264 17.6133 5037(70) 0.0002062 5087. 5160.
17.6302 17.6171 5201(71) 0.0001970 5085. 5154.
17.6339 17.6208 5139(70) 0.0002042 5083. 5149.
17.6377 17.6246 5234(72) 0.0001938 5081. 5145.
17.6414 17.6283 4931(69) 0.0002075 5078. 5140.
17.6452 17.6321 5220(71) 0.0001960 5076. 5136.
17.6490 17.6359 5004(70) 0.0002054 5074. 5131.
17.6527 17.6396 5071(70) 0.0002021 5072. 5127.
17.6565 17.6434 5016(70) 0.0002061 5070. 5124.
17.6602 17.6471 5049(70) 0.0002014 5068. 5120.
17.6640 17.6509 5070(70) 0.0002026 5066. 5116.
17.6677 17.6546 5124(71) 0.0001999 5064. 5113.
17.6715 17.6584 4945(69) 0.0002084 5062. 5109.
17.6752 17.6621 5171(71) 0.0002008 5060. 5106.
17.6790 17.6659 4993(70) 0.0002064 5058. 5103.
17.6828 17.6697 5182(71) 0.0001963 5056. 5100.
17.6865 17.6734 5063(70) 0.0002055 5054. 5097.
17.6903 17.6772 5101(70) 0.0002014 5052. 5094.
17.6940 17.6809 4930(69) 0.0002075 5050. 5091.
17.6978 17.6847 4998(69) 0.0002071 5048. 5088.
17.7015 17.6884 4936(69) 0.0002070 5046. 5085.
17.7053 17.6922 5085(70) 0.0002054 5043. 5083.
17.7090 17.6959 5016(69) 0.0002077 5041. 5080.
17.7128 17.6997 4979(70) 0.0002056 5039. 5077.
17.7165 17.7034 5065(71) 0.0002011 5037. 5075.
17.7203 17.7072 5220(71) 0.0001960 5035. 5073.
17.7241 17.7110 4943(69) 0.0002107 5033. 5070.
17.7278 17.7147 5030(70) 0.0002032 5031. 5068.
17.7316 17.7185 4843(69) 0.0002125 5029. 5065.
17.7353 17.7222 5205(71) 0.0001978 5027. 5063.
17.7391 17.7260 4928(69) 0.0002087 5025. 5061.
17.7428 17.7297 5047(70) 0.0002060 5023. 5059.
17.7466 17.7335 4870(69) 0.0002119 5021. 5057.
17.7503 17.7372 5002(70) 0.0002053 5019. 5055.
17.7541 17.7410 4824(68) 0.0002133 5017. 5053.
17.7578 17.7447 5076(71) 0.0002009 5015. 5051.
17.7616 17.7485 4936(70) 0.0002050 5013. 5049.
17.7654 17.7523 5088(71) 0.0001996 5011. 5047.
17.7691 17.7560 4945(69) 0.0002073 5009. 5045.
17.7729 17.7598 5121(71) 0.0001973 5007. 5043.
17.7766 17.7635 5025(70) 0.0002060 5005. 5042.
17.7804 17.7673 4962(70) 0.0002058 5003. 5040.
17.7841 17.7710 4922(69) 0.0002088 5001. 5038.
17.7879 17.7748 5096(70) 0.0002045 4999. 5037.
17.7904 17.7773 5022(71) 0.0001962 4997. 5036.
17.7941 17.7810 5025(71) 0.0001999 4996. 5034.
17.7979 17.7848 5152(72) 0.0001952 4993. 5033.
17.8017 17.7886 4940(71) 0.0002012 4991. 5032.
17.8054 17.7923 5106(72) 0.0001939 4989. 5030.
17.8092 17.7961 4977(71) 0.0001990 4987. 5029.
17.8129 17.7998 5001(71) 0.0001995 4985. 5028.
17.8167 17.8036 5038(72) 0.0001923 4983. 5027.
17.8204 17.8073 4945(69) 0.0002093 4981. 5026.
17.8242 17.8111 4916(68) 0.0002154 4979. 5025.
17.8280 17.8149 5151(71) 0.0001997 4977. 5025.
17.8317 17.8186 4987(69) 0.0002076 4975. 5024.
17.8355 17.8224 5010(69) 0.0002110 4973. 5024.
17.8392 17.8261 4908(68) 0.0002138 4972. 5023.
17.8430 17.8299 4942(69) 0.0002112 4970. 5022.
17.8467 17.8336 4905(68) 0.0002138 4968. 5022.
17.8505 17.8374 5099(70) 0.0002028 4966. 5023.
17.8542 17.8411 5016(69) 0.0002085 4964. 5023.
17.8580 17.8449 4999(69) 0.0002116 4962. 5024.
17.8618 17.8487 4913(69) 0.0002121 4960. 5024.
17.8655 17.8524 5097(70) 0.0002029 4958. 5025.
17.8693 17.8562 4887(69) 0.0002102 4956. 5027.
17.8730 17.8599 4934(69) 0.0002107 4954. 5029.
17.8768 17.8637 4910(69) 0.0002116 4952. 5031.
17.8805 17.8674 5111(70) 0.0002016 4950. 5033.
17.8843 17.8712 4979(70) 0.0002051 4948. 5036.
17.8881 17.8750 5079(69) 0.0002087 4946. 5040.
17.8918 17.8787 5018(69) 0.0002078 4944. 5044.
17.8956 17.8825 4993(69) 0.0002104 4942. 5049.
17.8993 17.8862 4992(69) 0.0002086 4940. 5054.
17.9031 17.8900 5176(70) 0.0002016 4938. 5061.
17.9068 17.8937 4968(69) 0.0002106 4936. 5069.
17.9106 17.8975 5085(70) 0.0002033 4934. 5078.
17.9144 17.9013 4890(69) 0.0002106 4932. 5088.
17.9181 17.9050 5083(70) 0.0002058 4930. 5101.
17.9219 17.9088 4944(69) 0.0002096 4928. 5116.
17.9256 17.9125 5243(71) 0.0001976 4926. 5133.
17.9294 17.9163 5146(70) 0.0002030 4924. 5154.
17.9331 17.9200 5137(70) 0.0002038 4922. 5178.
17.9369 17.9238 5088(70) 0.0002018 4920. 5208.
17.9406 17.9275 5344(72) 0.0001946 4918. 5244.
17.9444 17.9313 5097(70) 0.0002037 4916. 5290.
17.9482 17.9351 5299(71) 0.0001990 4914. 5347.
17.9519 17.9388 5106(70) 0.0002031 4913. 5417.
17.9557 17.9426 5477(72) 0.0001907 4911. 5509.
17.9594 17.9463 5300(72) 0.0001948 4909. 5628.
17.9632 17.9501 5803(75) 0.0001770 4907. 5791.
17.9669 17.9538 5758(74) 0.0001814 4905. 6013.
17.9707 17.9576 6291(78) 0.0001650 4903. 6356.
17.9745 17.9614 6764(81) 0.0001527 4901. 6959.
17.9782 17.9651 7991(88) 0.0001300 4899. 8180.
17.9820 17.9689 10093(99) 0.0001016 4897. 10938.
17.9857 17.9726 16040(130) 0.0000636 4895. 16145.
17.9895 17.9764 24370(160) 0.0000410 4893. 24283.
17.9932 17.9801 33050(180) 0.0000299 4891. 32186.
17.9970 17.9839 31890(180) 0.0000304 4889. 33473.
18.0007 17.9876 24740(160) 0.0000404 4887. 26617.
18.0045 17.9914 16450(130) 0.0000621 4885. 18047.
18.0083 17.9952 11970(110) 0.0000860 4884. 11951.
18.0120 17.9989 8959(93) 0.0001144 4882. 8748.
18.0158 18.0027 7666(86) 0.0001350 4880. 7237.
18.0193 18.0062 6636(81) 0.0001538 4878. 6608.
18.0231 18.0100 6409(79) 0.0001584 4876. 6293.
18.0268 18.0137 6264(79) 0.0001592 4874. 6219.
18.0306 18.0175 6673(81) 0.0001531 4872. 6371.
18.0344 18.0213 7364(85) 0.0001371 4870. 6725.
18.0381 18.0250 8100(90) 0.0001245 4868. 7076.
18.0419 18.0288 8027(89) 0.0001260 4866. 7043.
18.0456 18.0325 7356(86) 0.0001364 4865. 6569.
18.0494 18.0363 6342(80) 0.0001582 4863. 6012.
18.0531 18.0400 5774(75) 0.0001756 4861. 5613.
18.0569 18.0438 5513(74) 0.0001822 4859. 5369.
18.0606 18.0475 5261(72) 0.0001930 4857. 5242.
18.0644 18.0513 5176(71) 0.0001957 4855. 5167.
18.0681 18.0550 5167(71) 0.0001976 4853. 5119.
18.0719 18.0588 4854(70) 0.0002052 4851. 5082.
18.0756 18.0625 4972(71) 0.0001969 4849. 5054.
18.0794 18.0663 4895(70) 0.0002043 4847. 5030.
18.0832 18.0701 4917(69) 0.0002086 4846. 5009.
18.0869 18.0738 4863(69) 0.0002094 4844. 4992.
18.0907 18.0776 4990(71) 0.0002005 4842. 4977.
18.0944 18.0813 4984(71) 0.0001987 4840. 4964.
18.0982 18.0851 4961(70) 0.0002029 4838. 4952.
18.1019 18.0888 4855(69) 0.0002072 4836. 4942.
18.1057 18.0926 5009(70) 0.0002018 4834. 4932.
18.1094 18.0963 4709(68) 0.0002185 4832. 4924.
18.1132 18.1001 4958(70) 0.0002026 4831. 4916.
18.1170 18.1039 4826(69) 0.0002119 4829. 4908.
18.1207 18.1076 4931(70) 0.0002056 4827. 4902.
18.1245 18.1114 4772(68) 0.0002168 4825. 4895.
18.1282 18.1151 4790(69) 0.0002097 4823. 4890.
18.1320 18.1189 4705(68) 0.0002143 4821. 4884.
18.1357 18.1226 4800(68) 0.0002154 4819. 4879.
18.1395 18.1264 4708(68) 0.0002154 4817. 4874.
18.1432 18.1301 4703(68) 0.0002168 4816. 4869.
18.1470 18.1339 4780(69) 0.0002106 4814. 4865.
18.1507 18.1376 4854(68) 0.0002132 4812. 4860.
18.1545 18.1414 4861(70) 0.0002065 4810. 4856.
18.1583 18.1452 4820(69) 0.0002103 4808. 4852.
18.1620 18.1489 4683(67) 0.0002216 4806. 4848.
18.1658 18.1527 4955(71) 0.0001995 4804. 4845.
18.1695 18.1564 4597(68) 0.0002189 4803. 4841.
18.1733 18.1602 4839(69) 0.0002086 4801. 4838.
18.1770 18.1639 4832(69) 0.0002079 4799. 4834.
18.1808 18.1677 4858(69) 0.0002072 4797. 4831.
18.1845 18.1714 4807(69) 0.0002077 4795. 4828.
18.1883 18.1752 4916(69) 0.0002077 4793. 4825.
18.1920 18.1789 4729(68) 0.0002147 4791. 4822.
18.1958 18.1827 4716(68) 0.0002152 4790. 4819.
18.1996 18.1865 4691(68) 0.0002189 4788. 4816.
18.2033 18.1902 4946(70) 0.0002069 4786. 4813.
18.2071 18.1940 4633(68) 0.0002147 4784. 4810.
18.2108 18.1977 4768(68) 0.0002179 4782. 4808.
18.2146 18.2015 4722(69) 0.0002128 4780. 4805.
18.2183 18.2052 4734(68) 0.0002139 4779. 4802.
18.2221 18.2090 4695(68) 0.0002166 4777. 4800.
18.2258 18.2127 4809(69) 0.0002105 4775. 4797.
18.2296 18.2165 4660(68) 0.0002156 4773. 4795.
18.2334 18.2203 4836(69) 0.0002077 4771. 4792.
18.2371 18.2240 4785(69) 0.0002112 4769. 4790.
18.2409 18.2278 4866(69) 0.0002076 4768. 4787.
18.2446 18.2315 4707(68) 0.0002153 4766. 4785.
18.2484 18.2353 4759(69) 0.0002092 4764. 4783.
18.2521 18.2390 4695(68) 0.0002147 4762. 4780.
18.2559 18.2428 4793(69) 0.0002121 4760. 4778.
18.2596 18.2465 4595(68) 0.0002176 4758. 4776.
18.2634 18.2503 4782(68) 0.0002143 4757. 4773.
18.2672 18.2541 4642(68) 0.0002159 4755. 4771.
18.2709 18.2578 4762(69) 0.0002104 4753. 4769.
18.2747 18.2616 4723(68) 0.0002134 4751. 4767.
18.2784 18.2653 4693(69) 0.0002129 4749. 4765.
18.2822 18.2691 4686(67) 0.0002211 4748. 4760.
18.2859 18.2728 4827(70) 0.0002036 4746. 4758.
18.2897 18.2766 4712(68) 0.0002149 4744. 4756.
18.2934 18.2803 4833(69) 0.0002083 4742. 4754.
18.2972 18.2841 4766(69) 0.0002082 4740. 4752.
18.3010 18.2879 4817(70) 0.0002049 4738. 4750.
18.3047 18.2916 4759(70) 0.0002059 4737. 4748.
18.3085 18.2954 4564(68) 0.0002193 4735. 4746.
18.3122 18.2991 4668(69) 0.0002103 4733. 4744.
18.3160 18.3029 4792(69) 0.0002092 4731. 4742.
18.3197 18.3066 4626(68) 0.0002144 4729. 4740.
18.3235 18.3104 4776(69) 0.0002098 4728. 4738.
18.3272 18.3141 4689(68) 0.0002136 4726. 4736.
18.3310 18.3179 4669(68) 0.0002153 4724. 4733.
18.3348 18.3217 4562(67) 0.0002228 4722. 4731.
18.3385 18.3254 4694(68) 0.0002151 4721. 4729.
18.3423 18.3292 4535(68) 0.0002175 4719. 4727.
18.3460 18.3329 4627(68) 0.0002137 4717. 4726.
18.3498 18.3367 4672(68) 0.0002156 4715. 4724.
18.3535 18.3404 4783(69) 0.0002085 4713. 4722.
18.3573 18.3442 4708(69) 0.0002094 4712. 4720.
18.3610 18.3479 4736(69) 0.0002125 4710. 4718.
18.3648 18.3517 4585(68) 0.0002187 4708. 4716.
18.3686 18.3555 4704(68) 0.0002172 4706. 4714.
18.3723 18.3592 4626(68) 0.0002158 4704. 4712.
18.3761 18.3630 4723(69) 0.0002104 4703. 4710.
18.3798 18.3667 4645(68) 0.0002162 4701. 4708.
18.3836 18.3705 4603(68) 0.0002168 4699. 4706.
18.3873 18.3742 4522(67) 0.0002225 4697. 4704.
18.3911 18.3780 4678(68) 0.0002145 4696. 4702.
18.3948 18.3817 4597(68) 0.0002147 4694. 4700.
18.3986 18.3855 4687(69) 0.0002112 4692. 4699.
18.4024 18.3893 4568(68) 0.0002184 4690. 4697.
18.4061 18.3930 4570(68) 0.0002189 4689. 4695.
18.4099 18.3968 4641(68) 0.0002149 4687. 4693.
18.4136 18.4005 4615(67) 0.0002209 4685. 4691.
18.4174 18.4043 4557(67) 0.0002226 4683. 4689.
18.4211 18.4080 4737(69) 0.0002103 4681. 4687.
18.4249 18.4118 4512(67) 0.0002214 4680. 4685.
18.4287 18.4156 4644(68) 0.0002149 4678. 4684.
18.4324 18.4193 4494(67) 0.0002247 4676. 4682.
18.4362 18.4231 4642(69) 0.0002113 4674. 4680.
18.4399 18.4268 4652(69) 0.0002117 4673. 4678.
18.4437 18.4306 4679(69) 0.0002113 4671. 4676.
18.4474 18.4343 4582(68) 0.0002172 4669. 4674.
18.4512 18.4381 4755(69) 0.0002104 4667. 4672.
18.4549 18.4418 4498(67) 0.0002223 4666. 4671.
18.4587 18.4456 4723(69) 0.0002125 4664. 4669.
18.4625 18.4494 4689(68) 0.0002171 4662. 4667.
18.4662 18.4531 4657(68) 0.0002166 4660. 4665.
18.4700 18.4569 4501(67) 0.0002233 4659. 4663.
18.4737 18.4606 4576(68) 0.0002150 4657. 4662.
18.4775 18.4644 4439(68) 0.0002176 4655. 4660.
18.4812 18.4681 4710(70) 0.0002051 4654. 4658.
18.4850 18.4719 4495(68) 0.0002188 4652. 4656.
18.4888 18.4757 4568(69) 0.0002110 4650. 4654.
18.4925 18.4794 4489(68) 0.0002187 4648. 4653.
18.4963 18.4832 4704(70) 0.0002048 4647. 4651.
18.5000 18.4869 4613(69) 0.0002094 4645. 4649.
18.5038 18.4907 4591(70) 0.0002061 4643. 4647.
18.5075 18.4944 4564(68) 0.0002185 4641. 4645.
18.5113 18.4982 4601(68) 0.0002148 4640. 4644.
18.5151 18.5020 4503(68) 0.0002149 4638. 4642.
18.5188 18.5057 4653(69) 0.0002098 4636. 4640.
18.5226 18.5095 4602(69) 0.0002079 4634. 4638.
18.5263 18.5132 4593(67) 0.0002232 4633. 4636.
18.5301 18.5170 4661(70) 0.0002038 4631. 4635.
18.5338 18.5207 4627(69) 0.0002072 4629. 4633.
18.5376 18.5245 4510(68) 0.0002157 4628. 4631.
18.5413 18.5282 4690(70) 0.0002055 4626. 4629.
18.5451 18.5320 4542(69) 0.0002122 4624. 4628.
18.5489 18.5358 4540(68) 0.0002194 4622. 4626.
18.5526 18.5395 4577(69) 0.0002102 4621. 4624.
18.5564 18.5433 4554(69) 0.0002088 4619. 4622.
18.5601 18.5470 4581(68) 0.0002145 4617. 4621.
18.5639 18.5508 4624(69) 0.0002130 4616. 4619.
18.5676 18.5545 4527(69) 0.0002125 4614. 4617.
18.5714 18.5583 4666(70) 0.0002067 4612. 4615.
18.5752 18.5621 4540(68) 0.0002157 4610. 4614.
18.5789 18.5658 4663(69) 0.0002073 4609. 4612.
18.5827 18.5696 4555(69) 0.0002125 4607. 4610.
18.5864 18.5733 4632(69) 0.0002098 4605. 4609.
18.5902 18.5771 4694(70) 0.0002064 4604. 4607.
18.5939 18.5808 4673(70) 0.0002047 4602. 4605.
18.5977 18.5846 4492(68) 0.0002138 4600. 4603.
18.6015 18.5884 4553(69) 0.0002102 4599. 4602.
18.6052 18.5921 4478(68) 0.0002140 4597. 4600.
18.6090 18.5959 4769(70) 0.0002044 4595. 4598.
18.6127 18.5996 4454(67) 0.0002217 4594. 4596.
18.6165 18.6034 4652(69) 0.0002130 4592. 4595.
18.6202 18.6071 4472(68) 0.0002157 4590. 4594.
18.6278 18.6147 4578(68) 0.0002140 4587. 4590.
18.6315 18.6184 4579(69) 0.0002119 4585. 4588.
18.6353 18.6222 4625(69) 0.0002128 4583. 4587.
18.6390 18.6259 4687(69) 0.0002085 4582. 4585.
18.6428 18.6297 4580(68) 0.0002149 4580. 4583.
18.6465 18.6334 4528(68) 0.0002163 4578. 4582.
18.6503 18.6372 4621(69) 0.0002098 4577. 4580.
18.6541 18.6410 4549(68) 0.0002172 4575. 4578.
18.6578 18.6447 4470(67) 0.0002205 4573. 4577.
18.6616 18.6485 4505(67) 0.0002198 4572. 4575.
18.6653 18.6522 4409(67) 0.0002211 4570. 4573.
18.6691 18.6560 4632(69) 0.0002131 4568. 4572.
18.6728 18.6597 4461(68) 0.0002187 4567. 4570.
18.6766 18.6635 4543(68) 0.0002190 4565. 4568.
18.6804 18.6673 4532(68) 0.0002144 4563. 4566.
18.6841 18.6710 4586(69) 0.0002125 4562. 4565.
18.6879 18.6748 4501(67) 0.0002231 4560. 4563.
18.6916 18.6785 4460(67) 0.0002197 4558. 4561.
18.6954 18.6823 4384(67) 0.0002202 4557. 4560.
18.6991 18.6860 4513(67) 0.0002196 4555. 4558.
18.7029 18.6898 4618(69) 0.0002097 4553. 4556.
18.7067 18.6936 4471(67) 0.0002256 4552. 4555.
18.7104 18.6973 4419(68) 0.0002169 4550. 4553.
18.7142 18.7011 4561(68) 0.0002158 4548. 4551.
18.7179 18.7048 4404(66) 0.0002291 4547. 4550.
18.7217 18.7086 4555(68) 0.0002144 4545. 4548.
18.7254 18.7123 4493(67) 0.0002201 4543. 4547.
18.7292 18.7161 4656(70) 0.0002069 4542. 4545.
18.7330 18.7199 4447(67) 0.0002200 4540. 4543.
18.7367 18.7236 4507(67) 0.0002213 4539. 4546.
18.7405 18.7274 4399(67) 0.0002219 4537. 4544.
18.7442 18.7311 4511(68) 0.0002146 4535. 4543.
18.7480 18.7349 4540(68) 0.0002163 4534. 4541.
18.7517 18.7386 4643(70) 0.0002056 4532. 4540.
18.7555 18.7424 4453(69) 0.0002107 4530. 4538.
18.7593 18.7462 4614(69) 0.0002117 4529. 4536.
18.7630 18.7499 4478(68) 0.0002184 4527. 4535.
18.7668 18.7537 4533(68) 0.0002144 4525. 4533.
18.7705 18.7574 4399(67) 0.0002230 4524. 4532.
18.7743 18.7612 4501(68) 0.0002193 4522. 4530.
18.7781 18.7650 4534(67) 0.0002202 4520. 4529.
18.7818 18.7687 4525(68) 0.0002133 4519. 4527.
18.7856 18.7725 4354(67) 0.0002227 4517. 4526.
18.7893 18.7762 4486(68) 0.0002153 4516. 4524.
18.7931 18.7800 4404(67) 0.0002205 4514. 4522.
18.7968 18.7837 4441(67) 0.0002220 4512. 4519.
18.8006 18.7875 4492(68) 0.0002152 4511. 4518.
18.8044 18.7913 4517(68) 0.0002170 4509. 4516.
18.8081 18.7950 4436(68) 0.0002183 4507. 4515.
18.8119 18.7988 4555(68) 0.0002182 4506. 4513.
18.8156 18.8025 4540(68) 0.0002154 4504. 4512.
18.8194 18.8063 4595(68) 0.0002158 4503. 4510.
18.8231 18.8100 4371(67) 0.0002214 4501. 4509.
18.8269 18.8138 4454(68) 0.0002159 4499. 4507.
18.8307 18.8176 4323(66) 0.0002266 4498. 4506.
18.8344 18.8213 4560(69) 0.0002124 4496. 4504.
18.8382 18.8251 4323(66) 0.0002302 4495. 4503.
18.8419 18.8288 4439(67) 0.0002198 4493. 4501.
18.8457 18.8326 4412(67) 0.0002245 4491. 4500.
18.8495 18.8364 4441(67) 0.0002208 4490. 4498.
18.8532 18.8401 4341(67) 0.0002222 4488. 4497.
18.8570 18.8439 4515(68) 0.0002181 4487. 4495.
18.8607 18.8476 4458(68) 0.0002137 4485. 4494.
18.8645 18.8514 4455(68) 0.0002178 4483. 4493.
18.8682 18.8551 4555(68) 0.0002144 4482. 4491.
18.8720 18.8589 4639(69) 0.0002097 4480. 4490.
18.8758 18.8627 4503(68) 0.0002156 4479. 4488.
18.8795 18.8664 4503(68) 0.0002193 4477. 4487.
18.8833 18.8702 4435(68) 0.0002183 4475. 4485.
18.8870 18.8739 4608(68) 0.0002139 4474. 4484.
18.8908 18.8777 4478(68) 0.0002178 4472. 4483.
18.8945 18.8814 4395(67) 0.0002219 4471. 4481.
18.8983 18.8852 4282(67) 0.0002252 4469. 4480.
18.9021 18.8890 4381(67) 0.0002235 4467. 4478.
18.9058 18.8927 4439(68) 0.0002167 4466. 4477.
18.9096 18.8965 4485(68) 0.0002186 4464. 4476.
18.9133 18.9002 4439(68) 0.0002183 4463. 4474.
18.9171 18.9040 4487(67) 0.0002246 4461. 4473.
18.9209 18.9078 4328(66) 0.0002309 4459. 4472.
18.9246 18.9115 4387(67) 0.0002229 4458. 4470.
18.9284 18.9153 4376(67) 0.0002225 4456. 4469.
18.9321 18.9190 4477(67) 0.0002208 4455. 4468.
18.9359 18.9228 4464(68) 0.0002184 4453. 4466.
18.9396 18.9265 4479(67) 0.0002240 4452. 4465.
18.9434 18.9303 4378(66) 0.0002271 4450. 4464.
18.9472 18.9341 4475(67) 0.0002236 4448. 4462.
18.9509 18.9378 4419(68) 0.0002158 4447. 4461.
18.9547 18.9416 4456(68) 0.0002171 4445. 4460.
18.9584 18.9453 4447(68) 0.0002165 4444. 4459.
18.9622 18.9491 4442(68) 0.0002132 4442. 4457.
18.9660 18.9529 4410(68) 0.0002190 4441. 4456.
18.9697 18.9566 4452(68) 0.0002171 4439. 4455.
18.9735 18.9604 4538(69) 0.0002104 4437. 4454.
18.9772 18.9641 4389(67) 0.0002246 4436. 4453.
18.9810 18.9679 4329(66) 0.0002297 4434. 4451.
18.9847 18.9716 4400(68) 0.0002176 4433. 4450.
18.9885 18.9754 4409(67) 0.0002235 4431. 4449.
18.9923 18.9792 4442(68) 0.0002192 4430. 4448.
18.9960 18.9829 4361(65) 0.0002357 4428. 4447.
18.9998 18.9867 4390(67) 0.0002217 4426. 4446.
19.0035 18.9904 4354(67) 0.0002236 4425. 4445.
19.0073 18.9942 4452(68) 0.0002193 4423. 4444.
19.0111 18.9980 4404(68) 0.0002194 4422. 4443.
19.0148 19.0017 4636(70) 0.0002029 4420. 4442.
19.0186 19.0055 4377(68) 0.0002182 4419. 4441.
19.0223 19.0092 4488(68) 0.0002161 4417. 4440.
19.0261 19.0130 4388(67) 0.0002242 4416. 4439.
19.0298 19.0167 4479(68) 0.0002168 4414. 4438.
19.0336 19.0205 4462(67) 0.0002206 4413. 4438.
19.0374 19.0243 4406(67) 0.0002220 4411. 4437.
19.0411 19.0280 4305(66) 0.0002281 4409. 4436.
19.0449 19.0318 4540(69) 0.0002120 4408. 4435.
19.0486 19.0355 4476(68) 0.0002138 4406. 4435.
19.0524 19.0393 4449(68) 0.0002169 4405. 4434.
19.0562 19.0431 4357(67) 0.0002206 4403. 4434.
19.0599 19.0468 4451(68) 0.0002174 4402. 4433.
19.0637 19.0506 4453(67) 0.0002203 4400. 4433.
19.0674 19.0543 4383(67) 0.0002202 4399. 4433.
19.0712 19.0581 4471(68) 0.0002155 4397. 4432.
19.0749 19.0618 4563(69) 0.0002113 4396. 4432.
19.0787 19.0656 4340(68) 0.0002182 4394. 4432.
19.0825 19.0694 4474(69) 0.0002123 4393. 4432.
19.0862 19.0731 4364(68) 0.0002188 4391. 4432.
19.0900 19.0769 4602(69) 0.0002102 4389. 4433.
19.0937 19.0806 4460(68) 0.0002153 4388. 4433.
19.0975 19.0844 4480(67) 0.0002213 4386. 4434.
19.1013 19.0882 4389(67) 0.0002204 4385. 4435.
19.1050 19.0919 4388(68) 0.0002190 4383. 4436.
19.1088 19.0957 4313(67) 0.0002237 4382. 4438.
19.1125 19.0994 4380(67) 0.0002232 4380. 4439.
19.1163 19.1032 4312(67) 0.0002254 4379. 4442.
19.1201 19.1070 4475(68) 0.0002160 4377. 4444.
19.1238 19.1107 4433(68) 0.0002190 4376. 4449.
19.1276 19.1145 4510(69) 0.0002117 4374. 4453.
19.1313 19.1182 4336(67) 0.0002195 4373. 4458.
19.1351 19.1220 4478(68) 0.0002141 4371. 4465.
19.1388 19.1257 4354(67) 0.0002201 4370. 4473.
19.1426 19.1295 4494(68) 0.0002162 4368. 4483.
19.1464 19.1333 4426(67) 0.0002197 4367. 4498.
19.1501 19.1370 4468(68) 0.0002144 4365. 4517.
19.1539 19.1408 4642(70) 0.0002026 4364. 4552.
19.1576 19.1445 4743(70) 0.0002039 4362. 4620.
19.1614 19.1483 4906(72) 0.0001907 4361. 4773.
19.1652 19.1521 5267(74) 0.0001844 4359. 5075.
19.1689 19.1558 6363(82) 0.0001496 4358. 5524.
19.1727 19.1596 7165(86) 0.0001360 4356. 5986.
19.1764 19.1633 7133(86) 0.0001337 4355. 6080.
19.1802 19.1671 6444(81) 0.0001517 4353. 5718.
19.1840 19.1709 5740(77) 0.0001668 4352. 5257.
19.1877 19.1746 5400(75) 0.0001772 4350. 4943.
19.1915 19.1784 4936(71) 0.0001965 4349. 4789.
19.1952 19.1821 4962(72) 0.0001943 4347. 4749.
19.1990 19.1859 4711(71) 0.0001987 4346. 4773.
19.2027 19.1896 4982(72) 0.0001927 4344. 4850.
19.2065 19.1934 4989(73) 0.0001872 4343. 5025.
19.2103 19.1972 5574(77) 0.0001682 4341. 5422.
19.2140 19.2009 6488(82) 0.0001470 4340. 6223.
19.2178 19.2047 8342(93) 0.0001147 4338. 7642.
19.2215 19.2084 10680(110) 0.0000872 4337. 9430.
19.2253 19.2122 12720(120) 0.0000712 4335. 10740.
19.2291 19.2160 11300(110) 0.0000821 4334. 10247.
19.2328 19.2197 9192(98) 0.0001034 4332. 8552.
19.2366 19.2235 7414(88) 0.0001298 4331. 6869.
19.2403 19.2272 6106(79) 0.0001619 4329. 5788.
19.2441 19.2310 5509(75) 0.0001774 4328. 5210.
19.2479 19.2348 5260(75) 0.0001799 4326. 4949.
19.2516 19.2385 4944(72) 0.0001949 4325. 4834.
19.2554 19.2423 4957(72) 0.0001917 4323. 4773.
19.2591 19.2460 4748(71) 0.0002009 4322. 4740.
19.2629 19.2498 4686(70) 0.0002033 4321. 4723.
19.2667 19.2536 4615(70) 0.0002054 4319. 4718.
19.2704 19.2573 4758(71) 0.0001968 4318. 4722.
19.2742 19.2611 4582(69) 0.0002073 4316. 4736.
19.2779 19.2648 4721(70) 0.0002012 4315. 4757.
19.2817 19.2686 4694(71) 0.0002005 4313. 4788.
19.2855 19.2724 4747(71) 0.0001973 4312. 4829.
19.2892 19.2761 4728(70) 0.0002050 4310. 4880.
19.2930 19.2799 4875(72) 0.0001924 4309. 4947.
19.2967 19.2836 4940(72) 0.0001907 4307. 5031.
19.3005 19.2874 5054(73) 0.0001853 4306. 5140.
19.3042 19.2911 5075(73) 0.0001855 4304. 5277.
19.3080 19.2949 5490(76) 0.0001722 4303. 5462.
19.3118 19.2987 5490(76) 0.0001712 4302. 5711.
19.3155 19.3024 6070(80) 0.0001557 4300. 6047.
19.3193 19.3062 6469(83) 0.0001438 4299. 6556.
19.3230 19.3099 7301(88) 0.0001280 4297. 7399.
19.3268 19.3137 8961(99) 0.0001021 4296. 9188.
19.3306 19.3175 13030(120) 0.0000708 4294. 13275.
19.3343 19.3212 21050(150) 0.0000427 4293. 21424.
19.3381 19.3250 36780(200) 0.0000246 4291. 35113.
19.3418 19.3287 55630(260) 0.0000152 4290. 50445.
19.3456 19.3325 62720(280) 0.0000131 4288. 57565.
19.3494 19.3363 50030(240) 0.0000175 4287. 48285.
19.3531 19.3400 33740(190) 0.0000266 4286. 32765.
19.3569 19.3438 21150(150) 0.0000445 4284. 19818.
19.3606 19.3475 14250(120) 0.0000653 4283. 12418.
19.3644 19.3513 10050(100) 0.0000926 4281. 8794.
19.3682 19.3551 8042(93) 0.0001163 4280. 7202.
19.3719 19.3588 6598(84) 0.0001428 4278. 6428.
19.3757 19.3626 5819(79) 0.0001616 4277. 5947.
19.3794 19.3663 5557(77) 0.0001693 4275. 5622.
19.3832 19.3701 5336(75) 0.0001764 4274. 5378.
19.3870 19.3739 4935(73) 0.0001894 4273. 5194.
19.3907 19.3776 4880(71) 0.0002011 4271. 5055.
19.3945 19.3814 4739(70) 0.0002031 4270. 4942.
19.3982 19.3851 4812(73) 0.0001899 4268. 4854.
19.4020 19.3889 4613(70) 0.0002058 4267. 4780.
19.4058 19.3927 4598(69) 0.0002072 4265. 4719.
19.4095 19.3964 4624(70) 0.0002052 4264. 4669.
19.4133 19.4002 4561(69) 0.0002099 4263. 4625.
19.4170 19.4039 4430(68) 0.0002136 4261. 4589.
19.4208 19.4077 4552(70) 0.0002046 4260. 4557.
19.4245 19.4114 4445(69) 0.0002085 4258. 4530.
19.4283 19.4152 4439(69) 0.0002117 4257. 4506.
19.4321 19.4190 4355(68) 0.0002161 4255. 4484.
19.4358 19.4227 4275(67) 0.0002200 4254. 4466.
19.4396 19.4265 4456(70) 0.0002049 4253. 4449.
19.4433 19.4302 4409(68) 0.0002153 4251. 4434.
19.4471 19.4340 4441(68) 0.0002194 4250. 4420.
19.4509 19.4378 4498(68) 0.0002138 4248. 4408.
19.4546 19.4415 4254(66) 0.0002275 4247. 4397.
19.4584 19.4453 4301(66) 0.0002287 4246. 4386.
19.4621 19.4490 4273(65) 0.0002335 4244. 4377.
19.4659 19.4528 4410(68) 0.0002183 4243. 4369.
19.4697 19.4566 4308(66) 0.0002270 4241. 4361.
19.4734 19.4603 4287(67) 0.0002241 4240. 4353.
19.4772 19.4641 4371(67) 0.0002219 4239. 4347.
19.4809 19.4678 4399(67) 0.0002212 4237. 4340.
19.4847 19.4716 4297(67) 0.0002213 4236. 4334.
19.4885 19.4754 4396(67) 0.0002219 4234. 4329.
19.4922 19.4791 4333(67) 0.0002246 4233. 4324.
19.4960 19.4829 4330(66) 0.0002273 4232. 4319.
19.4997 19.4866 4301(68) 0.0002169 4230. 4314.
19.5035 19.4904 4350(65) 0.0002341 4229. 4310.
19.5073 19.4942 4235(66) 0.0002308 4227. 4306.
19.5110 19.4979 4292(67) 0.0002243 4226. 4302.
19.5148 19.5017 4376(67) 0.0002215 4225. 4299.
19.5185 19.5054 4414(68) 0.0002185 4223. 4295.
19.5223 19.5092 4256(67) 0.0002254 4222. 4292.
19.5261 19.5130 4295(67) 0.0002228 4220. 4289.
19.5298 19.5167 4328(67) 0.0002256 4219. 4286.
19.5336 19.5205 4388(68) 0.0002164 4218. 4283.
19.5373 19.5242 4189(66) 0.0002271 4216. 4281.
19.5411 19.5280 4260(67) 0.0002222 4215. 4278.
19.5449 19.5318 4186(66) 0.0002315 4213. 4276.
19.5486 19.5355 4258(67) 0.0002257 4212. 4274.
19.5524 19.5393 4144(66) 0.0002307 4211. 4272.
19.5561 19.5430 4349(66) 0.0002294 4209. 4270.
19.5599 19.5468 4224(67) 0.0002250 4208. 4268.
19.5637 19.5506 4317(67) 0.0002251 4206. 4267.
19.5674 19.5543 4257(66) 0.0002314 4205. 4265.
19.5712 19.5581 4285(67) 0.0002257 4204. 4264.
19.5749 19.5618 4230(67) 0.0002258 4202. 4263.
19.5787 19.5656 4319(67) 0.0002244 4201. 4262.
19.5825 19.5694 4197(66) 0.0002297 4200. 4261.
19.5862 19.5731 4246(66) 0.0002265 4198. 4260.
19.5900 19.5769 4217(66) 0.0002275 4197. 4260.
19.5937 19.5806 4348(67) 0.0002236 4195. 4259.
19.5975 19.5844 4287(67) 0.0002240 4194. 4259.
19.6013 19.5882 4186(66) 0.0002289 4193. 4259.
19.6050 19.5919 4250(67) 0.0002212 4191. 4259.
19.6088 19.5957 4323(68) 0.0002153 4190. 4260.
19.6125 19.5994 4233(66) 0.0002280 4189. 4261.
19.6163 19.6032 4153(66) 0.0002291 4187. 4262.
19.6201 19.6070 4118(65) 0.0002345 4186. 4263.
19.6238 19.6107 4296(67) 0.0002217 4185. 4265.
19.6276 19.6145 4259(66) 0.0002266 4183. 4267.
19.6313 19.6182 4241(67) 0.0002225 4182. 4270.
19.6351 19.6220 4240(66) 0.0002269 4180. 4273.
19.6389 19.6258 4371(68) 0.0002138 4179. 4277.
19.6426 19.6295 4234(67) 0.0002257 4178. 4282.
19.6464 19.6333 4333(67) 0.0002257 4176. 4288.
19.6501 19.6370 4371(67) 0.0002198 4175. 4295.
19.6539 19.6408 4345(68) 0.0002172 4174. 4303.
19.6577 19.6446 4312(66) 0.0002292 4172. 4313.
19.6614 19.6483 4308(67) 0.0002255 4171. 4324.
19.6652 19.6521 4261(66) 0.0002276 4170. 4338.
19.6689 19.6558 4530(68) 0.0002144 4168. 4355.
19.6727 19.6596 4420(67) 0.0002205 4167. 4375.
19.6765 19.6634 4523(69) 0.0002129 4166. 4400.
19.6802 19.6671 4493(69) 0.0002121 4164. 4431.
19.6840 19.6709 4559(69) 0.0002121 4163. 4470.
19.6877 19.6746 4568(68) 0.0002137 4162. 4518.
19.6915 19.6784 4624(69) 0.0002074 4160. 4582.
19.6953 19.6822 4712(70) 0.0002026 4159. 4666.
19.6990 19.6859 4750(71) 0.0001988 4157. 4777.
19.7028 19.6897 5041(73) 0.0001884 4156. 4937.
19.7065 19.6934 5112(73) 0.0001893 4155. 5177.
19.7103 19.6972 5616(76) 0.0001714 4153. 5632.
19.7141 19.7010 6736(84) 0.0001406 4152. 6647.
19.7178 19.7047 8745(96) 0.0001086 4151. 8863.
19.7216 19.7085 13280(120) 0.0000701 4149. 13247.
19.7253 19.7122 20260(150) 0.0000462 4148. 19530.
19.7291 19.7160 26670(170) 0.0000340 4147. 25570.
19.7329 19.7198 25720(170) 0.0000356 4145. 26057.
19.7366 19.7235 20190(150) 0.0000455 4144. 20624.
19.7404 19.7273 13960(120) 0.0000674 4143. 13997.
19.7441 19.7310 10270(100) 0.0000937 4141. 9390.
19.7479 19.7348 7723(90) 0.0001234 4140. 6843.
19.7517 19.7386 6645(82) 0.0001470 4139. 5706.
19.7554 19.7423 5686(77) 0.0001690 4137. 5210.
19.7592 19.7461 5340(75) 0.0001782 4136. 4940.
19.7629 19.7498 4868(72) 0.0001956 4135. 4772.
19.7667 19.7536 4744(70) 0.0002041 4133. 4649.
19.7705 19.7574 4609(70) 0.0002033 4132. 4559.
19.7742 19.7611 4661(70) 0.0002044 4131. 4491.
19.7780 19.7649 4550(69) 0.0002116 4130. 4436.
19.7817 19.7686 4622(69) 0.0002123 4128. 4394.
19.7855 19.7724 4402(69) 0.0002110 4127. 4359.
19.7893 19.7762 4625(70) 0.0002051 4126. 4330.
19.7930 19.7799 4423(68) 0.0002144 4124. 4306.
19.7968 19.7837 4451(68) 0.0002194 4123. 4285.
19.8005 19.7874 4345(68) 0.0002154 4122. 4287.
19.8043 19.7912 4403(67) 0.0002208 4120. 4272.
19.8081 19.7950 4355(68) 0.0002164 4119. 4259.
19.8118 19.7987 4431(68) 0.0002159 4118. 4248.
19.8156 19.8025 4230(66) 0.0002268 4116. 4238.
19.8193 19.8062 4293(67) 0.0002249 4115. 4229.
19.8231 19.8100 4226(67) 0.0002247 4114. 4221.
19.8269 19.8138 4390(68) 0.0002167 4112. 4213.
19.8306 19.8175 4245(67) 0.0002225 4111. 4207.
19.8344 19.8213 4279(68) 0.0002179 4110. 4201.
19.8381 19.8250 4213(67) 0.0002254 4109. 4196.
19.8419 19.8288 4227(67) 0.0002232 4107. 4191.
19.8457 19.8326 4036(65) 0.0002379 4106. 4186.
19.8494 19.8363 4154(66) 0.0002283 4105. 4182.
19.8532 19.8401 4237(67) 0.0002225 4103. 4178.
19.8569 19.8438 4155(66) 0.0002306 4102. 4174.
19.8607 19.8476 4088(66) 0.0002329 4101. 4171.
19.8645 19.8514 4174(66) 0.0002292 4099. 4167.
19.8682 19.8551 4050(65) 0.0002355 4098. 4164.
19.8720 19.8589 4200(66) 0.0002272 4097. 4173.
19.8758 19.8627 4065(65) 0.0002379 4096. 4171.
19.8795 19.8664 4126(65) 0.0002383 4094. 4168.
19.8833 19.8702 4099(65) 0.0002396 4093. 4166.
19.8870 19.8739 4123(65) 0.0002358 4092. 4164.
19.8908 19.8777 4176(67) 0.0002260 4090. 4161.
19.8946 19.8815 4214(66) 0.0002274 4089. 4159.
19.8983 19.8852 4084(65) 0.0002350 4088. 4158.
19.9021 19.8890 4090(64) 0.0002436 4087. 4156.
19.9058 19.8927 4083(65) 0.0002353 4085. 4154.
19.9096 19.8965 4228(66) 0.0002269 4084. 4152.
19.9134 19.9003 4220(67) 0.0002259 4083. 4151.
19.9171 19.9040 4129(65) 0.0002349 4081. 4149.
19.9209 19.9078 4027(66) 0.0002305 4080. 4148.
19.9246 19.9115 4157(65) 0.0002389 4079. 4146.
19.9284 19.9153 4162(64) 0.0002436 4078. 4145.
19.9322 19.9191 4210(64) 0.0002432 4076. 4144.
19.9359 19.9228 4115(64) 0.0002449 4075. 4142.
19.9397 19.9266 4185(64) 0.0002428 4074. 4141.
19.9434 19.9303 4076(63) 0.0002486 4072. 4140.
19.9472 19.9341 4065(63) 0.0002512 4071. 4139.
19.9510 19.9379 4133(64) 0.0002462 4070. 4138.
19.9547 19.9416 4264(65) 0.0002400 4069. 4137.
19.9585 19.9454 4090(64) 0.0002440 4067. 4136.
19.9622 19.9491 4179(65) 0.0002389 4066. 4135.
19.9660 19.9529 3969(63) 0.0002522 4065. 4134.
19.9698 19.9567 4066(63) 0.0002498 4064. 4133.
19.9735 19.9604 4085(64) 0.0002459 4062. 4132.
19.9773 19.9642 4174(64) 0.0002420 4061. 4132.
19.9810 19.9679 4033(63) 0.0002520 4060. 4131.
19.9848 19.9717 4147(64) 0.0002415 4058. 4130.
19.9886 19.9755 4096(64) 0.0002441 4057. 4130.
19.9923 19.9792 4054(63) 0.0002509 4056. 4129.
19.9961 19.9830 4161(64) 0.0002434 4055. 4129.
19.9998 19.9867 4056(63) 0.0002533 4053. 4128.
20.0036 19.9905 4113(64) 0.0002443 4052. 4128.
20.0074 19.9943 4162(65) 0.0002380 4051. 4127.
20.0111 19.9980 4022(63) 0.0002486 4050. 4127.
20.0149 20.0018 4148(64) 0.0002458 4048. 4126.
20.0186 20.0055 4079(64) 0.0002437 4047. 4126.
20.0224 20.0093 4188(64) 0.0002414 4046. 4126.
20.0262 20.0131 4209(65) 0.0002354 4045. 4126.
20.0299 20.0168 4024(64) 0.0002456 4043. 4125.
20.0337 20.0206 4011(63) 0.0002556 4042. 4125.
20.0375 20.0244 4212(65) 0.0002393 4041. 4125.
20.0412 20.0281 4144(64) 0.0002408 4040. 4125.
20.0450 20.0319 4029(64) 0.0002478 4038. 4125.
20.0487 20.0356 4129(63) 0.0002522 4037. 4125.
20.0525 20.0394 4200(65) 0.0002388 4036. 4125.
20.0563 20.0432 4011(63) 0.0002506 4035. 4129.
20.0600 20.0469 4113(64) 0.0002417 4033. 4130.
20.0638 20.0507 4100(64) 0.0002454 4032. 4130.
20.0675 20.0544 4099(64) 0.0002479 4031. 4130.
20.0713 20.0582 4044(63) 0.0002496 4030. 4131.
20.0751 20.0620 4148(65) 0.0002400 4028. 4131.
20.0788 20.0657 4104(64) 0.0002455 4027. 4132.
20.0826 20.0695 4119(64) 0.0002424 4026. 4133.
20.0863 20.0732 4075(64) 0.0002478 4025. 4134.
20.0901 20.0770 4150(64) 0.0002412 4023. 4134.
20.0939 20.0808 4026(63) 0.0002505 4022. 4135.
20.0976 20.0845 4221(65) 0.0002381 4021. 4136.
20.1014 20.0883 4152(65) 0.0002389 4020. 4138.
20.1051 20.0920 4212(65) 0.0002391 4019. 4139.
20.1089 20.0958 4059(64) 0.0002457 4017. 4140.
20.1127 20.0996 4105(63) 0.0002493 4016. 4142.
20.1164 20.1033 4064(64) 0.0002441 4015. 4143.
20.1202 20.1071 4164(65) 0.0002389 4014. 4145.
20.1239 20.1108 4053(63) 0.0002497 4012. 4147.
20.1277 20.1146 4129(65) 0.0002391 4011. 4148.
20.1315 20.1184 4098(63) 0.0002523 4010. 4151.
20.1352 20.1221 4209(64) 0.0002411 4009. 4153.
20.1390 20.1259 4121(64) 0.0002410 4007. 4155.
20.1427 20.1296 4030(63) 0.0002504 4006. 4158.
20.1465 20.1334 4111(64) 0.0002432 4005. 4160.
20.1503 20.1372 4179(65) 0.0002382 4004. 4161.
20.1540 20.1409 4055(63) 0.0002516 4003. 4164.
20.1578 20.1447 4207(65) 0.0002360 4001. 4167.
20.1616 20.1485 4169(65) 0.0002403 4000. 4172.
20.1653 20.1522 4137(64) 0.0002439 3999. 4177.
20.1691 20.1560 4190(64) 0.0002418 3998. 4184.
20.1728 20.1597 4337(65) 0.0002340 3996. 4193.
20.1766 20.1635 4327(66) 0.0002298 3995. 4200.
20.1804 20.1673 4112(64) 0.0002450 3994. 4203.
20.1841 20.1710 4246(66) 0.0002312 3993. 4204.
20.1879 20.1748 4241(66) 0.0002323 3992. 4205.
20.1916 20.1785 4254(65) 0.0002335 3990. 4208.
20.1954 20.1823 4180(65) 0.0002353 3989. 4212.
20.1992 20.1861 4223(65) 0.0002335 3988. 4218.
20.2029 20.1898 4171(64) 0.0002405 3987. 4224.
20.2067 20.1936 4218(65) 0.0002347 3986. 4231.
20.2104 20.1973 4229(66) 0.0002326 3984. 4238.
20.2142 20.2011 4129(65) 0.0002398 3983. 4246.
20.2180 20.2049 4235(65) 0.0002342 3982. 4254.
20.2217 20.2086 4216(65) 0.0002362 3981. 4263.
20.2255 20.2124 4218(65) 0.0002336 3980. 4273.
20.2292 20.2161 4357(66) 0.0002279 3978. 4283.
20.2330 20.2199 4344(66) 0.0002264 3977. 4294.
20.2368 20.2237 4297(66) 0.0002324 3976. 4306.
20.2405 20.2274 4389(66) 0.0002270 3975. 4318.
20.2443 20.2312 4333(66) 0.0002278 3974. 4332.
20.2480 20.2349 4326(66) 0.0002295 3972. 4346.
20.2518 20.2387 4233(65) 0.0002364 3971. 4362.
20.2556 20.2425 4455(67) 0.0002196 3970. 4379.
20.2593 20.2462 4274(65) 0.0002345 3969. 4397.
20.2631 20.2500 4345(66) 0.0002271 3968. 4417.
20.2668 20.2537 4258(66) 0.0002291 3966. 4438.
20.2706 20.2575 4542(68) 0.0002173 3965. 4461.
20.2744 20.2613 4353(67) 0.0002253 3964. 4486.
20.2781 20.2650 4367(67) 0.0002254 3963. 4513.
20.2819 20.2688 4433(67) 0.0002213 3962. 4543.
20.2857 20.2726 4651(69) 0.0002114 3960. 4576.
20.2894 20.2763 4483(67) 0.0002256 3959. 4612.
20.2932 20.2801 4729(69) 0.0002095 3958. 4651.
20.2969 20.2838 4544(68) 0.0002159 3957. 4694.
20.3007 20.2876 4746(70) 0.0002040 3956. 4743.
20.3045 20.2914 4783(69) 0.0002088 3954. 4797.
20.3082 20.2951 4797(70) 0.0002060 3953. 4855.
20.3120 20.2989 4886(71) 0.0002010 3952. 4923.
20.3157 20.3026 4922(69) 0.0002090 3951. 4996.
20.3195 20.3064 4960(71) 0.0001991 3950. 5082.
20.3233 20.3102 5157(72) 0.0001923 3949. 5179.
20.3270 20.3139 5105(72) 0.0001913 3947. 5286.
20.3308 20.3177 5355(73) 0.0001877 3946. 5414.
20.3345 20.3214 5317(73) 0.0001877 3945. 5557.
20.3383 20.3252 5559(75) 0.0001796 3944. 5728.
20.3421 20.3290 5775(76) 0.0001733 3943. 5930.
20.3458 20.3327 5955(77) 0.0001670 3942. 6163.
20.3496 20.3365 6163(79) 0.0001594 3940. 6450.
20.3533 20.3402 6602(80) 0.0001552 3939. 6789.
20.3571 20.3440 6827(82) 0.0001475 3938. 7218.
20.3609 20.3478 7472(88) 0.0001298 3937. 7754.
20.3646 20.3515 7873(88) 0.0001283 3936. 8419.
20.3684 20.3553 8873(95) 0.0001114 3934. 9306.
20.3721 20.3590 9750(100) 0.0000995 3933. 10458.
20.3759 20.3628 11530(110) 0.0000828 3932. 12117.
20.3797 20.3666 13670(120) 0.0000708 3931. 14700.
20.3834 20.3703 18160(140) 0.0000538 3930. 19330.
20.3872 20.3741 26060(170) 0.0000354 3929. 29490.
20.3910 20.3779 44560(220) 0.0000206 3927. 51260.
20.3947 20.3816 81700(310) 0.0000105 3926. 89851.
20.3985 20.3854 143970(430) 5.33e-6 3925. 146213.
20.4022 20.3891 195770(540) 3.495e-6 3924. 197441.
20.4060 20.3929 200360(540) 3.473e-6 3923. 204976.
20.4098 20.3967 150880(450) 5.05e-6 3922. 159243.
20.4135 20.4004 99220(340) 8.45e-6 3921. 102611.
20.4173 20.4042 61720(260) 0.0000148 3919. 58740.
20.4210 20.4079 40160(210) 0.0000231 3918. 34228.
20.4248 20.4117 27430(170) 0.0000345 3917. 22193.
20.4286 20.4155 20300(150) 0.0000474 3916. 16873.
20.4323 20.4192 15560(130) 0.0000622 3915. 14384.
20.4361 20.4230 13510(120) 0.0000725 3914. 13034.
20.4398 20.4267 12070(110) 0.0000814 3912. 12353.
20.4436 20.4305 12050(110) 0.0000816 3911. 12172.
20.4474 20.4343 12070(110) 0.0000825 3910. 12528.
20.4511 20.4380 13420(120) 0.0000737 3909. 13627.
20.4549 20.4418 15190(120) 0.0000652 3908. 16325.
20.4586 20.4455 20870(150) 0.0000468 3907. 22382.
20.4624 20.4493 32010(190) 0.0000292 3906. 35547.
20.4662 20.4531 57530(250) 0.0000156 3904. 59006.
20.4699 20.4568 93230(330) 9.01e-6 3903. 90347.
20.4737 20.4606 124780(390) 6.47e-6 3902. 118778.
20.4774 20.4643 116800(380) 6.97e-6 3901. 120596.
20.4812 20.4681 90260(330) 9.32e-6 3900. 93779.
20.4850 20.4719 60060(260) 0.0000148 3899. 60881.
20.4887 20.4756 38740(210) 0.0000239 3898. 36646.
20.4925 20.4794 25900(160) 0.0000375 3896. 22098.
20.4963 20.4832 18580(140) 0.0000524 3895. 14910.
20.5000 20.4869 13420(120) 0.0000729 3894. 11576.
20.5038 20.4907 10700(110) 0.0000907 3893. 9749.
20.5075 20.4944 9062(96) 0.0001078 3892. 8630.
20.5113 20.4982 8028(91) 0.0001219 3891. 7817.
20.5151 20.5020 7365(87) 0.0001324 3890. 7211.
20.5188 20.5057 6752(82) 0.0001488 3888. 6756.
20.5226 20.5095 6477(79) 0.0001592 3887. 6388.
20.5263 20.5132 6205(79) 0.0001591 3886. 6100.
20.5301 20.5170 5895(75) 0.0001754 3885. 5859.
20.5339 20.5208 5742(76) 0.0001734 3884. 5661.
20.5376 20.5245 5467(74) 0.0001846 3883. 5499.
20.5414 20.5283 5507(74) 0.0001835 3882. 5360.
20.5451 20.5320 5353(73) 0.0001863 3881. 5246.
20.5489 20.5358 5342(74) 0.0001821 3879. 5145.
20.5527 20.5396 5237(73) 0.0001872 3878. 5060.
20.5564 20.5433 5190(73) 0.0001888 3877. 4988.
20.5602 20.5471 4945(71) 0.0002008 3876. 4926.
20.5639 20.5508 5109(72) 0.0001936 3875. 4873.
20.5677 20.5546 4842(70) 0.0002067 3874. 4828.
20.5715 20.5584 5009(71) 0.0001989 3873. 4790.
20.5752 20.5621 4914(70) 0.0002026 3872. 4760.
20.5790 20.5659 4828(70) 0.0002040 3870. 4736.
20.5827 20.5696 4742(69) 0.0002079 3869. 4718.
20.5865 20.5734 4813(70) 0.0002026 3868. 4707.
20.5903 20.5772 4810(70) 0.0002053 3867. 4702.
20.5940 20.5809 4906(71) 0.0002010 3866. 4704.
20.5978 20.5847 4826(70) 0.0002052 3865. 4715.
20.6015 20.5884 4846(70) 0.0002042 3864. 4734.
20.6053 20.5922 4901(70) 0.0002040 3863. 4765.
20.6091 20.5960 4983(72) 0.0001955 3862. 4810.
20.6128 20.5997 4899(71) 0.0001996 3860. 4870.
20.6166 20.6035 5079(72) 0.0001913 3859. 4954.
20.6204 20.6073 5064(72) 0.0001953 3858. 5067.
20.6241 20.6110 5424(75) 0.0001786 3857. 5218.
20.6279 20.6148 5428(75) 0.0001792 3856. 5433.
20.6316 20.6185 5911(77) 0.0001668 3855. 5739.
20.6354 20.6223 6371(81) 0.0001538 3854. 6249.
20.6392 20.6261 7067(85) 0.0001393 3853. 7217.
20.6429 20.6298 9029(97) 0.0001067 3852. 9143.
20.6467 20.6336 12670(120) 0.0000746 3850. 13028.
20.6504 20.6373 19040(140) 0.0000497 3849. 19403.
20.6542 20.6411 29880(180) 0.0000320 3848. 28147.
20.6580 20.6449 37910(200) 0.0000244 3847. 35777.
20.6617 20.6486 38960(210) 0.0000234 3846. 36323.
20.6655 20.6524 30530(180) 0.0000309 3845. 29233.
20.6692 20.6561 21420(150) 0.0000441 3844. 20566.
20.6730 20.6599 14590(120) 0.0000654 3843. 13633.
20.6768 20.6637 10870(110) 0.0000896 3842. 9423.
20.6805 20.6674 8103(91) 0.0001202 3841. 7300.
20.6843 20.6712 6820(83) 0.0001441 3839. 6224.
20.6880 20.6749 5915(77) 0.0001671 3838. 5669.
20.6918 20.6787 5532(75) 0.0001793 3837. 5316.
20.6956 20.6825 5140(74) 0.0001850 3836. 5071.
20.6993 20.6862 4960(71) 0.0001995 3835. 4895.
20.7031 20.6900 4718(69) 0.0002097 3834. 4755.
20.7068 20.6937 4832(70) 0.0002017 3833. 4648.
20.7106 20.6975 4572(69) 0.0002123 3832. 4561.
20.7144 20.7013 4560(68) 0.0002159 3831. 4489.
20.7181 20.7050 4345(67) 0.0002233 3830. 4432.
20.7219 20.7088 4426(67) 0.0002251 3829. 4383.
20.7257 20.7126 4444(67) 0.0002202 3827. 4341.
20.7294 20.7163 4381(66) 0.0002294 3826. 4307.
20.7332 20.7201 4327(66) 0.0002277 3825. 4277.
20.7369 20.7238 4380(67) 0.0002227 3824. 4251.
20.7407 20.7276 4348(67) 0.0002233 3823. 4228.
20.7445 20.7314 4198(65) 0.0002331 3822. 4208.
20.7482 20.7351 4307(66) 0.0002294 3821. 4191.
20.7520 20.7389 4183(65) 0.0002366 3820. 4175.
20.7557 20.7426 4150(65) 0.0002396 3819. 4162.
20.7595 20.7464 4292(66) 0.0002271 3818. 4149.
20.7633 20.7502 4153(64) 0.0002408 3817. 4138.
20.7670 20.7539 4291(66) 0.0002290 3816. 4129.
20.7708 20.7577 4197(66) 0.0002317 3814. 4120.
20.7745 20.7614 4226(66) 0.0002319 3813. 4113.
20.7783 20.7652 4184(65) 0.0002381 3812. 4106.
20.7821 20.7690 4184(65) 0.0002379 3811. 4100.
20.7858 20.7727 4208(65) 0.0002358 3810. 4094.
20.7896 20.7765 4108(64) 0.0002431 3809. 4090.
20.7933 20.7802 4199(65) 0.0002402 3808. 4086.
20.7971 20.7840 4126(64) 0.0002405 3807. 4082.
20.8009 20.7878 4177(65) 0.0002391 3806. 4079.
20.8046 20.7915 4175(65) 0.0002339 3805. 4077.
20.8084 20.7953 4270(66) 0.0002295 3804. 4075.
20.8121 20.7990 4212(66) 0.0002306 3803. 4073.
20.8159 20.8028 4089(64) 0.0002438 3802. 4072.
20.8197 20.8066 4214(66) 0.0002326 3801. 4072.
20.8234 20.8103 4126(65) 0.0002360 3799. 4072.
20.8272 20.8141 4243(65) 0.0002346 3798. 4072.
20.8309 20.8178 4211(65) 0.0002340 3797. 4073.
20.8347 20.8216 4167(65) 0.0002351 3796. 4075.
20.8385 20.8254 4154(66) 0.0002328 3795. 4077.
20.8422 20.8291 4216(66) 0.0002327 3794. 4079.
20.8460 20.8329 4145(65) 0.0002374 3793. 4082.
20.8497 20.8366 4181(65) 0.0002344 3792. 4086.
20.8535 20.8404 4108(66) 0.0002317 3791. 4090.
20.8573 20.8442 4251(67) 0.0002243 3790. 4095.
20.8610 20.8479 4311(67) 0.0002255 3789. 4100.
20.8648 20.8517 4287(66) 0.0002311 3788. 4106.
20.8685 20.8554 4139(65) 0.0002391 3787. 4113.
20.8723 20.8592 4279(66) 0.0002296 3786. 4120.
20.8761 20.8630 4189(65) 0.0002344 3785. 4129.
20.8798 20.8667 4419(68) 0.0002173 3784. 4138.
20.8836 20.8705 4299(67) 0.0002259 3783. 4148.
20.8874 20.8743 4329(67) 0.0002228 3781. 4159.
20.8911 20.8780 4143(65) 0.0002364 3780. 4172.
20.8949 20.8818 4366(67) 0.0002229 3779. 4185.
20.8986 20.8855 4191(66) 0.0002327 3778. 4200.
20.9024 20.8893 4357(66) 0.0002320 3777. 4217.
20.9062 20.8931 4390(67) 0.0002203 3776. 4235.
20.9099 20.8968 4452(68) 0.0002186 3775. 4255.
20.9137 20.9006 4334(67) 0.0002199 3774. 4278.
20.9174 20.9043 4434(67) 0.0002205 3773. 4302.
20.9212 20.9081 4506(68) 0.0002167 3772. 4330.
20.9250 20.9119 4639(69) 0.0002071 3771. 4360.
20.9287 20.9156 4579(68) 0.0002147 3770. 4393.
20.9325 20.9194 4654(69) 0.0002097 3769. 4431.
20.9362 20.9231 4748(70) 0.0002036 3768. 4473.
20.9400 20.9269 4632(70) 0.0002049 3767. 4520.
20.9438 20.9307 4707(70) 0.0002052 3766. 4574.
20.9475 20.9344 4798(70) 0.0002036 3765. 4633.
20.9513 20.9382 4843(71) 0.0002011 3764. 4701.
20.9550 20.9419 4917(71) 0.0001969 3763. 4777.
20.9588 20.9457 5129(74) 0.0001841 3762. 4867.
20.9626 20.9495 5181(73) 0.0001858 3761. 4970.
20.9663 20.9532 5203(73) 0.0001861 3760. 5087.
20.9701 20.9570 5450(75) 0.0001796 3759. 5227.
20.9738 20.9607 5463(76) 0.0001744 3758. 5387.
20.9776 20.9645 5782(79) 0.0001617 3756. 5582.
20.9814 20.9683 5868(77) 0.0001693 3755. 5816.
20.9851 20.9720 6200(81) 0.0001519 3754. 6091.
20.9889 20.9758 6603(83) 0.0001447 3753. 6437.
20.9926 20.9795 6804(85) 0.0001389 3752. 6857.
20.9964 20.9833 7439(88) 0.0001280 3751. 7399.
21.0002 20.9871 8263(94) 0.0001125 3750. 8099.
21.0039 20.9908 8946(97) 0.0001059 3749. 8995.
21.0077 20.9946 10440(110) 0.0000902 3748. 10242.
21.0114 20.9983 11950(110) 0.0000797 3747. 12006.
21.0152 21.0021 15250(130) 0.0000620 3746. 14999.
21.0190 21.0059 19980(150) 0.0000474 3745. 20897.
21.0227 21.0096 29770(180) 0.0000303 3744. 33075.
21.0265 21.0134 50300(240) 0.0000177 3743. 57890.
21.0302 21.0171 93100(340) 8.79e-6 3742. 98019.
21.0340 21.0209 150290(450) 4.90e-6 3741. 150308.
21.0378 21.0247 189530(530) 3.62e-6 3740. 189414.
21.0415 21.0284 172490(490) 4.15e-6 3739. 181712.
21.0453 21.0322 126760(400) 6.30e-6 3738. 134892.
21.0490 21.0359 80010(300) 0.0000108 3737. 85557.
21.0528 21.0397 50910(240) 0.0000175 3736. 48995.
21.0566 21.0435 32860(190) 0.0000277 3735. 28432.
21.0603 21.0472 22550(150) 0.0000427 3734. 18678.
21.0641 21.0510 15580(130) 0.0000605 3733. 13911.
21.0678 21.0547 11990(110) 0.0000800 3732. 11424.
21.0716 21.0585 9810(100) 0.0000981 3731. 9806.
21.0754 21.0623 8535(94) 0.0001131 3730. 8668.
21.0791 21.0660 7468(88) 0.0001282 3729. 7840.
21.0829 21.0698 7193(86) 0.0001339 3728. 7190.
21.0866 21.0735 6664(83) 0.0001466 3727. 6693.
21.0904 21.0773 6142(80) 0.0001574 3726. 6285.
21.0942 21.0811 5793(78) 0.0001647 3725. 5956.
21.0979 21.0848 5545(74) 0.0001835 3724. 5693.
21.1017 21.0886 5326(74) 0.0001827 3723. 5468.
21.1054 21.0923 5233(73) 0.0001854 3722. 5285.
21.1092 21.0961 5151(73) 0.0001879 3721. 5124.
21.1130 21.0999 4944(71) 0.0001994 3720. 4988.
21.1167 21.1036 4690(69) 0.0002115 3719. 4873.
21.1205 21.1074 4692(70) 0.0002057 3718. 4771.
21.1242 21.1111 4618(69) 0.0002112 3717. 4683.
21.1280 21.1149 4587(68) 0.0002157 3716. 4605.
21.1318 21.1187 4451(68) 0.0002185 3715. 4535.
21.1355 21.1224 4546(68) 0.0002188 3714. 4475.
21.1393 21.1262 4354(66) 0.0002271 3713. 4420.
21.1430 21.1299 4367(67) 0.0002242 3712. 4371.
21.1468 21.1337 4374(67) 0.0002223 3711. 4327.
21.1506 21.1375 4289(67) 0.0002253 3710. 4287.
21.1543 21.1412 4149(65) 0.0002334 3709. 4251.
21.1581 21.1450 4286(66) 0.0002279 3708. 4218.
21.1619 21.1488 4015(64) 0.0002463 3707. 4188.
21.1656 21.1525 4258(66) 0.0002296 3706. 4161.
21.1694 21.1563 4061(65) 0.0002368 3705. 4135.
21.1731 21.1600 4150(65) 0.0002387 3704. 4112.
21.1769 21.1638 3988(64) 0.0002445 3703. 4091.
21.1807 21.1676 4093(65) 0.0002374 3702. 4071.
21.1844 21.1713 3967(64) 0.0002430 3701. 4053.
21.1882 21.1751 4056(65) 0.0002381 3700. 4035.
21.1919 21.1788 3968(64) 0.0002474 3699. 4020.
21.1957 21.1826 3989(64) 0.0002444 3698. 4005.
21.1995 21.1864 3912(63) 0.0002527 3697. 3991.
21.2032 21.1901 3925(65) 0.0002377 3696. 3979.
21.2070 21.1939 3790(63) 0.0002533 3695. 3967.
21.2107 21.1976 3960(63) 0.0002485 3694. 3945.
21.2145 21.2014 3855(62) 0.0002577 3693. 3935.
21.2183 21.2052 3857(62) 0.0002574 3692. 3925.
21.2220 21.2089 4021(64) 0.0002405 3691. 3917.
21.2258 21.2127 3940(64) 0.0002424 3690. 3909.
21.2295 21.2164 3928(64) 0.0002468 3689. 3902.
21.2333 21.2202 3865(63) 0.0002509 3688. 3895.
21.2370 21.2239 3871(62) 0.0002569 3687. 3889.
21.2408 21.2277 3835(61) 0.0002664 3686. 3885.
21.2446 21.2315 3732(62) 0.0002589 3685. 3881.
21.2483 21.2352 3877(63) 0.0002519 3684. 3879.
21.2521 21.2390 3832(63) 0.0002512 3683. 3879.
21.2558 21.2427 3887(63) 0.0002507 3682. 3882.
21.2596 21.2465 3905(63) 0.0002504 3681. 3890.
21.2634 21.2503 3926(64) 0.0002448 3680. 3913.
21.2671 21.2540 3917(64) 0.0002474 3679. 3972.
21.2709 21.2578 4042(65) 0.0002389 3678. 4117.
21.2746 21.2615 4359(67) 0.0002260 3677. 4384.
21.2784 21.2653 4764(70) 0.0002015 3676. 4771.
21.2822 21.2691 5070(72) 0.0001955 3675. 5100.
21.2859 21.2728 5106(72) 0.0001908 3674. 5099.
21.2897 21.2766 4710(70) 0.0002050 3673. 4757.
21.2934 21.2803 4417(67) 0.0002215 3672. 4369.
21.2972 21.2841 3906(63) 0.0002513 3671. 4081.
21.3010 21.2879 4063(66) 0.0002303 3670. 3926.
21.3047 21.2916 3909(64) 0.0002477 3669. 3857.
21.3085 21.2954 3930(63) 0.0002530 3668. 3824.
21.3122 21.2991 3768(63) 0.0002525 3668. 3806.
21.3160 21.3029 3856(62) 0.0002568 3667. 3793.
21.3198 21.3067 3804(63) 0.0002513 3666. 3783.
21.3235 21.3104 3800(63) 0.0002525 3665. 3775.
21.3273 21.3142 3720(61) 0.0002681 3664. 3769.
21.3310 21.3179 3863(63) 0.0002484 3663. 3763.
21.3348 21.3217 3851(63) 0.0002506 3662. 3757.
21.3386 21.3255 3838(63) 0.0002528 3661. 3753.
21.3423 21.3292 3709(62) 0.0002634 3660. 3748.
21.3461 21.3330 3711(62) 0.0002604 3659. 3744.
21.3498 21.3367 3695(61) 0.0002685 3658. 3741.
21.3536 21.3405 3779(61) 0.0002644 3657. 3737.
21.3574 21.3443 3660(61) 0.0002663 3656. 3734.
21.3611 21.3480 3734(62) 0.0002589 3655. 3730.
21.3649 21.3518 3584(61) 0.0002713 3654. 3727.
21.3686 21.3555 3707(61) 0.0002681 3653. 3725.
21.3724 21.3593 3725(62) 0.0002640 3652. 3722.
21.3762 21.3631 3672(60) 0.0002793 3651. 3719.
21.3799 21.3668 3721(61) 0.0002674 3650. 3716.
21.3837 21.3706 3887(62) 0.0002583 3649. 3714.
21.3874 21.3743 3683(61) 0.0002716 3648. 3711.
21.3912 21.3781 3700(61) 0.0002707 3647. 3709.
21.3950 21.3819 3715(61) 0.0002712 3646. 3707.
21.3987 21.3856 3659(60) 0.0002753 3645. 3704.
21.4025 21.3894 3576(60) 0.0002793 3644. 3702.
21.4062 21.3931 3688(61) 0.0002704 3644. 3700.
21.4100 21.3969 3672(60) 0.0002749 3643. 3698.
21.4138 21.4007 3664(60) 0.0002782 3642. 3696.
21.4175 21.4044 3634(60) 0.0002737 3641. 3694.
21.4213 21.4082 3775(61) 0.0002645 3640. 3692.
21.4250 21.4119 3717(61) 0.0002689 3639. 3690.
21.4288 21.4157 3740(61) 0.0002658 3638. 3688.
21.4326 21.4195 3624(60) 0.0002755 3637. 3686.
21.4363 21.4232 3759(61) 0.0002695 3636. 3684.
21.4401 21.4270 3711(61) 0.0002682 3635. 3682.
21.4438 21.4307 3807(61) 0.0002650 3634. 3681.
21.4476 21.4345 3672(61) 0.0002727 3633. 3679.
21.4514 21.4383 3706(61) 0.0002695 3632. 3677.
21.4551 21.4420 3526(59) 0.0002836 3631. 3675.
21.4589 21.4458 3732(61) 0.0002670 3630. 3674.
21.4626 21.4495 3570(59) 0.0002854 3629. 3672.
21.4664 21.4533 3741(61) 0.0002649 3628. 3668.
21.4701 21.4570 3578(60) 0.0002815 3628. 3667.
21.4739 21.4608 3601(60) 0.0002756 3627. 3665.
21.4777 21.4646 3626(60) 0.0002783 3626. 3664.
21.4814 21.4683 3644(61) 0.0002720 3625. 3662.
21.4852 21.4721 3592(61) 0.0002704 3624. 3661.
21.4889 21.4758 3720(61) 0.0002714 3623. 3659.
21.4927 21.4796 3612(60) 0.0002757 3622. 3658.
21.4965 21.4834 3689(61) 0.0002685 3621. 3656.
21.5002 21.4871 3566(60) 0.0002746 3620. 3655.
21.5040 21.4909 3593(61) 0.0002720 3619. 3654.
21.5077 21.4946 3613(60) 0.0002765 3618. 3652.
21.5115 21.4984 3750(61) 0.0002722 3617. 3651.
21.5153 21.5022 3604(60) 0.0002766 3616. 3649.
21.5190 21.5059 3631(60) 0.0002806 3615. 3648.
21.5228 21.5097 3515(60) 0.0002794 3614. 3647.
21.5265 21.5134 3621(61) 0.0002717 3614. 3646.
21.5303 21.5172 3595(60) 0.0002754 3613. 3644.
21.5341 21.5210 3635(60) 0.0002732 3612. 3643.
21.5378 21.5247 3631(60) 0.0002773 3611. 3642.
21.5416 21.5285 3627(59) 0.0002846 3610. 3641.
21.5453 21.5322 3613(61) 0.0002693 3609. 3640.
21.5491 21.5360 3689(61) 0.0002714 3608. 3638.
21.5529 21.5398 3591(60) 0.0002776 3607. 3637.
21.5566 21.5435 3660(60) 0.0002759 3606. 3636.
21.5604 21.5473 3558(59) 0.0002830 3605. 3635.
21.5641 21.5510 3701(61) 0.0002683 3604. 3634.
21.5679 21.5548 3581(60) 0.0002749 3603. 3633.
21.5716 21.5585 3637(61) 0.0002709 3602. 3632.
21.5754 21.5623 3608(60) 0.0002756 3601. 3631.
21.5792 21.5661 3651(61) 0.0002656 3601. 3631.
21.5829 21.5698 3715(62) 0.0002623 3600. 3630.
21.5867 21.5736 3631(60) 0.0002755 3599. 3629.
21.5904 21.5773 3556(59) 0.0002870 3598. 3628.
21.5942 21.5811 3488(59) 0.0002835 3597. 3628.
21.5980 21.5849 3607(60) 0.0002734 3596. 3627.
21.6017 21.5886 3566(60) 0.0002765 3595. 3627.
21.6055 21.5924 3597(60) 0.0002752 3594. 3627.
21.6092 21.5961 3638(60) 0.0002766 3593. 3627.
21.6130 21.5999 3499(59) 0.0002887 3592. 3627.
21.6168 21.6037 3513(59) 0.0002844 3591. 3627.
21.6205 21.6074 3663(61) 0.0002670 3591. 3628.
21.6243 21.6112 3541(59) 0.0002827 3590. 3629.
21.6280 21.6149 3575(60) 0.0002744 3589. 3630.
21.6318 21.6187 3577(61) 0.0002731 3588. 3632.
21.6356 21.6225 3577(60) 0.0002748 3587. 3635.
21.6393 21.6262 3560(59) 0.0002846 3586. 3650.
21.6431 21.6300 3520(59) 0.0002886 3585. 3655.
21.6468 21.6337 3675(61) 0.0002680 3584. 3663.
21.6506 21.6375 3535(60) 0.0002735 3583. 3673.
21.6543 21.6412 3714(62) 0.0002638 3582. 3689.
21.6581 21.6450 3640(61) 0.0002682 3581. 3715.
21.6619 21.6488 3696(62) 0.0002644 3581. 3769.
21.6656 21.6525 3766(62) 0.0002623 3580. 3879.
21.6694 21.6563 4067(64) 0.0002476 3579. 4101.
21.6731 21.6600 4423(66) 0.0002275 3578. 4460.
21.6769 21.6638 5009(72) 0.0001934 3577. 4933.
21.6807 21.6676 5371(73) 0.0001893 3576. 5311.
21.6844 21.6713 5231(73) 0.0001893 3575. 5288.
21.6882 21.6751 4705(70) 0.0002057 3574. 4887.
21.6919 21.6788 4423(67) 0.0002203 3573. 4427.
21.6957 21.6826 4119(65) 0.0002371 3572. 4068.
21.6995 21.6864 3916(63) 0.0002513 3571. 3856.
21.7032 21.6901 3853(63) 0.0002532 3571. 3752.
21.7070 21.6939 3710(62) 0.0002636 3570. 3700.
21.7107 21.6976 3565(60) 0.0002744 3569. 3674.
21.7145 21.7014 3665(61) 0.0002728 3568. 3657.
21.7182 21.7051 3629(61) 0.0002674 3567. 3645.
21.7220 21.7089 3644(61) 0.0002732 3566. 3635.
21.7258 21.7127 3550(60) 0.0002742 3565. 3628.
21.7295 21.7164 3556(60) 0.0002771 3564. 3622.
21.7333 21.7202 3485(59) 0.0002832 3563. 3618.
21.7370 21.7239 3601(61) 0.0002731 3563. 3614.
21.7408 21.7277 3451(59) 0.0002829 3562. 3610.
21.7446 21.7315 3558(60) 0.0002790 3561. 3607.
21.7483 21.7352 3634(61) 0.0002689 3560. 3605.
21.7521 21.7390 3610(61) 0.0002711 3559. 3602.
21.7558 21.7427 3549(60) 0.0002756 3558. 3600.
21.7596 21.7465 3641(61) 0.0002661 3557. 3598.
21.7634 21.7503 3554(60) 0.0002771 3556. 3597.
21.7671 21.7540 3678(61) 0.0002665 3555. 3595.
21.7709 21.7578 3545(60) 0.0002802 3555. 3594.
21.7746 21.7615 3551(60) 0.0002812 3554. 3592.
21.7784 21.7653 3505(60) 0.0002782 3553. 3591.
21.7821 21.7690 3667(61) 0.0002655 3552. 3590.
21.7859 21.7728 3488(59) 0.0002829 3551. 3589.
21.7897 21.7766 3580(60) 0.0002745 3550. 3587.
21.7934 21.7803 3492(60) 0.0002763 3549. 3586.
21.7972 21.7841 3567(60) 0.0002755 3548. 3585.
21.8009 21.7878 3561(60) 0.0002741 3548. 3584.
21.8047 21.7916 3579(60) 0.0002810 3547. 3583.
21.8085 21.7954 3613(60) 0.0002745 3546. 3583.
21.8122 21.7991 3510(60) 0.0002769 3545. 3582.
21.8160 21.8029 3642(61) 0.0002656 3544. 3581.
21.8197 21.8066 3555(60) 0.0002770 3543. 3580.
21.8235 21.8104 3577(61) 0.0002687 3542. 3579.
21.8272 21.8141 3603(61) 0.0002693 3541. 3579.
21.8310 21.8179 3600(61) 0.0002696 3540. 3578.
21.8348 21.8217 3551(61) 0.0002713 3540. 3577.
21.8385 21.8254 3609(60) 0.0002740 3539. 3577.
21.8423 21.8292 3601(60) 0.0002750 3538. 3576.
21.8460 21.8329 3602(61) 0.0002669 3537. 3565.
21.8498 21.8367 3566(60) 0.0002747 3536. 3564.
21.8536 21.8405 3486(59) 0.0002903 3535. 3564.
21.8573 21.8442 3625(59) 0.0002863 3534. 3563.
21.8611 21.8480 3618(60) 0.0002762 3533. 3563.
21.8648 21.8517 3603(61) 0.0002728 3533. 3563.
21.8686 21.8555 3501(59) 0.0002880 3532. 3562.
21.8723 21.8592 3639(61) 0.0002713 3531. 3562.
21.8761 21.8630 3468(59) 0.0002889 3530. 3561.
21.8799 21.8668 3523(60) 0.0002823 3529. 3561.
21.8836 21.8705 3541(60) 0.0002791 3528. 3561.
21.8874 21.8743 3480(59) 0.0002866 3527. 3561.
21.8911 21.8780 3545(60) 0.0002823 3527. 3560.
21.8949 21.8818 3646(61) 0.0002708 3526. 3560.
21.8987 21.8856 3502(59) 0.0002908 3525. 3560.
21.9024 21.8893 3579(60) 0.0002781 3524. 3560.
21.9062 21.8931 3574(60) 0.0002753 3523. 3560.
21.9099 21.8968 3717(61) 0.0002694 3522. 3560.
21.9137 21.9006 3565(59) 0.0002838 3521. 3560.
21.9174 21.9043 3514(60) 0.0002825 3521. 3559.
21.9212 21.9081 3446(59) 0.0002889 3520. 3559.
21.9250 21.9119 3595(60) 0.0002769 3519. 3559.
21.9287 21.9156 3506(60) 0.0002781 3518. 3560.
21.9325 21.9194 3754(61) 0.0002680 3517. 3560.
21.9362 21.9231 3440(59) 0.0002855 3516. 3560.
21.9400 21.9269 3541(60) 0.0002790 3515. 3560.
21.9437 21.9306 3515(59) 0.0002825 3514. 3560.
21.9475 21.9344 3497(59) 0.0002907 3514. 3560.
21.9513 21.9382 3545(59) 0.0002827 3513. 3561.
21.9550 21.9419 3538(60) 0.0002798 3512. 3561.
21.9588 21.9457 3534(60) 0.0002785 3511. 3562.
21.9625 21.9494 3558(59) 0.0002846 3510. 3562.
21.9663 21.9532 3557(60) 0.0002810 3509. 3563.
21.9701 21.9570 3457(59) 0.0002886 3508. 3563.
21.9738 21.9607 3527(60) 0.0002793 3508. 3564.
21.9776 21.9645 3491(59) 0.0002911 3507. 3565.
21.9813 21.9682 3577(60) 0.0002746 3506. 3565.
21.9851 21.9720 3600(60) 0.0002793 3505. 3566.
21.9888 21.9757 3513(59) 0.0002849 3504. 3567.
21.9926 21.9795 3575(60) 0.0002819 3503. 3568.
21.9964 21.9833 3585(60) 0.0002761 3503. 3570.
22.0001 21.9870 3640(61) 0.0002696 3502. 3571.
22.0039 21.9908 3537(59) 0.0002856 3501. 3572.
22.0076 21.9945 3717(62) 0.0002641 3500. 3574.
22.0114 21.9983 3538(59) 0.0002863 3499. 3575.
22.0151 22.0020 3574(60) 0.0002809 3498. 3577.
22.0189 22.0058 3586(60) 0.0002811 3497. 3579.
22.0227 22.0096 3579(61) 0.0002697 3497. 3581.
22.0264 22.0133 3455(59) 0.0002872 3496. 3583.
22.0302 22.0171 3753(61) 0.0002695 3495. 3585.
22.0339 22.0208 3470(59) 0.0002874 3494. 3588.
22.0377 22.0246 3542(59) 0.0002831 3493. 3590.
22.0415 22.0284 3461(59) 0.0002880 3492. 3593.
22.0452 22.0321 3528(59) 0.0002825 3492. 3596.
22.0490 22.0359 3476(59) 0.0002897 3491. 3599.
22.0527 22.0396 3624(60) 0.0002757 3490. 3603.
22.0565 22.0434 3558(59) 0.0002835 3489. 3607.
22.0602 22.0471 3549(59) 0.0002890 3488. 3611.
22.0640 22.0509 3633(61) 0.0002704 3487. 3616.
22.0678 22.0547 3692(61) 0.0002672 3486. 3620.
22.0715 22.0584 3589(60) 0.0002774 3486. 3626.
22.0753 22.0622 3569(60) 0.0002823 3485. 3631.
22.0790 22.0659 3502(59) 0.0002848 3484. 3637.
22.0828 22.0697 3701(61) 0.0002657 3483. 3644.
22.0865 22.0734 3663(60) 0.0002747 3482. 3651.
22.0903 22.0772 3723(61) 0.0002707 3481. 3659.
22.0941 22.0810 3677(61) 0.0002711 3481. 3668.
22.0978 22.0847 3632(60) 0.0002737 3480. 3677.
22.1016 22.0885 3565(59) 0.0002831 3479. 3687.
22.1053 22.0922 3655(61) 0.0002713 3478. 3698.
22.1091 22.0960 3724(61) 0.0002674 3477. 3710.
22.1128 22.0997 3834(62) 0.0002561 3476. 3723.
22.1166 22.1035 3626(60) 0.0002766 3476. 3738.
22.1204 22.1073 3757(61) 0.0002658 3475. 3754.
22.1241 22.1110 3630(60) 0.0002767 3474. 3772.
22.1279 22.1148 3787(61) 0.0002667 3473. 3792.
22.1316 22.1185 3692(61) 0.0002704 3472. 3813.
22.1354 22.1223 3853(61) 0.0002648 3472. 3838.
22.1391 22.1260 3924(63) 0.0002521 3471. 3865.
22.1429 22.1298 3874(63) 0.0002547 3470. 3896.
22.1467 22.1336 3941(63) 0.0002527 3469. 3932.
22.1504 22.1373 4026(63) 0.0002521 3468. 3971.
22.1542 22.1411 4047(64) 0.0002438 3467. 4016.
22.1579 22.1448 4088(64) 0.0002434 3467. 4067.
22.1617 22.1486 4137(64) 0.0002417 3466. 4127.
22.1654 22.1523 4091(64) 0.0002438 3465. 4195.
22.1692 22.1561 4086(64) 0.0002418 3464. 4276.
22.1730 22.1599 4352(66) 0.0002270 3463. 4372.
22.1767 22.1636 4381(66) 0.0002263 3462. 4483.
22.1805 22.1674 4512(67) 0.0002211 3462. 4620.
22.1842 22.1711 4638(68) 0.0002148 3461. 4781.
22.1880 22.1749 4879(70) 0.0002016 3460. 4986.
22.1917 22.1786 5091(72) 0.0001947 3459. 5233.
22.1955 22.1824 5338(74) 0.0001850 3458. 5555.
22.1993 22.1862 5701(75) 0.0001755 3458. 5973.
22.2030 22.1899 6427(81) 0.0001521 3457. 6514.
22.2068 22.1937 7074(84) 0.0001415 3456. 7295.
22.2105 22.1974 8339(93) 0.0001149 3455. 8477.
22.2143 22.2012 9910(100) 0.0000980 3454. 10662.
22.2180 22.2049 13160(120) 0.0000736 3453. 14855.
22.2218 22.2087 19360(140) 0.0000487 3453. 23237.
22.2256 22.2125 32940(190) 0.0000292 3452. 37746.
22.2293 22.2162 53110(240) 0.0000169 3451. 57708.
22.2331 22.2200 77450(300) 0.0000110 3450. 79203.
22.2368 22.2237 84340(310) 0.0000102 3449. 89041.
22.2406 22.2275 74000(290) 0.0000117 3449. 78788.
22.2443 22.2312 52280(240) 0.0000170 3448. 57811.
22.2481 22.2350 35270(200) 0.0000261 3447. 37355.
22.2519 22.2388 23290(160) 0.0000411 3446. 23005.
22.2556 22.2425 16370(130) 0.0000593 3445. 14911.
22.2594 22.2463 11890(110) 0.0000806 3445. 10632.
22.2631 22.2500 9198(98) 0.0001052 3444. 8530.
22.2669 22.2538 7462(88) 0.0001301 3443. 7332.
22.2706 22.2575 6469(82) 0.0001504 3442. 6591.
22.2744 22.2613 5936(78) 0.0001642 3441. 6058.
22.2782 22.2651 5627(76) 0.0001748 3440. 5672.
22.2819 22.2688 5049(72) 0.0001945 3440. 5402.
22.2857 22.2726 5060(72) 0.0001943 3439. 5225.
22.2894 22.2763 5013(71) 0.0001972 3438. 5177.
22.2932 22.2801 5242(73) 0.0001855 3437. 5343.
22.2969 22.2838 5838(77) 0.0001695 3436. 5837.
22.3007 22.2876 7105(85) 0.0001400 3436. 6766.
22.3045 22.2914 8844(96) 0.0001096 3435. 7949.
22.3082 22.2951 9820(100) 0.0001002 3434. 8759.
22.3120 22.2989 8903(95) 0.0001115 3433. 8469.
22.3157 22.3026 7697(89) 0.0001275 3432. 7301.
22.3195 22.3064 6199(80) 0.0001574 3432. 6004.
22.3232 22.3101 5313(73) 0.0001871 3431. 5070.
22.3270 22.3139 4672(69) 0.0002102 3430. 4503.
22.3307 22.3176 4493(67) 0.0002234 3429. 4216.
22.3345 22.3214 4150(64) 0.0002407 3428. 4062.
22.3383 22.3252 4090(64) 0.0002434 3428. 3970.
22.3420 22.3289 3858(62) 0.0002613 3427. 3907.
22.3458 22.3327 3854(62) 0.0002620 3426. 3856.
22.3495 22.3364 3760(61) 0.0002676 3425. 3816.
22.3533 22.3402 3829(62) 0.0002602 3424. 3781.
22.3570 22.3439 3800(61) 0.0002652 3424. 3752.
22.3608 22.3477 3675(60) 0.0002767 3423. 3726.
22.3646 22.3515 3742(61) 0.0002657 3422. 3703.
22.3683 22.3552 3754(61) 0.0002657 3421. 3683.
22.3721 22.3590 3650(60) 0.0002761 3420. 3665.
22.3758 22.3627 3599(60) 0.0002800 3420. 3649.
22.3796 22.3665 3540(59) 0.0002853 3419. 3635.
22.3833 22.3702 3644(61) 0.0002724 3418. 3622.
22.3871 22.3740 3552(59) 0.0002855 3417. 3609.
22.3908 22.3777 3444(59) 0.0002914 3417. 3599.
22.3946 22.3815 3548(60) 0.0002808 3416. 3588.
22.3984 22.3853 3557(59) 0.0002825 3415. 3579.
22.4021 22.3890 3493(59) 0.0002891 3414. 3570.
22.4059 22.3928 3562(60) 0.0002809 3413. 3562.
22.4096 22.3965 3581(60) 0.0002759 3413. 3554.
22.4134 22.4003 3456(58) 0.0002933 3412. 3547.
22.4171 22.4040 3411(59) 0.0002908 3411. 3540.
22.4209 22.4078 3631(61) 0.0002731 3410. 3534.
22.4247 22.4116 3452(59) 0.0002921 3409. 3528.
22.4284 22.4153 3640(60) 0.0002773 3409. 3522.
22.4322 22.4191 3504(59) 0.0002830 3408. 3517.
22.4359 22.4228 3575(59) 0.0002838 3407. 3512.
22.4397 22.4266 3474(59) 0.0002863 3406. 3507.
22.4434 22.4303 3440(58) 0.0002935 3406. 3502.
22.4472 22.4341 3467(59) 0.0002846 3405. 3498.
22.4509 22.4378 3422(58) 0.0002948 3404. 3494.
22.4547 22.4416 3456(59) 0.0002866 3403. 3490.
22.4585 22.4454 3527(59) 0.0002880 3402. 3486.
22.4622 22.4491 3457(59) 0.0002894 3402. 3482.
22.4660 22.4529 3440(59) 0.0002901 3401. 3479.
22.4697 22.4566 3387(58) 0.0002977 3400. 3475.
22.4735 22.4604 3388(59) 0.0002898 3399. 3472.
22.4772 22.4641 3453(59) 0.0002873 3399. 3469.
22.4810 22.4679 3479(59) 0.0002889 3398. 3466.
22.4847 22.4716 3406(58) 0.0002951 3397. 3463.
22.4885 22.4754 3457(59) 0.0002914 3396. 3460.
22.4923 22.4792 3384(59) 0.0002909 3395. 3458.
22.4960 22.4829 3485(59) 0.0002869 3395. 3455.
22.4998 22.4867 3419(59) 0.0002900 3394. 3452.
22.5035 22.4904 3406(58) 0.0002933 3393. 3450.
22.5073 22.4942 3382(58) 0.0002957 3392. 3448.
22.5110 22.4979 3531(60) 0.0002793 3392. 3445.
22.5148 22.5017 3296(58) 0.0003016 3391. 3443.
22.5185 22.5054 3445(59) 0.0002913 3390. 3441.
22.5223 22.5092 3490(59) 0.0002828 3389. 3439.
22.5261 22.5130 3304(57) 0.0003053 3388. 3437.
22.5298 22.5167 3381(59) 0.0002911 3388. 3435.
22.5336 22.5205 3341(58) 0.0002983 3387. 3433.
22.5373 22.5242 3379(58) 0.0002938 3386. 3431.
22.5411 22.5280 3446(59) 0.0002921 3385. 3429.
22.5448 22.5317 3313(58) 0.0002988 3385. 3427.
22.5486 22.5355 3394(58) 0.0002926 3384. 3425.
22.5523 22.5392 3452(59) 0.0002868 3383. 3423.
22.5561 22.5430 3414(58) 0.0002927 3382. 3422.
22.5599 22.5468 3313(58) 0.0002971 3382. 3420.
22.5636 22.5505 3455(59) 0.0002832 3381. 3418.
22.5674 22.5543 3510(59) 0.0002870 3380. 3417.
22.5711 22.5580 3386(59) 0.0002900 3379. 3415.
22.5749 22.5618 3340(58) 0.0003020 3378. 3414.
22.5786 22.5655 3330(58) 0.0002991 3378. 3412.
22.5824 22.5693 3507(60) 0.0002824 3377. 3410.
22.5861 22.5730 3406(59) 0.0002863 3376. 3409.
22.5899 22.5768 3334(58) 0.0003001 3375. 3408.
22.5937 22.5806 3471(58) 0.0003012 3375. 3406.
22.5974 22.5843 3335(58) 0.0002979 3374. 3405.
22.6012 22.5881 3386(58) 0.0002945 3373. 3403.
22.6049 22.5918 3346(58) 0.0003017 3372. 3402.
22.6087 22.5956 3453(59) 0.0002875 3372. 3401.
22.6124 22.5993 3323(57) 0.0003066 3371. 3399.
22.6162 22.6031 3424(59) 0.0002903 3370. 3398.
22.6199 22.6068 3434(59) 0.0002894 3369. 3397.
22.6237 22.6106 3227(57) 0.0003075 3369. 3395.
22.6275 22.6144 3312(58) 0.0002961 3368. 3394.
22.6312 22.6181 3363(58) 0.0002971 3367. 3393.
22.6350 22.6219 3405(58) 0.0002927 3366. 3391.
22.6387 22.6256 3291(57) 0.0003064 3366. 3390.
22.6425 22.6294 3267(57) 0.0003050 3365. 3389.
22.6462 22.6331 3473(59) 0.0002892 3364. 3388.
22.6500 22.6369 3415(58) 0.0002989 3363. 3387.
22.6537 22.6406 3399(59) 0.0002897 3363. 3385.
22.6575 22.6444 3151(56) 0.0003134 3362. 3384.
22.6612 22.6481 3219(56) 0.0003182 3361. 3383.
22.6650 22.6519 3373(58) 0.0002950 3360. 3382.
22.6688 22.6557 3268(57) 0.0003074 3360. 3381.
22.6725 22.6594 3307(58) 0.0002977 3359. 3380.
22.6763 22.6632 3411(58) 0.0003012 3358. 3379.
22.6800 22.6669 3331(59) 0.0002909 3357. 3378.
22.6838 22.6707 3385(59) 0.0002914 3357. 3376.
22.6875 22.6744 3368(59) 0.0002917 3356. 3375.
22.6913 22.6782 3377(59) 0.0002888 3355. 3374.
22.6950 22.6819 3374(58) 0.0002976 3354. 3373.
22.6988 22.6857 3319(58) 0.0003019 3354. 3372.
22.7025 22.6894 3299(58) 0.0003006 3353. 3371.
22.7063 22.6932 3333(58) 0.0003003 3352. 3370.
22.7101 22.6970 3330(58) 0.0003020 3351. 3369.
22.7138 22.7007 3283(57) 0.0003039 3351. 3368.
22.7176 22.7045 3361(59) 0.0002889 3350. 3367.
22.7213 22.7082 3341(57) 0.0003056 3349. 3366.
22.7251 22.7120 3258(57) 0.0003031 3348. 3365.
22.7288 22.7157 3275(58) 0.0003005 3348. 3364.
22.7326 22.7195 3402(59) 0.0002839 3347. 3363.
22.7363 22.7232 3292(58) 0.0002959 3346. 3362.
22.7401 22.7270 3367(58) 0.0002942 3345. 3361.
22.7438 22.7307 3407(59) 0.0002900 3345. 3360.
22.7476 22.7345 3256(58) 0.0003007 3344. 3359.
22.7514 22.7383 3420(59) 0.0002849 3343. 3358.
22.7551 22.7420 3231(57) 0.0003093 3342. 3357.
22.7589 22.7458 3317(58) 0.0002924 3342. 3356.
22.7626 22.7495 3348(59) 0.0002915 3341. 3356.
22.7664 22.7533 3381(58) 0.0002934 3340. 3355.
22.7701 22.7570 3348(58) 0.0002935 3339. 3354.
22.7739 22.7608 3398(59) 0.0002853 3339. 3353.
22.7776 22.7645 3251(57) 0.0003031 3338. 3352.
22.7814 22.7683 3284(57) 0.0003086 3337. 3351.
22.7851 22.7720 3318(58) 0.0002971 3337. 3350.
22.7889 22.7758 3289(57) 0.0003041 3336. 3349.
22.7914 22.7783 3426(58) 0.0002924 3335. 3348.
22.7952 22.7821 3382(59) 0.0002900 3335. 3348.
22.7990 22.7859 3330(58) 0.0002994 3334. 3347.
22.8027 22.7896 3246(57) 0.0003095 3333. 3346.
22.8065 22.7934 3400(59) 0.0002911 3332. 3345.
22.8102 22.7971 3345(58) 0.0002933 3332. 3344.
22.8140 22.8009 3343(58) 0.0002985 3331. 3343.
22.8177 22.8046 3266(58) 0.0003016 3330. 3342.
22.8215 22.8084 3229(57) 0.0003117 3329. 3341.
22.8253 22.8122 3339(58) 0.0002997 3329. 3340.
22.8290 22.8159 3333(58) 0.0002991 3328. 3340.
22.8328 22.8197 3240(57) 0.0003116 3327. 3339.
22.8365 22.8234 3369(58) 0.0003000 3327. 3338.
22.8403 22.8272 3380(58) 0.0002979 3326. 3337.
22.8440 22.8309 3318(58) 0.0003006 3325. 3336.
22.8478 22.8347 3282(57) 0.0003074 3324. 3335.
22.8515 22.8384 3352(57) 0.0003036 3324. 3334.
22.8553 22.8422 3255(57) 0.0003058 3323. 3334.
22.8591 22.8460 3295(57) 0.0003029 3322. 3333.
22.8628 22.8497 3416(58) 0.0002952 3321. 3332.
22.8666 22.8535 3328(57) 0.0003030 3321. 3331.
22.8703 22.8572 3173(56) 0.0003186 3320. 3330.
22.8741 22.8610 3285(58) 0.0003024 3319. 3329.
22.8778 22.8647 3361(58) 0.0003018 3319. 3328.
22.8816 22.8685 3447(59) 0.0002910 3318. 3328.
22.8854 22.8723 3275(57) 0.0003044 3317. 3327.
22.8891 22.8760 3298(57) 0.0003049 3316. 3326.
22.8929 22.8798 3240(57) 0.0003118 3316. 3325.
22.8966 22.8835 3364(58) 0.0002976 3315. 3324.
22.9004 22.8873 3274(58) 0.0003021 3314. 3324.
22.9041 22.8910 3415(58) 0.0002968 3313. 3323.
22.9079 22.8948 3232(57) 0.0003070 3313. 3322.
22.9116 22.8985 3377(58) 0.0002938 3312. 3321.
22.9154 22.9023 3175(56) 0.0003178 3311. 3320.
22.9192 22.9061 3309(57) 0.0003053 3311. 3319.
22.9229 22.9098 3335(58) 0.0002974 3310. 3319.
22.9267 22.9136 3262(57) 0.0003112 3309. 3318.
22.9304 22.9173 3325(58) 0.0002992 3308. 3317.
22.9342 22.9211 3175(56) 0.0003183 3308. 3316.
22.9379 22.9248 3182(57) 0.0003103 3307. 3315.
22.9417 22.9286 3287(57) 0.0003070 3306. 3315.
22.9454 22.9323 3358(58) 0.0002950 3306. 3314.
22.9492 22.9361 3247(57) 0.0003131 3305. 3313.
22.9530 22.9399 3253(57) 0.0003076 3304. 3312.
22.9567 22.9436 3282(57) 0.0003041 3303. 3312.
22.9605 22.9474 3118(56) 0.0003236 3303. 3311.
22.9642 22.9511 3275(58) 0.0002999 3302. 3310.
22.9680 22.9549 3247(57) 0.0003056 3301. 3309.
22.9717 22.9586 3301(57) 0.0003046 3301. 3308.
22.9755 22.9624 3218(57) 0.0003125 3300. 3308.
22.9793 22.9662 3244(57) 0.0003107 3299. 3307.
22.9830 22.9699 3228(57) 0.0003050 3298. 3306.
22.9868 22.9737 3305(57) 0.0003026 3298. 3305.
22.9905 22.9774 3224(57) 0.0003077 3297. 3305.
22.9943 22.9812 3233(57) 0.0003090 3296. 3304.
22.9980 22.9849 3241(57) 0.0003087 3296. 3303.
23.0018 22.9887 3459(59) 0.0002851 3295. 3302.
23.0055 22.9924 3295(58) 0.0003017 3294. 3302.
23.0093 22.9962 3318(57) 0.0003026 3293. 3302.
23.0131 23.0000 3263(57) 0.0003026 3293. 3301.
23.0168 23.0037 3248(57) 0.0003106 3292. 3300.
23.0206 23.0075 3212(57) 0.0003065 3291. 3299.
23.0229 23.0098 3303(56) 0.0003147 3291. 3299.
23.0267 23.0136 3341(57) 0.0003115 3290. 3298.
23.0304 23.0173 3115(55) 0.0003311 3290. 3297.
23.0342 23.0211 3249(56) 0.0003174 3289. 3297.
23.0380 23.0249 3313(56) 0.0003134 3288. 3296.
23.0417 23.0286 3312(57) 0.0003119 3287. 3295.
23.0455 23.0324 3301(57) 0.0003082 3287. 3289.
23.0492 23.0361 3292(56) 0.0003171 3286. 3288.
23.0530 23.0399 3195(56) 0.0003244 3285. 3296.
23.0567 23.0436 3275(56) 0.0003163 3285. 3295.
23.0605 23.0474 3260(56) 0.0003164 3284. 3295.
23.0642 23.0511 3362(57) 0.0003045 3283. 3294.
23.0680 23.0549 3286(56) 0.0003139 3282. 3294.
23.0718 23.0587 3384(57) 0.0003083 3282. 3293.
23.0755 23.0624 3348(57) 0.0003080 3281. 3293.
23.0793 23.0662 3243(56) 0.0003158 3280. 3292.
23.0830 23.0699 3170(55) 0.0003263 3280. 3292.
23.0868 23.0737 3232(56) 0.0003181 3279. 3291.
23.0905 23.0774 3346(57) 0.0003132 3278. 3291.
23.0943 23.0812 3250(56) 0.0003206 3278. 3290.
23.0980 23.0849 3243(56) 0.0003145 3277. 3290.
23.1018 23.0887 3279(56) 0.0003158 3276. 3289.
23.1056 23.0925 3240(56) 0.0003181 3275. 3289.
23.1093 23.0962 3207(56) 0.0003242 3275. 3288.
23.1131 23.1000 3380(58) 0.0002997 3274. 3288.
23.1168 23.1037 3357(57) 0.0003061 3273. 3287.
23.1206 23.1075 3184(55) 0.0003253 3273. 3286.
23.1243 23.1112 3306(56) 0.0003154 3272. 3286.
23.1281 23.1150 3168(56) 0.0003213 3271. 3285.
23.1318 23.1187 3317(56) 0.0003151 3271. 3285.
23.1356 23.1225 3180(55) 0.0003252 3270. 3284.
23.1393 23.1262 3208(56) 0.0003166 3269. 3284.
23.1431 23.1300 3319(57) 0.0003084 3269. 3284.
23.1469 23.1338 3207(56) 0.0003220 3268. 3283.
23.1506 23.1375 3223(56) 0.0003173 3267. 3283.
23.1544 23.1413 3175(56) 0.0003223 3266. 3282.
23.1581 23.1450 3164(55) 0.0003282 3266. 3282.
23.1619 23.1488 3285(56) 0.0003161 3265. 3282.
23.1656 23.1525 3179(56) 0.0003174 3264. 3281.
23.1694 23.1563 3307(57) 0.0003071 3264. 3281.
23.1731 23.1600 3241(56) 0.0003185 3263. 3280.
23.1769 23.1638 3327(56) 0.0003139 3262. 3280.
23.1807 23.1676 3206(56) 0.0003221 3262. 3280.
23.1844 23.1713 3218(56) 0.0003189 3261. 3279.
23.1882 23.1751 3287(57) 0.0003111 3260. 3279.
23.1919 23.1788 3155(55) 0.0003256 3260. 3279.
23.1957 23.1826 3202(56) 0.0003199 3259. 3279.
23.1994 23.1863 3237(56) 0.0003184 3258. 3278.
23.2032 23.1901 3267(56) 0.0003187 3258. 3278.
23.2070 23.1939 3180(56) 0.0003245 3257. 3278.
23.2107 23.1976 3250(56) 0.0003143 3256. 3278.
23.2145 23.2014 3276(57) 0.0003093 3256. 3277.
23.2182 23.2051 3298(57) 0.0003061 3255. 3277.
23.2220 23.2089 3221(56) 0.0003170 3254. 3277.
23.2257 23.2126 3230(56) 0.0003243 3253. 3277.
23.2295 23.2164 3220(56) 0.0003136 3253. 3277.
23.2332 23.2201 3236(56) 0.0003183 3252. 3277.
23.2370 23.2239 3225(56) 0.0003175 3251. 3277.
23.2408 23.2277 3130(55) 0.0003310 3251. 3277.
23.2445 23.2314 3283(57) 0.0003107 3250. 3277.
23.2483 23.2352 3210(56) 0.0003204 3249. 3277.
23.2520 23.2389 3290(56) 0.0003143 3249. 3278.
23.2558 23.2427 3248(56) 0.0003178 3248. 3292.
23.2595 23.2464 3241(56) 0.0003189 3247. 3292.
23.2633 23.2502 3152(56) 0.0003246 3247. 3293.
23.2670 23.2539 3266(56) 0.0003161 3246. 3294.
23.2708 23.2577 3237(57) 0.0003100 3245. 3295.
23.2746 23.2615 3375(57) 0.0003045 3245. 3296.
23.2783 23.2652 3236(56) 0.0003157 3244. 3297.
23.2821 23.2690 3469(59) 0.0002896 3243. 3298.
23.2858 23.2727 3375(57) 0.0003027 3243. 3300.
23.2896 23.2765 3347(57) 0.0003025 3242. 3301.
23.2933 23.2802 3275(57) 0.0003106 3241. 3304.
23.2971 23.2840 3301(56) 0.0003189 3241. 3306.
23.3009 23.2878 3246(57) 0.0003128 3240. 3309.
23.3046 23.2915 3265(56) 0.0003157 3239. 3313.
23.3084 23.2953 3421(58) 0.0003001 3239. 3317.
23.3121 23.2990 3396(58) 0.0003010 3238. 3323.
23.3159 23.3028 3404(58) 0.0002979 3237. 3330.
23.3196 23.3065 3534(59) 0.0002878 3237. 3339.
23.3234 23.3103 3383(57) 0.0003031 3236. 3352.
23.3271 23.3140 3483(58) 0.0002930 3235. 3369.
23.3309 23.3178 3413(58) 0.0002989 3235. 3398.
23.3347 23.3216 3602(59) 0.0002831 3234. 3451.
23.3384 23.3253 3558(59) 0.0002874 3233. 3551.
23.3422 23.3291 3782(61) 0.0002722 3233. 3744.
23.3459 23.3328 4124(63) 0.0002494 3232. 4051.
23.3497 23.3366 4651(68) 0.0002187 3231. 4469.
23.3534 23.3403 5162(71) 0.0001967 3231. 4866.
23.3572 23.3441 5444(73) 0.0001852 3230. 5020.
23.3610 23.3479 5090(71) 0.0001992 3229. 4784.
23.3647 23.3516 4607(67) 0.0002255 3229. 4370.
23.3685 23.3554 4135(64) 0.0002464 3228. 3972.
23.3722 23.3591 3909(62) 0.0002605 3227. 3697.
23.3760 23.3629 3768(61) 0.0002686 3227. 3531.
23.3797 23.3666 3717(60) 0.0002736 3226. 3446.
23.3835 23.3704 3550(59) 0.0002838 3225. 3402.
23.3873 23.3742 3560(59) 0.0002857 3225. 3379.
23.3910 23.3779 3591(59) 0.0002842 3224. 3364.
23.3948 23.3817 3518(59) 0.0002886 3223. 3354.
23.3985 23.3854 3456(58) 0.0002964 3223. 3348.
23.4023 23.3892 3530(59) 0.0002892 3222. 3343.
23.4060 23.3929 3420(57) 0.0003037 3221. 3339.
23.4098 23.3967 3450(59) 0.0002899 3221. 3337.
23.4135 23.4004 3486(58) 0.0002963 3220. 3335.
23.4173 23.4042 3484(58) 0.0002944 3219. 3334.
23.4211 23.4080 3394(58) 0.0002988 3219. 3334.
23.4248 23.4117 3448(58) 0.0003000 3218. 3334.
23.4286 23.4155 3385(58) 0.0003011 3217. 3335.
23.4323 23.4192 3478(58) 0.0002933 3217. 3336.
23.4361 23.4230 3376(57) 0.0003040 3216. 3337.
23.4398 23.4267 3404(57) 0.0003057 3215. 3339.
23.4436 23.4305 3408(57) 0.0003037 3215. 3341.
23.4474 23.4343 3432(58) 0.0002952 3214. 3352.
23.4511 23.4380 3299(57) 0.0003094 3213. 3355.
23.4549 23.4418 3348(57) 0.0003069 3213. 3358.
23.4586 23.4455 3417(58) 0.0002996 3212. 3361.
23.4624 23.4493 3347(57) 0.0003073 3211. 3365.
23.4661 23.4530 3235(56) 0.0003191 3211. 3369.
23.4699 23.4568 3322(57) 0.0003100 3210. 3373.
23.4737 23.4606 3362(57) 0.0003038 3209. 3378.
23.4774 23.4643 3386(58) 0.0002970 3209. 3383.
23.4812 23.4681 3348(58) 0.0003015 3208. 3389.
23.4849 23.4718 3459(58) 0.0002981 3207. 3395.
23.4887 23.4756 3292(56) 0.0003150 3207. 3401.
23.4924 23.4793 3394(58) 0.0003024 3206. 3408.
23.4962 23.4831 3411(58) 0.0003014 3206. 3416.
23.5000 23.4869 3438(57) 0.0003050 3205. 3425.
23.5037 23.4906 3396(58) 0.0003019 3204. 3434.
23.5075 23.4944 3432(58) 0.0003023 3204. 3444.
23.5112 23.4981 3485(58) 0.0002924 3203. 3455.
23.5150 23.5019 3384(57) 0.0003075 3202. 3467.
23.5187 23.5056 3454(58) 0.0002968 3202. 3480.
23.5225 23.5094 3523(59) 0.0002905 3201. 3495.
23.5263 23.5132 3474(58) 0.0002922 3200. 3511.
23.5300 23.5169 3501(58) 0.0002932 3200. 3529.
23.5338 23.5207 3614(58) 0.0002955 3199. 3549.
23.5375 23.5244 3466(58) 0.0003004 3198. 3571.
23.5413 23.5282 3553(59) 0.0002848 3198. 3596.
23.5450 23.5319 3624(59) 0.0002853 3197. 3624.
23.5488 23.5357 3601(59) 0.0002870 3196. 3656.
23.5526 23.5395 3704(61) 0.0002708 3196. 3694.
23.5563 23.5432 3762(61) 0.0002726 3195. 3736.
23.5601 23.5470 3754(60) 0.0002771 3195. 3787.
23.5638 23.5507 3920(62) 0.0002608 3194. 3846.
23.5676 23.5545 3896(62) 0.0002610 3193. 3919.
23.5713 23.5582 3988(62) 0.0002603 3193. 4006.
23.5751 23.5620 4258(64) 0.0002452 3192. 4123.
23.5789 23.5658 4369(66) 0.0002328 3191. 4291.
23.5826 23.5695 4665(68) 0.0002170 3191. 4559.
23.5864 23.5733 5101(71) 0.0001960 3190. 5061.
23.5901 23.5770 5913(77) 0.0001667 3189. 5943.
23.5939 23.5808 7414(86) 0.0001350 3189. 7410.
23.5977 23.5846 9946(99) 0.0001011 3188. 9367.
23.6014 23.5883 12330(110) 0.0000821 3187. 11226.
23.6052 23.5921 13450(120) 0.0000754 3187. 12013.
23.6089 23.5958 11770(110) 0.0000856 3186. 11203.
23.6127 23.5996 10114(99) 0.0001014 3186. 9670.
23.6164 23.6033 8658(92) 0.0001182 3185. 8447.
23.6202 23.6071 8325(90) 0.0001222 3184. 7893.
23.6240 23.6109 8578(92) 0.0001187 3184. 8199.
23.6277 23.6146 9997(99) 0.0001014 3183. 9615.
23.6315 23.6184 12940(110) 0.0000786 3182. 13264.
23.6352 23.6221 19610(140) 0.0000514 3182. 21029.
23.6390 23.6259 33280(190) 0.0000291 3181. 35945.
23.6427 23.6296 58760(260) 0.0000154 3180. 57776.
23.6465 23.6334 86140(320) 0.0000100 3180. 82476.
23.6503 23.6372 99780(340) 8.59e-6 3179. 95962.
23.6540 23.6409 86300(320) 0.0000101 3179. 86887.
23.6578 23.6447 63020(270) 0.0000142 3178. 63138.
23.6615 23.6484 41390(210) 0.0000232 3177. 40084.
23.6653 23.6522 27380(170) 0.0000362 3177. 23396.
23.6690 23.6559 18170(130) 0.0000553 3176. 14285.
23.6728 23.6597 13110(110) 0.0000768 3175. 9770.
23.6766 23.6635 9604(97) 0.0001062 3175. 7699.
23.6803 23.6672 7618(87) 0.0001334 3174. 6651.
23.6841 23.6710 6559(80) 0.0001556 3174. 5985.
23.6878 23.6747 5805(76) 0.0001738 3173. 5529.
23.6916 23.6785 5430(74) 0.0001848 3172. 5181.
23.6954 23.6823 5095(71) 0.0001995 3172. 4915.
23.6991 23.6860 4790(68) 0.0002134 3171. 4714.
23.7029 23.6898 4715(68) 0.0002172 3170. 4552.
23.7066 23.6935 4650(68) 0.0002177 3170. 4425.
23.7104 23.6973 4521(66) 0.0002310 3169. 4321.
23.7141 23.7010 4301(64) 0.0002421 3169. 4240.
23.7179 23.7048 4219(64) 0.0002433 3168. 4173.
23.7217 23.7086 4189(64) 0.0002462 3167. 4120.
23.7254 23.7123 4194(64) 0.0002445 3167. 4079.
23.7292 23.7161 4044(62) 0.0002565 3166. 4047.
23.7329 23.7198 4220(64) 0.0002430 3165. 4024.
23.7367 23.7236 4088(63) 0.0002544 3165. 4008.
23.7405 23.7274 4036(62) 0.0002573 3164. 3999.
23.7442 23.7311 4093(63) 0.0002533 3164. 3997.
23.7480 23.7349 4069(63) 0.0002551 3163. 4001.
23.7517 23.7386 4032(62) 0.0002598 3162. 4012.
23.7555 23.7424 4103(63) 0.0002498 3162. 4029.
23.7592 23.7461 3975(62) 0.0002573 3161. 4052.
23.7630 23.7499 4255(64) 0.0002413 3160. 4083.
23.7668 23.7537 3943(63) 0.0002520 3160. 4122.
23.7705 23.7574 4135(63) 0.0002500 3159. 4169.
23.7743 23.7612 4187(64) 0.0002455 3159. 4227.
23.7780 23.7649 4302(65) 0.0002377 3158. 4295.
23.7818 23.7687 4262(65) 0.0002380 3157. 4379.
23.7856 23.7725 4338(65) 0.0002361 3157. 4479.
23.7893 23.7762 4562(67) 0.0002228 3156. 4596.
23.7931 23.7800 4713(68) 0.0002175 3155. 4741.
23.7968 23.7837 4774(68) 0.0002183 3155. 4911.
23.8006 23.7875 5116(71) 0.0001997 3154. 5125.
23.8043 23.7912 5233(71) 0.0001969 3154. 5383.
23.8081 23.7950 5505(74) 0.0001835 3153. 5713.
23.8119 23.7988 5716(75) 0.0001768 3152. 6134.
23.8156 23.8025 6314(78) 0.0001627 3152. 6664.
23.8194 23.8063 6893(83) 0.0001457 3151. 7391.
23.8231 23.8100 7946(89) 0.0001266 3151. 8399.
23.8269 23.8138 9050(94) 0.0001128 3150. 10047.
23.8307 23.8176 11700(110) 0.0000869 3149. 13100.
23.8344 23.8213 15890(130) 0.0000633 3149. 18959.
23.8382 23.8251 24790(160) 0.0000406 3148. 30444.
23.8419 23.8288 42370(210) 0.0000222 3147. 49158.
23.8457 23.8326 72780(290) 0.0000122 3147. 75801.
23.8494 23.8363 102260(350) 8.34e-6 3146. 102854.
23.8532 23.8401 111720(360) 7.65e-6 3146. 117001.
23.8570 23.8439 94960(330) 8.97e-6 3145. 105638.
23.8607 23.8476 70540(280) 0.0000126 3144. 79299.
23.8645 23.8514 47880(230) 0.0000197 3144. 52042.
23.8682 23.8551 33000(190) 0.0000293 3143. 32358.
23.8720 23.8589 22780(150) 0.0000436 3143. 20066.
23.8758 23.8627 16940(130) 0.0000591 3142. 13601.
23.8795 23.8664 12180(110) 0.0000822 3141. 10433.
23.8833 23.8702 9861(99) 0.0001028 3141. 8694.
23.8870 23.8739 8218(90) 0.0001242 3140. 7663.
23.8908 23.8777 7065(83) 0.0001435 3139. 6940.
23.8945 23.8814 6518(80) 0.0001558 3139. 6432.
23.8983 23.8852 6345(79) 0.0001617 3138. 6050.
23.9021 23.8890 5853(76) 0.0001731 3138. 5770.
23.9058 23.8927 5717(75) 0.0001781 3137. 5581.
23.9096 23.8965 5508(73) 0.0001855 3136. 5460.
23.9133 23.9002 5717(75) 0.0001788 3136. 5416.
23.9171 23.9040 5581(74) 0.0001839 3135. 5465.
23.9209 23.9078 5780(76) 0.0001750 3135. 5679.
23.9246 23.9115 6125(77) 0.0001686 3134. 6223.
23.9284 23.9153 7229(83) 0.0001435 3133. 7500.
23.9321 23.9190 9345(96) 0.0001085 3133. 9949.
23.9359 23.9228 13850(120) 0.0000724 3132. 14061.
23.9397 23.9266 20160(140) 0.0000486 3132. 19325.
23.9434 23.9303 25350(160) 0.0000384 3131. 23675.
23.9472 23.9341 24590(160) 0.0000401 3130. 24231.
23.9509 23.9378 20460(140) 0.0000487 3130. 20462.
23.9547 23.9416 14980(120) 0.0000666 3129. 15085.
23.9585 23.9454 11200(110) 0.0000897 3129. 10569.
23.9622 23.9491 8459(92) 0.0001170 3128. 7708.
23.9660 23.9529 6993(81) 0.0001507 3127. 6120.
23.9697 23.9566 5993(76) 0.0001750 3127. 5381.
23.9735 23.9604 5396(72) 0.0001938 3126. 5024.
23.9772 23.9641 5115(70) 0.0002062 3126. 4850.
23.9810 23.9679 4854(68) 0.0002169 3125. 4759.
23.9848 23.9717 4850(68) 0.0002152 3124. 4723.
23.9885 23.9754 4882(67) 0.0002211 3124. 4730.
23.9923 23.9792 4919(68) 0.0002138 3123. 4776.
23.9960 23.9829 4947(69) 0.0002130 3123. 4861.
23.9998 23.9867 4846(68) 0.0002140 3122. 4994.
24.0036 23.9905 5287(71) 0.0001988 3121. 5183.
24.0073 23.9942 5481(72) 0.0001912 3121. 5436.
24.0111 23.9980 5781(74) 0.0001821 3120. 5793.
24.0148 24.0017 6393(78) 0.0001657 3120. 6281.
24.0186 24.0055 7026(82) 0.0001492 3119. 7046.
24.0224 24.0093 8457(90) 0.0001244 3118. 8386.
24.0261 24.0130 10710(100) 0.0000980 3118. 10974.
24.0299 24.0168 14930(120) 0.0000687 3117. 16434.
24.0336 24.0205 23800(150) 0.0000425 3117. 26380.
24.0374 24.0243 40570(200) 0.0000240 3116. 42617.
24.0412 24.0281 66310(270) 0.0000140 3115. 63025.
24.0449 24.0318 85170(310) 0.0000106 3115. 79502.
24.0487 24.0356 85970(310) 0.0000104 3114. 81233.
24.0524 24.0393 66770(270) 0.0000138 3114. 66621.
24.0562 24.0431 45730(220) 0.0000209 3113. 46085.
24.0599 24.0468 29650(170) 0.0000336 3112. 29158.
24.0637 24.0506 20270(140) 0.0000496 3112. 17779.
24.0675 24.0544 14070(120) 0.0000737 3111. 11565.
24.0712 24.0581 10273(99) 0.0001022 3111. 8580.
24.0750 24.0619 7870(87) 0.0001335 3110. 7040.
24.0787 24.0656 6643(80) 0.0001582 3110. 6191.
24.0825 24.0694 5713(74) 0.0001834 3109. 5615.
24.0863 24.0732 5232(70) 0.0002015 3108. 5197.
24.0900 24.0769 4935(69) 0.0002131 3108. 4887.
24.0938 24.0807 4725(67) 0.0002218 3107. 4637.
24.0975 24.0844 4487(66) 0.0002321 3107. 4442.
24.1013 24.0882 4364(65) 0.0002386 3106. 4281.
24.1051 24.0920 4213(64) 0.0002466 3105. 4147.
24.1088 24.0957 4098(63) 0.0002553 3105. 4040.
24.1126 24.0995 3934(61) 0.0002674 3104. 3946.
24.1163 24.1032 3937(61) 0.0002677 3104. 3869.
24.1201 24.1070 3856(60) 0.0002761 3103. 3800.
24.1239 24.1108 3833(59) 0.0002826 3102. 3741.
24.1276 24.1145 3649(59) 0.0002876 3102. 3693.
24.1314 24.1183 3744(60) 0.0002820 3101. 3648.
24.1351 24.1220 3579(58) 0.0002957 3101. 3609.
24.1389 24.1258 3780(60) 0.0002784 3100. 3574.
24.1427 24.1296 3649(59) 0.0002887 3100. 3542.
24.1464 24.1333 3568(58) 0.0002952 3099. 3515.
24.1502 24.1371 3525(58) 0.0002962 3098. 3489.
24.1539 24.1408 3543(58) 0.0002974 3098. 3467.
24.1577 24.1446 3462(57) 0.0003037 3097. 3446.
24.1615 24.1484 3546(58) 0.0003021 3097. 3427.
24.1652 24.1521 3554(58) 0.0002967 3096. 3409.
24.1690 24.1559 3466(57) 0.0003046 3095. 3393.
24.1727 24.1596 3419(57) 0.0003062 3095. 3379.
24.1765 24.1634 3441(57) 0.0003044 3094. 3365.
24.1802 24.1671 3479(58) 0.0003010 3094. 3353.
24.1840 24.1709 3382(57) 0.0003132 3093. 3342.
24.1878 24.1747 3337(56) 0.0003158 3093. 3331.
24.1915 24.1784 3340(56) 0.0003159 3092. 3321.
24.1953 24.1822 3329(56) 0.0003160 3091. 3311.
24.1990 24.1859 3445(57) 0.0003078 3091. 3303.
24.2028 24.1897 3339(57) 0.0003126 3090. 3295.
24.2066 24.1935 3312(56) 0.0003189 3090. 3287.
24.2103 24.1972 3334(57) 0.0003105 3089. 3280.
24.2141 24.2010 3371(57) 0.0003107 3089. 3273.
24.2178 24.2047 3362(56) 0.0003145 3088. 3267.
24.2216 24.2085 3196(55) 0.0003278 3087. 3261.
24.2254 24.2123 3328(57) 0.0003130 3087. 3255.
24.2291 24.2160 3334(56) 0.0003160 3086. 3250.
24.2329 24.2198 3263(56) 0.0003198 3086. 3245.
24.2366 24.2235 3354(57) 0.0003108 3085. 3240.
24.2404 24.2273 3410(57) 0.0003098 3085. 3235.
24.2442 24.2311 3347(56) 0.0003139 3084. 3231.
24.2479 24.2348 3298(56) 0.0003178 3083. 3227.
24.2517 24.2386 3224(55) 0.0003264 3083. 3223.
24.2554 24.2423 3269(56) 0.0003224 3082. 3220.
24.2592 24.2461 3281(55) 0.0003262 3082. 3216.
24.2630 24.2499 3301(56) 0.0003239 3081. 3213.
24.2667 24.2536 3395(57) 0.0003113 3081. 3210.
24.2705 24.2574 3207(55) 0.0003303 3080. 3207.
24.2742 24.2611 3223(56) 0.0003226 3079. 3204.
24.2780 24.2649 3165(55) 0.0003313 3079. 3202.
24.2818 24.2687 3217(56) 0.0003233 3078. 3200.
24.2855 24.2724 3299(56) 0.0003169 3078. 3197.
24.2893 24.2762 3324(57) 0.0003109 3077. 3196.
24.2930 24.2799 3195(55) 0.0003250 3077. 3194.
24.2968 24.2837 3300(56) 0.0003149 3076. 3192.
24.3006 24.2875 3265(56) 0.0003187 3075. 3191.
24.3043 24.2912 3252(55) 0.0003258 3075. 3190.
24.3081 24.2950 3197(55) 0.0003308 3074. 3190.
24.3118 24.2987 3201(55) 0.0003300 3074. 3189.
24.3156 24.3025 3106(54) 0.0003382 3073. 3190.
24.3194 24.3063 3162(55) 0.0003360 3073. 3191.
24.3231 24.3100 3226(56) 0.0003238 3072. 3192.
24.3269 24.3138 3292(56) 0.0003193 3071. 3196.
24.3306 24.3175 3302(56) 0.0003157 3071. 3202.
24.3344 24.3213 3372(57) 0.0003070 3070. 3214.
24.3382 24.3251 3217(56) 0.0003220 3070. 3241.
24.3419 24.3288 3246(56) 0.0003199 3069. 3304.
24.3457 24.3326 3296(56) 0.0003149 3069. 3405.
24.3494 24.3363 3490(58) 0.0002996 3068. 3547.
24.3532 24.3401 3671(59) 0.0002839 3067. 3701.
24.3570 24.3439 3729(60) 0.0002795 3067. 3781.
24.3607 24.3476 3714(60) 0.0002778 3066. 3722.
24.3645 24.3514 3522(58) 0.0002955 3066. 3573.
24.3682 24.3551 3417(57) 0.0003073 3065. 3428.
24.3720 24.3589 3437(57) 0.0003041 3065. 3328.
24.3758 24.3627 3257(56) 0.0003217 3064. 3266.
24.3795 24.3664 3308(56) 0.0003177 3064. 3237.
24.3833 24.3702 3240(55) 0.0003256 3063. 3225.
24.3870 24.3739 3202(55) 0.0003265 3062. 3219.
24.3908 24.3777 3155(55) 0.0003277 3062. 3218.
24.3946 24.3815 3128(55) 0.0003353 3061. 3218.
24.3983 24.3852 3262(56) 0.0003196 3061. 3219.
24.4021 24.3890 3183(55) 0.0003271 3060. 3222.
24.4058 24.3927 3215(55) 0.0003267 3060. 3226.
24.4096 24.3965 3259(56) 0.0003187 3059. 3231.
24.4134 24.4003 3255(55) 0.0003249 3059. 3237.
24.4171 24.4040 3380(57) 0.0003113 3058. 3245.
24.4209 24.4078 3228(55) 0.0003272 3057. 3263.
24.4246 24.4115 3295(56) 0.0003191 3057. 3274.
24.4284 24.4153 3171(54) 0.0003372 3056. 3288.
24.4322 24.4191 3402(57) 0.0003039 3056. 3305.
24.4359 24.4228 3289(56) 0.0003223 3055. 3324.
24.4397 24.4266 3381(57) 0.0003083 3055. 3349.
24.4434 24.4303 3225(56) 0.0003226 3054. 3378.
24.4472 24.4341 3391(57) 0.0003067 3054. 3416.
24.4510 24.4379 3394(57) 0.0003083 3053. 3463.
24.4547 24.4416 3524(58) 0.0002952 3052. 3522.
24.4585 24.4454 3576(59) 0.0002901 3052. 3602.
24.4623 24.4492 3602(59) 0.0002883 3051. 3706.
24.4660 24.4529 3852(61) 0.0002692 3051. 3866.
24.4698 24.4567 4106(63) 0.0002518 3050. 4150.
24.4735 24.4604 4416(65) 0.0002343 3050. 4697.
24.4773 24.4642 5430(72) 0.0001912 3049. 5842.
24.4811 24.4680 7393(85) 0.0001388 3049. 7997.
24.4848 24.4717 10950(100) 0.0000935 3048. 11295.
24.4886 24.4755 15760(130) 0.0000645 3047. 15515.
24.4923 24.4792 19380(140) 0.0000519 3047. 18943.
24.4961 24.4830 19050(140) 0.0000531 3046. 19377.
24.4999 24.4868 15510(120) 0.0000660 3046. 16314.
24.5036 24.4905 11430(110) 0.0000890 3045. 12180.
24.5074 24.4943 8523(91) 0.0001217 3045. 8556.
24.5111 24.4980 6484(79) 0.0001590 3044. 6214.
24.5149 24.5018 5546(73) 0.0001862 3044. 4884.
24.5187 24.5056 4619(67) 0.0002236 3043. 4229.
24.5224 24.5093 4165(63) 0.0002497 3043. 3914.
24.5262 24.5131 3777(60) 0.0002755 3042. 3732.
24.5299 24.5168 3779(60) 0.0002733 3041. 3618.
24.5337 24.5206 3631(59) 0.0002891 3041. 3533.
24.5375 24.5244 3468(58) 0.0002995 3040. 3469.
24.5412 24.5281 3480(58) 0.0002954 3040. 3421.
24.5450 24.5319 3361(57) 0.0003088 3039. 3381.
24.5487 24.5356 3413(57) 0.0003036 3039. 3351.
24.5525 24.5394 3323(57) 0.0003106 3038. 3325.
24.5563 24.5432 3425(58) 0.0002982 3038. 3304.
24.5600 24.5469 3341(57) 0.0003041 3037. 3288.
24.5638 24.5507 3256(56) 0.0003232 3037. 3273.
24.5675 24.5544 3347(57) 0.0003111 3036. 3262.
24.5713 24.5582 3331(57) 0.0003093 3035. 3252.
24.5751 24.5620 3313(57) 0.0003072 3035. 3244.
24.5788 24.5657 3243(56) 0.0003160 3034. 3237.
24.5826 24.5695 3193(55) 0.0003262 3034. 3232.
24.5863 24.5732 3347(56) 0.0003135 3033. 3227.
24.5901 24.5770 3305(57) 0.0003106 3033. 3224.
24.5939 24.5808 3147(55) 0.0003308 3032. 3221.
24.5976 24.5845 3245(56) 0.0003177 3032. 3220.
24.6014 24.5883 3234(56) 0.0003200 3031. 3219.
24.6051 24.5920 3257(56) 0.0003140 3031. 3219.
24.6089 24.5958 3262(56) 0.0003206 3030. 3219.
24.6127 24.5996 3230(56) 0.0003238 3029. 3220.
24.6164 24.6033 3344(57) 0.0003053 3029. 3222.
24.6202 24.6071 3205(55) 0.0003280 3028. 3225.
24.6240 24.6109 3286(56) 0.0003165 3028. 3228.
24.6277 24.6146 3218(56) 0.0003216 3027. 3232.
24.6315 24.6184 3360(57) 0.0003056 3027. 3237.
24.6352 24.6221 3348(57) 0.0003112 3026. 3243.
24.6390 24.6259 3308(57) 0.0003119 3026. 3250.
24.6428 24.6297 3300(56) 0.0003152 3025. 3259.
24.6465 24.6334 3335(57) 0.0003103 3025. 3269.
24.6503 24.6372 3295(57) 0.0003112 3024. 3281.
24.6540 24.6409 3379(57) 0.0003040 3024. 3294.
24.6578 24.6447 3459(58) 0.0002954 3023. 3311.
24.6616 24.6485 3393(57) 0.0003025 3022. 3330.
24.6653 24.6522 3381(57) 0.0003052 3022. 3346.
24.6691 24.6560 3448(57) 0.0003035 3021. 3374.
24.6728 24.6597 3469(58) 0.0002974 3021. 3408.
24.6766 24.6635 3468(59) 0.0002920 3020. 3450.
24.6804 24.6673 3527(58) 0.0002956 3020. 3504.
24.6841 24.6710 3562(59) 0.0002870 3019. 3570.
24.6879 24.6748 3740(61) 0.0002703 3019. 3659.
24.6916 24.6785 3869(61) 0.0002684 3018. 3777.
24.6954 24.6823 3961(62) 0.0002570 3018. 3962.
24.6992 24.6861 4183(64) 0.0002479 3017. 4285.
24.7029 24.6898 4857(69) 0.0002102 3017. 4899.
24.7067 24.6936 5581(74) 0.0001847 3016. 6147.
24.7104 24.6973 7737(86) 0.0001359 3016. 8325.
24.7142 24.7011 11090(110) 0.0000915 3015. 11727.
24.7180 24.7049 16260(130) 0.0000622 3015. 15856.
24.7217 24.7086 19490(140) 0.0000512 3014. 19057.
24.7255 24.7124 19380(140) 0.0000504 3013. 19274.
24.7293 24.7162 15640(130) 0.0000640 3013. 16217.
24.7330 24.7199 11720(110) 0.0000863 3012. 12190.
24.7368 24.7237 8577(91) 0.0001210 3012. 8672.
24.7405 24.7274 6763(81) 0.0001530 3011. 6373.
24.7443 24.7312 5483(73) 0.0001888 3011. 5039.
24.7481 24.7350 4805(68) 0.0002151 3010. 4369.
24.7518 24.7387 4351(65) 0.0002366 3010. 4041.
24.7556 24.7425 3967(62) 0.0002612 3009. 3853.
24.7593 24.7462 3861(61) 0.0002671 3009. 3737.
24.7631 24.7500 3795(60) 0.0002748 3008. 3654.
24.7669 24.7538 3758(61) 0.0002716 3008. 3592.
24.7706 24.7575 3597(59) 0.0002860 3007. 3548.
24.7744 24.7613 3542(59) 0.0002918 3007. 3513.
24.7781 24.7650 3575(59) 0.0002868 3006. 3488.
24.7819 24.7688 3511(58) 0.0002957 3006. 3469.
24.7857 24.7726 3535(58) 0.0002929 3005. 3456.
24.7894 24.7763 3641(59) 0.0002841 3005. 3447.
24.7932 24.7801 3556(58) 0.0002937 3004. 3442.
24.7969 24.7838 3565(59) 0.0002912 3003. 3440.
24.8007 24.7876 3559(59) 0.0002906 3003. 3441.
24.8045 24.7914 3519(58) 0.0002942 3002. 3445.
24.8082 24.7951 3431(57) 0.0003025 3002. 3451.
24.8120 24.7989 3499(58) 0.0002933 3001. 3460.
24.8158 24.8027 3565(58) 0.0002930 3001. 3471.
24.8195 24.8064 3506(58) 0.0002943 3000. 3485.
24.8233 24.8102 3587(59) 0.0002891 3000. 3500.
24.8270 24.8139 3598(59) 0.0002864 2999. 3519.
24.8308 24.8177 3563(58) 0.0002925 2999. 3540.
24.8346 24.8215 3640(60) 0.0002771 2998. 3564.
24.8383 24.8252 3700(59) 0.0002829 2998. 3591.
24.8421 24.8290 3829(61) 0.0002709 2997. 3622.
24.8458 24.8327 3821(61) 0.0002718 2997. 3656.
24.8496 24.8365 3870(61) 0.0002688 2996. 3696.
24.8534 24.8403 3943(61) 0.0002661 2996. 3740.
24.8571 24.8440 3966(62) 0.0002577 2995. 3785.
24.8609 24.8478 4019(63) 0.0002540 2995. 3843.
24.8646 24.8515 4074(63) 0.0002522 2994. 3907.
24.8684 24.8553 4229(64) 0.0002418 2994. 3982.
24.8722 24.8591 4288(64) 0.0002409 2993. 4069.
24.8759 24.8628 4504(66) 0.0002270 2993. 4167.
24.8797 24.8666 4389(65) 0.0002357 2992. 4285.
24.8835 24.8704 4626(67) 0.0002233 2992. 4424.
24.8872 24.8741 4661(67) 0.0002211 2991. 4585.
24.8910 24.8779 5088(70) 0.0002015 2991. 4784.
24.8947 24.8816 5140(71) 0.0002009 2990. 5019.
24.8985 24.8854 5526(73) 0.0001862 2989. 5319.
24.9023 24.8892 5940(76) 0.0001721 2989. 5698.
24.9060 24.8929 6436(79) 0.0001594 2988. 6175.
24.9098 24.8967 7165(84) 0.0001433 2988. 6844.
24.9135 24.9004 8124(89) 0.0001270 2987. 7838.
24.9173 24.9042 9929(99) 0.0001025 2987. 9705.
24.9211 24.9080 12870(110) 0.0000790 2986. 13699.
24.9248 24.9117 19260(140) 0.0000520 2986. 21875.
24.9286 24.9155 33290(180) 0.0000295 2985. 37360.
24.9323 24.9192 56430(250) 0.0000166 2985. 59834.
24.9361 24.9230 82810(300) 0.0000110 2984. 85272.
24.9399 24.9268 93520(330) 9.50e-6 2984. 100097.
24.9436 24.9305 84980(310) 0.0000106 2983. 93190.
24.9474 24.9343 63500(260) 0.0000146 2983. 71645.
24.9512 24.9381 47550(220) 0.0000203 2982. 51010.
24.9549 24.9418 39340(200) 0.0000246 2982. 40703.
24.9587 24.9456 42320(210) 0.0000232 2981. 42550.
24.9624 24.9493 55530(240) 0.0000169 2981. 54026.
24.9662 24.9531 73030(280) 0.0000127 2980. 69351.
24.9700 24.9569 77200(290) 0.0000120 2980. 77792.
24.9737 24.9606 67960(270) 0.0000135 2979. 71561.
24.9775 24.9644 51250(230) 0.0000185 2979. 55048.
24.9812 24.9681 37580(200) 0.0000263 2978. 38344.
24.9850 24.9719 27370(170) 0.0000363 2978. 25573.
24.9888 24.9757 21430(150) 0.0000473 2977. 18307.
24.9925 24.9794 18020(130) 0.0000559 2977. 15720.
24.9963 24.9832 17710(130) 0.0000568 2976. 17057.
25.0000 24.9869 21060(140) 0.0000480 2976. 22831.
25.0038 24.9907 31310(180) 0.0000315 2975. 34665.
25.0076 24.9945 50920(230) 0.0000188 2975. 52585.
25.0113 24.9982 74830(290) 0.0000123 2974. 72116.
25.0151 25.0020 85460(310) 0.0000103 2974. 84772.
25.0189 25.0058 77810(290) 0.0000116 2973. 79891.
25.0226 25.0095 56980(250) 0.0000165 2973. 62055.
25.0264 25.0133 39390(200) 0.0000244 2972. 41608.
25.0301 25.0170 26020(160) 0.0000385 2972. 26115.
25.0339 25.0208 18250(130) 0.0000556 2971. 16165.
25.0377 25.0246 13130(110) 0.0000769 2971. 10936.
25.0414 25.0283 9950(97) 0.0001062 2970. 8422.
25.0452 25.0321 7717(87) 0.0001334 2970. 7085.
25.0489 25.0358 6498(80) 0.0001581 2969. 6307.
25.0527 25.0396 5802(75) 0.0001796 2969. 5753.
25.0565 25.0434 5617(74) 0.0001833 2968. 5340.
25.0602 25.0471 5016(69) 0.0002098 2968. 5024.
25.0640 25.0509 4812(67) 0.0002203 2967. 4765.
25.0677 25.0546 4412(65) 0.0002369 2967. 4559.
25.0715 25.0584 4411(65) 0.0002376 2966. 4384.
25.0753 25.0622 4373(65) 0.0002386 2966. 4238.
25.0790 25.0659 4174(63) 0.0002482 2965. 4117.
25.0828 25.0697 4131(63) 0.0002536 2965. 4011.
25.0866 25.0735 3948(62) 0.0002592 2964. 3920.
25.0903 25.0772 3949(62) 0.0002606 2964. 3843.
25.0941 25.0810 3878(61) 0.0002670 2963. 3774.
25.0978 25.0847 3807(60) 0.0002733 2963. 3715.
25.1016 25.0885 3866(61) 0.0002685 2962. 3662.
25.1054 25.0923 3831(61) 0.0002699 2962. 3617.
25.1091 25.0960 3652(59) 0.0002840 2961. 3581.
25.1129 25.0998 3587(59) 0.0002879 2961. 3552.
25.1166 25.1035 3624(59) 0.0002878 2960. 3529.
25.1204 25.1073 3538(58) 0.0002954 2960. 3508.
25.1242 25.1111 3542(59) 0.0002913 2959. 3482.
25.1279 25.1148 3490(58) 0.0002958 2959. 3448.
25.1317 25.1186 3559(59) 0.0002890 2958. 3411.
25.1355 25.1224 3354(57) 0.0003055 2958. 3377.
25.1392 25.1261 3454(58) 0.0003002 2957. 3348.
25.1430 25.1299 3363(57) 0.0003091 2957. 3323.
25.1467 25.1336 3440(57) 0.0003025 2956. 3303.
25.1505 25.1374 3424(57) 0.0003028 2956. 3285.
25.1543 25.1412 3351(56) 0.0003133 2955. 3269.
25.1580 25.1449 3404(57) 0.0003040 2955. 3254.
25.1618 25.1487 3234(56) 0.0003243 2954. 3240.
25.1655 25.1524 3306(57) 0.0003118 2954. 3228.
25.1693 25.1562 3308(56) 0.0003186 2953. 3216.
25.1731 25.1600 3214(56) 0.0003233 2953. 3204.
25.1768 25.1637 3220(56) 0.0003243 2952. 3194.
25.1806 25.1675 3250(56) 0.0003208 2952. 3184.
25.1843 25.1712 3279(56) 0.0003141 2951. 3175.
25.1881 25.1750 3225(56) 0.0003228 2951. 3166.
25.1919 25.1788 3365(57) 0.0003104 2950. 3157.
25.1956 25.1825 3368(57) 0.0003109 2950. 3150.
25.1994 25.1863 3220(56) 0.0003235 2949. 3142.
25.2032 25.1901 3211(55) 0.0003262 2949. 3135.
25.2069 25.1938 3169(55) 0.0003296 2948. 3128.
25.2107 25.1976 3242(56) 0.0003206 2948. 3122.
25.2144 25.2013 3236(56) 0.0003225 2947. 3116.
25.2182 25.2051 3178(56) 0.0003214 2947. 3110.
25.2220 25.2089 3099(55) 0.0003342 2946. 3104.
25.2257 25.2126 3106(55) 0.0003345 2946. 3099.
25.2295 25.2164 3187(55) 0.0003249 2945. 3093.
25.2332 25.2201 3070(54) 0.0003387 2945. 3089.
25.2370 25.2239 3202(55) 0.0003292 2945. 3084.
25.2408 25.2277 3056(54) 0.0003369 2944. 3079.
25.2445 25.2314 3238(56) 0.0003220 2944. 3075.
25.2483 25.2352 3106(54) 0.0003392 2943. 3071.
25.2521 25.2390 3110(54) 0.0003376 2943. 3067.
25.2558 25.2427 3094(55) 0.0003344 2942. 3063.
25.2596 25.2465 3066(54) 0.0003438 2942. 3059.
25.2633 25.2502 3004(54) 0.0003414 2941. 3062.
25.2671 25.2540 3071(54) 0.0003382 2941. 3058.
25.2709 25.2578 3107(54) 0.0003375 2940. 3055.
25.2746 25.2615 3049(54) 0.0003436 2940. 3052.
25.2784 25.2653 3096(55) 0.0003332 2939. 3049.
25.2821 25.2690 3067(54) 0.0003385 2939. 3046.
25.2859 25.2728 3096(55) 0.0003312 2938. 3043.
25.2897 25.2766 3233(56) 0.0003219 2938. 3040.
25.2934 25.2803 3092(54) 0.0003377 2937. 3037.
25.2972 25.2841 3082(55) 0.0003299 2937. 3035.
25.3010 25.2879 2973(53) 0.000353 2936. 3032.
25.3047 25.2916 3029(54) 0.0003403 2936. 3030.
25.3085 25.2954 3082(55) 0.0003362 2935. 3026.
25.3122 25.2991 3031(54) 0.0003412 2935. 3024.
25.3160 25.3029 3058(54) 0.0003394 2934. 3022.
25.3198 25.3067 3020(54) 0.0003436 2934. 3020.
25.3235 25.3104 3152(55) 0.0003324 2933. 3018.
25.3273 25.3142 3071(54) 0.0003391 2933. 3016.
25.3310 25.3179 3020(54) 0.0003433 2932. 3014.
25.3348 25.3217 3098(55) 0.0003295 2932. 3012.
25.3386 25.3255 3047(54) 0.0003427 2932. 3010.
25.3423 25.3292 2952(54) 0.0003492 2931. 3008.
25.3461 25.3330 3042(54) 0.0003409 2931. 3006.
25.3498 25.3367 3063(55) 0.0003351 2930. 3005.
25.3536 25.3405 3089(55) 0.0003341 2930. 3003.
25.3574 25.3443 3034(54) 0.0003398 2929. 3001.
25.3611 25.3480 3087(55) 0.0003298 2929. 3000.
25.3649 25.3518 3054(54) 0.0003374 2928. 2998.
25.3687 25.3556 3103(55) 0.0003292 2928. 3000.
25.3724 25.3593 2986(54) 0.0003433 2927. 2999.
25.3762 25.3631 2932(53) 0.0003500 2927. 2997.
25.3799 25.3668 2984(54) 0.0003452 2926. 2996.
25.3837 25.3706 3120(55) 0.0003325 2926. 2994.
25.3875 25.3744 3092(54) 0.0003443 2925. 2993.
25.3912 25.3781 3032(54) 0.0003404 2925. 2992.
25.3950 25.3819 3032(54) 0.0003426 2924. 2991.
25.3987 25.3856 3065(55) 0.0003360 2924. 2989.
25.4025 25.3894 2893(53) 0.000361 2923. 2988.
25.4063 25.3932 2989(54) 0.0003436 2923. 2987.
25.4100 25.3969 3073(54) 0.0003408 2923. 2986.
25.4138 25.4007 2998(54) 0.0003453 2922. 2985.
25.4176 25.4045 2969(53) 0.0003506 2922. 2984.
25.4213 25.4082 3033(54) 0.0003441 2921. 2982.
25.4251 25.4120 2978(54) 0.0003493 2921. 2981.
25.4288 25.4157 2950(53) 0.0003495 2920. 2980.
25.4326 25.4195 2975(53) 0.0003507 2920. 2979.
25.4364 25.4233 3066(54) 0.0003392 2919. 2978.
25.4401 25.4270 2925(53) 0.000357 2919. 2977.
25.4439 25.4308 2990(54) 0.0003478 2918. 2977.
25.4476 25.4345 2947(53) 0.000353 2918. 2976.
25.4514 25.4383 2919(53) 0.000358 2917. 2975.
25.4552 25.4421 3001(53) 0.000353 2917. 2974.
25.4589 25.4458 3035(54) 0.0003464 2916. 2973.
25.4627 25.4496 3109(55) 0.0003356 2916. 2972.
25.4665 25.4534 3077(54) 0.0003420 2915. 2971.
25.4702 25.4571 3036(54) 0.0003448 2915. 2971.
25.4740 25.4609 3048(54) 0.0003455 2915. 2970.
25.4777 25.4646 2983(54) 0.0003476 2914. 2969.
25.4815 25.4684 2947(53) 0.000354 2914. 2968.
25.4853 25.4722 2969(54) 0.0003483 2913. 2968.
25.4890 25.4759 2935(53) 0.000355 2913. 2967.
25.4928 25.4797 2936(53) 0.000351 2912. 2966.
25.4965 25.4834 2933(53) 0.000353 2912. 2966.
25.5003 25.4872 2975(52) 0.000366 2911. 2965.
25.5041 25.4910 3040(54) 0.0003435 2911. 2964.
25.5078 25.4947 2978(53) 0.000354 2910. 2964.
25.5116 25.4985 2983(53) 0.000351 2910. 2963.
25.5153 25.5022 2958(53) 0.000356 2909. 2963.
25.5191 25.5060 2917(53) 0.000352 2909. 2962.
25.5229 25.5098 2957(54) 0.0003471 2909. 2962.
25.5266 25.5135 2911(53) 0.000356 2908. 2961.
25.5304 25.5173 2996(54) 0.0003460 2908. 2961.
25.5342 25.5211 3045(54) 0.0003390 2907. 2960.
25.5379 25.5248 3011(54) 0.0003436 2907. 2959.
25.5417 25.5286 3000(54) 0.0003447 2906. 2958.
25.5454 25.5323 3007(54) 0.0003433 2906. 2958.
25.5492 25.5361 2880(52) 0.000366 2905. 2958.
25.5530 25.5399 2991(54) 0.0003452 2905. 2957.
25.5567 25.5436 2960(53) 0.0003503 2904. 2957.
25.5605 25.5474 3016(54) 0.0003484 2904. 2957.
25.5642 25.5511 2998(53) 0.0003499 2903. 2957.
25.5680 25.5549 2962(54) 0.0003490 2903. 2957.
25.5718 25.5587 2947(53) 0.000354 2903. 2956.
25.5755 25.5624 3067(54) 0.0003398 2902. 2956.
25.5793 25.5662 2929(53) 0.000355 2902. 2956.
25.5831 25.5700 2979(54) 0.0003470 2901. 2956.
25.5868 25.5737 3086(55) 0.0003362 2901. 2956.
25.5906 25.5775 2921(52) 0.000364 2900. 2956.
25.5943 25.5812 2935(54) 0.0003464 2900. 2957.
25.5981 25.5850 2968(52) 0.000365 2899. 2957.
25.6019 25.5888 3118(54) 0.0003394 2899. 2957.
25.6056 25.5925 3140(55) 0.0003270 2898. 2957.
25.6094 25.5963 3049(54) 0.0003413 2898. 2958.
25.6131 25.6000 3096(55) 0.0003317 2898. 2959.
25.6169 25.6038 3020(53) 0.0003501 2897. 2959.
25.6207 25.6076 2926(53) 0.000357 2897. 2960.
25.6244 25.6113 2960(53) 0.0003500 2896. 2962.
25.6282 25.6151 3018(54) 0.0003436 2896. 2963.
25.6320 25.6189 3022(54) 0.0003457 2895. 2965.
25.6357 25.6226 2967(53) 0.0003499 2895. 2967.
25.6395 25.6264 3022(54) 0.0003405 2894. 2970.
25.6432 25.6301 2975(54) 0.0003483 2894. 2973.
25.6470 25.6339 3040(54) 0.0003421 2893. 2978.
25.6508 25.6377 3018(54) 0.0003470 2893. 2984.
25.6545 25.6414 3090(55) 0.0003326 2893. 2997.
25.6583 25.6452 3024(54) 0.0003446 2892. 3011.
25.6620 25.6489 3060(54) 0.0003427 2892. 3036.
25.6658 25.6527 3059(55) 0.0003324 2891. 3085.
25.6696 25.6565 3104(55) 0.0003345 2891. 3180.
25.6733 25.6602 3408(57) 0.0003060 2890. 3335.
25.6771 25.6640 3491(58) 0.0002987 2890. 3558.
25.6808 25.6677 3826(61) 0.0002691 2889. 3797.
25.6846 25.6715 3995(62) 0.0002592 2889. 3958.
25.6884 25.6753 3918(62) 0.0002641 2888. 3918.
25.6921 25.6790 3695(60) 0.0002808 2888. 3717.
25.6959 25.6828 3472(58) 0.0002983 2888. 3472.
25.6997 25.6866 3350(57) 0.0003080 2887. 3272.
25.7034 25.6903 3242(56) 0.0003219 2887. 3143.
25.7072 25.6941 3049(55) 0.0003360 2886. 3069.
25.7109 25.6978 2998(54) 0.0003445 2886. 3032.
25.7147 25.7016 3030(54) 0.0003394 2885. 3013.
25.7185 25.7054 3077(54) 0.0003410 2885. 3002.
25.7222 25.7091 2936(53) 0.000354 2884. 2996.
25.7260 25.7129 3032(54) 0.0003385 2884. 2991.
25.7297 25.7166 2961(53) 0.000353 2884. 2989.
25.7335 25.7204 3076(55) 0.0003345 2883. 2986.
25.7373 25.7242 3018(54) 0.0003442 2883. 2985.
25.7410 25.7279 3016(54) 0.0003434 2882. 2984.
25.7448 25.7317 3027(54) 0.0003402 2882. 2984.
25.7486 25.7355 2928(53) 0.000361 2881. 2984.
25.7523 25.7392 3033(54) 0.0003454 2881. 2985.
25.7561 25.7430 2980(53) 0.000351 2880. 2981.
25.7598 25.7467 2957(53) 0.000355 2880. 2982.
25.7636 25.7505 2940(53) 0.000351 2880. 2983.
25.7674 25.7543 3052(54) 0.0003400 2879. 2985.
25.7711 25.7580 3007(54) 0.0003457 2879. 2986.
25.7749 25.7618 2995(54) 0.0003465 2878. 2988.
25.7786 25.7655 3009(54) 0.0003446 2878. 2991.
25.7824 25.7693 3064(54) 0.0003407 2877. 2993.
25.7862 25.7731 3096(55) 0.0003345 2877. 2991.
25.7899 25.7768 2969(53) 0.0003499 2876. 2994.
25.7937 25.7806 3072(54) 0.0003378 2876. 2997.
25.7974 25.7843 3086(54) 0.0003385 2876. 3000.
25.8012 25.7881 3072(54) 0.0003409 2875. 3004.
25.8050 25.7919 2978(53) 0.000353 2875. 3008.
25.8087 25.7956 3041(54) 0.0003386 2874. 3012.
25.8125 25.7994 2940(53) 0.000353 2874. 3017.
25.8163 25.8032 3138(55) 0.0003268 2873. 3022.
25.8200 25.8069 3063(54) 0.0003389 2873. 3027.
25.8238 25.8107 3095(54) 0.0003413 2872. 3033.
25.8275 25.8144 3022(54) 0.0003458 2872. 3039.
25.8313 25.8182 3178(55) 0.0003270 2872. 3042.
25.8351 25.8220 3086(54) 0.0003382 2871. 3049.
25.8388 25.8257 3104(55) 0.0003366 2871. 3058.
25.8426 25.8295 3072(55) 0.0003346 2870. 3067.
25.8463 25.8332 3105(55) 0.0003310 2870. 3077.
25.8501 25.8370 3130(55) 0.0003299 2869. 3088.
25.8539 25.8408 3090(55) 0.0003349 2869. 3100.
25.8576 25.8445 3122(55) 0.0003315 2869. 3114.
25.8614 25.8483 3199(56) 0.0003211 2868. 3129.
25.8651 25.8520 3194(56) 0.0003231 2868. 3146.
25.8689 25.8558 3206(55) 0.0003257 2867. 3165.
25.8727 25.8596 3236(56) 0.0003178 2867. 3187.
25.8764 25.8633 3198(55) 0.0003276 2866. 3212.
25.8802 25.8671 3200(56) 0.0003231 2866. 3242.
25.8840 25.8709 3315(56) 0.0003146 2865. 3277.
25.8877 25.8746 3440(58) 0.0003020 2865. 3318.
25.8915 25.8784 3440(57) 0.0003033 2865. 3372.
25.8952 25.8821 3390(57) 0.0003093 2864. 3444.
25.8990 25.8859 3580(59) 0.0002898 2864. 3559.
25.9028 25.8897 3689(60) 0.0002815 2863. 3761.
25.9065 25.8934 3991(62) 0.0002583 2863. 4107.
25.9103 25.8972 4421(66) 0.0002319 2862. 4685.
25.9140 25.9009 5356(72) 0.0001926 2862. 5459.
25.9178 25.9047 6257(78) 0.0001625 2862. 6325.
25.9216 25.9085 6756(80) 0.0001560 2861. 6901.
25.9253 25.9122 6624(80) 0.0001563 2861. 6859.
25.9291 25.9160 6205(78) 0.0001630 2860. 6365.
25.9328 25.9197 5622(74) 0.0001835 2860. 5877.
25.9366 25.9235 5736(75) 0.0001796 2859. 5715.
25.9404 25.9273 6048(77) 0.0001682 2859. 6215.
25.9441 25.9310 7291(84) 0.0001401 2859. 7800.
25.9479 25.9348 10120(100) 0.0001003 2858. 11281.
25.9517 25.9386 15740(120) 0.0000648 2858. 17243.
25.9554 25.9423 24830(160) 0.0000403 2857. 25159.
25.9592 25.9461 34710(190) 0.0000277 2857. 33229.
25.9629 25.9498 37770(200) 0.0000256 2856. 36859.
25.9667 25.9536 33230(190) 0.0000287 2856. 33327.
25.9705 25.9574 24740(160) 0.0000400 2856. 25314.
25.9742 25.9611 17100(130) 0.0000591 2855. 17424.
25.9780 25.9649 11860(110) 0.0000848 2855. 11448.
25.9817 25.9686 9074(94) 0.0001122 2854. 7989.
25.9855 25.9724 7232(84) 0.0001423 2854. 6197.
25.9893 25.9762 6045(77) 0.0001681 2853. 5394.
25.9930 25.9799 5325(72) 0.0001920 2853. 5050.
25.9968 25.9837 5197(72) 0.0001946 2853. 4897.
26.0005 25.9874 4818(69) 0.0002124 2852. 4851.
26.0043 25.9912 4999(70) 0.0002043 2852. 4879.
26.0081 25.9950 5050(70) 0.0002034 2851. 4975.
26.0118 25.9987 5098(71) 0.0002001 2851. 5136.
26.0156 26.0025 5520(74) 0.0001848 2850. 5384.
26.0194 26.0063 5930(76) 0.0001724 2850. 5737.
26.0231 26.0100 6290(79) 0.0001607 2850. 6230.
26.0269 26.0138 7003(83) 0.0001460 2849. 7000.
26.0306 26.0175 7980(88) 0.0001284 2849. 8263.
26.0344 26.0213 10286(99) 0.0001027 2848. 10664.
26.0382 26.0251 13280(120) 0.0000754 2848. 15209.
26.0419 26.0288 19220(140) 0.0000522 2847. 23000.
26.0457 26.0326 30620(180) 0.0000323 2847. 35424.
26.0494 26.0363 49040(230) 0.0000193 2847. 51319.
26.0532 26.0401 68320(280) 0.0000130 2846. 67890.
26.0570 26.0439 77840(290) 0.0000116 2846. 76939.
26.0607 26.0476 69800(280) 0.0000130 2845. 72135.
26.0645 26.0514 53390(240) 0.0000176 2845. 56991.
26.0682 26.0551 36960(200) 0.0000259 2845. 40402.
26.0720 26.0589 25340(160) 0.0000382 2844. 26481.
26.0758 26.0627 17820(130) 0.0000553 2844. 17105.
26.0795 26.0664 13250(120) 0.0000763 2843. 11729.
26.0833 26.0702 9760(99) 0.0001024 2843. 8740.
26.0870 26.0739 7818(87) 0.0001319 2842. 7179.
26.0908 26.0777 6441(80) 0.0001570 2842. 6237.
26.0946 26.0815 5734(75) 0.0001783 2842. 5613.
26.0983 26.0852 5168(71) 0.0002001 2841. 5165.
26.1021 26.0890 4691(67) 0.0002251 2841. 4810.
26.1059 26.0928 4494(66) 0.0002298 2840. 4531.
26.1096 26.0965 4423(66) 0.0002327 2840. 4314.
26.1134 26.1003 4021(63) 0.0002529 2839. 4134.
26.1171 26.1040 3962(62) 0.0002628 2839. 3989.
26.1209 26.1078 3746(61) 0.0002716 2839. 3866.
26.1247 26.1116 3816(61) 0.0002692 2838. 3762.
26.1284 26.1153 3566(59) 0.0002891 2838. 3676.
26.1322 26.1191 3667(60) 0.0002794 2837. 3600.
26.1359 26.1228 3468(58) 0.0002943 2837. 3536.
26.1397 26.1266 3583(59) 0.0002845 2837. 3480.
26.1435 26.1304 3318(57) 0.0003108 2836. 3430.
26.1472 26.1341 3445(58) 0.0002973 2836. 3387.
26.1510 26.1379 3287(56) 0.0003158 2835. 3349.
26.1547 26.1416 3322(57) 0.0003051 2835. 3316.
26.1585 26.1454 3403(58) 0.0003006 2834. 3285.
26.1623 26.1492 3356(57) 0.0003048 2834. 3258.
26.1660 26.1529 3205(57) 0.0003097 2834. 3235.
26.1698 26.1567 3231(56) 0.0003135 2833. 3214.
26.1735 26.1604 3220(56) 0.0003212 2833. 3195.
26.1773 26.1642 3286(56) 0.0003137 2832. 3179.
26.1811 26.1680 3209(56) 0.0003185 2832. 3167.
26.1848 26.1717 3259(56) 0.0003163 2832. 3159.
26.1886 26.1755 3261(56) 0.0003162 2831. 3159.
26.1923 26.1792 3241(55) 0.0003323 2831. 3168.
26.1961 26.1830 3188(55) 0.0003281 2830. 3187.
26.1999 26.1868 3312(57) 0.0003104 2830. 3210.
26.2036 26.1905 3276(57) 0.0003126 2830. 3224.
26.2074 26.1943 3391(58) 0.0003018 2829. 3214.
26.2112 26.1981 3260(56) 0.0003205 2829. 3180.
26.2149 26.2018 3265(56) 0.0003135 2828. 3140.
26.2187 26.2056 3199(56) 0.0003218 2828. 3104.
26.2224 26.2093 3167(56) 0.0003217 2827. 3078.
26.2262 26.2131 3063(54) 0.0003400 2827. 3060.
26.2300 26.2169 3086(55) 0.0003319 2827. 3049.
26.2337 26.2206 3028(54) 0.0003401 2826. 3041.
26.2375 26.2244 3133(56) 0.0003224 2826. 3035.
26.2412 26.2281 3003(54) 0.0003434 2825. 3031.
26.2450 26.2319 3025(54) 0.0003378 2825. 3027.
26.2488 26.2357 3115(55) 0.0003283 2825. 3024.
26.2525 26.2394 2976(54) 0.0003400 2824. 3022.
26.2563 26.2432 2990(54) 0.0003450 2824. 3020.
26.2600 26.2469 3078(55) 0.0003278 2823. 3018.
26.2638 26.2507 3073(55) 0.0003309 2823. 3017.
26.2676 26.2545 3107(55) 0.0003288 2823. 3016.
26.2713 26.2582 2941(54) 0.0003465 2822. 3016.
26.2751 26.2620 3063(55) 0.0003320 2822. 3016.
26.2788 26.2657 3003(55) 0.0003366 2821. 3017.
26.2826 26.2695 3038(55) 0.0003303 2821. 3018.
26.2864 26.2733 3005(54) 0.0003413 2821. 3020.
26.2901 26.2770 3051(55) 0.0003347 2820. 3022.
26.2939 26.2808 2860(53) 0.000356 2820. 3025.
26.2976 26.2845 3001(54) 0.0003458 2819. 3028.
26.3014 26.2883 3070(55) 0.0003321 2819. 3032.
26.3052 26.2921 3063(55) 0.0003299 2818. 3037.
26.3089 26.2958 3081(55) 0.0003289 2818. 3042.
26.3127 26.2996 3064(55) 0.0003327 2818. 3048.
26.3164 26.3033 3049(54) 0.0003371 2817. 3054.
26.3202 26.3071 3088(55) 0.0003335 2817. 3062.
26.3240 26.3109 3123(56) 0.0003214 2816. 3071.
26.3277 26.3146 3105(55) 0.0003322 2816. 3080.
26.3315 26.3184 3052(55) 0.0003313 2816. 3091.
26.3352 26.3221 3078(55) 0.0003282 2815. 3103.
26.3390 26.3259 3216(57) 0.0003108 2815. 3117.
26.3428 26.3297 3043(54) 0.0003403 2814. 3133.
26.3465 26.3334 3179(56) 0.0003164 2814. 3151.
26.3503 26.3372 3172(56) 0.0003230 2814. 3171.
26.3541 26.3410 3140(56) 0.0003219 2813. 3194.
26.3578 26.3447 3277(57) 0.0003059 2813. 3220.
26.3616 26.3485 3267(57) 0.0003127 2812. 3249.
26.3653 26.3522 3344(57) 0.0003038 2812. 3283.
26.3691 26.3560 3373(58) 0.0002947 2812. 3323.
26.3729 26.3598 3451(57) 0.0003056 2811. 3368.
26.3766 26.3635 3503(58) 0.0002953 2811. 3421.
26.3804 26.3673 3455(57) 0.0003042 2810. 3484.
26.3841 26.3710 3526(58) 0.0002965 2810. 3556.
26.3879 26.3748 3632(59) 0.0002857 2810. 3645.
26.3917 26.3786 3710(59) 0.0002832 2809. 3753.
26.3954 26.3823 4100(62) 0.0002566 2809. 3881.
26.3992 26.3861 4047(62) 0.0002578 2808. 4045.
26.4029 26.3898 4164(63) 0.0002524 2808. 4251.
26.4067 26.3936 4545(66) 0.0002271 2808. 4538.
26.4105 26.3974 4891(69) 0.0002111 2807. 4955.
26.4142 26.4011 5456(72) 0.0001913 2807. 5575.
26.4180 26.4049 6380(79) 0.0001623 2806. 6580.
26.4217 26.4086 7708(87) 0.0001332 2806. 8120.
26.4255 26.4124 9998(99) 0.0001028 2806. 10623.
26.4293 26.4162 12830(110) 0.0000801 2805. 14558.
26.4330 26.4199 17020(130) 0.0000599 2805. 20393.
26.4368 26.4237 24620(160) 0.0000405 2805. 29115.
26.4405 26.4274 37240(200) 0.0000262 2804. 40129.
26.4443 26.4312 50180(230) 0.0000190 2804. 51555.
26.4481 26.4350 56140(240) 0.0000168 2803. 57449.
26.4518 26.4387 50600(230) 0.0000189 2803. 53438.
26.4556 26.4425 38910(200) 0.0000247 2803. 42133.
26.4593 26.4462 27260(170) 0.0000361 2802. 29971.
26.4631 26.4500 18870(140) 0.0000529 2802. 19795.
26.4669 26.4538 13450(120) 0.0000754 2801. 12993.
26.4706 26.4575 10081(99) 0.0001030 2801. 9104.
26.4744 26.4613 7767(87) 0.0001332 2801. 6955.
26.4781 26.4650 6176(77) 0.0001675 2800. 5834.
26.4819 26.4688 5334(72) 0.0001944 2800. 5163.
26.4857 26.4726 4907(68) 0.0002137 2799. 4723.
26.4894 26.4763 4424(65) 0.0002350 2799. 4413.
26.4932 26.4801 4161(63) 0.0002493 2799. 4168.
26.4969 26.4838 3958(62) 0.0002621 2798. 3980.
26.5007 26.4876 3781(60) 0.0002778 2798. 3825.
26.5045 26.4914 3729(60) 0.0002796 2797. 3698.
26.5082 26.4951 3500(58) 0.0002947 2797. 3596.
26.5120 26.4989 3361(56) 0.0003143 2797. 3509.
26.5157 26.5026 3503(58) 0.0002954 2796. 3437.
26.5195 26.5064 3284(56) 0.0003154 2796. 3374.
26.5233 26.5102 3494(58) 0.0002966 2795. 3320.
26.5270 26.5139 3259(56) 0.0003177 2795. 3274.
26.5308 26.5177 3254(56) 0.0003173 2795. 3234.
26.5345 26.5214 3152(55) 0.0003329 2794. 3199.
26.5383 26.5252 3172(55) 0.0003269 2794. 3167.
26.5421 26.5290 3151(55) 0.0003273 2794. 3139.
26.5458 26.5327 3198(56) 0.0003228 2793. 3115.
26.5496 26.5365 3047(54) 0.0003395 2793. 3093.
26.5533 26.5402 3134(54) 0.0003376 2792. 3074.
26.5571 26.5440 3045(54) 0.0003412 2792. 3056.
26.5609 26.5478 3023(54) 0.0003456 2792. 3039.
26.5646 26.5515 3000(54) 0.0003440 2791. 3025.
26.5684 26.5553 3049(54) 0.0003416 2791. 3011.
26.5721 26.5590 3005(54) 0.0003448 2790. 2999.
26.5759 26.5628 3013(54) 0.0003455 2790. 2988.
26.5797 26.5666 2999(54) 0.0003442 2790. 2978.
26.5834 26.5703 3078(53) 0.000353 2789. 2968.
26.5872 26.5741 2966(53) 0.000357 2789. 2960.
26.5909 26.5778 2963(54) 0.0003472 2789. 2952.
26.5947 26.5816 2967(53) 0.000352 2788. 2944.
26.5985 26.5854 2884(53) 0.000358 2788. 2937.
26.6022 26.5891 2882(53) 0.000360 2787. 2931.
26.6060 26.5929 2882(53) 0.000353 2787. 2924.
26.6097 26.5966 2935(54) 0.0003493 2787. 2919.
26.6135 26.6004 2933(53) 0.000355 2786. 2914.
26.6173 26.6042 2852(52) 0.000363 2786. 2909.
26.6210 26.6079 2883(53) 0.000358 2785. 2904.
26.6248 26.6117 2812(52) 0.000370 2785. 2900.
26.6285 26.6154 2929(54) 0.0003482 2785. 2896.
26.6323 26.6192 2909(54) 0.0003492 2784. 2892.
26.6361 26.6230 2910(53) 0.000358 2784. 2888.
26.6398 26.6267 2769(51) 0.000378 2784. 2885.
26.6436 26.6305 2823(52) 0.000366 2783. 2882.
26.6473 26.6342 2795(52) 0.000370 2783. 2879.
26.6511 26.6380 2919(53) 0.000353 2782. 2876.
26.6549 26.6418 2810(52) 0.000372 2782. 2873.
26.6586 26.6455 2900(53) 0.000354 2782. 2871.
26.6624 26.6493 2865(53) 0.000363 2781. 2868.
26.6661 26.6530 2921(53) 0.000352 2781. 2866.
26.6699 26.6568 2833(53) 0.000360 2780. 2864.
26.6736 26.6605 2875(53) 0.000360 2780. 2862.
26.6774 26.6643 2818(52) 0.000367 2780. 2860.
26.6812 26.6681 2834(53) 0.000358 2779. 2859.
26.6849 26.6718 2892(53) 0.000356 2779. 2857.
26.6887 26.6756 2891(52) 0.000365 2779. 2856.
26.6924 26.6793 2715(51) 0.000380 2778. 2855.
26.6962 26.6831 2842(52) 0.000364 2778. 2853.
26.7000 26.6869 2785(52) 0.000368 2777. 2852.
26.7037 26.6906 2870(53) 0.000358 2777. 2852.
26.7075 26.6944 2805(52) 0.000373 2777. 2851.
26.7112 26.6981 2769(52) 0.000376 2776. 2850.
26.7150 26.7019 2822(52) 0.000363 2776. 2850.
26.7188 26.7057 2906(53) 0.000356 2776. 2850.
26.7225 26.7094 2810(52) 0.000369 2775. 2850.
26.7263 26.7132 2824(53) 0.000361 2775. 2850.
26.7300 26.7169 2827(52) 0.000366 2774. 2850.
26.7338 26.7207 2951(53) 0.0003498 2774. 2851.
26.7376 26.7245 2726(51) 0.000377 2774. 2852.
26.7413 26.7282 2883(53) 0.000360 2773. 2853.
26.7451 26.7320 2824(52) 0.000368 2773. 2855.
26.7488 26.7357 2838(53) 0.000361 2773. 2857.
26.7526 26.7395 2805(53) 0.000358 2772. 2859.
26.7564 26.7433 2895(53) 0.000355 2772. 2862.
26.7601 26.7470 2839(52) 0.000363 2771. 2866.
26.7639 26.7508 2756(52) 0.000371 2771. 2870.
26.7676 26.7545 2851(53) 0.000362 2771. 2876.
26.7714 26.7583 2909(54) 0.0003481 2770. 2882.
26.7752 26.7621 2925(54) 0.0003460 2770. 2891.
26.7789 26.7658 2953(54) 0.0003463 2770. 2900.
26.7827 26.7696 2908(53) 0.000355 2769. 2913.
26.7864 26.7733 2904(53) 0.000352 2769. 2928.
26.7902 26.7771 2903(53) 0.000351 2768. 2948.
26.7939 26.7808 3005(54) 0.0003400 2768. 2973.
26.7977 26.7846 2943(53) 0.0003499 2768. 3006.
26.8015 26.7884 3006(54) 0.0003416 2767. 3054.
26.8052 26.7921 3019(54) 0.0003383 2767. 3127.
26.8090 26.7959 3290(57) 0.0003087 2767. 3267.
26.8127 26.7996 3395(57) 0.0003051 2766. 3540.
26.8165 26.8034 3856(61) 0.0002644 2766. 4096.
26.8203 26.8072 4674(68) 0.0002170 2766. 5085.
26.8240 26.8109 6377(79) 0.0001598 2765. 6510.
26.8278 26.8147 8559(91) 0.0001214 2765. 8228.
26.8315 26.8184 10210(100) 0.0000984 2764. 9542.
26.8353 26.8222 9725(98) 0.0001038 2764. 9669.
26.8391 26.8260 8272(90) 0.0001247 2764. 8466.
26.8428 26.8297 6608(81) 0.0001535 2763. 6804.
26.8466 26.8335 5240(72) 0.0001926 2763. 5286.
26.8503 26.8372 4402(66) 0.0002295 2763. 4255.
26.8541 26.8410 3959(62) 0.0002618 2762. 3647.
26.8579 26.8448 3398(57) 0.0003105 2762. 3347.
26.8616 26.8485 3322(57) 0.0003125 2761. 3217.
26.8654 26.8523 3052(54) 0.0003423 2761. 3171.
26.8691 26.8560 3172(55) 0.0003294 2761. 3190.
26.8729 26.8598 3218(55) 0.0003279 2760. 3287.
26.8766 26.8635 3436(57) 0.0003029 2760. 3490.
26.8804 26.8673 3674(59) 0.0002838 2760. 3830.
26.8842 26.8711 4257(64) 0.0002454 2759. 4270.
26.8879 26.8748 4740(67) 0.0002198 2759. 4677.
26.8917 26.8786 4878(68) 0.0002178 2759. 4851.
26.8954 26.8823 4619(67) 0.0002243 2758. 4651.
26.8992 26.8861 3971(61) 0.0002644 2758. 4208.
26.9030 26.8899 3577(59) 0.0002890 2757. 3745.
26.9067 26.8936 3320(56) 0.0003137 2757. 3391.
26.9105 26.8974 3022(54) 0.0003452 2757. 3152.
26.9142 26.9011 3069(54) 0.0003416 2756. 3019.
26.9180 26.9049 2890(53) 0.000360 2756. 2946.
26.9218 26.9087 2943(53) 0.000356 2756. 2906.
26.9255 26.9124 2900(53) 0.000359 2755. 2882.
26.9293 26.9162 2959(53) 0.000358 2755. 2865.
26.9330 26.9199 2811(52) 0.000373 2755. 2852.
26.9368 26.9237 2883(53) 0.000360 2754. 2842.
26.9405 26.9274 2799(52) 0.000373 2754. 2833.
26.9443 26.9312 2750(52) 0.000374 2753. 2826.
26.9481 26.9350 2716(51) 0.000378 2753. 2820.
26.9518 26.9387 2699(51) 0.000387 2753. 2815.
26.9556 26.9425 2807(52) 0.000370 2752. 2810.
26.9593 26.9462 2806(52) 0.000366 2752. 2806.
26.9631 26.9500 2820(52) 0.000369 2752. 2803.
26.9669 26.9538 2799(52) 0.000373 2751. 2800.
26.9706 26.9575 2800(52) 0.000371 2751. 2797.
26.9744 26.9613 2864(53) 0.000359 2751. 2794.
26.9781 26.9650 2625(50) 0.000402 2750. 2792.
26.9819 26.9688 2732(51) 0.000383 2750. 2790.
26.9857 26.9726 2643(50) 0.000397 2749. 2787.
26.9894 26.9763 2749(52) 0.000372 2749. 2786.
26.9932 26.9801 2763(52) 0.000376 2749. 2784.
26.9969 26.9838 2774(52) 0.000377 2748. 2782.
27.0007 26.9876 2764(52) 0.000375 2748. 2781.
27.0044 26.9913 2713(51) 0.000379 2748. 2779.
27.0082 26.9951 2773(52) 0.000372 2747. 2778.
27.0120 26.9989 2837(52) 0.000363 2747. 2777.
27.0157 27.0026 2708(51) 0.000378 2747. 2775.
27.0195 27.0064 2697(51) 0.000388 2746. 2774.
27.0232 27.0101 2763(52) 0.000376 2746. 2773.
27.0270 27.0139 2730(51) 0.000385 2746. 2772.
27.0308 27.0177 2711(51) 0.000377 2745. 2771.
27.0345 27.0214 2718(51) 0.000381 2745. 2770.
27.0383 27.0252 2838(53) 0.000361 2744. 2769.
27.0420 27.0289 2718(51) 0.000383 2744. 2768.
27.0458 27.0327 2677(51) 0.000389 2744. 2767.
27.0495 27.0364 2703(51) 0.000378 2743. 2766.
27.0533 27.0402 2561(49) 0.000411 2743. 2765.
27.0571 27.0440 2608(51) 0.000389 2743. 2764.
27.0608 27.0477 2669(50) 0.000395 2742. 2764.
27.0646 27.0515 2687(51) 0.000383 2742. 2763.
27.0683 27.0552 2597(50) 0.000400 2742. 2762.
27.0721 27.0590 2768(52) 0.000373 2741. 2761.
27.0759 27.0628 2709(51) 0.000380 2741. 2756.
27.0796 27.0665 2693(51) 0.000386 2741. 2755.
27.0834 27.0703 2686(52) 0.000376 2740. 2754.
27.0871 27.0740 2710(51) 0.000382 2740. 2754.
27.0909 27.0778 2708(51) 0.000382 2740. 2753.
27.0946 27.0815 2774(52) 0.000376 2739. 2752.
27.0984 27.0853 2704(51) 0.000383 2739. 2752.
27.1022 27.0891 2787(52) 0.000374 2738. 2751.
27.1059 27.0928 2775(52) 0.000376 2738. 2750.
27.1097 27.0966 2763(52) 0.000376 2738. 2750.
27.1134 27.1003 2754(52) 0.000374 2737. 2749.
27.1172 27.1041 2689(51) 0.000386 2737. 2749.
27.1209 27.1078 2727(51) 0.000379 2737. 2748.
27.1247 27.1116 2776(52) 0.000373 2736. 2748.
27.1285 27.1154 2706(51) 0.000380 2736. 2747.
27.1322 27.1191 2772(52) 0.000371 2736. 2747.
27.1360 27.1229 2736(51) 0.000384 2735. 2746.
27.1397 27.1266 2724(52) 0.000377 2735. 2745.
27.1435 27.1304 2782(52) 0.000370 2735. 2745.
27.1473 27.1342 2740(52) 0.000375 2734. 2744.
27.1510 27.1379 2732(52) 0.000373 2734. 2744.
27.1548 27.1417 2733(52) 0.000377 2734. 2743.
27.1585 27.1454 2681(51) 0.000381 2733. 2743.
27.1623 27.1492 2573(50) 0.000401 2733. 2742.
27.1660 27.1529 2708(51) 0.000381 2733. 2742.
27.1698 27.1567 2791(52) 0.000372 2732. 2741.
27.1736 27.1605 2614(50) 0.000402 2732. 2741.
27.1773 27.1642 2729(51) 0.000383 2731. 2740.
27.1811 27.1680 2717(51) 0.000379 2731. 2740.
27.1848 27.1717 2726(52) 0.000374 2731. 2739.
27.1886 27.1755 2649(50) 0.000394 2730. 2739.
27.1923 27.1792 2738(52) 0.000371 2730. 2738.
27.1961 27.1830 2658(51) 0.000385 2730. 2738.
27.1999 27.1868 2755(52) 0.000375 2729. 2738.
27.2036 27.1905 2703(51) 0.000386 2729. 2737.
27.2074 27.1943 2712(51) 0.000379 2729. 2737.
27.2111 27.1980 2657(51) 0.000383 2728. 2736.
27.2149 27.2018 2779(52) 0.000370 2728. 2736.
27.2187 27.2056 2726(52) 0.000377 2728. 2735.
27.2224 27.2093 2709(51) 0.000383 2727. 2735.
27.2262 27.2131 2728(51) 0.000380 2727. 2734.
27.2299 27.2168 2627(51) 0.000391 2727. 2734.
27.2337 27.2206 2734(51) 0.000380 2726. 2733.
27.2374 27.2243 2626(51) 0.000392 2726. 2733.
27.2412 27.2281 2727(51) 0.000380 2726. 2733.
27.2450 27.2319 2685(51) 0.000381 2725. 2732.
27.2487 27.2356 2718(52) 0.000373 2725. 2732.
27.2525 27.2394 2692(51) 0.000384 2725. 2731.
27.2562 27.2431 2744(52) 0.000375 2724. 2731.
27.2600 27.2469 2669(51) 0.000382 2724. 2730.
27.2637 27.2506 2690(51) 0.000390 2724. 2730.
27.2675 27.2544 2701(51) 0.000381 2723. 2730.
27.2713 27.2582 2759(52) 0.000370 2723. 2729.
27.2750 27.2619 2752(51) 0.000379 2723. 2729.
27.2788 27.2657 2691(51) 0.000385 2722. 2729.
27.2825 27.2694 2670(51) 0.000383 2722. 2728.
27.2863 27.2732 2643(51) 0.000382 2722. 2728.
27.2900 27.2769 2653(50) 0.000393 2721. 2728.
27.2938 27.2807 2565(50) 0.000404 2721. 2727.
27.2976 27.2845 2740(52) 0.000374 2720. 2727.
27.3013 27.2882 2509(49) 0.000410 2720. 2726.
27.3051 27.2920 2696(51) 0.000390 2720. 2726.
27.3088 27.2957 2594(51) 0.000392 2719. 2726.
27.3126 27.2995 2720(52) 0.000375 2719. 2725.
27.3163 27.3032 2580(50) 0.000396 2719. 2725.
27.3201 27.3070 2744(52) 0.000370 2718. 2725.
27.3239 27.3108 2711(52) 0.000375 2718. 2725.
27.3276 27.3145 2683(51) 0.000380 2718. 2724.
27.3314 27.3183 2688(51) 0.000387 2717. 2724.
27.3351 27.3220 2824(52) 0.000367 2717. 2723.
27.3389 27.3258 2731(51) 0.000377 2717. 2723.
27.3426 27.3295 2738(52) 0.000367 2716. 2723.
27.3464 27.3333 2613(51) 0.000389 2716. 2722.
27.3502 27.3371 2688(51) 0.000386 2716. 2722.
27.3539 27.3408 2727(51) 0.000378 2715. 2722.
27.3577 27.3446 2571(50) 0.000396 2715. 2721.
27.3614 27.3483 2693(50) 0.000397 2715. 2721.
27.3652 27.3521 2650(51) 0.000387 2714. 2720.
27.3689 27.3558 2684(51) 0.000383 2714. 2720.
27.3727 27.3596 2645(50) 0.000394 2714. 2720.
27.3765 27.3634 2693(51) 0.000383 2713. 2719.
27.3802 27.3671 2746(52) 0.000376 2713. 2719.
27.3840 27.3709 2672(51) 0.000389 2713. 2719.
27.3877 27.3746 2706(52) 0.000375 2712. 2718.
27.3915 27.3784 2625(51) 0.000390 2712. 2718.
27.3952 27.3821 2718(51) 0.000378 2712. 2718.
27.3990 27.3859 2683(51) 0.000387 2711. 2717.
27.4028 27.3897 2786(52) 0.000365 2711. 2717.
27.4065 27.3934 2677(51) 0.000387 2711. 2716.
27.4103 27.3972 2603(50) 0.000395 2710. 2716.
27.4140 27.4009 2626(51) 0.000391 2710. 2716.
27.4178 27.4047 2645(51) 0.000389 2710. 2715.
27.4215 27.4084 2633(51) 0.000387 2709. 2715.
27.4253 27.4122 2627(51) 0.000391 2709. 2715.
27.4291 27.4160 2517(49) 0.000409 2709. 2714.
27.4328 27.4197 2725(51) 0.000377 2708. 2714.
27.4366 27.4235 2716(51) 0.000379 2708. 2714.
27.4403 27.4272 2721(51) 0.000380 2708. 2713.
27.4441 27.4310 2658(51) 0.000390 2707. 2713.
27.4478 27.4347 2673(51) 0.000384 2707. 2713.
27.4516 27.4385 2676(51) 0.000383 2707. 2712.
27.4554 27.4423 2672(51) 0.000391 2706. 2712.
27.4591 27.4460 2564(50) 0.000394 2706. 2712.
27.4629 27.4498 2671(51) 0.000384 2706. 2711.
27.4666 27.4535 2669(51) 0.000386 2705. 2708.
27.4704 27.4573 2855(53) 0.000360 2705. 2708.
27.4741 27.4610 2603(50) 0.000398 2705. 2708.
27.4779 27.4648 2654(51) 0.000388 2704. 2707.
27.4816 27.4685 2654(51) 0.000390 2704. 2707.
27.4854 27.4723 2774(52) 0.000370 2704. 2707.
27.4892 27.4761 2567(49) 0.000412 2703. 2706.
27.4929 27.4798 2647(51) 0.000384 2703. 2706.
27.4967 27.4836 2615(51) 0.000388 2703. 2706.
27.5004 27.4873 2710(51) 0.000383 2702. 2705.
27.5042 27.4911 2602(50) 0.000395 2702. 2705.
27.5079 27.4948 2602(50) 0.000398 2702. 2705.
27.5117 27.4986 2635(51) 0.000390 2701. 2704.
27.5155 27.5024 2633(51) 0.000386 2701. 2704.
27.5192 27.5061 2593(50) 0.000399 2701. 2704.
27.5230 27.5099 2649(51) 0.000390 2701. 2704.
27.5267 27.5136 2708(52) 0.000376 2700. 2703.
27.5305 27.5174 2660(50) 0.000392 2700. 2703.
27.5342 27.5211 2722(51) 0.000384 2700. 2703.
27.5380 27.5249 2589(50) 0.000397 2699. 2703.
27.5417 27.5286 2548(50) 0.000407 2699. 2702.
27.5455 27.5324 2614(50) 0.000395 2699. 2702.
27.5493 27.5362 2676(51) 0.000384 2698. 2702.
27.5530 27.5399 2749(51) 0.000377 2698. 2701.
27.5568 27.5437 2663(51) 0.000388 2698. 2701.
27.5605 27.5474 2699(51) 0.000382 2697. 2701.
27.5643 27.5512 2654(50) 0.000393 2697. 2701.
27.5680 27.5549 2661(51) 0.000388 2697. 2700.
27.5718 27.5587 2633(51) 0.000389 2696. 2700.
27.5756 27.5625 2634(51) 0.000388 2696. 2700.
27.5793 27.5662 2606(50) 0.000395 2696. 2699.
27.5831 27.5700 2614(50) 0.000396 2695. 2699.
27.5868 27.5737 2686(51) 0.000391 2695. 2699.
27.5906 27.5775 2618(50) 0.000395 2695. 2699.
27.5943 27.5812 2642(51) 0.000388 2694. 2698.
27.5981 27.5850 2667(51) 0.000381 2694. 2698.
27.6018 27.5887 2602(51) 0.000391 2694. 2698.
27.6056 27.5925 2603(51) 0.000391 2693. 2698.
27.6094 27.5963 2627(51) 0.000389 2693. 2697.
27.6131 27.6000 2716(51) 0.000385 2693. 2697.
27.6169 27.6038 2647(50) 0.000394 2692. 2697.
27.6206 27.6075 2654(50) 0.000399 2692. 2697.
27.6244 27.6113 2697(51) 0.000380 2692. 2697.
27.6281 27.6150 2738(52) 0.000374 2691. 2696.
27.6319 27.6188 2604(51) 0.000390 2691. 2696.
27.6356 27.6225 2643(51) 0.000388 2691. 2696.
27.6394 27.6263 2720(52) 0.000375 2690. 2696.
27.6432 27.6301 2669(51) 0.000380 2690. 2695.
27.6469 27.6338 2683(51) 0.000389 2690. 2695.
27.6507 27.6376 2575(50) 0.000397 2690. 2695.
27.6544 27.6413 2674(51) 0.000388 2689. 2695.
27.6582 27.6451 2668(51) 0.000389 2689. 2694.
27.6619 27.6488 2587(50) 0.000405 2689. 2694.
27.6657 27.6526 2732(52) 0.000376 2688. 2694.
27.6694 27.6563 2628(51) 0.000392 2688. 2694.
27.6732 27.6601 2665(51) 0.000378 2688. 2694.
27.6770 27.6639 2637(50) 0.000393 2687. 2694.
27.6807 27.6676 2687(51) 0.000379 2687. 2694.
27.6845 27.6714 2605(50) 0.000398 2687. 2693.
27.6882 27.6751 2613(50) 0.000399 2686. 2693.
27.6920 27.6789 2616(51) 0.000392 2686. 2693.
27.6957 27.6826 2600(50) 0.000402 2686. 2693.
27.6995 27.6864 2759(52) 0.000376 2685. 2693.
27.7032 27.6901 2689(51) 0.000384 2685. 2693.
27.7070 27.6939 2622(51) 0.000388 2685. 2693.
27.7108 27.6977 2711(51) 0.000380 2684. 2693.
27.7145 27.7014 2669(51) 0.000385 2684. 2693.
27.7183 27.7052 2784(52) 0.000365 2684. 2693.
27.7220 27.7089 2664(51) 0.000385 2684. 2693.
27.7258 27.7127 2596(50) 0.000395 2683. 2693.
27.7295 27.7164 2703(51) 0.000383 2683. 2693.
27.7333 27.7202 2622(51) 0.000391 2683. 2694.
27.7370 27.7239 2617(51) 0.000390 2682. 2694.
27.7408 27.7277 2664(51) 0.000392 2682. 2694.
27.7446 27.7315 2697(51) 0.000382 2682. 2694.
27.7483 27.7352 2726(51) 0.000379 2681. 2695.
27.7521 27.7390 2600(51) 0.000390 2681. 2695.
27.7558 27.7427 2735(52) 0.000375 2681. 2696.
27.7596 27.7465 2651(51) 0.000389 2680. 2696.
27.7633 27.7502 2672(51) 0.000384 2680. 2697.
27.7671 27.7540 2589(50) 0.000400 2680. 2698.
27.7708 27.7577 2716(52) 0.000376 2679. 2699.
27.7746 27.7615 2702(52) 0.000375 2679. 2700.
27.7783 27.7652 2735(52) 0.000375 2679. 2701.
27.7821 27.7690 2614(51) 0.000392 2678. 2702.
27.7859 27.7728 2725(51) 0.000384 2678. 2704.
27.7896 27.7765 2616(50) 0.000392 2678. 2706.
27.7934 27.7803 2682(51) 0.000391 2678. 2708.
27.7958 27.7827 2603(50) 0.000404 2677. 2710.
27.7996 27.7865 2630(51) 0.000386 2677. 2713.
27.8033 27.7902 2768(52) 0.000369 2677. 2716.
27.8071 27.7940 2684(51) 0.000381 2676. 2720.
27.8109 27.7978 2771(52) 0.000367 2676. 2726.
27.8146 27.8015 2707(52) 0.000376 2676. 2732.
27.8184 27.8053 2701(51) 0.000377 2675. 2739.
27.8221 27.8090 2651(51) 0.000392 2675. 2748.
27.8259 27.8128 2670(51) 0.000388 2675. 2760.
27.8296 27.8165 2694(51) 0.000383 2675. 2776.
27.8334 27.8203 2881(54) 0.0003484 2674. 2797.
27.8372 27.8241 2913(54) 0.0003491 2674. 2829.
27.8409 27.8278 2810(52) 0.000369 2674. 2883.
27.8447 27.8316 2993(54) 0.0003444 2673. 2992.
27.8484 27.8353 3219(56) 0.0003159 2673. 3203.
27.8522 27.8391 3421(57) 0.0003118 2673. 3606.
27.8559 27.8428 4209(64) 0.0002430 2672. 4237.
27.8597 27.8466 5317(72) 0.0001921 2672. 5096.
27.8635 27.8504 6380(79) 0.0001622 2672. 5964.
27.8672 27.8541 6749(81) 0.0001516 2671. 6429.
27.8710 27.8579 6316(79) 0.0001622 2671. 6187.
27.8747 27.8616 5149(71) 0.0002006 2671. 5424.
27.8785 27.8654 4487(67) 0.0002256 2671. 4527.
27.8822 27.8691 3895(62) 0.0002618 2670. 3811.
27.8860 27.8729 3416(58) 0.0003002 2670. 3324.
27.8897 27.8766 3126(55) 0.0003317 2670. 3056.
27.8935 27.8804 2998(54) 0.0003387 2669. 2917.
27.8973 27.8842 2885(53) 0.000359 2669. 2849.
27.9010 27.8879 2794(52) 0.000368 2669. 2813.
27.9048 27.8917 2676(51) 0.000384 2668. 2791.
27.9085 27.8954 2745(52) 0.000375 2668. 2779.
27.9123 27.8992 2713(52) 0.000376 2668. 2774.
27.9160 27.9029 2637(51) 0.000389 2667. 2781.
27.9198 27.9067 2783(52) 0.000369 2667. 2801.
27.9236 27.9105 2852(53) 0.000360 2667. 2841.
27.9273 27.9142 2858(53) 0.000360 2667. 2897.
27.9311 27.9180 2968(54) 0.0003486 2666. 2958.
27.9348 27.9217 2921(53) 0.000355 2666. 2995.
27.9386 27.9255 2912(53) 0.000352 2666. 2984.
27.9423 27.9292 2817(52) 0.000364 2665. 2929.
27.9461 27.9330 2704(51) 0.000386 2665. 2860.
27.9499 27.9368 2622(51) 0.000386 2665. 2800.
27.9536 27.9405 2724(52) 0.000377 2664. 2759.
27.9574 27.9443 2675(51) 0.000385 2664. 2734.
27.9611 27.9480 2592(50) 0.000396 2664. 2720.
27.9649 27.9518 2661(51) 0.000389 2664. 2712.
27.9686 27.9555 2651(51) 0.000388 2663. 2708.
27.9724 27.9593 2640(51) 0.000392 2663. 2706.
27.9762 27.9631 2645(51) 0.000389 2663. 2704.
27.9799 27.9668 2715(51) 0.000389 2662. 2703.
27.9837 27.9706 2633(51) 0.000386 2662. 2702.
27.9874 27.9743 2649(51) 0.000383 2662. 2702.
27.9912 27.9781 2671(51) 0.000388 2661. 2702.
27.9949 27.9818 2607(50) 0.000394 2661. 2702.
27.9987 27.9856 2679(51) 0.000387 2661. 2702.
28.0024 27.9893 2643(51) 0.000388 2661. 2703.
28.0062 27.9931 2592(50) 0.000392 2660. 2704.
28.0100 27.9969 2596(50) 0.000399 2660. 2706.
28.0137 28.0006 2758(52) 0.000374 2660. 2708.
28.0175 28.0044 2683(51) 0.000379 2659. 2710.
28.0212 28.0081 2609(50) 0.000400 2659. 2713.
28.0225 28.0094 2681(50) 0.000394 2659. 2714.
28.0263 28.0132 2743(51) 0.000390 2659. 2717.
28.0300 28.0169 2703(51) 0.000387 2658. 2721.
28.0338 28.0207 2724(51) 0.000377 2658. 2726.
28.0376 28.0245 2618(50) 0.000397 2658. 2732.
28.0413 28.0282 2622(51) 0.000392 2657. 2739.
28.0451 28.0320 2577(50) 0.000402 2657. 2747.
28.0488 28.0357 2657(51) 0.000385 2657. 2756.
28.0526 28.0395 2779(52) 0.000370 2657. 2769.
28.0563 28.0432 2720(51) 0.000384 2656. 2783.
28.0601 28.0470 2756(52) 0.000372 2656. 2802.
28.0638 28.0507 2811(52) 0.000365 2656. 2824.
28.0676 28.0545 2632(50) 0.000399 2655. 2855.
28.0714 28.0583 2819(52) 0.000364 2655. 2896.
28.0751 28.0620 2842(52) 0.000365 2655. 2956.
28.0789 28.0658 3031(55) 0.0003339 2654. 3059.
28.0826 28.0695 3110(55) 0.0003315 2654. 3243.
28.0864 28.0733 3370(57) 0.0003125 2654. 3597.
28.0901 28.0770 3940(62) 0.0002631 2654. 4196.
28.0939 28.0808 4899(68) 0.0002193 2653. 5151.
28.0976 28.0845 6484(80) 0.0001571 2653. 6378.
28.1014 28.0883 8375(91) 0.0001216 2653. 7708.
28.1052 28.0921 8980(94) 0.0001127 2652. 8584.
28.1089 28.0958 8605(93) 0.0001166 2652. 8470.
28.1127 28.0996 7102(84) 0.0001425 2652. 7443.
28.1164 28.1033 5834(75) 0.0001783 2652. 6129.
28.1202 28.1071 4858(69) 0.0002120 2651. 4920.
28.1239 28.1108 4150(63) 0.0002503 2651. 4057.
28.1277 28.1146 3704(60) 0.0002798 2651. 3502.
28.1314 28.1183 3241(56) 0.0003196 2650. 3197.
28.1352 28.1221 3021(55) 0.0003331 2650. 3029.
28.1390 28.1259 2962(54) 0.0003484 2650. 2936.
28.1427 28.1296 2866(53) 0.0003507 2649. 2881.
28.1465 28.1334 2876(53) 0.000362 2649. 2842.
28.1502 28.1371 2839(52) 0.000365 2649. 2814.
28.1540 28.1409 2793(52) 0.000368 2649. 2791.
28.1577 28.1446 2762(52) 0.000370 2648. 2773.
28.1615 28.1484 2724(51) 0.000378 2648. 2758.
28.1652 28.1521 2638(51) 0.000390 2648. 2747.
28.1690 28.1559 2720(51) 0.000378 2647. 2737.
28.1728 28.1597 2655(51) 0.000391 2647. 2728.
28.1765 28.1634 2688(50) 0.000399 2647. 2721.
28.1803 28.1672 2625(50) 0.000395 2647. 2715.
28.1840 28.1709 2678(51) 0.000388 2646. 2710.
28.1878 28.1747 2640(51) 0.000386 2646. 2705.
28.1915 28.1784 2702(51) 0.000378 2646. 2702.
28.1953 28.1822 2715(52) 0.000377 2645. 2698.
28.1990 28.1859 2624(50) 0.000397 2645. 2696.
28.2028 28.1897 2663(51) 0.000389 2645. 2693.
28.2066 28.1935 2622(51) 0.000390 2645. 2691.
28.2103 28.1972 2688(51) 0.000383 2644. 2689.
28.2141 28.2010 2647(51) 0.000382 2644. 2688.
28.2178 28.2047 2644(51) 0.000392 2644. 2687.
28.2216 28.2085 2585(50) 0.000398 2643. 2686.
28.2253 28.2122 2660(51) 0.000386 2643. 2685.
28.2291 28.2160 2577(50) 0.000401 2643. 2685.
28.2328 28.2197 2734(52) 0.000370 2643. 2685.
28.2366 28.2235 2610(50) 0.000394 2642. 2685.
28.2404 28.2273 2612(50) 0.000396 2642. 2686.
28.2441 28.2310 2624(51) 0.000391 2642. 2687.
28.2479 28.2348 2684(51) 0.000380 2641. 2689.
28.2516 28.2385 2617(50) 0.000393 2641. 2691.
28.2554 28.2423 2591(50) 0.000399 2641. 2694.
28.2591 28.2460 2703(51) 0.000379 2640. 2697.
28.2629 28.2498 2666(51) 0.000385 2640. 2703.
28.2667 28.2536 2579(50) 0.000401 2640. 2709.
28.2704 28.2573 2739(52) 0.000374 2640. 2719.
28.2742 28.2611 2674(51) 0.000385 2639. 2733.
28.2779 28.2648 2686(52) 0.000374 2639. 2758.
28.2817 28.2686 2744(52) 0.000373 2639. 2804.
28.2854 28.2723 2782(52) 0.000370 2638. 2889.
28.2892 28.2761 2936(54) 0.0003462 2638. 3041.
28.2929 28.2798 3089(56) 0.0003217 2638. 3269.
28.2967 28.2836 3550(59) 0.0002852 2638. 3578.
28.3005 28.2874 3897(62) 0.0002634 2637. 3898.
28.3042 28.2911 4149(63) 0.0002483 2637. 4097.
28.3080 28.2949 4037(63) 0.0002491 2637. 4059.
28.3117 28.2986 3625(60) 0.0002780 2636. 3810.
28.3155 28.3024 3370(57) 0.0003035 2636. 3484.
28.3192 28.3061 3137(56) 0.0003243 2636. 3200.
28.3230 28.3099 3021(54) 0.0003372 2636. 2990.
28.3268 28.3137 2930(53) 0.000352 2635. 2860.
28.3305 28.3174 2825(53) 0.000359 2635. 2789.
28.3343 28.3212 2770(52) 0.000372 2635. 2751.
28.3380 28.3249 2626(51) 0.000386 2635. 2731.
28.3418 28.3287 2718(51) 0.000381 2634. 2719.
28.3455 28.3324 2706(52) 0.000370 2634. 2712.
28.3493 28.3362 2690(51) 0.000379 2634. 2707.
28.3530 28.3399 2618(51) 0.000391 2633. 2704.
28.3568 28.3437 2612(51) 0.000389 2633. 2703.
28.3606 28.3475 2720(52) 0.000373 2633. 2703.
28.3643 28.3512 2722(51) 0.000377 2633. 2706.
28.3681 28.3550 2535(50) 0.000404 2632. 2715.
28.3718 28.3587 2633(51) 0.000387 2632. 2732.
28.3756 28.3625 2753(52) 0.000364 2632. 2765.
28.3793 28.3662 2786(52) 0.000365 2631. 2818.
28.3831 28.3700 2753(52) 0.000372 2631. 2895.
28.3869 28.3738 2996(55) 0.0003352 2631. 2980.
28.3906 28.3775 3077(55) 0.0003302 2631. 3044.
28.3944 28.3813 2959(54) 0.0003477 2630. 3051.
28.3981 28.3850 2844(53) 0.000357 2630. 2997.
28.4019 28.3888 2884(53) 0.000355 2630. 2916.
28.4056 28.3925 2715(52) 0.000374 2629. 2842.
28.4094 28.3963 2707(52) 0.000377 2629. 2787.
28.4132 28.4001 2806(53) 0.000355 2629. 2755.
28.4169 28.4038 2652(51) 0.000390 2629. 2740.
28.4207 28.4076 2727(52) 0.000372 2628. 2735.
28.4244 28.4113 2715(52) 0.000375 2628. 2736.
28.4282 28.4151 2534(50) 0.000402 2628. 2740.
28.4319 28.4188 2773(52) 0.000363 2627. 2747.
28.4357 28.4226 2685(52) 0.000377 2627. 2756.
28.4395 28.4264 2664(51) 0.000382 2627. 2767.
28.4432 28.4301 2671(51) 0.000385 2627. 2781.
28.4470 28.4339 2791(53) 0.000361 2626. 2798.
28.4507 28.4376 2764(52) 0.000370 2626. 2818.
28.4545 28.4414 2809(52) 0.000367 2626. 2845.
28.4582 28.4451 2772(52) 0.000365 2626. 2877.
28.4620 28.4489 2865(53) 0.000356 2625. 2918.
28.4658 28.4527 2936(53) 0.0003506 2625. 2973.
28.4695 28.4564 3080(55) 0.0003321 2625. 3044.
28.4733 28.4602 3287(56) 0.0003189 2624. 3154.
28.4770 28.4639 3618(59) 0.0002845 2624. 3339.
28.4808 28.4677 3923(62) 0.0002576 2624. 3724.
28.4845 28.4714 4656(68) 0.0002154 2624. 4509.
28.4883 28.4752 6192(78) 0.0001635 2623. 6085.
28.4921 28.4790 9203(96) 0.0001091 2623. 8747.
28.4958 28.4827 14660(120) 0.0000650 2623. 12321.
28.4996 28.4865 20030(140) 0.0000494 2622. 16191.
28.5033 28.4902 22020(150) 0.0000451 2622. 18537.
28.5071 28.4940 20160(140) 0.0000480 2622. 17903.
28.5108 28.4977 15310(130) 0.0000636 2622. 14775.
28.5146 28.5015 11070(110) 0.0000904 2621. 10832.
28.5184 28.5053 7997(90) 0.0001228 2621. 7514.
28.5221 28.5090 6025(78) 0.0001659 2621. 5363.
28.5259 28.5128 4761(69) 0.0002112 2621. 4127.
28.5296 28.5165 3946(63) 0.0002515 2620. 3536.
28.5334 28.5203 3452(58) 0.0003022 2620. 3245.
28.5371 28.5240 3217(56) 0.0003160 2620. 3097.
28.5409 28.5278 3132(56) 0.0003234 2619. 3004.
28.5447 28.5316 2992(55) 0.0003327 2619. 2938.
28.5484 28.5353 2900(54) 0.0003468 2619. 2889.
28.5522 28.5391 2823(52) 0.000367 2619. 2850.
28.5559 28.5428 2814(53) 0.000354 2618. 2819.
28.5597 28.5466 2798(53) 0.000356 2618. 2794.
28.5634 28.5503 2740(53) 0.000362 2618. 2773.
28.5672 28.5541 2740(52) 0.000369 2618. 2756.
28.5710 28.5579 2753(52) 0.000370 2617. 2741.
28.5747 28.5616 2713(52) 0.000369 2617. 2728.
28.5785 28.5654 2684(51) 0.000378 2617. 2718.
28.5822 28.5691 2716(51) 0.000385 2616. 2708.
28.5860 28.5729 2656(51) 0.000384 2616. 2700.
28.5897 28.5766 2686(52) 0.000374 2616. 2693.
28.5935 28.5804 2624(50) 0.000393 2616. 2687.
28.5973 28.5842 2599(51) 0.000392 2615. 2681.
28.6010 28.5879 2639(51) 0.000392 2615. 2676.
28.6048 28.5917 2669(52) 0.000377 2615. 2672.
28.6085 28.5954 2568(51) 0.000391 2615. 2668.
28.6123 28.5992 2632(52) 0.000376 2614. 2664.
28.6160 28.6029 2668(52) 0.000376 2614. 2661.
28.6198 28.6067 2598(51) 0.000382 2614. 2658.
28.6236 28.6105 2668(51) 0.000381 2614. 2655.
28.6273 28.6142 2640(51) 0.000380 2613. 2653.
28.6311 28.6180 2580(50) 0.000393 2613. 2650.
28.6348 28.6217 2664(51) 0.000379 2613. 2648.
28.6386 28.6255 2593(51) 0.000387 2612. 2646.
28.6424 28.6293 2667(51) 0.000378 2612. 2645.
28.6461 28.6330 2652(52) 0.000375 2612. 2644.
28.6499 28.6368 2701(52) 0.000366 2612. 2642.
28.6536 28.6405 2641(51) 0.000385 2611. 2641.
28.6574 28.6443 2611(51) 0.000385 2611. 2640.
28.6611 28.6480 2605(51) 0.000387 2611. 2639.
28.6649 28.6518 2574(51) 0.000387 2611. 2638.
28.6687 28.6556 2636(51) 0.000388 2610. 2638.
28.6724 28.6593 2602(51) 0.000387 2610. 2639.
28.6762 28.6631 2575(50) 0.000394 2610. 2641.
28.6799 28.6668 2556(51) 0.000391 2609. 2647.
28.6837 28.6706 2627(51) 0.000383 2609. 2657.
28.6874 28.6743 2724(52) 0.000370 2609. 2672.
28.6912 28.6781 2731(52) 0.000364 2609. 2687.
28.6950 28.6819 2732(52) 0.000365 2608. 2698.
28.6987 28.6856 2699(52) 0.000374 2608. 2696.
28.7025 28.6894 2728(53) 0.000359 2608. 2683.
28.7062 28.6931 2676(52) 0.000369 2608. 2666.
28.7100 28.6969 2672(51) 0.000379 2607. 2650.
28.7138 28.7007 2696(52) 0.000376 2607. 2638.
28.7175 28.7044 2594(51) 0.000388 2607. 2632.
28.7213 28.7082 2618(51) 0.000385 2607. 2627.
28.7250 28.7119 2585(51) 0.000387 2606. 2625.
28.7288 28.7157 2504(50) 0.000401 2606. 2624.
28.7325 28.7194 2611(51) 0.000386 2606. 2623.
28.7363 28.7232 2536(51) 0.000388 2605. 2622.
28.7401 28.7270 2573(50) 0.000394 2605. 2621.
28.7438 28.7307 2606(51) 0.000382 2605. 2620.
28.7476 28.7345 2589(51) 0.000389 2605. 2620.
28.7513 28.7382 2678(52) 0.000376 2604. 2619.
28.7551 28.7420 2621(51) 0.000379 2604. 2619.
28.7589 28.7458 2596(51) 0.000387 2604. 2618.
28.7626 28.7495 2630(51) 0.000383 2604. 2618.
28.7664 28.7533 2584(51) 0.000390 2603. 2617.
28.7701 28.7570 2629(51) 0.000382 2603. 2617.
28.7739 28.7608 2557(50) 0.000393 2603. 2617.
28.7776 28.7645 2600(50) 0.000392 2603. 2616.
28.7814 28.7683 2585(51) 0.000387 2602. 2616.
28.7852 28.7721 2549(50) 0.000398 2602. 2616.
28.7889 28.7758 2558(50) 0.000395 2602. 2616.
28.7927 28.7796 2722(52) 0.000372 2602. 2616.
28.7964 28.7833 2573(51) 0.000391 2601. 2616.
28.8002 28.7871 2594(51) 0.000387 2601. 2616.
28.8040 28.7909 2529(50) 0.000399 2601. 2616.
28.8077 28.7946 2571(50) 0.000397 2601. 2616.
28.8115 28.7984 2491(49) 0.000411 2600. 2616.
28.8152 28.8021 2488(49) 0.000417 2600. 2617.
28.8190 28.8059 2468(50) 0.000406 2600. 2617.
28.8227 28.8096 2654(51) 0.000377 2599. 2618.
28.8265 28.8134 2522(51) 0.000388 2599. 2619.
28.8303 28.8172 2596(50) 0.000393 2599. 2620.
28.8340 28.8209 2570(51) 0.000387 2599. 2621.
28.8378 28.8247 2612(51) 0.000382 2598. 2623.
28.8415 28.8284 2665(52) 0.000371 2598. 2625.
28.8453 28.8322 2521(49) 0.000411 2598. 2628.
28.8491 28.8360 2508(50) 0.000404 2598. 2632.
28.8528 28.8397 2692(51) 0.000380 2597. 2637.
28.8566 28.8435 2642(51) 0.000380 2597. 2644.
28.8603 28.8472 2587(50) 0.000393 2597. 2655.
28.8641 28.8510 2635(51) 0.000382 2597. 2673.
28.8679 28.8548 2656(52) 0.000375 2596. 2707.
28.8716 28.8585 2706(52) 0.000372 2596. 2765.
28.8754 28.8623 2677(51) 0.000378 2596. 2863.
28.8791 28.8660 2930(54) 0.0003387 2596. 3002.
28.8829 28.8698 3164(57) 0.0003072 2595. 3182.
28.8866 28.8735 3383(59) 0.0002909 2595. 3360.
28.8904 28.8773 3526(59) 0.0002837 2595. 3476.
28.8942 28.8811 3337(57) 0.0003049 2595. 3454.
28.8979 28.8848 3291(58) 0.0003002 2594. 3314.
28.9017 28.8886 3066(56) 0.0003220 2594. 3126.
28.9054 28.8923 2841(54) 0.0003444 2594. 2958.
28.9092 28.8961 2750(53) 0.000363 2594. 2827.
28.9130 28.8999 2713(52) 0.000366 2593. 2744.
28.9167 28.9036 2616(51) 0.000383 2593. 2694.
28.9205 28.9074 2632(52) 0.000371 2593. 2666.
28.9242 28.9111 2660(52) 0.000371 2592. 2649.
28.9280 28.9149 2644(52) 0.000375 2592. 2639.
28.9318 28.9187 2546(50) 0.000397 2592. 2632.
28.9355 28.9224 2546(50) 0.000399 2592. 2627.
28.9393 28.9262 2543(50) 0.000402 2591. 2623.
28.9430 28.9299 2614(51) 0.000379 2591. 2620.
28.9468 28.9337 2583(51) 0.000392 2591. 2617.
28.9505 28.9374 2543(50) 0.000397 2591. 2615.
28.9543 28.9412 2509(50) 0.000396 2590. 2613.
28.9581 28.9450 2532(50) 0.000401 2590. 2611.
28.9618 28.9487 2504(52) 0.000366 2590. 2610.
28.9656 28.9525 2630(50) 0.000393 2590. 2609.
28.9693 28.9562 2501(48) 0.000425 2589. 2607.
28.9731 28.9600 2527(49) 0.000417 2589. 2606.
28.9769 28.9638 2510(49) 0.000415 2589. 2606.
28.9806 28.9675 2579(50) 0.000402 2589. 2605.
28.9844 28.9713 2583(50) 0.000407 2588. 2604.
28.9881 28.9750 2600(50) 0.000398 2588. 2603.
28.9919 28.9788 2523(49) 0.000416 2588. 2603.
28.9957 28.9826 2576(49) 0.000409 2588. 2602.
28.9994 28.9863 2591(49) 0.000409 2587. 2602.
29.0032 28.9901 2576(49) 0.000410 2587. 2601.
29.0069 28.9938 2416(48) 0.000432 2587. 2601.
29.0107 28.9976 2580(49) 0.000411 2587. 2600.
29.0145 29.0014 2538(49) 0.000422 2586. 2600.
29.0182 29.0051 2488(49) 0.000420 2586. 2599.
29.0220 29.0089 2533(49) 0.000413 2586. 2599.
29.0257 29.0126 2522(49) 0.000421 2586. 2599.
29.0295 29.0164 2503(49) 0.000416 2585. 2598.
29.0332 29.0201 2560(50) 0.000403 2585. 2598.
29.0370 29.0239 2629(50) 0.000398 2585. 2598.
29.0408 29.0277 2541(49) 0.000413 2585. 2598.
29.0445 29.0314 2581(49) 0.000409 2584. 2597.
29.0483 29.0352 2475(48) 0.000429 2584. 2597.
29.0520 29.0389 2509(50) 0.000408 2584. 2597.
29.0558 29.0427 2520(49) 0.000411 2584. 2597.
29.0596 29.0465 2469(49) 0.000423 2583. 2596.
29.0633 29.0502 2498(49) 0.000423 2583. 2596.
29.0671 29.0540 2485(49) 0.000419 2583. 2596.
29.0708 29.0577 2469(49) 0.000423 2583. 2596.
29.0746 29.0615 2550(49) 0.000414 2582. 2596.
29.0784 29.0653 2476(49) 0.000422 2582. 2596.
29.0821 29.0690 2486(49) 0.000418 2582. 2595.
29.0859 29.0728 2569(50) 0.000405 2582. 2595.
29.0896 29.0765 2455(49) 0.000419 2581. 2595.
29.0934 29.0803 2580(50) 0.000407 2581. 2595.
29.0972 29.0841 2572(49) 0.000410 2581. 2595.
29.1009 29.0878 2514(49) 0.000411 2581. 2595.
29.1047 29.0916 2522(49) 0.000417 2580. 2595.
29.1084 29.0953 2458(49) 0.000424 2580. 2595.
29.1122 29.0991 2512(49) 0.000413 2580. 2595.
29.1160 29.1029 2537(49) 0.000422 2580. 2595.
29.1197 29.1066 2546(50) 0.000406 2579. 2594.
29.1235 29.1104 2478(49) 0.000418 2579. 2594.
29.1272 29.1141 2452(48) 0.000429 2579. 2594.
29.1310 29.1179 2614(50) 0.000397 2579. 2594.
29.1348 29.1217 2472(48) 0.000428 2578. 2594.
29.1385 29.1254 2529(49) 0.000412 2578. 2594.
29.1423 29.1292 2566(50) 0.000401 2578. 2594.
29.1460 29.1329 2572(49) 0.000410 2578. 2594.
29.1498 29.1367 2541(50) 0.000398 2577. 2594.
29.1535 29.1404 2560(49) 0.000410 2577. 2594.
29.1573 29.1442 2479(49) 0.000413 2577. 2594.
29.1611 29.1480 2583(50) 0.000407 2577. 2594.
29.1648 29.1517 2648(50) 0.000399 2576. 2594.
29.1686 29.1555 2527(49) 0.000414 2576. 2595.
29.1723 29.1592 2562(50) 0.000404 2576. 2595.
29.1761 29.1630 2573(49) 0.000409 2576. 2595.
29.1799 29.1668 2528(49) 0.000413 2575. 2595.
29.1836 29.1705 2596(49) 0.000414 2575. 2595.
29.1874 29.1743 2473(49) 0.000425 2575. 2595.
29.1911 29.1780 2572(50) 0.000399 2575. 2596.
29.1949 29.1818 2530(49) 0.000414 2574. 2596.
29.1987 29.1856 2494(48) 0.000433 2574. 2596.
29.2024 29.1893 2441(49) 0.000421 2574. 2596.
29.2062 29.1931 2538(49) 0.000410 2574. 2597.
29.2099 29.1968 2593(50) 0.000395 2573. 2597.
29.2137 29.2006 2579(50) 0.000401 2573. 2597.
29.2175 29.2044 2612(51) 0.000387 2573. 2598.
29.2212 29.2081 2562(50) 0.000405 2573. 2598.
29.2250 29.2119 2515(49) 0.000411 2572. 2599.
29.2287 29.2156 2582(50) 0.000402 2572. 2599.
29.2325 29.2194 2484(49) 0.000418 2572. 2600.
29.2363 29.2232 2483(49) 0.000417 2572. 2600.
29.2400 29.2269 2639(50) 0.000396 2572. 2601.
29.2438 29.2307 2441(49) 0.000420 2571. 2601.
29.2475 29.2344 2454(48) 0.000426 2571. 2602.
29.2513 29.2382 2593(50) 0.000398 2571. 2603.
29.2551 29.2420 2638(50) 0.000394 2571. 2604.
29.2588 29.2457 2546(50) 0.000407 2570. 2604.
29.2626 29.2495 2568(50) 0.000398 2570. 2605.
29.2663 29.2532 2581(50) 0.000399 2570. 2606.
29.2701 29.2570 2570(49) 0.000409 2570. 2607.
29.2739 29.2608 2547(50) 0.000400 2569. 2608.
29.2776 29.2645 2514(49) 0.000416 2569. 2610.
29.2814 29.2683 2521(50) 0.000406 2569. 2611.
29.2851 29.2720 2528(49) 0.000412 2569. 2612.
29.2889 29.2758 2578(50) 0.000401 2568. 2614.
29.2927 29.2796 2556(50) 0.000406 2568. 2615.
29.2964 29.2833 2628(51) 0.000384 2568. 2617.
29.3002 29.2871 2448(49) 0.000418 2568. 2619.
29.3039 29.2908 2685(51) 0.000381 2567. 2621.
29.3077 29.2946 2652(51) 0.000384 2567. 2624.
29.3115 29.2984 2595(50) 0.000400 2567. 2626.
29.3152 29.3021 2476(49) 0.000419 2567. 2629.
29.3190 29.3059 2657(51) 0.000382 2566. 2631.
29.3227 29.3096 2566(50) 0.000408 2566. 2633.
29.3265 29.3134 2520(50) 0.000407 2566. 2637.
29.3303 29.3172 2541(50) 0.000402 2566. 2641.
29.3340 29.3209 2597(50) 0.000395 2565. 2645.
29.3378 29.3247 2597(50) 0.000396 2565. 2649.
29.3415 29.3284 2551(50) 0.000401 2565. 2654.
29.3453 29.3322 2656(51) 0.000386 2565. 2660.
29.3491 29.3360 2614(51) 0.000381 2565. 2666.
29.3528 29.3397 2581(50) 0.000396 2564. 2673.
29.3566 29.3435 2602(51) 0.000389 2564. 2680.
29.3603 29.3472 2647(51) 0.000389 2564. 2689.
29.3641 29.3510 2749(51) 0.000381 2564. 2698.
29.3679 29.3548 2561(49) 0.000411 2563. 2710.
29.3716 29.3585 2716(52) 0.000372 2563. 2722.
29.3754 29.3623 2686(52) 0.000374 2563. 2737.
29.3791 29.3660 2702(51) 0.000382 2563. 2753.
29.3829 29.3698 2726(52) 0.000377 2562. 2774.
29.3867 29.3736 2666(51) 0.000389 2562. 2798.
29.3904 29.3773 2844(53) 0.000362 2562. 2826.
29.3942 29.3811 2848(53) 0.000361 2562. 2861.
29.3979 29.3848 2859(53) 0.000351 2561. 2905.
29.4017 29.3886 2925(53) 0.000351 2561. 2964.
29.4055 29.3924 3019(55) 0.0003355 2561. 3051.
29.4092 29.3961 3136(56) 0.0003186 2561. 3189.
29.4130 29.3999 3389(58) 0.0003018 2560. 3444.
29.4167 29.4036 3790(61) 0.0002709 2560. 3897.
29.4205 29.4074 4226(64) 0.0002406 2560. 4695.
29.4243 29.4112 5528(73) 0.0001897 2560. 5924.
29.4280 29.4149 7621(87) 0.0001325 2560. 7489.
29.4318 29.4187 9810(100) 0.0001007 2559. 9192.
29.4356 29.4225 10910(100) 0.0000923 2559. 10372.
29.4393 29.4262 10290(100) 0.0000972 2559. 10375.
29.4431 29.4300 8803(94) 0.0001132 2559. 9217.
29.4468 29.4337 7131(85) 0.0001387 2558. 7622.
29.4506 29.4375 5825(76) 0.0001714 2558. 6096.
29.4544 29.4413 5001(70) 0.0002014 2558. 4969.
29.4581 29.4450 4454(67) 0.0002253 2558. 4297.
29.4619 29.4488 4098(64) 0.0002473 2557. 3957.
29.4656 29.4525 3820(62) 0.0002624 2557. 3862.
29.4694 29.4563 3890(63) 0.0002545 2557. 3934.
29.4732 29.4601 4183(64) 0.0002409 2557. 4192.
29.4769 29.4638 4496(68) 0.0002173 2556. 4741.
29.4807 29.4676 5286(73) 0.0001891 2556. 5893.
29.4844 29.4713 6868(83) 0.0001456 2556. 7995.
29.4882 29.4751 10280(100) 0.0000955 2556. 11578.
29.4920 29.4789 16300(130) 0.0000596 2556. 16680.
29.4957 29.4826 23590(160) 0.0000410 2555. 22447.
29.4995 29.4864 28730(170) 0.0000333 2555. 27393.
29.5032 29.4901 27990(170) 0.0000338 2555. 28800.
29.5070 29.4939 23440(160) 0.0000412 2555. 25760.
29.5108 29.4977 17650(130) 0.0000561 2554. 20132.
29.5145 29.5014 13070(120) 0.0000741 2554. 14507.
29.5183 29.5052 9900(100) 0.0000990 2554. 9922.
29.5220 29.5089 7590(87) 0.0001324 2554. 6961.
29.5258 29.5127 6108(79) 0.0001612 2553. 5197.
29.5296 29.5165 4940(70) 0.0002032 2553. 4270.
29.5333 29.5202 4126(65) 0.0002398 2553. 3798.
29.5371 29.5240 3785(62) 0.0002577 2553. 3523.
29.5408 29.5277 3430(59) 0.0002910 2553. 3351.
29.5446 29.5315 3359(58) 0.0002962 2552. 3223.
29.5484 29.5353 3182(56) 0.0003159 2552. 3126.
29.5521 29.5390 3073(55) 0.0003286 2552. 3050.
29.5559 29.5428 3090(56) 0.0003202 2552. 2987.
29.5596 29.5465 3026(55) 0.0003303 2551. 2937.
29.5634 29.5503 2882(54) 0.0003493 2551. 2894.
29.5672 29.5541 2935(54) 0.0003411 2551. 2858.
29.5709 29.5578 2848(53) 0.000357 2551. 2828.
29.5747 29.5616 2733(51) 0.000380 2550. 2802.
29.5784 29.5653 2790(53) 0.000355 2550. 2780.
29.5822 29.5691 2787(53) 0.000353 2550. 2761.
29.5860 29.5729 2807(53) 0.000354 2550. 2744.
29.5897 29.5766 2771(52) 0.000364 2550. 2729.
29.5935 29.5804 2658(51) 0.000378 2549. 2716.
29.5973 29.5842 2711(52) 0.000366 2549. 2704.
29.6010 29.5879 2683(52) 0.000374 2549. 2694.
29.6048 29.5917 2679(52) 0.000376 2549. 2685.
29.6085 29.5954 2715(53) 0.000361 2548. 2677.
29.6123 29.5992 2692(53) 0.000363 2548. 2670.
29.6161 29.6030 2618(51) 0.000379 2548. 2663.
29.6198 29.6067 2653(51) 0.000378 2548. 2657.
29.6236 29.6105 2664(52) 0.000370 2547. 2652.
29.6273 29.6142 2655(51) 0.000377 2547. 2648.
29.6311 29.6180 2624(51) 0.000380 2547. 2644.
29.6349 29.6218 2605(51) 0.000379 2547. 2640.
29.6386 29.6255 2545(51) 0.000385 2547. 2638.
29.6424 29.6293 2607(51) 0.000377 2546. 2635.
29.6461 29.6330 2595(51) 0.000380 2546. 2634.
29.6499 29.6368 2597(51) 0.000380 2546. 2633.
29.6537 29.6406 2540(51) 0.000391 2546. 2633.
29.6574 29.6443 2603(51) 0.000382 2545. 2634.
29.6612 29.6481 2574(51) 0.000392 2545. 2637.
29.6649 29.6518 2661(52) 0.000374 2545. 2643.
29.6687 29.6556 2637(52) 0.000366 2545. 2656.
29.6725 29.6594 2706(52) 0.000375 2544. 2682.
29.6762 29.6631 2612(51) 0.000378 2544. 2734.
29.6800 29.6669 2721(52) 0.000367 2544. 2829.
29.6837 29.6706 2921(54) 0.0003415 2544. 2974.
29.6875 29.6744 3194(57) 0.0003072 2544. 3169.
29.6913 29.6782 3298(58) 0.0002998 2543. 3371.
29.6950 29.6819 3467(59) 0.0002855 2543. 3498.
29.6988 29.6857 3322(58) 0.0002950 2543. 3479.
29.7026 29.6895 3212(57) 0.0003094 2543. 3321.
29.7063 29.6932 3007(55) 0.0003283 2542. 3117.
29.7101 29.6970 2914(54) 0.0003420 2542. 2927.
29.7138 29.7007 2683(53) 0.000357 2542. 2791.
29.7176 29.7045 2795(53) 0.000358 2542. 2703.
29.7214 29.7083 2672(52) 0.000366 2542. 2654.
29.7251 29.7120 2587(51) 0.000388 2541. 2629.
29.7289 29.7158 2645(52) 0.000372 2541. 2615.
29.7326 29.7195 2614(51) 0.000382 2541. 2606.
29.7364 29.7233 2619(52) 0.000373 2541. 2600.
29.7402 29.7271 2598(51) 0.000378 2540. 2595.
29.7439 29.7308 2532(50) 0.000394 2540. 2592.
29.7477 29.7346 2539(50) 0.000398 2540. 2588.
29.7514 29.7383 2599(51) 0.000378 2540. 2586.
29.7552 29.7421 2529(50) 0.000395 2540. 2584.
29.7590 29.7459 2484(50) 0.000393 2539. 2582.
29.7627 29.7496 2505(50) 0.000403 2539. 2581.
29.7665 29.7534 2578(51) 0.000381 2539. 2579.
29.7703 29.7572 2590(51) 0.000390 2539. 2578.
29.7740 29.7609 2441(50) 0.000405 2538. 2577.
29.7778 29.7647 2625(52) 0.000376 2538. 2575.
29.7815 29.7684 2544(50) 0.000394 2538. 2575.
29.7853 29.7722 2578(51) 0.000377 2538. 2574.
29.7891 29.7760 2529(50) 0.000393 2538. 2573.
29.7928 29.7797 2551(51) 0.000389 2537. 2572.
29.7966 29.7835 2571(51) 0.000382 2537. 2572.
29.8003 29.7872 2447(49) 0.000412 2537. 2571.
29.8041 29.7910 2542(51) 0.000382 2537. 2571.
29.8079 29.7948 2542(50) 0.000397 2536. 2570.
29.8116 29.7985 2515(51) 0.000392 2536. 2570.
29.8154 29.8023 2432(49) 0.000411 2536. 2570.
29.8191 29.8060 2517(51) 0.000392 2536. 2569.
29.8229 29.8098 2513(50) 0.000399 2536. 2569.
29.8267 29.8136 2514(50) 0.000394 2535. 2569.
29.8304 29.8173 2496(50) 0.000402 2535. 2569.
29.8342 29.8211 2601(51) 0.000385 2535. 2569.
29.8379 29.8248 2509(51) 0.000390 2535. 2569.
29.8417 29.8286 2485(51) 0.000390 2534. 2569.
29.8455 29.8324 2502(51) 0.000384 2534. 2569.
29.8492 29.8361 2467(50) 0.000404 2534. 2569.
29.8530 29.8399 2438(49) 0.000412 2534. 2569.
29.8568 29.8437 2583(51) 0.000388 2534. 2569.
29.8605 29.8474 2515(50) 0.000404 2533. 2570.
29.8643 29.8512 2557(50) 0.000396 2533. 2570.
29.8680 29.8549 2522(51) 0.000392 2533. 2570.
29.8718 29.8587 2488(50) 0.000399 2533. 2571.
29.8756 29.8625 2573(51) 0.000377 2532. 2571.
29.8793 29.8662 2561(51) 0.000386 2532. 2572.
29.8831 29.8700 2579(51) 0.000384 2532. 2573.
29.8868 29.8737 2594(50) 0.000395 2532. 2573.
29.8906 29.8775 2562(51) 0.000388 2532. 2574.
29.8944 29.8813 2638(52) 0.000373 2531. 2575.
29.8981 29.8850 2587(51) 0.000384 2531. 2576.
29.9019 29.8888 2667(52) 0.000373 2531. 2578.
29.9056 29.8925 2557(51) 0.000384 2531. 2580.
29.9094 29.8963 2577(51) 0.000379 2530. 2581.
29.9132 29.9001 2548(51) 0.000383 2530. 2582.
29.9169 29.9038 2502(50) 0.000396 2530. 2584.
29.9207 29.9076 2489(50) 0.000398 2530. 2586.
29.9245 29.9114 2554(51) 0.000383 2530. 2588.
29.9282 29.9151 2563(51) 0.000385 2529. 2590.
29.9320 29.9189 2563(51) 0.000381 2529. 2593.
29.9357 29.9226 2645(52) 0.000365 2529. 2596.
29.9395 29.9264 2539(51) 0.000389 2529. 2599.
29.9433 29.9302 2560(51) 0.000386 2528. 2602.
29.9470 29.9339 2583(51) 0.000384 2528. 2606.
29.9508 29.9377 2586(51) 0.000378 2528. 2610.
29.9545 29.9414 2525(50) 0.000396 2528. 2615.
29.9583 29.9452 2526(50) 0.000394 2528. 2620.
29.9621 29.9490 2607(52) 0.000375 2527. 2626.
29.9658 29.9527 2670(51) 0.000380 2527. 2633.
29.9696 29.9565 2556(51) 0.000380 2527. 2640.
29.9733 29.9602 2602(52) 0.000373 2527. 2649.
29.9771 29.9640 2707(53) 0.000361 2527. 2659.
29.9809 29.9678 2635(52) 0.000370 2526. 2670.
29.9846 29.9715 2660(52) 0.000364 2526. 2683.
29.9884 29.9753 2601(52) 0.000376 2526. 2699.
29.9922 29.9791 2657(52) 0.000370 2526. 2717.
29.9959 29.9828 2706(53) 0.000359 2525. 2738.
29.9997 29.9866 2736(53) 0.000354 2525. 2764.
30.0034 29.9903 2739(53) 0.000359 2525. 2795.
30.0072 29.9941 2856(54) 0.0003370 2525. 2833.
30.0110 29.9979 2921(55) 0.0003363 2525. 2882.
30.0147 30.0016 2932(55) 0.0003353 2524. 2942.
30.0185 30.0054 3017(55) 0.0003250 2524. 3027.
30.0222 30.0091 3203(57) 0.0003029 2524. 3151.
30.0260 30.0129 3343(59) 0.0002921 2524. 3372.
30.0298 30.0167 3652(61) 0.0002664 2523. 3796.
30.0335 30.0204 4252(67) 0.0002231 2523. 4585.
30.0373 30.0242 5249(73) 0.0001898 2523. 6020.
30.0411 30.0280 7614(89) 0.0001254 2523. 8268.
30.0448 30.0317 10900(110) 0.0000870 2523. 11131.
30.0486 30.0355 14620(120) 0.0000650 2522. 14194.
30.0523 30.0392 16430(130) 0.0000583 2522. 16179.
30.0561 30.0430 15740(130) 0.0000609 2522. 16038.
30.0599 30.0468 12520(110) 0.0000792 2522. 13849.
30.0636 30.0505 10140(100) 0.0000956 2522. 11012.
30.0674 30.0543 8093(92) 0.0001172 2521. 8468.
30.0711 30.0580 6819(85) 0.0001396 2521. 6850.
30.0749 30.0618 6457(82) 0.0001503 2521. 6098.
30.0787 30.0656 6684(83) 0.0001438 2521. 5975.
30.0824 30.0693 6638(84) 0.0001424 2520. 6043.
30.0862 30.0731 6217(81) 0.0001543 2520. 5911.
30.0899 30.0768 5612(77) 0.0001696 2520. 5477.
30.0937 30.0806 4827(69) 0.0002072 2520. 4901.
30.0975 30.0844 4291(66) 0.0002277 2520. 4414.
30.1012 30.0881 4068(65) 0.0002353 2519. 4167.
30.1050 30.0919 4126(66) 0.0002323 2519. 4221.
30.1088 30.0957 4612(69) 0.0002129 2519. 4601.
30.1125 30.0994 5417(74) 0.0001811 2519. 5223.
30.1163 30.1032 6398(80) 0.0001546 2519. 5960.
30.1200 30.1069 6878(84) 0.0001427 2518. 6492.
30.1238 30.1107 6691(82) 0.0001470 2518. 6521.
30.1276 30.1145 6033(80) 0.0001578 2518. 5980.
30.1313 30.1182 4963(71) 0.0001975 2518. 5186.
30.1351 30.1220 4304(66) 0.0002276 2518. 4384.
30.1388 30.1257 3761(63) 0.0002544 2517. 3764.
30.1426 30.1295 3583(61) 0.0002692 2517. 3327.
30.1464 30.1333 3120(56) 0.0003161 2517. 3060.
30.1501 30.1370 2942(55) 0.0003261 2517. 2912.
30.1539 30.1408 2840(54) 0.0003407 2516. 2825.
30.1577 30.1446 2819(53) 0.000351 2516. 2772.
30.1614 30.1483 2722(53) 0.000357 2516. 2737.
30.1652 30.1521 2733(53) 0.000356 2516. 2710.
30.1689 30.1558 2673(52) 0.000371 2516. 2690.
30.1727 30.1596 2593(52) 0.000375 2515. 2672.
30.1765 30.1634 2608(52) 0.000370 2515. 2658.
30.1802 30.1671 2671(53) 0.000355 2515. 2646.
30.1840 30.1709 2643(52) 0.000368 2515. 2636.
30.1877 30.1746 2605(52) 0.000377 2515. 2628.
30.1915 30.1784 2679(52) 0.000366 2514. 2620.
30.1953 30.1822 2561(51) 0.000381 2514. 2614.
30.1990 30.1859 2543(51) 0.000387 2514. 2608.
30.2028 30.1897 2621(52) 0.000376 2514. 2603.
30.2066 30.1935 2533(51) 0.000384 2513. 2599.
30.2103 30.1972 2528(50) 0.000395 2513. 2596.
30.2141 30.2010 2631(52) 0.000366 2513. 2592.
30.2178 30.2047 2519(51) 0.000386 2513. 2590.
30.2216 30.2085 2523(51) 0.000380 2513. 2587.
30.2254 30.2123 2636(52) 0.000372 2512. 2585.
30.2291 30.2160 2422(50) 0.000406 2512. 2584.
30.2329 30.2198 2557(51) 0.000380 2512. 2582.
30.2366 30.2235 2598(52) 0.000373 2512. 2581.
30.2404 30.2273 2595(52) 0.000374 2512. 2581.
30.2442 30.2311 2621(52) 0.000375 2511. 2580.
30.2479 30.2348 2540(51) 0.000382 2511. 2580.
30.2517 30.2386 2592(52) 0.000375 2511. 2581.
30.2554 30.2423 2476(51) 0.000386 2511. 2582.
30.2592 30.2461 2659(53) 0.000359 2511. 2583.
30.2630 30.2499 2641(52) 0.000371 2510. 2584.
30.2667 30.2536 2488(50) 0.000397 2510. 2586.
30.2705 30.2574 2602(52) 0.000369 2510. 2589.
30.2743 30.2612 2688(53) 0.000354 2510. 2593.
30.2780 30.2649 2537(51) 0.000379 2510. 2597.
30.2818 30.2687 2567(51) 0.000383 2509. 2602.
30.2855 30.2724 2558(52) 0.000377 2509. 2608.
30.2893 30.2762 2639(52) 0.000370 2509. 2616.
30.2931 30.2800 2661(52) 0.000366 2509. 2626.
30.2968 30.2837 2600(52) 0.000371 2508. 2638.
30.3006 30.2875 2677(52) 0.000366 2508. 2653.
30.3043 30.2912 2697(53) 0.000361 2508. 2672.
30.3081 30.2950 2720(53) 0.000353 2508. 2698.
30.3119 30.2988 2852(55) 0.0003326 2508. 2736.
30.3156 30.3025 2858(54) 0.0003403 2507. 2797.
30.3194 30.3063 3007(55) 0.0003324 2507. 2915.
30.3232 30.3101 3266(59) 0.0002910 2507. 3149.
30.3269 30.3138 3555(61) 0.0002684 2507. 3573.
30.3307 30.3176 4188(66) 0.0002329 2507. 4302.
30.3344 30.3213 5573(76) 0.0001747 2506. 5312.
30.3382 30.3251 7297(87) 0.0001321 2506. 6526.
30.3420 30.3289 8538(94) 0.0001131 2506. 7556.
30.3457 30.3326 8717(95) 0.0001113 2506. 7907.
30.3495 30.3364 7750(90) 0.0001233 2506. 7421.
30.3532 30.3401 6741(84) 0.0001427 2505. 6500.
30.3570 30.3439 5587(75) 0.0001754 2505. 5591.
30.3608 30.3477 5320(74) 0.0001820 2505. 5005.
30.3645 30.3514 5388(75) 0.0001797 2505. 4788.
30.3683 30.3552 5342(75) 0.0001790 2505. 4776.
30.3721 30.3590 5238(73) 0.0001860 2504. 4720.
30.3758 30.3627 4742(70) 0.0002040 2504. 4458.
30.3796 30.3665 4055(64) 0.0002422 2504. 4032.
30.3833 30.3702 3600(61) 0.0002678 2504. 3600.
30.3871 30.3740 3364(59) 0.0002867 2504. 3233.
30.3909 30.3778 3079(57) 0.0003128 2503. 2976.
30.3946 30.3815 2960(55) 0.0003259 2503. 2822.
30.3984 30.3853 2807(54) 0.0003434 2503. 2731.
30.4021 30.3890 2674(53) 0.000360 2503. 2681.
30.4059 30.3928 2629(54) 0.0003475 2503. 2650.
30.4097 30.3966 2614(51) 0.000390 2502. 2630.
30.4134 30.4003 2594(51) 0.000387 2502. 2615.
30.4172 30.4041 2624(51) 0.000380 2502. 2603.
30.4210 30.4079 2551(50) 0.000400 2502. 2593.
30.4247 30.4116 2593(50) 0.000393 2502. 2585.
30.4285 30.4154 2553(50) 0.000397 2501. 2578.
30.4322 30.4191 2599(51) 0.000389 2501. 2572.
30.4360 30.4229 2585(51) 0.000387 2501. 2567.
30.4398 30.4267 2609(51) 0.000390 2501. 2563.
30.4435 30.4304 2555(50) 0.000401 2500. 2560.
30.4473 30.4342 2579(51) 0.000389 2500. 2556.
30.4510 30.4379 2552(50) 0.000395 2500. 2554.
30.4548 30.4417 2513(50) 0.000405 2500. 2551.
30.4586 30.4455 2501(50) 0.000405 2500. 2547.
30.4623 30.4492 2498(50) 0.000401 2499. 2545.
30.4661 30.4530 2444(49) 0.000413 2499. 2544.
30.4699 30.4568 2537(50) 0.000395 2499. 2542.
30.4736 30.4605 2545(50) 0.000401 2499. 2541.
30.4774 30.4643 2432(49) 0.000411 2499. 2540.
30.4811 30.4680 2552(50) 0.000394 2498. 2539.
30.4849 30.4718 2541(50) 0.000394 2498. 2538.
30.4887 30.4756 2647(51) 0.000380 2498. 2538.
30.4924 30.4793 2484(50) 0.000397 2498. 2539.
30.4962 30.4831 2590(51) 0.000388 2498. 2539.
30.4999 30.4868 2564(50) 0.000394 2497. 2539.
30.5037 30.4906 2594(51) 0.000387 2497. 2538.
30.5075 30.4944 2500(50) 0.000392 2497. 2538.
30.5112 30.4981 2429(49) 0.000415 2497. 2538.
30.5150 30.5019 2560(51) 0.000385 2497. 2538.
30.5187 30.5056 2606(51) 0.000392 2496. 2539.
30.5225 30.5094 2527(50) 0.000399 2496. 2539.
30.5263 30.5132 2492(50) 0.000405 2496. 2539.
30.5300 30.5169 2409(49) 0.000411 2496. 2540.
30.5338 30.5207 2480(49) 0.000415 2496. 2541.
30.5376 30.5245 2501(50) 0.000405 2495. 2542.
30.5413 30.5282 2583(51) 0.000386 2495. 2543.
30.5488 30.5357 2420(49) 0.000417 2495. 2545.
30.5564 30.5433 2545(50) 0.000396 2494. 2548.
30.5601 30.5470 2548(51) 0.000388 2494. 2550.
30.5639 30.5508 2489(50) 0.000394 2494. 2553.
30.5676 30.5545 2517(49) 0.000416 2494. 2555.
30.5714 30.5583 2597(51) 0.000383 2494. 2560.
30.5752 30.5621 2650(52) 0.000377 2493. 2563.
30.5789 30.5658 2597(51) 0.000377 2493. 2567.
30.5827 30.5696 2606(51) 0.000389 2493. 2571.
30.5865 30.5734 2563(50) 0.000394 2493. 2576.
30.5902 30.5771 2378(49) 0.000422 2493. 2582.
30.5940 30.5809 2525(49) 0.000409 2492. 2588.
30.5977 30.5846 2632(51) 0.000388 2492. 2596.
30.6015 30.5884 2538(50) 0.000401 2492. 2605.
30.6053 30.5922 2691(52) 0.000368 2492. 2616.
30.6090 30.5959 2576(51) 0.000391 2492. 2630.
30.6128 30.5997 2575(51) 0.000390 2491. 2651.
30.6165 30.6034 2653(52) 0.000374 2491. 2680.
30.6203 30.6072 2628(51) 0.000380 2491. 2726.
30.6241 30.6110 2762(52) 0.000364 2491. 2791.
30.6278 30.6147 2951(54) 0.0003428 2491. 2876.
30.6316 30.6185 3002(55) 0.0003333 2490. 2978.
30.6354 30.6223 3120(56) 0.0003148 2490. 3079.
30.6391 30.6260 3293(57) 0.0003125 2490. 3149.
30.6429 30.6298 3187(56) 0.0003176 2490. 3174.
30.6466 30.6335 3077(56) 0.0003206 2490. 3168.
30.6504 30.6373 3119(56) 0.0003199 2489. 3168.
30.6542 30.6411 3167(57) 0.0003081 2489. 3210.
30.6579 30.6448 3241(57) 0.0003091 2489. 3329.
30.6617 30.6486 3421(58) 0.0002959 2489. 3596.
30.6654 30.6523 3760(62) 0.0002640 2489. 4105.
30.6692 30.6561 4332(66) 0.0002288 2488. 5041.
30.6730 30.6599 5639(75) 0.0001784 2488. 6541.
30.6767 30.6636 7459(86) 0.0001347 2488. 8568.
30.6805 30.6674 10350(100) 0.0000940 2488. 10977.
30.6843 30.6712 12800(120) 0.0000760 2488. 13085.
30.6880 30.6749 13430(120) 0.0000739 2488. 13917.
30.6918 30.6787 12090(110) 0.0000800 2487. 12995.
30.6955 30.6824 9990(100) 0.0000981 2487. 10911.
30.6993 30.6862 7547(87) 0.0001324 2487. 8493.
30.7031 30.6900 5880(77) 0.0001686 2487. 6416.
30.7068 30.6937 4982(71) 0.0001985 2487. 4954.
30.7106 30.6975 4108(65) 0.0002402 2486. 4004.
30.7143 30.7012 3690(61) 0.0002678 2486. 3473.
30.7181 30.7050 3295(57) 0.0003027 2486. 3175.
30.7219 30.7088 3095(55) 0.0003288 2486. 3009.
30.7256 30.7125 2871(53) 0.000352 2486. 2909.
30.7294 30.7163 2910(54) 0.0003445 2485. 2839.
30.7331 30.7200 2907(54) 0.0003385 2485. 2788.
30.7369 30.7238 2709(52) 0.000374 2485. 2747.
30.7407 30.7276 2710(52) 0.000370 2485. 2714.
30.7444 30.7313 2640(51) 0.000381 2485. 2688.
30.7482 30.7351 2628(51) 0.000386 2484. 2666.
30.7520 30.7389 2610(51) 0.000385 2484. 2647.
30.7557 30.7426 2619(51) 0.000384 2484. 2631.
30.7595 30.7464 2516(50) 0.000405 2484. 2618.
30.7632 30.7501 2550(50) 0.000395 2484. 2607.
30.7670 30.7539 2519(50) 0.000403 2483. 2597.
30.7708 30.7577 2492(50) 0.000398 2483. 2588.
30.7745 30.7614 2579(51) 0.000388 2483. 2580.
30.7783 30.7652 2599(51) 0.000381 2483. 2574.
30.7820 30.7689 2560(51) 0.000386 2483. 2568.
30.7858 30.7727 2701(52) 0.000368 2482. 2562.
30.7896 30.7765 2451(49) 0.000410 2482. 2558.
30.7933 30.7802 2579(51) 0.000391 2482. 2553.
30.7971 30.7840 2534(50) 0.000400 2482. 2550.
30.8009 30.7878 2493(50) 0.000400 2482. 2546.
30.8046 30.7915 2541(50) 0.000393 2481. 2543.
30.8084 30.7953 2563(51) 0.000388 2481. 2540.
30.8121 30.7990 2472(50) 0.000395 2481. 2538.
30.8159 30.8028 2427(49) 0.000417 2481. 2536.
30.8197 30.8066 2487(50) 0.000400 2481. 2533.
30.8234 30.8103 2550(51) 0.000392 2480. 2532.
30.8272 30.8141 2558(51) 0.000391 2480. 2530.
30.8309 30.8178 2467(50) 0.000406 2480. 2528.
30.8347 30.8216 2437(50) 0.000406 2480. 2527.
30.8385 30.8254 2543(50) 0.000403 2480. 2525.
30.8422 30.8291 2549(51) 0.000390 2480. 2524.
30.8460 30.8329 2460(49) 0.000413 2479. 2523.
30.8497 30.8366 2446(49) 0.000410 2479. 2522.
30.8535 30.8404 2536(50) 0.000400 2479. 2521.
30.8573 30.8442 2441(50) 0.000408 2479. 2520.
30.8610 30.8479 2453(50) 0.000405 2479. 2520.
30.8648 30.8517 2430(50) 0.000408 2478. 2519.
30.8686 30.8555 2519(50) 0.000396 2478. 2518.
30.8723 30.8592 2503(50) 0.000402 2478. 2518.
30.8761 30.8630 2515(50) 0.000397 2478. 2518.
30.8798 30.8667 2403(48) 0.000436 2478. 2518.
30.8836 30.8705 2605(51) 0.000385 2477. 2517.
30.8874 30.8743 2572(51) 0.000387 2477. 2517.
30.8911 30.8780 2495(50) 0.000402 2477. 2518.
30.8949 30.8818 2467(49) 0.000411 2477. 2518.
30.8986 30.8855 2499(51) 0.000391 2477. 2518.
30.9024 30.8893 2465(50) 0.000399 2476. 2519.
30.9062 30.8931 2539(50) 0.000405 2476. 2520.
30.9099 30.8968 2573(51) 0.000383 2476. 2521.
30.9137 30.9006 2568(51) 0.000388 2476. 2522.
30.9174 30.9043 2433(49) 0.000414 2476. 2524.
30.9212 30.9081 2506(51) 0.000391 2475. 2527.
30.9250 30.9119 2559(51) 0.000386 2475. 2530.
30.9287 30.9156 2523(50) 0.000399 2475. 2534.
30.9325 30.9194 2494(49) 0.000410 2475. 2541.
30.9363 30.9232 2522(50) 0.000406 2475. 2553.
30.9400 30.9269 2501(50) 0.000399 2475. 2573.
30.9438 30.9307 2569(51) 0.000386 2474. 2610.
30.9475 30.9344 2629(52) 0.000375 2474. 2671.
30.9513 30.9382 2676(51) 0.000378 2474. 2767.
30.9551 30.9420 2852(53) 0.000354 2474. 2897.
30.9588 30.9457 3050(56) 0.0003210 2474. 3040.
30.9626 30.9495 3248(57) 0.0003056 2473. 3166.
30.9663 30.9532 3202(57) 0.0003065 2473. 3213.
30.9701 30.9570 3099(56) 0.0003180 2473. 3155.
30.9739 30.9608 3036(54) 0.0003393 2473. 3028.
30.9776 30.9645 2801(53) 0.000355 2473. 2885.
30.9814 30.9683 2666(52) 0.000371 2472. 2759.
30.9851 30.9720 2622(51) 0.000381 2472. 2668.
30.9889 30.9758 2611(51) 0.000383 2472. 2609.
30.9927 30.9796 2689(52) 0.000365 2472. 2574.
30.9964 30.9833 2523(51) 0.000387 2472. 2556.
31.0002 30.9871 2680(52) 0.000370 2471. 2545.
31.0040 30.9909 2528(50) 0.000392 2471. 2539.
31.0077 30.9946 2532(51) 0.000389 2471. 2535.
31.0115 30.9984 2517(51) 0.000389 2471. 2532.
31.0152 31.0021 2556(50) 0.000395 2471. 2530.
31.0190 31.0059 2448(50) 0.000401 2471. 2528.
31.0228 31.0097 2485(50) 0.000395 2470. 2527.
31.0265 31.0134 2642(52) 0.000366 2470. 2526.
31.0303 31.0172 2521(51) 0.000381 2470. 2525.
31.0340 31.0209 2524(51) 0.000389 2470. 2525.
31.0378 31.0247 2468(50) 0.000400 2470. 2525.
31.0416 31.0285 2511(50) 0.000401 2469. 2525.
31.0453 31.0322 2531(51) 0.000392 2469. 2525.
31.0491 31.0360 2440(50) 0.000404 2469. 2526.
31.0528 31.0397 2519(50) 0.000395 2469. 2526.
31.0566 31.0435 2566(51) 0.000378 2469. 2527.
31.0604 31.0473 2486(50) 0.000393 2468. 2527.
31.0641 31.0510 2538(51) 0.000389 2468. 2528.
31.0679 31.0548 2498(50) 0.000396 2468. 2529.
31.0717 31.0586 2503(50) 0.000393 2468. 2530.
31.0754 31.0623 2622(52) 0.000375 2468. 2531.
31.0792 31.0661 2550(51) 0.000381 2468. 2533.
31.0829 31.0698 2523(50) 0.000398 2467. 2534.
31.0867 31.0736 2538(52) 0.000376 2467. 2536.
31.0905 31.0774 2642(52) 0.000370 2467. 2537.
31.0942 31.0811 2571(51) 0.000382 2467. 2539.
31.0980 31.0849 2585(51) 0.000384 2467. 2541.
31.1017 31.0886 2515(51) 0.000391 2466. 2543.
31.1055 31.0924 2622(52) 0.000377 2466. 2545.
31.1093 31.0962 2570(51) 0.000385 2466. 2548.
31.1130 31.0999 2605(51) 0.000380 2466. 2550.
31.1168 31.1037 2633(51) 0.000379 2466. 2553.
31.1205 31.1074 2649(52) 0.000368 2465. 2556.
31.1243 31.1112 2584(51) 0.000383 2465. 2559.
31.1281 31.1150 2564(51) 0.000379 2465. 2563.
31.1318 31.1187 2540(50) 0.000397 2465. 2566.
31.1356 31.1225 2653(52) 0.000363 2465. 2570.
31.1393 31.1262 2614(51) 0.000380 2465. 2575.
31.1431 31.1300 2600(52) 0.000371 2464. 2580.
31.1469 31.1338 2606(51) 0.000379 2464. 2585.
31.1506 31.1375 2596(51) 0.000391 2464. 2590.
31.1544 31.1413 2793(54) 0.0003475 2464. 2596.
31.1582 31.1451 2669(51) 0.000377 2464. 2603.
31.1619 31.1488 2697(53) 0.000356 2463. 2610.
31.1657 31.1526 2572(51) 0.000390 2463. 2618.
31.1694 31.1563 2766(53) 0.000352 2463. 2627.
31.1732 31.1601 2653(52) 0.000364 2463. 2637.
31.1770 31.1639 2695(52) 0.000375 2463. 2647.
31.1807 31.1676 2682(52) 0.000367 2462. 2659.
31.1845 31.1714 2808(54) 0.0003405 2462. 2673.
31.1882 31.1751 2750(53) 0.000357 2462. 2688.
31.1920 31.1789 2767(53) 0.000351 2462. 2705.
31.1958 31.1827 2767(53) 0.000352 2462. 2724.
31.1995 31.1864 2800(53) 0.0003500 2462. 2745.
31.2033 31.1902 2769(53) 0.000358 2461. 2770.
31.2070 31.1939 2842(53) 0.0003507 2461. 2798.
31.2108 31.1977 2916(55) 0.0003336 2461. 2831.
31.2146 31.2015 2916(54) 0.0003385 2461. 2870.
31.2183 31.2052 3019(54) 0.0003386 2461. 2915.
31.2221 31.2090 3027(56) 0.0003179 2460. 2969.
31.2258 31.2127 3111(56) 0.0003226 2460. 3033.
31.2296 31.2165 3161(57) 0.0003083 2460. 3112.
31.2334 31.2203 3341(58) 0.0002936 2460. 3212.
31.2371 31.2240 3344(59) 0.0002902 2460. 3336.
31.2409 31.2278 3639(61) 0.0002703 2460. 3510.
31.2446 31.2315 3783(63) 0.0002551 2459. 3765.
31.2484 31.2353 4358(67) 0.0002241 2459. 4207.
31.2522 31.2391 4897(71) 0.0002006 2459. 5008.
31.2559 31.2428 5710(77) 0.0001704 2459. 6411.
31.2597 31.2466 7329(88) 0.0001278 2459. 8833.
31.2634 31.2503 10660(110) 0.0000891 2458. 12384.
31.2672 31.2541 15830(130) 0.0000594 2458. 17166.
31.2710 31.2579 22140(160) 0.0000417 2458. 22346.
31.2747 31.2616 26650(170) 0.0000339 2458. 26263.
31.2785 31.2654 26560(170) 0.0000361 2458. 27175.
31.2823 31.2692 22780(160) 0.0000406 2458. 24396.
31.2860 31.2729 18180(140) 0.0000526 2457. 19675.
31.2898 31.2767 13660(120) 0.0000704 2457. 14628.
31.2935 31.2804 10310(100) 0.0000945 2457. 10575.
31.2973 31.2842 8021(92) 0.0001173 2457. 7665.
31.3011 31.2880 6637(83) 0.0001453 2457. 5896.
31.3048 31.2917 5604(77) 0.0001706 2456. 4963.
31.3086 31.2955 5010(71) 0.0001978 2456. 4497.
31.3123 31.2992 4567(68) 0.0002132 2456. 4318.
31.3161 31.3030 4522(68) 0.0002155 2456. 4316.
31.3199 31.3068 4657(69) 0.0002131 2456. 4503.
31.3236 31.3105 4845(69) 0.0002092 2455. 4970.
31.3274 31.3143 5727(77) 0.0001681 2455. 5966.
31.3311 31.3180 7080(86) 0.0001355 2455. 7751.
31.3349 31.3218 9369(99) 0.0001019 2455. 10736.
31.3387 31.3256 14640(130) 0.0000635 2455. 14973.
31.3424 31.3293 21500(150) 0.0000437 2455. 19867.
31.3462 31.3331 26830(170) 0.0000341 2454. 24501.
31.3499 31.3368 28410(180) 0.0000317 2454. 26785.
31.3537 31.3406 25350(170) 0.0000365 2454. 25498.
31.3575 31.3444 20340(150) 0.0000464 2454. 21376.
31.3612 31.3481 15460(130) 0.0000596 2454. 16569.
31.3650 31.3519 12120(110) 0.0000776 2453. 12260.
31.3687 31.3556 9860(100) 0.0000953 2453. 9232.
31.3725 31.3594 8379(90) 0.0001221 2453. 7297.
31.3763 31.3632 6913(83) 0.0001468 2453. 6133.
31.3800 31.3669 5896(75) 0.0001772 2453. 5342.
31.3838 31.3707 5063(70) 0.0002053 2453. 4681.
31.3875 31.3744 4311(65) 0.0002390 2452. 4152.
31.3913 31.3782 3885(61) 0.0002664 2452. 3730.
31.3951 31.3820 3668(60) 0.0002803 2452. 3427.
31.3988 31.3857 3462(58) 0.0002999 2452. 3228.
31.4026 31.3895 3364(57) 0.0003071 2452. 3093.
31.4063 31.3932 3048(54) 0.0003479 2451. 3003.
31.4101 31.3970 2993(54) 0.0003451 2451. 2936.
31.4139 31.4008 2993(54) 0.0003487 2451. 2884.
31.4176 31.4045 2963(54) 0.0003439 2451. 2843.
31.4214 31.4083 2837(53) 0.000362 2451. 2807.
31.4251 31.4120 2959(54) 0.0003484 2451. 2777.
31.4289 31.4158 2749(51) 0.000377 2450. 2751.
31.4327 31.4196 2815(52) 0.000367 2450. 2728.
31.4364 31.4233 2803(51) 0.000379 2450. 2709.
31.4402 31.4271 2794(52) 0.000377 2450. 2691.
31.4439 31.4308 2806(52) 0.000372 2450. 2676.
31.4477 31.4346 2746(52) 0.000374 2450. 2662.
31.4515 31.4384 2646(51) 0.000392 2449. 2650.
31.4552 31.4421 2674(51) 0.000391 2449. 2640.
31.4590 31.4459 2740(52) 0.000372 2449. 2630.
31.4628 31.4497 2776(52) 0.000370 2449. 2621.
31.4665 31.4534 2730(51) 0.000378 2449. 2613.
31.4703 31.4572 2755(52) 0.000376 2448. 2606.
31.4740 31.4609 2688(51) 0.000392 2448. 2600.
31.4778 31.4647 2627(50) 0.000396 2448. 2594.
31.4816 31.4685 2584(49) 0.000409 2448. 2589.
31.4853 31.4722 2782(51) 0.000380 2448. 2584.
31.4891 31.4760 2587(50) 0.000403 2448. 2583.
31.4928 31.4797 2728(51) 0.000379 2447. 2579.
31.4966 31.4835 2605(50) 0.000398 2447. 2576.
31.5004 31.4873 2657(51) 0.000382 2447. 2573.
31.5041 31.4910 2622(51) 0.000389 2447. 2570.
31.5079 31.4948 2711(51) 0.000377 2447. 2568.
31.5116 31.4985 2673(51) 0.000385 2446. 2566.
31.5154 31.5023 2589(50) 0.000405 2446. 2565.
31.5192 31.5061 2616(50) 0.000397 2446. 2563.
31.5229 31.5098 2693(51) 0.000379 2446. 2562.
31.5267 31.5136 2508(49) 0.000411 2446. 2562.
31.5304 31.5173 2719(51) 0.000383 2446. 2564.
31.5342 31.5211 2537(49) 0.000422 2445. 2564.
31.5380 31.5249 2587(50) 0.000397 2445. 2565.
31.5417 31.5286 2651(51) 0.000384 2445. 2566.
31.5455 31.5324 2609(50) 0.000396 2445. 2568.
31.5492 31.5361 2550(50) 0.000404 2445. 2570.
31.5530 31.5399 2587(50) 0.000395 2444. 2575.
31.5568 31.5437 2569(50) 0.000404 2444. 2581.
31.5605 31.5474 2617(50) 0.000399 2444. 2589.
31.5643 31.5512 2742(51) 0.000379 2444. 2603.
31.5680 31.5549 2659(50) 0.000396 2444. 2627.
31.5718 31.5587 2674(51) 0.000385 2444. 2672.
31.5756 31.5625 2693(52) 0.000374 2443. 2748.
31.5793 31.5662 2975(54) 0.0003423 2443. 2860.
31.5831 31.5700 3021(54) 0.0003394 2443. 3014.
31.5868 31.5737 3200(56) 0.0003194 2443. 3180.
31.5906 31.5775 3375(58) 0.0002983 2443. 3322.
31.5944 31.5813 3399(58) 0.0003006 2443. 3372.
31.5981 31.5850 3309(57) 0.0003048 2442. 3303.
31.6019 31.5888 3247(56) 0.0003138 2442. 3154.
31.6056 31.5925 3037(54) 0.0003422 2442. 2997.
31.6094 31.5963 2915(53) 0.000353 2442. 2857.
31.6131 31.6000 2810(52) 0.000369 2442. 2759.
31.6169 31.6038 2752(51) 0.000378 2441. 2696.
31.6207 31.6076 2595(50) 0.000397 2441. 2663.
31.6244 31.6113 2802(52) 0.000367 2441. 2647.
31.6282 31.6151 2609(50) 0.000396 2441. 2646.
31.6319 31.6188 2584(50) 0.000397 2441. 2646.
31.6357 31.6226 2721(52) 0.000376 2441. 2649.
31.6395 31.6264 2710(51) 0.000378 2440. 2655.
31.6432 31.6301 2692(51) 0.000383 2440. 2661.
31.6470 31.6339 2776(52) 0.000369 2440. 2670.
31.6507 31.6376 2742(52) 0.000373 2440. 2680.
31.6545 31.6414 2775(52) 0.000366 2440. 2693.
31.6583 31.6452 2763(51) 0.000382 2439. 2707.
31.6620 31.6489 2747(52) 0.000375 2439. 2723.
31.6658 31.6527 2748(52) 0.000373 2439. 2742.
31.6695 31.6564 2884(53) 0.000359 2439. 2764.
31.6733 31.6602 2881(53) 0.000361 2439. 2789.
31.6771 31.6640 2834(52) 0.000364 2439. 2819.
31.6808 31.6677 2890(53) 0.000353 2438. 2852.
31.6846 31.6715 2815(52) 0.000364 2438. 2893.
31.6883 31.6752 2995(54) 0.0003399 2438. 2939.
31.6921 31.6790 3031(54) 0.0003400 2438. 2996.
31.6959 31.6828 3132(55) 0.0003289 2438. 3064.
31.6996 31.6865 3161(56) 0.0003188 2438. 3144.
31.7034 31.6903 3217(56) 0.0003220 2437. 3245.
31.7071 31.6940 3397(58) 0.0002989 2437. 3368.
31.7109 31.6978 3503(58) 0.0002934 2437. 3532.
31.7147 31.7016 3941(63) 0.0002560 2437. 3758.
31.7184 31.7053 4112(64) 0.0002440 2437. 4090.
31.7222 31.7091 4440(66) 0.0002299 2437. 4665.
31.7259 31.7128 5323(73) 0.0001873 2436. 5669.
31.7297 31.7166 6568(80) 0.0001545 2436. 7519.
31.7335 31.7204 9008(94) 0.0001139 2436. 10653.
31.7372 31.7241 13570(120) 0.0000742 2436. 15271.
31.7410 31.7279 21200(150) 0.0000461 2436. 21538.
31.7447 31.7316 31020(180) 0.0000317 2435. 28317.
31.7485 31.7354 37530(200) 0.0000252 2435. 34080.
31.7523 31.7392 37950(200) 0.0000249 2435. 36023.
31.7560 31.7429 32270(180) 0.0000299 2435. 33118.
31.7598 31.7467 25080(160) 0.0000386 2435. 26914.
31.7635 31.7504 18840(140) 0.0000519 2435. 20160.
31.7673 31.7542 14010(120) 0.0000707 2434. 14181.
31.7711 31.7580 10330(100) 0.0000965 2434. 9802.
31.7748 31.7617 8236(90) 0.0001243 2434. 7058.
31.7786 31.7655 6520(81) 0.0001542 2434. 5410.
31.7823 31.7692 5252(73) 0.0001899 2434. 4520.
31.7861 31.7730 4499(66) 0.0002280 2434. 4007.
31.7898 31.7767 4050(63) 0.0002524 2433. 3704.
31.7936 31.7805 3716(61) 0.0002713 2433. 3495.
31.7974 31.7843 3486(58) 0.0002928 2433. 3341.
31.8011 31.7880 3376(57) 0.0003043 2433. 3225.
31.8049 31.7918 3360(58) 0.0002997 2433. 3130.
31.8086 31.7955 3116(55) 0.0003249 2432. 3053.
31.8124 31.7993 3147(56) 0.0003240 2432. 2987.
31.8162 31.8031 3102(55) 0.0003257 2432. 2931.
31.8199 31.8068 2947(54) 0.0003406 2432. 2884.
31.8237 31.8106 2911(54) 0.0003442 2432. 2845.
31.8274 31.8143 2922(53) 0.000357 2432. 2812.
31.8312 31.8181 2817(53) 0.000363 2431. 2782.
31.8350 31.8219 2817(52) 0.000367 2431. 2756.
31.8387 31.8256 2785(52) 0.000365 2431. 2734.
31.8425 31.8294 2761(52) 0.000367 2431. 2715.
31.8462 31.8331 2679(51) 0.000377 2431. 2698.
31.8500 31.8369 2718(54) 0.0003476 2431. 2683.
31.8538 31.8407 2748(51) 0.000380 2430. 2669.
31.8575 31.8444 2725(52) 0.000374 2430. 2658.
31.8613 31.8482 2799(52) 0.000370 2430. 2647.
31.8650 31.8519 2616(51) 0.000387 2430. 2638.
31.8688 31.8557 2690(51) 0.000378 2430. 2630.
31.8725 31.8594 2709(51) 0.000383 2430. 2622.
31.8763 31.8632 2685(51) 0.000384 2429. 2615.
31.8801 31.8670 2711(51) 0.000381 2429. 2609.
31.8838 31.8707 2576(50) 0.000396 2429. 2604.
31.8876 31.8745 2696(52) 0.000370 2429. 2599.
31.8913 31.8782 2652(51) 0.000387 2429. 2595.
31.8951 31.8820 2706(51) 0.000378 2428. 2591.
31.8989 31.8858 2505(49) 0.000412 2428. 2588.
31.9026 31.8895 2659(51) 0.000387 2428. 2585.
31.9064 31.8933 2697(51) 0.000380 2428. 2582.
31.9101 31.8970 2576(51) 0.000392 2428. 2580.
31.9139 31.9008 2675(52) 0.000375 2428. 2578.
31.9177 31.9046 2559(50) 0.000402 2427. 2576.
31.9214 31.9083 2537(50) 0.000400 2427. 2575.
31.9252 31.9121 2632(51) 0.000386 2427. 2574.
31.9289 31.9158 2646(51) 0.000388 2427. 2573.
31.9327 31.9196 2569(51) 0.000391 2427. 2572.
31.9364 31.9233 2620(51) 0.000383 2427. 2572.
31.9402 31.9271 2664(51) 0.000377 2426. 2572.
31.9440 31.9309 2667(51) 0.000385 2426. 2572.
31.9477 31.9346 2697(51) 0.000385 2426. 2572.
31.9515 31.9384 2601(51) 0.000386 2426. 2573.
31.9552 31.9421 2624(51) 0.000391 2426. 2574.
31.9590 31.9459 2698(52) 0.000374 2426. 2575.
31.9628 31.9497 2601(51) 0.000386 2425. 2576.
31.9665 31.9534 2664(51) 0.000379 2425. 2578.
31.9703 31.9572 2614(51) 0.000385 2425. 2580.
31.9740 31.9609 2648(51) 0.000384 2425. 2582.
31.9778 31.9647 2649(51) 0.000387 2425. 2584.
31.9816 31.9685 2658(51) 0.000388 2425. 2587.
31.9853 31.9722 2544(50) 0.000399 2424. 2590.
31.9891 31.9760 2711(51) 0.000379 2424. 2593.
31.9928 31.9797 2679(51) 0.000386 2424. 2597.
31.9966 31.9835 2602(51) 0.000390 2424. 2601.
32.0003 31.9872 2595(50) 0.000394 2424. 2605.
32.0041 31.9910 2693(52) 0.000377 2423. 2610.
32.0079 31.9948 2659(51) 0.000382 2423. 2615.
32.0116 31.9985 2691(51) 0.000381 2423. 2621.
32.0154 32.0023 2683(52) 0.000376 2423. 2627.
32.0191 32.0060 2769(52) 0.000367 2423. 2634.
32.0229 32.0098 2682(51) 0.000385 2423. 2641.
32.0267 32.0136 2633(51) 0.000383 2422. 2650.
32.0304 32.0173 2734(52) 0.000370 2422. 2658.
32.0342 32.0211 2688(51) 0.000383 2422. 2668.
32.0379 32.0248 2765(52) 0.000368 2422. 2679.
32.0417 32.0286 2719(52) 0.000376 2422. 2691.
32.0454 32.0323 2793(52) 0.000365 2422. 2704.
32.0492 32.0361 2767(53) 0.000360 2421. 2719.
32.0530 32.0399 2856(53) 0.000361 2421. 2736.
32.0567 32.0436 2837(53) 0.000361 2421. 2755.
32.0605 32.0474 2728(52) 0.000369 2421. 2776.
32.0642 32.0511 2828(53) 0.000354 2421. 2800.
32.0680 32.0549 2895(54) 0.0003467 2421. 2828.
32.0718 32.0587 2966(53) 0.000352 2420. 2860.
32.0755 32.0624 2988(54) 0.0003415 2420. 2897.
32.0793 32.0662 3073(55) 0.0003277 2420. 2941.
32.0830 32.0699 3132(55) 0.0003305 2420. 2997.
32.0868 32.0737 3196(56) 0.0003179 2420. 3065.
32.0905 32.0774 3289(57) 0.0003087 2420. 3156.
32.0943 32.0812 3291(57) 0.0003129 2419. 3295.
32.0981 32.0850 3486(58) 0.0002937 2419. 3532.
32.1018 32.0887 3791(60) 0.0002748 2419. 3945.
32.1056 32.0925 4408(66) 0.0002292 2419. 4690.
32.1093 32.0962 5381(73) 0.0001894 2419. 5859.
32.1131 32.1000 7084(85) 0.0001393 2419. 7575.
32.1169 32.1038 9530(97) 0.0001058 2418. 9662.
32.1206 32.1075 12000(110) 0.0000830 2418. 11631.
32.1244 32.1113 12750(110) 0.0000800 2418. 12838.
32.1281 32.1150 11830(110) 0.0000847 2418. 12626.
32.1319 32.1188 10350(100) 0.0000980 2418. 11165.
32.1356 32.1225 8438(91) 0.0001204 2418. 9273.
32.1394 32.1263 7079(84) 0.0001412 2417. 7499.
32.1432 32.1301 6541(80) 0.0001562 2417. 6227.
32.1469 32.1338 6079(77) 0.0001669 2417. 5569.
32.1507 32.1376 5812(75) 0.0001763 2417. 5478.
32.1544 32.1413 6106(77) 0.0001670 2417. 5993.
32.1582 32.1451 6937(83) 0.0001456 2416. 7324.
32.1619 32.1488 8636(93) 0.0001166 2416. 9687.
32.1657 32.1526 12050(110) 0.0000828 2416. 13473.
32.1695 32.1564 17560(130) 0.0000574 2416. 18592.
32.1732 32.1601 24960(160) 0.0000391 2416. 24230.
32.1770 32.1639 30190(180) 0.0000319 2416. 29338.
32.1807 32.1676 31170(180) 0.0000311 2415. 32053.
32.1845 32.1714 29170(170) 0.0000329 2415. 32220.
32.1883 32.1752 28060(170) 0.0000342 2415. 31546.
32.1920 32.1789 29560(180) 0.0000322 2415. 31944.
32.1958 32.1827 34630(190) 0.0000281 2415. 33892.
32.1995 32.1864 38540(200) 0.0000246 2415. 36037.
32.2033 32.1902 37730(200) 0.0000252 2414. 36036.
32.2070 32.1939 32410(180) 0.0000295 2414. 32471.
32.2108 32.1977 26010(160) 0.0000371 2414. 26305.
32.2146 32.2015 19590(140) 0.0000514 2414. 19737.
32.2183 32.2052 14830(120) 0.0000673 2414. 14361.
32.2221 32.2090 11850(110) 0.0000834 2414. 10454.
32.2258 32.2127 9823(99) 0.0001026 2413. 8177.
32.2296 32.2165 8812(93) 0.0001156 2413. 7057.
32.2333 32.2202 8279(91) 0.0001219 2413. 6861.
32.2371 32.2240 8000(90) 0.0001245 2413. 7502.
32.2409 32.2278 8809(93) 0.0001161 2413. 9195.
32.2446 32.2315 10960(110) 0.0000911 2413. 12222.
32.2484 32.2353 14800(120) 0.0000689 2412. 17010.
32.2521 32.2390 21770(150) 0.0000453 2412. 23184.
32.2559 32.2428 30820(180) 0.0000313 2412. 30165.
32.2596 32.2465 36200(190) 0.0000271 2412. 35676.
32.2634 32.2503 36410(200) 0.0000261 2412. 37475.
32.2672 32.2541 31650(180) 0.0000305 2412. 34330.
32.2709 32.2578 25360(160) 0.0000380 2411. 28257.
32.2747 32.2616 19190(140) 0.0000523 2411. 21474.
32.2784 32.2653 14840(120) 0.0000683 2411. 16028.
32.2822 32.2691 12150(110) 0.0000817 2411. 12389.
32.2860 32.2729 11110(110) 0.0000893 2411. 10876.
32.2897 32.2766 11020(110) 0.0000913 2411. 11220.
32.2935 32.2804 12920(110) 0.0000767 2410. 13026.
32.2972 32.2841 16130(130) 0.0000615 2410. 15645.
32.3010 32.2879 19680(140) 0.0000499 2410. 18368.
32.3047 32.2916 20510(140) 0.0000487 2410. 19917.
32.3085 32.2954 19160(140) 0.0000520 2410. 19391.
32.3123 32.2992 16160(130) 0.0000625 2410. 16917.
32.3160 32.3029 12850(110) 0.0000771 2409. 13697.
32.3198 32.3067 10130(100) 0.0000994 2409. 10515.
32.3235 32.3104 8177(90) 0.0001230 2409. 8002.
32.3273 32.3142 6732(82) 0.0001490 2409. 6170.
32.3310 32.3179 5748(76) 0.0001752 2409. 5017.
32.3348 32.3217 4774(70) 0.0002065 2409. 4304.
32.3386 32.3255 4483(67) 0.0002250 2408. 3883.
32.3423 32.3292 4035(63) 0.0002554 2408. 3630.
32.3461 32.3330 3721(61) 0.0002687 2408. 3455.
32.3498 32.3367 3532(59) 0.0002863 2408. 3329.
32.3536 32.3405 3391(58) 0.0002930 2408. 3228.
32.3573 32.3442 3436(59) 0.0002849 2408. 3148.
32.3611 32.3480 3259(57) 0.0003083 2407. 3079.
32.3649 32.3518 3248(57) 0.0003086 2407. 3021.
32.3686 32.3555 3189(56) 0.0003133 2407. 2973.
32.3724 32.3593 3020(54) 0.0003436 2407. 2930.
32.3761 32.3630 3067(55) 0.0003253 2407. 2894.
32.3799 32.3668 3072(56) 0.0003235 2407. 2861.
32.3836 32.3705 3006(54) 0.0003369 2406. 2832.
32.3874 32.3743 3036(55) 0.0003349 2406. 2807.
32.3912 32.3781 3049(55) 0.0003292 2406. 2784.
32.3949 32.3818 2995(55) 0.0003346 2406. 2765.
32.3987 32.3856 2951(54) 0.0003396 2406. 2747.
32.4024 32.3893 2971(54) 0.0003397 2406. 2732.
32.4062 32.3931 2867(54) 0.0003461 2405. 2717.
32.4099 32.3968 2931(54) 0.0003428 2405. 2705.
32.4137 32.4006 2897(54) 0.0003441 2405. 2693.
32.4175 32.4044 2902(54) 0.0003416 2405. 2683.
32.4212 32.4081 2905(54) 0.0003448 2405. 2673.
32.4250 32.4119 2895(54) 0.0003436 2405. 2665.
32.4287 32.4156 2808(53) 0.000353 2404. 2658.
32.4325 32.4194 2895(54) 0.0003447 2404. 2651.
32.4362 32.4231 2947(54) 0.0003384 2404. 2645.
32.4400 32.4269 2866(53) 0.0003504 2404. 2640.
32.4437 32.4306 2836(53) 0.000352 2404. 2635.
32.4475 32.4344 2729(52) 0.000367 2404. 2631.
32.4513 32.4382 2776(53) 0.000354 2403. 2628.
32.4550 32.4419 2851(53) 0.000353 2403. 2626.
32.4588 32.4457 2799(53) 0.000359 2403. 2624.
32.4625 32.4494 2626(51) 0.000380 2403. 2622.
32.4663 32.4532 2774(52) 0.000372 2403. 2621.
32.4700 32.4569 2872(53) 0.0003504 2403. 2621.
32.4738 32.4607 2723(52) 0.000367 2402. 2622.
32.4776 32.4645 2730(52) 0.000364 2402. 2623.
32.4813 32.4682 2741(52) 0.000364 2402. 2625.
32.4851 32.4720 2814(53) 0.000358 2402. 2627.
32.4888 32.4757 2858(54) 0.0003398 2402. 2631.
32.4926 32.4795 2771(53) 0.000359 2402. 2635.
32.4963 32.4832 2837(53) 0.000351 2401. 2641.
32.5001 32.4870 2824(53) 0.000361 2401. 2647.
32.5039 32.4908 2841(53) 0.000353 2401. 2655.
32.5076 32.4945 2838(53) 0.000356 2401. 2664.
32.5114 32.4983 2777(52) 0.000369 2401. 2675.
32.5151 32.5020 2713(52) 0.000368 2401. 2688.
32.5189 32.5058 2801(53) 0.000358 2400. 2703.
32.5226 32.5095 2843(53) 0.0003505 2400. 2720.
32.5264 32.5133 2919(55) 0.0003355 2400. 2741.
32.5301 32.5170 2982(55) 0.0003359 2400. 2765.
32.5339 32.5208 2936(55) 0.0003355 2400. 2795.
32.5377 32.5246 2954(55) 0.0003351 2400. 2830.
32.5414 32.5283 2957(54) 0.0003401 2399. 2871.
32.5452 32.5321 3097(56) 0.0003178 2399. 2922.
32.5489 32.5358 3147(56) 0.0003221 2399. 2986.
32.5527 32.5396 3268(58) 0.0002992 2399. 3064.
32.5564 32.5433 3414(59) 0.0002880 2399. 3161.
32.5602 32.5471 3498(59) 0.0002846 2399. 3296.
32.5640 32.5509 3651(60) 0.0002749 2398. 3494.
32.5677 32.5546 3920(63) 0.0002555 2398. 3811.
32.5715 32.5584 4487(68) 0.0002169 2398. 4397.
32.5752 32.5621 5214(73) 0.0001852 2398. 5453.
32.5790 32.5659 6666(83) 0.0001459 2398. 7361.
32.5827 32.5696 8958(96) 0.0001090 2398. 10342.
32.5865 32.5734 13170(120) 0.0000744 2397. 14659.
32.5902 32.5771 19540(140) 0.0000492 2397. 19747.
32.5940 32.5809 25240(160) 0.0000375 2397. 24770.
32.5978 32.5847 28600(180) 0.0000325 2397. 27765.
32.6015 32.5884 26580(170) 0.0000359 2397. 27183.
32.6053 32.5922 21750(150) 0.0000442 2397. 23341.
32.6090 32.5959 16310(130) 0.0000606 2396. 18235.
32.6128 32.5997 12270(110) 0.0000810 2396. 13202.
32.6165 32.6034 9333(97) 0.0001067 2396. 9351.
32.6203 32.6072 7116(85) 0.0001377 2396. 6657.
32.6240 32.6109 5879(77) 0.0001665 2396. 5075.
32.6278 32.6147 4788(69) 0.0002105 2396. 4170.
32.6316 32.6185 4127(64) 0.0002411 2395. 3684.
32.6353 32.6222 3796(62) 0.0002571 2395. 3415.
32.6391 32.6260 3429(60) 0.0002825 2395. 3241.
32.6428 32.6297 3254(57) 0.0003058 2395. 3121.
32.6466 32.6335 3144(56) 0.0003143 2395. 3028.
32.6503 32.6372 3082(56) 0.0003155 2395. 2956.
32.6541 32.6410 2990(55) 0.0003277 2394. 2896.
32.6579 32.6448 2970(55) 0.0003328 2394. 2847.
32.6616 32.6485 2982(56) 0.0003243 2394. 2807.
32.6654 32.6523 2913(54) 0.0003372 2394. 2773.
32.6691 32.6560 2915(54) 0.0003403 2394. 2746.
32.6729 32.6598 2790(54) 0.0003464 2394. 2721.
32.6766 32.6635 2829(53) 0.0003496 2393. 2701.
32.6804 32.6673 2739(53) 0.000357 2393. 2684.
32.6841 32.6710 2789(53) 0.000352 2393. 2669.
32.6879 32.6748 2809(53) 0.000352 2393. 2657.
32.6917 32.6786 2781(53) 0.000354 2393. 2646.
32.6954 32.6823 2781(53) 0.000352 2393. 2637.
32.6992 32.6861 2677(52) 0.000374 2392. 2629.
32.7029 32.6898 2723(52) 0.000363 2392. 2623.
32.7067 32.6936 2681(52) 0.000369 2392. 2618.
32.7104 32.6973 2764(53) 0.000354 2392. 2613.
32.7142 32.7011 2648(52) 0.000374 2392. 2610.
32.7179 32.7048 2663(51) 0.000386 2392. 2608.
32.7217 32.7086 2792(53) 0.000351 2392. 2607.
32.7254 32.7123 2708(53) 0.0003502 2391. 2606.
32.7292 32.7161 2683(52) 0.000373 2391. 2607.
32.7330 32.7199 2634(52) 0.000374 2391. 2608.
32.7367 32.7236 2652(52) 0.000372 2391. 2610.
32.7405 32.7274 2674(52) 0.000365 2391. 2613.
32.7442 32.7311 2642(51) 0.000382 2391. 2617.
32.7480 32.7349 2689(51) 0.000380 2390. 2623.
32.7517 32.7386 2640(51) 0.000381 2390. 2629.
32.7555 32.7424 2674(52) 0.000370 2390. 2637.
32.7592 32.7461 2689(53) 0.000361 2390. 2646.
32.7630 32.7499 2781(54) 0.0003484 2390. 2657.
32.7668 32.7537 2785(53) 0.000353 2390. 2669.
32.7705 32.7574 2708(52) 0.000364 2389. 2684.
32.7743 32.7612 2780(53) 0.000355 2389. 2701.
32.7780 32.7649 2866(53) 0.000354 2389. 2721.
32.7818 32.7687 2836(53) 0.000353 2389. 2744.
32.7855 32.7724 2912(55) 0.0003364 2389. 2769.
32.7893 32.7762 2816(53) 0.000351 2389. 2802.
32.7930 32.7799 2918(54) 0.0003420 2388. 2840.
32.7955 32.7824 2892(53) 0.000358 2388. 2870.
32.7992 32.7861 2945(53) 0.0003499 2388. 2922.
32.8030 32.7899 3116(55) 0.0003330 2388. 2986.
32.8068 32.7937 3174(56) 0.0003185 2388. 3064.
32.8105 32.7974 3309(57) 0.0003085 2388. 3161.
32.8143 32.8012 3465(58) 0.0002931 2387. 3290.
32.8180 32.8049 3628(60) 0.0002782 2387. 3466.
32.8218 32.8087 3930(62) 0.0002573 2387. 3747.
32.8255 32.8124 4262(66) 0.0002316 2387. 4217.
32.8293 32.8162 4852(69) 0.0002077 2387. 5097.
32.8331 32.8200 5910(76) 0.0001737 2387. 6695.
32.8368 32.8237 8037(90) 0.0001233 2387. 9291.
32.8406 32.8275 11940(110) 0.0000832 2386. 13295.
32.8443 32.8312 18110(140) 0.0000532 2386. 18381.
32.8481 32.8350 25610(170) 0.0000365 2386. 24086.
32.8518 32.8387 30500(180) 0.0000312 2386. 28615.
32.8556 32.8425 30430(180) 0.0000312 2386. 30179.
32.8594 32.8463 25830(170) 0.0000369 2386. 27737.
32.8631 32.8500 20160(140) 0.0000497 2385. 22784.
32.8669 32.8538 14970(120) 0.0000651 2385. 17090.
32.8706 32.8575 11340(110) 0.0000862 2385. 12246.
32.8744 32.8613 8737(93) 0.0001146 2385. 8571.
32.8781 32.8650 6997(83) 0.0001442 2385. 6250.
32.8819 32.8688 5647(75) 0.0001768 2385. 4856.
32.8857 32.8726 4835(70) 0.0002065 2384. 4096.
32.8894 32.8763 4211(65) 0.0002374 2384. 3688.
32.8932 32.8801 3906(62) 0.0002579 2384. 3441.
32.8969 32.8838 3488(59) 0.0002840 2384. 3283.
32.9007 32.8876 3406(58) 0.0002947 2384. 3166.
32.9044 32.8913 3239(57) 0.0003076 2384. 3080.
32.9082 32.8951 3181(57) 0.0003114 2383. 3011.
32.9120 32.8989 3008(55) 0.0003329 2383. 2957.
32.9157 32.9026 3117(56) 0.0003189 2383. 2917.
32.9195 32.9064 3083(56) 0.0003213 2383. 2888.
32.9232 32.9101 3109(56) 0.0003209 2383. 2871.
32.9270 32.9139 3018(55) 0.0003304 2383. 2871.
32.9307 32.9176 3031(55) 0.0003312 2382. 2894.
32.9345 32.9214 3067(55) 0.0003250 2382. 2955.
32.9383 32.9252 3112(56) 0.0003215 2382. 3069.
32.9420 32.9289 3197(57) 0.0003073 2382. 3241.
32.9458 32.9327 3423(58) 0.0002936 2382. 3475.
32.9495 32.9364 3860(62) 0.0002601 2382. 3734.
32.9533 32.9402 4132(64) 0.0002405 2381. 3966.
32.9570 32.9439 4187(64) 0.0002461 2381. 4071.
32.9608 32.9477 4093(64) 0.0002453 2381. 3994.
32.9646 32.9515 3674(61) 0.0002718 2381. 3772.
32.9683 32.9552 3546(60) 0.0002797 2381. 3507.
32.9721 32.9590 3230(57) 0.0003082 2381. 3258.
32.9758 32.9627 3121(56) 0.0003227 2381. 3069.
32.9796 32.9665 3088(56) 0.0003143 2380. 2944.
32.9833 32.9702 2927(54) 0.0003400 2380. 2886.
32.9871 32.9740 3005(55) 0.0003312 2380. 2882.
32.9908 32.9777 2975(54) 0.0003425 2380. 2924.
32.9946 32.9815 3108(56) 0.0003223 2380. 3002.
32.9984 32.9853 3256(57) 0.0003096 2380. 3096.
33.0021 32.9890 3372(57) 0.0003037 2379. 3174.
33.0059 32.9928 3346(58) 0.0002980 2379. 3205.
33.0096 32.9965 3360(58) 0.0002977 2379. 3176.
33.0134 33.0003 3304(58) 0.0003013 2379. 3108.
33.0171 33.0040 3106(56) 0.0003151 2379. 3037.
33.0209 33.0078 3095(56) 0.0003236 2379. 2980.
33.0247 33.0116 3123(56) 0.0003152 2378. 2948.
33.0274 33.0143 3108(55) 0.0003249 2378. 2941.
33.0312 33.0181 3077(56) 0.0003182 2378. 2953.
33.0349 33.0218 3259(56) 0.0003137 2378. 2984.
33.0387 33.0256 3260(57) 0.0003101 2378. 3034.
33.0425 33.0294 3237(57) 0.0003087 2378. 3100.
33.0462 33.0331 3425(59) 0.0002919 2377. 3182.
33.0500 33.0369 3466(59) 0.0002847 2377. 3291.
33.0537 33.0406 3572(60) 0.0002793 2377. 3431.
33.0575 33.0444 3864(63) 0.0002507 2377. 3635.
33.0612 33.0481 4209(65) 0.0002374 2377. 3940.
33.0650 33.0519 4535(68) 0.0002174 2377. 4465.
33.0687 33.0556 5161(72) 0.0001915 2377. 5346.
33.0725 33.0594 6299(80) 0.0001548 2376. 6868.
33.0763 33.0632 8223(91) 0.0001199 2376. 9279.
33.0800 33.0669 11310(110) 0.0000877 2376. 12607.
33.0838 33.0707 16620(130) 0.0000580 2376. 16899.
33.0875 33.0744 23180(150) 0.0000420 2376. 21338.
33.0913 33.0782 27960(170) 0.0000349 2376. 24996.
33.0950 33.0819 28290(180) 0.0000328 2375. 26330.
33.0988 33.0857 25490(160) 0.0000371 2375. 25059.
33.1025 33.0894 21410(150) 0.0000446 2375. 22498.
33.1063 33.0932 18680(140) 0.0000511 2375. 20157.
33.1100 33.0969 17910(140) 0.0000530 2375. 19085.
33.1138 33.1007 19570(140) 0.0000504 2375. 19252.
33.1176 33.1045 21230(150) 0.0000449 2374. 19866.
33.1213 33.1082 20410(150) 0.0000478 2374. 19602.
33.1251 33.1120 17610(130) 0.0000554 2374. 17649.
33.1288 33.1157 13870(120) 0.0000691 2374. 14564.
33.1326 33.1195 10330(100) 0.0000937 2374. 11169.
33.1363 33.1232 8189(91) 0.0001211 2374. 8325.
33.1401 33.1270 6572(81) 0.0001506 2373. 6196.
33.1438 33.1307 5417(75) 0.0001778 2373. 4858.
33.1476 33.1345 4556(68) 0.0002155 2373. 4057.
33.1514 33.1383 4047(64) 0.0002427 2373. 3612.
33.1551 33.1420 3638(61) 0.0002673 2373. 3363.
33.1589 33.1458 3379(59) 0.0002906 2373. 3202.
33.1626 33.1495 3095(56) 0.0003188 2373. 3091.
33.1664 33.1533 3066(56) 0.0003185 2372. 3003.
33.1701 33.1570 3006(55) 0.0003274 2372. 2935.
33.1739 33.1608 2972(55) 0.0003283 2372. 2876.
33.1776 33.1645 2854(54) 0.0003393 2372. 2829.
33.1814 33.1683 2836(53) 0.000351 2372. 2787.
33.1852 33.1721 2784(53) 0.000351 2372. 2752.
33.1889 33.1758 2783(53) 0.000357 2371. 2722.
33.1927 33.1796 2665(52) 0.000366 2371. 2695.
33.1964 33.1833 2796(54) 0.0003468 2371. 2673.
33.2002 33.1871 2794(53) 0.000357 2371. 2652.
33.2039 33.1908 2729(53) 0.000353 2371. 2635.
33.2077 33.1946 2650(52) 0.000364 2371. 2619.
33.2114 33.1983 2680(53) 0.000362 2370. 2605.
33.2152 33.2021 2580(52) 0.000375 2370. 2592.
33.2190 33.2059 2654(52) 0.000372 2370. 2581.
33.2227 33.2096 2542(51) 0.000384 2370. 2571.
33.2265 33.2134 2680(52) 0.000367 2370. 2562.
33.2302 33.2171 2710(52) 0.000364 2370. 2554.
33.2340 33.2209 2515(50) 0.000393 2369. 2547.
33.2377 33.2246 2714(53) 0.000359 2369. 2540.
33.2415 33.2284 2577(51) 0.000388 2369. 2534.
33.2452 33.2321 2661(52) 0.000368 2369. 2529.
33.2490 33.2359 2632(52) 0.000373 2369. 2524.
33.2528 33.2397 2608(52) 0.000370 2369. 2520.
33.2565 33.2434 2637(52) 0.000371 2369. 2517.
33.2603 33.2472 2496(51) 0.000389 2368. 2514.
33.2640 33.2509 2603(52) 0.000370 2368. 2511.
33.2678 33.2547 2553(51) 0.000379 2368. 2509.
33.2715 33.2584 2574(52) 0.000375 2368. 2507.
33.2753 33.2622 2544(51) 0.000387 2368. 2506.
33.2791 33.2660 2573(51) 0.000379 2368. 2505.
33.2828 33.2697 2465(50) 0.000394 2367. 2505.
33.2866 33.2735 2548(50) 0.000393 2367. 2505.
33.2903 33.2772 2519(51) 0.000379 2367. 2506.
33.2941 33.2810 2664(53) 0.000358 2367. 2507.
33.2978 33.2847 2567(52) 0.000374 2367. 2508.
33.3016 33.2885 2475(50) 0.000393 2367. 2511.
33.3053 33.2922 2648(53) 0.000360 2366. 2515.
33.3091 33.2960 2642(52) 0.000367 2366. 2520.
33.3129 33.2998 2565(52) 0.000375 2366. 2526.
33.3166 33.3035 2574(52) 0.000372 2366. 2534.
33.3204 33.3073 2667(52) 0.000364 2366. 2544.
33.3241 33.3110 2650(53) 0.000361 2366. 2557.
33.3279 33.3148 2709(53) 0.000356 2365. 2573.
33.3316 33.3185 2663(53) 0.000358 2365. 2595.
33.3354 33.3223 2695(53) 0.000356 2365. 2626.
33.3392 33.3261 2717(53) 0.000357 2365. 2674.
33.3429 33.3298 2680(52) 0.000364 2365. 2762.
33.3467 33.3336 3037(55) 0.0003267 2365. 2933.
33.3504 33.3373 3167(57) 0.0003070 2365. 3235.
33.3542 33.3411 3555(60) 0.0002758 2364. 3752.
33.3579 33.3448 4300(67) 0.0002237 2364. 4496.
33.3617 33.3486 5302(74) 0.0001802 2364. 5466.
33.3654 33.3523 6642(83) 0.0001448 2364. 6457.
33.3692 33.3561 7208(87) 0.0001330 2364. 7214.
33.3730 33.3599 6970(85) 0.0001391 2364. 7366.
33.3767 33.3636 6471(83) 0.0001455 2363. 6873.
33.3805 33.3674 5542(76) 0.0001737 2363. 5985.
33.3842 33.3711 4791(70) 0.0002035 2363. 5056.
33.3880 33.3749 4156(66) 0.0002294 2363. 4228.
33.3917 33.3786 3787(63) 0.0002541 2363. 3630.
33.3955 33.3824 3473(59) 0.0002878 2363. 3224.
33.3993 33.3862 3078(56) 0.0003241 2362. 2985.
33.4030 33.3899 3039(56) 0.0003226 2362. 2856.
33.4068 33.3937 2939(55) 0.0003263 2362. 2787.
33.4105 33.3974 2848(54) 0.0003400 2362. 2758.
33.4143 33.4012 2768(54) 0.0003444 2362. 2752.
33.4180 33.4049 2791(54) 0.0003476 2362. 2765.
33.4218 33.4087 2836(54) 0.0003421 2362. 2797.
33.4256 33.4125 2979(56) 0.0003226 2361. 2861.
33.4293 33.4162 2945(55) 0.0003251 2361. 2976.
33.4331 33.4200 3159(58) 0.0003005 2361. 3201.
33.4368 33.4237 3351(59) 0.0002854 2361. 3599.
33.4406 33.4275 3892(64) 0.0002445 2361. 4292.
33.4443 33.4312 4793(72) 0.0001953 2361. 5313.
33.4481 33.4350 6325(82) 0.0001501 2360. 6705.
33.4519 33.4388 8229(92) 0.0001188 2360. 8274.
33.4556 33.4425 9800(100) 0.0000959 2360. 9596.
33.4594 33.4463 10120(100) 0.0000928 2360. 10205.
33.4631 33.4500 9480(100) 0.0000996 2360. 9754.
33.4669 33.4538 7920(92) 0.0001177 2360. 8475.
33.4706 33.4575 6235(81) 0.0001524 2359. 6958.
33.4744 33.4613 5128(73) 0.0001856 2359. 5529.
33.4781 33.4650 4339(68) 0.0002158 2359. 4462.
33.4819 33.4688 3949(64) 0.0002419 2359. 3728.
33.4857 33.4726 3495(61) 0.0002728 2359. 3297.
33.4894 33.4763 3250(57) 0.0003049 2359. 3071.
33.4932 33.4801 3211(57) 0.0003074 2358. 2957.
33.4969 33.4838 3093(56) 0.0003178 2358. 2908.
33.5007 33.4876 3018(56) 0.0003239 2358. 2894.
33.5044 33.4913 3014(55) 0.0003261 2358. 2906.
33.5082 33.4951 2949(54) 0.0003373 2358. 2949.
33.5120 33.4989 3145(56) 0.0003202 2358. 3040.
33.5157 33.5026 3313(58) 0.0003015 2358. 3225.
33.5195 33.5064 3483(59) 0.0002839 2357. 3622.
33.5232 33.5101 3971(63) 0.0002485 2357. 4380.
33.5270 33.5139 4904(71) 0.0001988 2357. 5771.
33.5307 33.5176 6782(84) 0.0001430 2357. 7880.
33.5345 33.5214 9640(100) 0.0001006 2357. 10756.
33.5383 33.5252 13130(120) 0.0000734 2357. 13873.
33.5420 33.5289 15710(130) 0.0000594 2356. 16221.
33.5458 33.5327 15180(130) 0.0000642 2356. 16813.
33.5495 33.5364 13320(120) 0.0000716 2356. 15285.
33.5533 33.5402 10610(110) 0.0000902 2356. 12394.
33.5570 33.5439 8160(92) 0.0001192 2356. 9368.
33.5608 33.5477 6426(81) 0.0001520 2356. 6767.
33.5646 33.5515 5219(73) 0.0001861 2355. 4957.
33.5683 33.5552 4522(68) 0.0002182 2355. 3893.
33.5721 33.5590 3899(64) 0.0002466 2355. 3303.
33.5758 33.5627 3419(59) 0.0002921 2355. 3009.
33.5796 33.5665 3156(56) 0.0003154 2355. 2850.
33.5834 33.5703 2966(55) 0.0003291 2355. 2758.
33.5871 33.5740 2875(54) 0.0003392 2355. 2698.
33.5909 33.5778 2738(53) 0.000357 2354. 2652.
33.5946 33.5815 2721(53) 0.000361 2354. 2616.
33.5984 33.5853 2688(52) 0.000373 2354. 2586.
33.6021 33.5890 2574(51) 0.000386 2354. 2563.
33.6059 33.5928 2591(51) 0.000381 2354. 2542.
33.6097 33.5966 2658(52) 0.000365 2354. 2525.
33.6134 33.6003 2480(49) 0.000409 2353. 2511.
33.6172 33.6041 2606(52) 0.000373 2353. 2498.
33.6209 33.6078 2509(51) 0.000382 2353. 2491.
33.6247 33.6116 2537(51) 0.000389 2353. 2481.
33.6284 33.6153 2536(51) 0.000381 2353. 2473.
33.6322 33.6191 2562(52) 0.000373 2353. 2464.
33.6360 33.6229 2490(50) 0.000398 2352. 2458.
33.6397 33.6266 2462(49) 0.000410 2352. 2452.
33.6435 33.6304 2469(50) 0.000395 2352. 2447.
33.6472 33.6341 2534(51) 0.000382 2352. 2442.
33.6510 33.6379 2451(51) 0.000391 2352. 2438.
33.6547 33.6416 2487(51) 0.000381 2352. 2435.
33.6585 33.6454 2518(51) 0.000387 2352. 2431.
33.6623 33.6492 2437(50) 0.000406 2351. 2428.
33.6660 33.6529 2539(50) 0.000394 2351. 2425.
33.6698 33.6567 2516(51) 0.000381 2351. 2423.
33.6735 33.6604 2466(51) 0.000392 2351. 2421.
33.6773 33.6642 2399(49) 0.000410 2351. 2419.
33.6811 33.6680 2384(50) 0.000408 2351. 2417.
33.6848 33.6717 2540(51) 0.000378 2350. 2415.
33.6886 33.6755 2540(52) 0.000376 2350. 2414.
33.6923 33.6792 2397(49) 0.000410 2350. 2412.
33.6961 33.6830 2507(51) 0.000386 2350. 2411.
33.6998 33.6867 2430(50) 0.000400 2350. 2410.
33.7036 33.6905 2442(50) 0.000403 2350. 2411.
33.7074 33.6943 2368(48) 0.000426 2349. 2410.
33.7111 33.6980 2527(51) 0.000387 2349. 2410.
33.7149 33.7018 2481(50) 0.000392 2349. 2409.
33.7186 33.7055 2322(49) 0.000417 2349. 2409.
33.7224 33.7093 2475(50) 0.000400 2349. 2408.
33.7261 33.7130 2470(50) 0.000394 2349. 2408.
33.7299 33.7168 2408(49) 0.000412 2349. 2408.
33.7337 33.7206 2492(50) 0.000399 2348. 2408.
33.7374 33.7243 2455(50) 0.000399 2348. 2408.
33.7412 33.7281 2458(50) 0.000397 2348. 2408.
33.7449 33.7318 2395(50) 0.000407 2348. 2409.
33.7487 33.7356 2409(50) 0.000402 2348. 2409.
33.7525 33.7394 2441(50) 0.000404 2348. 2410.
33.7562 33.7431 2398(50) 0.000404 2347. 2411.
33.7600 33.7469 2481(51) 0.000390 2347. 2412.
33.7637 33.7506 2443(50) 0.000400 2347. 2413.
33.7675 33.7544 2404(49) 0.000410 2347. 2414.
33.7712 33.7581 2418(50) 0.000397 2347. 2416.
33.7750 33.7619 2363(49) 0.000409 2347. 2418.
33.7788 33.7657 2407(49) 0.000410 2347. 2420.
33.7825 33.7694 2448(50) 0.000398 2346. 2422.
33.7863 33.7732 2501(50) 0.000398 2346. 2425.
33.7900 33.7769 2475(51) 0.000385 2346. 2428.
33.7938 33.7807 2515(51) 0.000390 2346. 2432.
33.7976 33.7845 2495(51) 0.000389 2346. 2436.
33.8013 33.7882 2412(50) 0.000405 2346. 2441.
33.8051 33.7920 2460(51) 0.000390 2345. 2446.
33.8088 33.7957 2474(51) 0.000386 2345. 2452.
33.8126 33.7995 2481(50) 0.000393 2345. 2460.
33.8163 33.8032 2480(51) 0.000379 2345. 2468.
33.8201 33.8070 2479(51) 0.000388 2345. 2477.
33.8239 33.8108 2489(51) 0.000384 2345. 2489.
33.8276 33.8145 2419(50) 0.000400 2344. 2502.
33.8314 33.8183 2624(52) 0.000375 2344. 2518.
33.8351 33.8220 2623(52) 0.000375 2344. 2537.
33.8389 33.8258 2621(52) 0.000369 2344. 2560.
33.8427 33.8296 2575(52) 0.000368 2344. 2589.
33.8464 33.8333 2537(51) 0.000383 2344. 2625.
33.8502 33.8371 2716(53) 0.000358 2344. 2675.
33.8539 33.8408 2787(54) 0.0003454 2343. 2744.
33.8577 33.8446 2840(55) 0.0003346 2343. 2857.
33.8614 33.8483 3027(56) 0.0003196 2343. 3039.
33.8652 33.8521 3181(56) 0.0003146 2343. 3357.
33.8690 33.8559 3493(59) 0.0002834 2343. 3887.
33.8727 33.8596 4192(66) 0.0002296 2343. 4676.
33.8765 33.8634 5043(73) 0.0001874 2342. 5801.
33.8802 33.8671 6770(85) 0.0001399 2342. 7148.
33.8840 33.8709 8814(96) 0.0001085 2342. 8596.
33.8878 33.8747 10100(100) 0.0000937 2342. 9720.
33.8915 33.8784 10280(110) 0.0000912 2342. 10050.
33.8953 33.8822 9300(99) 0.0001012 2342. 9428.
33.8990 33.8859 7977(91) 0.0001204 2341. 8185.
33.9028 33.8897 6479(83) 0.0001459 2341. 6728.
33.9065 33.8934 5351(75) 0.0001770 2341. 5442.
33.9103 33.8972 4327(66) 0.0002268 2341. 4406.
33.9141 33.9010 3769(62) 0.0002631 2341. 3689.
33.9178 33.9047 3439(60) 0.0002800 2341. 3244.
33.9216 33.9085 2971(55) 0.0003255 2341. 2970.
33.9253 33.9122 2879(55) 0.0003266 2340. 2814.
33.9291 33.9160 2757(53) 0.000354 2340. 2717.
33.9329 33.9198 2732(54) 0.0003473 2340. 2653.
33.9366 33.9235 2624(52) 0.000367 2340. 2610.
33.9404 33.9273 2640(52) 0.000374 2340. 2575.
33.9441 33.9310 2519(51) 0.000379 2340. 2548.
33.9479 33.9348 2523(51) 0.000381 2339. 2526.
33.9517 33.9386 2443(50) 0.000397 2339. 2507.
33.9554 33.9423 2511(51) 0.000388 2339. 2492.
33.9592 33.9461 2451(50) 0.000401 2339. 2479.
33.9629 33.9498 2457(51) 0.000387 2339. 2468.
33.9667 33.9536 2461(51) 0.000379 2339. 2458.
33.9704 33.9573 2426(50) 0.000393 2339. 2450.
33.9742 33.9611 2312(48) 0.000434 2338. 2443.
33.9780 33.9649 2419(50) 0.000399 2338. 2436.
33.9817 33.9686 2421(50) 0.000408 2338. 2431.
33.9855 33.9724 2380(49) 0.000411 2338. 2426.
33.9892 33.9761 2401(49) 0.000413 2338. 2421.
33.9930 33.9799 2475(50) 0.000405 2338. 2417.
33.9968 33.9837 2403(49) 0.000411 2337. 2414.
34.0005 33.9874 2387(49) 0.000419 2337. 2411.
34.0043 33.9912 2481(51) 0.000389 2337. 2408.
34.0080 33.9949 2387(50) 0.000404 2337. 2406.
34.0118 33.9987 2395(50) 0.000405 2337. 2403.
34.0156 34.0025 2495(50) 0.000394 2337. 2401.
34.0193 34.0062 2432(50) 0.000400 2336. 2400.
34.0231 34.0100 2478(50) 0.000392 2336. 2398.
34.0268 34.0137 2417(50) 0.000401 2336. 2397.
34.0306 34.0175 2500(50) 0.000392 2336. 2395.
34.0343 34.0212 2428(50) 0.000406 2336. 2394.
34.0381 34.0250 2447(50) 0.000400 2336. 2393.
34.0419 34.0288 2416(50) 0.000405 2336. 2392.
34.0456 34.0325 2309(48) 0.000430 2335. 2392.
34.0494 34.0363 2392(50) 0.000403 2335. 2391.
34.0531 34.0400 2467(50) 0.000406 2335. 2390.
34.0569 34.0438 2430(49) 0.000422 2335. 2390.
34.0607 34.0476 2392(49) 0.000414 2335. 2389.
34.0644 34.0513 2388(50) 0.000407 2335. 2389.
34.0682 34.0551 2375(49) 0.000409 2334. 2389.
34.0719 34.0588 2348(49) 0.000417 2334. 2389.
34.0757 34.0626 2393(50) 0.000404 2334. 2389.
34.0795 34.0664 2469(50) 0.000395 2334. 2389.
34.0832 34.0701 2407(49) 0.000408 2334. 2389.
34.0870 34.0739 2475(51) 0.000385 2334. 2390.
34.0907 34.0776 2361(48) 0.000426 2334. 2390.
34.0945 34.0814 2402(49) 0.000420 2333. 2391.
34.0983 34.0852 2431(50) 0.000394 2333. 2392.
34.1020 34.0889 2402(49) 0.000409 2333. 2393.
34.1058 34.0927 2443(50) 0.000398 2333. 2395.
34.1095 34.0964 2487(50) 0.000393 2333. 2397.
34.1133 34.1002 2396(50) 0.000405 2333. 2401.
34.1171 34.1040 2517(50) 0.000395 2332. 2408.
34.1208 34.1077 2442(49) 0.000411 2332. 2419.
34.1246 34.1115 2393(50) 0.000404 2332. 2438.
34.1283 34.1152 2495(51) 0.000392 2332. 2466.
34.1321 34.1190 2485(50) 0.000396 2332. 2506.
34.1358 34.1227 2723(53) 0.000358 2332. 2552.
34.1396 34.1265 2569(51) 0.000386 2331. 2597.
34.1434 34.1303 2645(52) 0.000368 2331. 2625.
34.1471 34.1340 2677(52) 0.000364 2331. 2624.
34.1509 34.1378 2571(51) 0.000378 2331. 2595.
34.1546 34.1415 2575(51) 0.000382 2331. 2552.
34.1584 34.1453 2498(51) 0.000390 2331. 2507.
34.1622 34.1491 2544(51) 0.000385 2331. 2469.
34.1659 34.1528 2459(50) 0.000399 2330. 2443.
34.1697 34.1566 2429(49) 0.000408 2330. 2427.
34.1734 34.1603 2559(51) 0.000387 2330. 2418.
34.1772 34.1641 2421(49) 0.000414 2330. 2413.
34.1810 34.1679 2505(50) 0.000401 2330. 2411.
34.1847 34.1716 2415(50) 0.000396 2330. 2411.
34.1885 34.1754 2442(50) 0.000400 2329. 2411.
34.1922 34.1791 2433(49) 0.000410 2329. 2412.
34.1960 34.1829 2425(50) 0.000402 2329. 2414.
34.1998 34.1867 2437(50) 0.000399 2329. 2415.
34.2035 34.1904 2455(50) 0.000404 2329. 2417.
34.2073 34.1942 2432(49) 0.000409 2329. 2419.
34.2110 34.1979 2444(50) 0.000394 2329. 2421.
34.2148 34.2017 2490(50) 0.000397 2328. 2423.
34.2186 34.2055 2489(50) 0.000397 2328. 2426.
34.2223 34.2092 2404(50) 0.000406 2328. 2429.
34.2261 34.2130 2459(50) 0.000401 2328. 2432.
34.2298 34.2167 2451(50) 0.000403 2328. 2436.
34.2336 34.2205 2496(50) 0.000393 2328. 2439.
34.2374 34.2243 2533(51) 0.000388 2327. 2443.
34.2411 34.2280 2550(52) 0.000377 2327. 2448.
34.2449 34.2318 2543(51) 0.000380 2327. 2452.
34.2486 34.2355 2570(50) 0.000394 2327. 2457.
34.2524 34.2393 2523(51) 0.000386 2327. 2463.
34.2562 34.2431 2546(51) 0.000381 2327. 2469.
34.2599 34.2468 2492(50) 0.000393 2327. 2475.
34.2637 34.2506 2614(52) 0.000373 2326. 2482.
34.2674 34.2543 2518(50) 0.000407 2326. 2490.
34.2712 34.2581 2580(51) 0.000380 2326. 2498.
34.2750 34.2619 2664(53) 0.000361 2326. 2507.
34.2787 34.2656 2520(51) 0.000391 2326. 2517.
34.2825 34.2694 2601(51) 0.000379 2326. 2529.
34.2862 34.2731 2570(51) 0.000380 2325. 2541.
34.2900 34.2769 2628(52) 0.000368 2325. 2555.
34.2938 34.2807 2570(51) 0.000387 2325. 2573.
34.2975 34.2844 2608(51) 0.000379 2325. 2593.
34.3013 34.2882 2697(52) 0.000370 2325. 2621.
34.3050 34.2919 2711(53) 0.000357 2325. 2657.
34.3088 34.2957 2876(54) 0.0003399 2324. 2704.
34.3126 34.2995 2813(53) 0.0003506 2324. 2759.
34.3163 34.3032 2892(54) 0.0003433 2324. 2817.
34.3201 34.3070 2957(55) 0.0003314 2324. 2871.
34.3238 34.3107 2961(55) 0.0003292 2324. 2908.
34.3276 34.3145 3025(55) 0.0003274 2324. 2932.
34.3314 34.3183 3063(56) 0.0003198 2324. 2953.
34.3351 34.3220 3004(55) 0.0003273 2323. 2983.
34.3389 34.3258 3012(55) 0.0003344 2323. 3031.
34.3426 34.3295 3198(58) 0.0003012 2323. 3101.
34.3464 34.3333 3298(58) 0.0002932 2323. 3201.
34.3502 34.3371 3484(60) 0.0002774 2323. 3336.
34.3539 34.3408 3667(61) 0.0002681 2323. 3513.
34.3577 34.3446 3904(63) 0.0002494 2322. 3767.
34.3614 34.3483 4268(66) 0.0002264 2322. 4139.
34.3652 34.3521 4597(68) 0.0002172 2322. 4754.
34.3690 34.3559 5435(74) 0.0001840 2322. 5787.
34.3727 34.3596 6331(81) 0.0001533 2322. 7439.
34.3765 34.3634 8222(92) 0.0001186 2322. 10055.
34.3802 34.3671 11350(110) 0.0000853 2322. 13638.
34.3840 34.3709 16290(130) 0.0000575 2321. 18259.
34.3878 34.3747 22670(160) 0.0000414 2321. 23244.
34.3915 34.3784 27720(180) 0.0000328 2321. 27309.
34.3953 34.3822 28740(180) 0.0000327 2321. 29122.
34.3990 34.3859 25940(170) 0.0000357 2321. 27713.
34.4028 34.3897 21090(150) 0.0000451 2321. 23751.
34.4066 34.3935 16380(130) 0.0000591 2320. 18822.
34.4103 34.3972 12680(120) 0.0000752 2320. 14280.
34.4141 34.4010 10110(100) 0.0000941 2320. 10520.
34.4178 34.4047 7961(90) 0.0001230 2320. 7904.
34.4216 34.4085 6572(82) 0.0001481 2320. 6166.
34.4254 34.4123 5642(75) 0.0001762 2320. 5148.
34.4291 34.4160 5022(71) 0.0001962 2320. 4605.
34.4329 34.4198 4561(68) 0.0002153 2319. 4329.
34.4366 34.4235 4293(65) 0.0002336 2319. 4237.
34.4404 34.4273 4363(66) 0.0002276 2319. 4299.
34.4442 34.4311 4464(68) 0.0002179 2319. 4565.
34.4479 34.4348 4928(72) 0.0001923 2319. 5137.
34.4517 34.4386 5527(74) 0.0001815 2319. 6238.
34.4554 34.4423 6900(83) 0.0001456 2318. 8022.
34.4592 34.4461 9477(98) 0.0001047 2318. 10748.
34.4630 34.4499 13410(120) 0.0000735 2318. 14319.
34.4667 34.4536 18250(130) 0.0000553 2318. 18189.
34.4705 34.4574 22300(150) 0.0000436 2318. 21677.
34.4742 34.4611 23530(160) 0.0000413 2318. 23360.
34.4780 34.4649 21360(150) 0.0000447 2318. 22457.
34.4818 34.4687 17460(130) 0.0000557 2317. 19371.
34.4855 34.4724 13670(120) 0.0000715 2317. 15495.
34.4893 34.4762 10470(100) 0.0000956 2317. 11713.
34.4930 34.4799 8220(91) 0.0001202 2317. 8759.
34.4968 34.4837 6710(81) 0.0001517 2317. 6660.
34.5006 34.4875 5509(74) 0.0001809 2317. 5416.
34.5043 34.4912 4840(69) 0.0002080 2316. 4825.
34.5081 34.4950 4706(68) 0.0002141 2316. 4630.
34.5118 34.4987 4691(68) 0.0002138 2316. 4656.
34.5156 34.5025 4710(69) 0.0002108 2316. 4742.
34.5194 34.5063 4614(68) 0.0002189 2316. 4740.
34.5231 34.5100 4323(65) 0.0002332 2316. 4573.
34.5269 34.5138 4004(63) 0.0002491 2315. 4262.
34.5306 34.5175 3738(61) 0.0002660 2315. 3911.
34.5344 34.5213 3474(59) 0.0002911 2315. 3573.
34.5382 34.5251 3165(57) 0.0003128 2315. 3298.
34.5419 34.5288 3122(56) 0.0003179 2315. 3101.
34.5457 34.5326 3022(55) 0.0003310 2315. 2964.
34.5494 34.5363 2919(53) 0.0003505 2315. 2878.
34.5532 34.5401 2856(53) 0.000358 2314. 2823.
34.5570 34.5439 2796(52) 0.000368 2314. 2789.
34.5607 34.5476 2872(53) 0.000353 2314. 2769.
34.5645 34.5514 2792(53) 0.000358 2314. 2758.
34.5682 34.5551 2681(52) 0.000374 2314. 2754.
34.5720 34.5589 2788(53) 0.000352 2314. 2757.
34.5758 34.5627 2725(52) 0.000364 2313. 2768.
34.5795 34.5664 2809(53) 0.0003507 2313. 2785.
34.5833 34.5702 2849(53) 0.0003504 2313. 2812.
34.5870 34.5739 2938(54) 0.0003395 2313. 2850.
34.5908 34.5777 2904(54) 0.0003471 2313. 2908.
34.5946 34.5815 2975(54) 0.0003388 2313. 2999.
34.5983 34.5852 3178(56) 0.0003137 2313. 3151.
34.6021 34.5890 3354(58) 0.0002950 2312. 3430.
34.6059 34.5928 3647(60) 0.0002752 2312. 3940.
34.6096 34.5965 4139(64) 0.0002433 2312. 4793.
34.6134 34.6003 5058(71) 0.0001983 2312. 6182.
34.6171 34.6040 6689(81) 0.0001514 2312. 8088.
34.6209 34.6078 9710(100) 0.0001005 2312. 10505.
34.6247 34.6116 12920(110) 0.0000770 2311. 13000.
34.6284 34.6153 14930(120) 0.0000655 2311. 14820.
34.6322 34.6191 14940(120) 0.0000649 2311. 15272.
34.6359 34.6228 12810(110) 0.0000779 2311. 14097.
34.6397 34.6266 10580(100) 0.0000926 2311. 11825.
34.6435 34.6304 8419(91) 0.0001196 2311. 9287.
34.6472 34.6341 6628(82) 0.0001479 2311. 7106.
34.6510 34.6379 5398(74) 0.0001836 2310. 5405.
34.6547 34.6416 4626(68) 0.0002137 2310. 4294.
34.6585 34.6454 3896(63) 0.0002522 2310. 3598.
34.6623 34.6492 3437(59) 0.0002852 2310. 3203.
34.6660 34.6529 3161(56) 0.0003134 2310. 2986.
34.6698 34.6567 2980(54) 0.0003393 2310. 2854.
34.6735 34.6604 2792(53) 0.000360 2309. 2770.
34.6773 34.6642 2696(52) 0.000375 2309. 2708.
34.6811 34.6680 2717(52) 0.000364 2309. 2660.
34.6848 34.6717 2645(52) 0.000376 2309. 2622.
34.6886 34.6755 2541(51) 0.000391 2309. 2590.
34.6923 34.6792 2518(50) 0.000395 2309. 2564.
34.6961 34.6830 2552(51) 0.000391 2309. 2542.
34.6999 34.6868 2595(51) 0.000385 2308. 2522.
34.7036 34.6905 2601(51) 0.000379 2308. 2506.
34.7074 34.6943 2491(49) 0.000409 2308. 2492.
34.7111 34.6980 2525(51) 0.000384 2308. 2479.
34.7149 34.7018 2511(51) 0.000389 2308. 2468.
34.7187 34.7056 2443(50) 0.000402 2308. 2458.
34.7224 34.7093 2447(50) 0.000402 2307. 2450.
34.7262 34.7131 2439(49) 0.000413 2307. 2442.
34.7300 34.7169 2420(50) 0.000402 2307. 2435.
34.7337 34.7206 2479(50) 0.000400 2307. 2429.
34.7375 34.7244 2507(50) 0.000396 2307. 2423.
34.7412 34.7281 2347(49) 0.000423 2307. 2418.
34.7450 34.7319 2458(49) 0.000414 2307. 2413.
34.7488 34.7357 2420(50) 0.000406 2306. 2409.
34.7525 34.7394 2457(49) 0.000409 2306. 2405.
34.7563 34.7432 2326(48) 0.000426 2306. 2402.
34.7600 34.7469 2367(49) 0.000417 2306. 2399.
34.7638 34.7507 2517(51) 0.000386 2306. 2396.
34.7676 34.7545 2383(49) 0.000413 2306. 2393.
34.7713 34.7582 2503(50) 0.000397 2305. 2390.
34.7751 34.7620 2483(51) 0.000392 2305. 2388.
34.7788 34.7657 2208(47) 0.000446 2305. 2386.
34.7826 34.7695 2405(49) 0.000416 2305. 2384.
34.7864 34.7733 2313(48) 0.000427 2305. 2382.
34.7901 34.7770 2315(48) 0.000426 2305. 2381.
34.7939 34.7808 2394(49) 0.000413 2305. 2379.
34.7976 34.7845 2397(49) 0.000415 2304. 2378.
34.8014 34.7883 2445(50) 0.000408 2304. 2377.
34.8052 34.7921 2324(48) 0.000429 2304. 2377.
34.8089 34.7958 2391(49) 0.000414 2304. 2376.
34.8127 34.7996 2338(49) 0.000424 2304. 2375.
34.8165 34.8034 2279(48) 0.000431 2304. 2374.
34.8202 34.8071 2335(48) 0.000429 2303. 2374.
34.8240 34.8109 2412(50) 0.000408 2303. 2374.
34.8277 34.8146 2317(48) 0.000426 2303. 2374.
34.8315 34.8184 2254(48) 0.000439 2303. 2374.
34.8353 34.8222 2395(49) 0.000409 2303. 2374.
34.8390 34.8259 2385(49) 0.000418 2303. 2374.
34.8428 34.8297 2346(48) 0.000430 2303. 2375.
34.8465 34.8334 2328(49) 0.000424 2302. 2375.
34.8503 34.8372 2393(49) 0.000412 2302. 2376.
34.8541 34.8410 2323(49) 0.000418 2302. 2377.
34.8578 34.8447 2396(49) 0.000413 2302. 2379.
34.8616 34.8485 2434(50) 0.000405 2302. 2380.
34.8653 34.8522 2400(49) 0.000416 2302. 2382.
34.8691 34.8560 2328(48) 0.000430 2301. 2385.
34.8729 34.8598 2346(49) 0.000422 2301. 2388.
34.8766 34.8635 2401(50) 0.000408 2301. 2391.
34.8804 34.8673 2392(49) 0.000412 2301. 2395.
34.8841 34.8710 2338(49) 0.000415 2301. 2399.
34.8879 34.8748 2308(49) 0.000423 2301. 2405.
34.8917 34.8786 2307(48) 0.000433 2301. 2411.
34.8954 34.8823 2414(50) 0.000405 2300. 2418.
34.8992 34.8861 2428(50) 0.000400 2300. 2427.
34.9030 34.8899 2358(49) 0.000420 2300. 2438.
34.9067 34.8936 2498(50) 0.000404 2300. 2451.
34.9105 34.8974 2418(50) 0.000401 2300. 2466.
34.9142 34.9011 2360(49) 0.000425 2300. 2485.
34.9180 34.9049 2537(51) 0.000386 2299. 2510.
34.9218 34.9087 2472(50) 0.000396 2299. 2544.
34.9255 34.9124 2519(51) 0.000390 2299. 2591.
34.9293 34.9162 2564(52) 0.000373 2299. 2669.
34.9330 34.9199 2777(53) 0.000358 2299. 2799.
34.9368 34.9237 2832(54) 0.0003468 2299. 3034.
34.9406 34.9275 3157(57) 0.0003086 2299. 3430.
34.9443 34.9312 3588(60) 0.0002770 2298. 4034.
34.9481 34.9350 4389(66) 0.0002325 2298. 4905.
34.9518 34.9387 5559(75) 0.0001770 2298. 5964.
34.9556 34.9425 7210(86) 0.0001345 2298. 7110.
34.9594 34.9463 8072(91) 0.0001215 2298. 8029.
34.9631 34.9500 8042(91) 0.0001218 2298. 8353.
34.9669 34.9538 7217(85) 0.0001374 2297. 7932.
34.9707 34.9576 6137(79) 0.0001600 2297. 6959.
34.9744 34.9613 5212(72) 0.0001956 2297. 5836.
34.9782 34.9651 4441(67) 0.0002213 2297. 4770.
34.9819 34.9688 3806(63) 0.0002556 2297. 3951.
34.9857 34.9726 3456(59) 0.0002854 2297. 3362.
34.9895 34.9764 3051(56) 0.0003168 2297. 2990.
34.9932 34.9801 2869(54) 0.0003462 2296. 2777.
34.9970 34.9839 2690(53) 0.000355 2296. 2651.
35.0007 34.9876 2662(51) 0.000382 2296. 2579.
35.0045 34.9914 2439(50) 0.000395 2296. 2532.
35.0083 34.9952 2486(50) 0.000393 2296. 2500.
35.0120 34.9989 2432(50) 0.000402 2296. 2476.
35.0158 35.0027 2471(50) 0.000398 2295. 2456.
35.0195 35.0064 2468(50) 0.000396 2295. 2441.
35.0233 35.0102 2456(50) 0.000401 2295. 2428.
35.0271 35.0140 2395(49) 0.000414 2295. 2417.
35.0308 35.0177 2343(49) 0.000418 2295. 2408.
35.0346 35.0215 2374(49) 0.000416 2295. 2400.
35.0384 35.0253 2430(50) 0.000408 2295. 2393.
35.0421 35.0290 2343(49) 0.000419 2294. 2387.
35.0459 35.0328 2356(49) 0.000417 2294. 2382.
35.0496 35.0365 2406(50) 0.000402 2294. 2378.
35.0534 35.0403 2353(49) 0.000414 2294. 2374.
35.0572 35.0441 2414(49) 0.000410 2294. 2370.
35.0609 35.0478 2353(49) 0.000422 2294. 2367.
35.0647 35.0516 2308(48) 0.000427 2293. 2365.
35.0684 35.0553 2330(48) 0.000434 2293. 2363.
35.0722 35.0591 2350(48) 0.000426 2293. 2361.
35.0760 35.0629 2318(49) 0.000420 2293. 2359.
35.0797 35.0666 2362(49) 0.000412 2293. 2357.
35.0835 35.0704 2259(48) 0.000433 2293. 2356.
35.0872 35.0741 2370(49) 0.000409 2293. 2355.
35.0910 35.0779 2339(49) 0.000421 2292. 2354.
35.0948 35.0817 2331(48) 0.000429 2292. 2353.
35.0985 35.0854 2375(49) 0.000415 2292. 2352.
35.1023 35.0892 2257(48) 0.000433 2292. 2351.
35.1061 35.0930 2339(49) 0.000424 2292. 2351.
35.1098 35.0967 2372(49) 0.000417 2292. 2350.
35.1136 35.1005 2315(49) 0.000414 2291. 2350.
35.1173 35.1042 2265(48) 0.000426 2291. 2350.
35.1211 35.1080 2236(48) 0.000431 2291. 2350.
35.1249 35.1118 2334(48) 0.000429 2291. 2350.
35.1286 35.1155 2420(50) 0.000405 2291. 2350.
35.1324 35.1193 2362(50) 0.000405 2291. 2350.
35.1361 35.1230 2315(49) 0.000425 2291. 2350.
35.1399 35.1268 2270(49) 0.000424 2290. 2351.
35.1437 35.1306 2328(49) 0.000417 2290. 2351.
35.1474 35.1343 2330(49) 0.000414 2290. 2351.
35.1512 35.1381 2246(48) 0.000438 2290. 2352.
35.1549 35.1418 2317(49) 0.000415 2290. 2353.
35.1587 35.1456 2428(50) 0.000392 2290. 2354.
35.1625 35.1494 2245(48) 0.000435 2289. 2355.
35.1662 35.1531 2325(49) 0.000421 2289. 2356.
35.1700 35.1569 2403(49) 0.000409 2289. 2357.
35.1738 35.1607 2334(48) 0.000433 2289. 2358.
35.1775 35.1644 2376(50) 0.000406 2289. 2359.
35.1813 35.1682 2369(49) 0.000417 2289. 2361.
35.1850 35.1719 2381(49) 0.000412 2289. 2362.
35.1888 35.1757 2338(49) 0.000420 2288. 2364.
35.1926 35.1795 2314(48) 0.000429 2288. 2366.
35.1963 35.1832 2302(48) 0.000432 2288. 2368.
35.2001 35.1870 2283(48) 0.000427 2288. 2371.
35.2038 35.1907 2307(48) 0.000429 2288. 2373.
35.2076 35.1945 2306(48) 0.000425 2288. 2376.
35.2114 35.1983 2458(50) 0.000398 2287. 2379.
35.2151 35.2020 2450(50) 0.000400 2287. 2382.
35.2189 35.2058 2263(48) 0.000425 2287. 2385.
35.2227 35.2096 2348(50) 0.000407 2287. 2389.
35.2264 35.2133 2297(49) 0.000415 2287. 2393.
35.2302 35.2171 2369(48) 0.000427 2287. 2398.
35.2339 35.2208 2352(49) 0.000424 2287. 2403.
35.2377 35.2246 2342(49) 0.000424 2286. 2408.
35.2415 35.2284 2399(50) 0.000407 2286. 2415.
35.2452 35.2321 2397(50) 0.000404 2286. 2421.
35.2490 35.2359 2454(50) 0.000402 2286. 2429.
35.2527 35.2396 2350(49) 0.000416 2286. 2437.
35.2565 35.2434 2426(50) 0.000406 2286. 2446.
35.2603 35.2472 2355(49) 0.000412 2285. 2456.
35.2640 35.2509 2420(50) 0.000393 2285. 2467.
35.2678 35.2547 2336(48) 0.000441 2285. 2480.
35.2715 35.2584 2552(51) 0.000381 2285. 2495.
35.2753 35.2622 2501(51) 0.000390 2285. 2512.
35.2791 35.2660 2508(51) 0.000389 2285. 2531.
35.2828 35.2697 2696(52) 0.000363 2285. 2553.
35.2866 35.2735 2672(52) 0.000367 2284. 2579.
35.2904 35.2773 2506(51) 0.000390 2284. 2609.
35.2941 35.2810 2625(52) 0.000365 2284. 2645.
35.2979 35.2848 2721(53) 0.000359 2284. 2689.
35.3016 35.2885 2804(53) 0.000356 2284. 2742.
35.3054 35.2923 2816(54) 0.0003452 2284. 2812.
35.3092 35.2961 3008(55) 0.0003326 2284. 2908.
35.3129 35.2998 3239(57) 0.0003061 2283. 3052.
35.3167 35.3036 3354(58) 0.0002990 2283. 3306.
35.3204 35.3073 3783(62) 0.0002627 2283. 3747.
35.3242 35.3111 4196(65) 0.0002338 2283. 4547.
35.3280 35.3149 5290(74) 0.0001816 2283. 5882.
35.3317 35.3186 7125(86) 0.0001357 2283. 7821.
35.3355 35.3224 10500(100) 0.0000929 2282. 10452.
35.3393 35.3262 14600(120) 0.0000652 2282. 13419.
35.3430 35.3299 18030(140) 0.0000526 2282. 15997.
35.3468 35.3337 18930(140) 0.0000490 2282. 17401.
35.3505 35.3374 17280(140) 0.0000536 2282. 16917.
35.3543 35.3412 14460(130) 0.0000637 2282. 14788.
35.3581 35.3450 11320(110) 0.0000848 2282. 11926.
35.3618 35.3487 8955(97) 0.0001070 2281. 9223.
35.3656 35.3525 7293(87) 0.0001325 2281. 6990.
35.3693 35.3562 6147(80) 0.0001555 2281. 5489.
35.3731 35.3600 5173(73) 0.0001855 2281. 4564.
35.3769 35.3638 4603(69) 0.0002121 2281. 4104.
35.3806 35.3675 4438(68) 0.0002158 2281. 3949.
35.3844 35.3713 4188(65) 0.0002351 2280. 3999.
35.3881 35.3750 4358(66) 0.0002264 2280. 4239.
35.3919 35.3788 4741(70) 0.0002056 2280. 4756.
35.3957 35.3826 5090(72) 0.0001908 2280. 5702.
35.3994 35.3863 6165(80) 0.0001569 2280. 7232.
35.4032 35.3901 8216(91) 0.0001213 2280. 9607.
35.4070 35.3939 11530(110) 0.0000825 2280. 12822.
35.4107 35.3976 16310(130) 0.0000554 2279. 16516.
35.4145 35.4014 21520(160) 0.0000418 2279. 20268.
35.4182 35.4051 23590(160) 0.0000395 2279. 22859.
35.4220 35.4089 23110(160) 0.0000402 2279. 23307.
35.4258 35.4127 19930(150) 0.0000471 2279. 21291.
35.4295 35.4164 16130(130) 0.0000576 2279. 17834.
35.4333 35.4202 12350(110) 0.0000769 2278. 13923.
35.4370 35.4239 9860(100) 0.0000970 2278. 10504.
35.4408 35.4277 7839(92) 0.0001193 2278. 7766.
35.4446 35.4315 6333(81) 0.0001534 2278. 5858.
35.4483 35.4352 5242(73) 0.0001892 2278. 4675.
35.4521 35.4390 4503(67) 0.0002208 2278. 3944.
35.4559 35.4428 3909(63) 0.0002521 2278. 3517.
35.4596 35.4465 3472(60) 0.0002751 2277. 3265.
35.4634 35.4503 3237(58) 0.0002951 2277. 3096.
35.4671 35.4540 3123(57) 0.0003063 2277. 2979.
35.4709 35.4578 2946(55) 0.0003257 2277. 2887.
35.4747 35.4616 2959(55) 0.0003250 2277. 2814.
35.4784 35.4653 2909(54) 0.0003394 2277. 2755.
35.4822 35.4691 2764(54) 0.0003442 2276. 2705.
35.4859 35.4728 2759(54) 0.0003472 2276. 2663.
35.4897 35.4766 2619(53) 0.000356 2276. 2628.
35.4935 35.4804 2641(52) 0.000365 2276. 2597.
35.4972 35.4841 2611(52) 0.000366 2276. 2570.
35.5010 35.4879 2472(51) 0.000383 2276. 2547.
35.5047 35.4916 2593(52) 0.000373 2276. 2527.
35.5085 35.4954 2506(50) 0.000404 2275. 2509.
35.5123 35.4992 2531(50) 0.000394 2275. 2493.
35.5160 35.5029 2482(51) 0.000385 2275. 2477.
35.5198 35.5067 2410(50) 0.000397 2275. 2465.
35.5236 35.5105 2467(50) 0.000397 2275. 2453.
35.5273 35.5142 2502(51) 0.000383 2275. 2443.
35.5311 35.5180 2437(50) 0.000396 2275. 2434.
35.5348 35.5217 2458(51) 0.000389 2274. 2426.
35.5386 35.5255 2407(50) 0.000394 2274. 2418.
35.5424 35.5293 2435(50) 0.000393 2274. 2411.
35.5461 35.5330 2371(49) 0.000415 2274. 2405.
35.5499 35.5368 2394(50) 0.000399 2274. 2399.
35.5536 35.5405 2437(50) 0.000398 2274. 2394.
35.5574 35.5443 2370(50) 0.000401 2273. 2389.
35.5612 35.5481 2350(50) 0.000403 2273. 2385.
35.5649 35.5518 2399(50) 0.000402 2273. 2381.
35.5687 35.5556 2395(50) 0.000403 2273. 2377.
35.5724 35.5593 2367(49) 0.000409 2273. 2374.
35.5762 35.5631 2489(50) 0.000395 2273. 2371.
35.5800 35.5669 2355(49) 0.000410 2273. 2368.
35.5837 35.5706 2457(50) 0.000398 2272. 2365.
35.5875 35.5744 2394(50) 0.000400 2272. 2363.
35.5913 35.5782 2343(49) 0.000418 2272. 2361.
35.5950 35.5819 2432(50) 0.000394 2272. 2359.
35.5988 35.5857 2256(49) 0.000421 2272. 2357.
35.6025 35.5894 2256(48) 0.000440 2272. 2355.
35.6063 35.5932 2340(48) 0.000426 2271. 2354.
35.6101 35.5970 2365(49) 0.000413 2271. 2353.
35.6138 35.6007 2354(48) 0.000428 2271. 2351.
35.6176 35.6045 2377(48) 0.000426 2271. 2351.
35.6213 35.6082 2252(48) 0.000426 2271. 2350.
35.6251 35.6120 2375(50) 0.000399 2271. 2349.
35.6289 35.6158 2379(49) 0.000414 2271. 2349.
35.6326 35.6195 2328(49) 0.000410 2270. 2348.
35.6364 35.6233 2356(49) 0.000410 2270. 2348.
35.6402 35.6271 2260(48) 0.000430 2270. 2348.
35.6439 35.6308 2250(49) 0.000424 2270. 2348.
35.6477 35.6346 2370(49) 0.000412 2270. 2349.
35.6514 35.6383 2419(50) 0.000393 2270. 2349.
35.6552 35.6421 2421(49) 0.000419 2269. 2350.
35.6590 35.6459 2314(50) 0.000400 2269. 2351.
35.6627 35.6496 2362(50) 0.000405 2269. 2352.
35.6665 35.6534 2382(50) 0.000406 2269. 2353.
35.6702 35.6571 2391(50) 0.000407 2269. 2354.
35.6740 35.6609 2402(50) 0.000402 2269. 2358.
35.6778 35.6647 2343(49) 0.000416 2269. 2360.
35.6815 35.6684 2357(50) 0.000402 2268. 2362.
35.6853 35.6722 2451(50) 0.000398 2268. 2365.
35.6890 35.6759 2471(50) 0.000404 2268. 2368.
35.6928 35.6797 2406(50) 0.000404 2268. 2372.
35.6966 35.6835 2407(50) 0.000401 2268. 2376.
35.7003 35.6872 2332(49) 0.000417 2268. 2381.
35.7041 35.6910 2412(50) 0.000395 2268. 2387.
35.7079 35.6948 2417(50) 0.000398 2267. 2393.
35.7116 35.6985 2408(50) 0.000404 2267. 2400.
35.7154 35.7023 2345(50) 0.000407 2267. 2408.
35.7191 35.7060 2451(50) 0.000394 2267. 2418.
35.7229 35.7098 2419(50) 0.000398 2267. 2429.
35.7267 35.7136 2549(52) 0.000377 2267. 2441.
35.7304 35.7173 2446(50) 0.000395 2266. 2456.
35.7342 35.7211 2450(51) 0.000388 2266. 2474.
35.7379 35.7248 2524(52) 0.000375 2266. 2494.
35.7417 35.7286 2577(52) 0.000376 2266. 2518.
35.7455 35.7324 2569(52) 0.000373 2266. 2548.
35.7492 35.7361 2475(51) 0.000390 2266. 2584.
35.7530 35.7399 2641(52) 0.000370 2266. 2631.
35.7567 35.7436 2775(55) 0.0003350 2265. 2692.
35.7605 35.7474 2838(54) 0.0003430 2265. 2782.
35.7643 35.7512 2945(56) 0.0003230 2265. 2923.
35.7680 35.7549 3092(57) 0.0003082 2265. 3145.
35.7718 35.7587 3302(58) 0.0002931 2265. 3521.
35.7756 35.7625 3814(64) 0.0002444 2265. 4124.
35.7793 35.7662 4351(67) 0.0002241 2264. 5000.
35.7831 35.7700 5538(75) 0.0001786 2264. 6237.
35.7868 35.7737 7239(86) 0.0001347 2264. 7728.
35.7906 35.7775 9296(99) 0.0001021 2264. 9380.
35.7944 35.7813 11250(110) 0.0000829 2264. 10821.
35.7981 35.7850 12130(110) 0.0000777 2264. 11555.
35.8019 35.7888 11250(110) 0.0000833 2264. 11285.
35.8056 35.7925 9780(100) 0.0000977 2263. 10152.
35.8094 35.7963 7986(93) 0.0001168 2263. 8553.
35.8132 35.8001 6474(82) 0.0001478 2263. 6945.
35.8169 35.8038 5298(74) 0.0001846 2263. 5611.
35.8207 35.8076 4589(69) 0.0002102 2263. 4582.
35.8244 35.8113 3893(64) 0.0002448 2263. 3919.
35.8282 35.8151 3695(63) 0.0002524 2263. 3525.
35.8320 35.8189 3430(60) 0.0002793 2262. 3338.
35.8357 35.8226 3550(61) 0.0002664 2262. 3272.
35.8395 35.8264 3523(60) 0.0002739 2262. 3243.
35.8433 35.8302 3230(59) 0.0002919 2262. 3190.
35.8470 35.8339 3127(57) 0.0003067 2262. 3089.
35.8508 35.8377 3037(56) 0.0003141 2262. 2951.
35.8545 35.8414 2682(52) 0.000365 2261. 2812.
35.8583 35.8452 2679(53) 0.000355 2261. 2688.
35.8621 35.8490 2526(51) 0.000385 2261. 2593.
35.8658 35.8527 2564(51) 0.000380 2261. 2529.
35.8696 35.8565 2429(51) 0.000387 2261. 2486.
35.8733 35.8602 2424(50) 0.000400 2261. 2459.
35.8771 35.8640 2429(49) 0.000409 2261. 2440.
35.8809 35.8678 2457(50) 0.000392 2260. 2426.
35.8846 35.8715 2466(51) 0.000391 2260. 2415.
35.8884 35.8753 2459(51) 0.000391 2260. 2406.
35.8921 35.8790 2395(50) 0.000395 2260. 2399.
35.8959 35.8828 2452(51) 0.000387 2260. 2392.
35.8997 35.8866 2436(50) 0.000405 2260. 2386.
35.9034 35.8903 2355(49) 0.000419 2259. 2381.
35.9072 35.8941 2362(49) 0.000418 2259. 2377.
35.9110 35.8979 2341(49) 0.000416 2259. 2374.
35.9147 35.9016 2309(48) 0.000428 2259. 2371.
35.9185 35.9054 2357(49) 0.000416 2259. 2368.
35.9222 35.9091 2445(50) 0.000401 2259. 2366.
35.9260 35.9129 2322(49) 0.000419 2259. 2365.
35.9298 35.9167 2427(50) 0.000401 2258. 2364.
35.9335 35.9204 2430(50) 0.000398 2258. 2363.
35.9373 35.9242 2468(50) 0.000401 2258. 2363.
35.9410 35.9279 2390(49) 0.000416 2258. 2363.
35.9448 35.9317 2275(48) 0.000433 2258. 2363.
35.9486 35.9355 2338(49) 0.000424 2258. 2364.
35.9523 35.9392 2284(48) 0.000441 2258. 2365.
35.9561 35.9430 2447(50) 0.000396 2257. 2366.
35.9598 35.9467 2372(50) 0.000406 2257. 2368.
35.9636 35.9505 2354(49) 0.000411 2257. 2371.
35.9674 35.9543 2428(50) 0.000400 2257. 2374.
35.9711 35.9580 2352(49) 0.000416 2257. 2377.
35.9749 35.9618 2435(50) 0.000400 2257. 2381.
35.9787 35.9656 2417(49) 0.000409 2256. 2386.
35.9824 35.9693 2370(49) 0.000414 2256. 2391.
35.9862 35.9731 2368(49) 0.000413 2256. 2397.
35.9899 35.9768 2474(50) 0.000393 2256. 2404.
35.9937 35.9806 2467(50) 0.000396 2256. 2412.
35.9975 35.9844 2337(49) 0.000415 2256. 2422.
36.0012 35.9881 2406(50) 0.000403 2256. 2436.
36.0050 35.9919 2446(50) 0.000398 2255. 2448.
36.0087 35.9956 2519(51) 0.000383 2255. 2463.
36.0125 35.9994 2518(50) 0.000404 2255. 2481.
36.0163 36.0032 2535(51) 0.000385 2255. 2503.
36.0200 36.0069 2579(51) 0.000381 2255. 2528.
36.0238 36.0107 2565(51) 0.000377 2255. 2562.
36.0275 36.0144 2512(51) 0.000388 2255. 2606.
36.0313 36.0182 2575(51) 0.000382 2254. 2672.
36.0351 36.0220 2710(53) 0.000352 2254. 2780.
36.0388 36.0257 2944(55) 0.0003258 2254. 2959.
36.0426 36.0295 3066(56) 0.0003134 2254. 3266.
36.0463 36.0332 3373(59) 0.0002847 2254. 3743.
36.0501 36.0370 3931(64) 0.0002443 2254. 4456.
36.0539 36.0408 5180(74) 0.0001827 2253. 5389.
36.0576 36.0445 6421(82) 0.0001497 2253. 6417.
36.0614 36.0483 7809(90) 0.0001232 2253. 7396.
36.0652 36.0521 8258(93) 0.0001157 2253. 7999.
36.0689 36.0558 7916(90) 0.0001224 2253. 7999.
36.0727 36.0596 7174(86) 0.0001367 2253. 7466.
36.0764 36.0633 6384(82) 0.0001504 2253. 6757.
36.0802 36.0671 5794(78) 0.0001659 2252. 6212.
36.0840 36.0709 5708(77) 0.0001699 2252. 6176.
36.0877 36.0746 6151(80) 0.0001562 2252. 6855.
36.0915 36.0784 7596(88) 0.0001285 2252. 8389.
36.0952 36.0821 10320(100) 0.0000920 2252. 10599.
36.0990 36.0859 14020(120) 0.0000665 2252. 13235.
36.1028 36.0897 16840(130) 0.0000565 2251. 15561.
36.1065 36.0934 17660(140) 0.0000533 2251. 16673.
36.1103 36.0972 15550(130) 0.0000615 2251. 16054.
36.1140 36.1009 13240(120) 0.0000705 2251. 14012.
36.1178 36.1047 10190(100) 0.0000948 2251. 11255.
36.1216 36.1085 8045(92) 0.0001190 2251. 8576.
36.1253 36.1122 6341(81) 0.0001527 2251. 6457.
36.1291 36.1160 5232(74) 0.0001812 2250. 4907.
36.1328 36.1197 4375(68) 0.0002153 2250. 3951.
36.1366 36.1235 3770(63) 0.0002532 2250. 3379.
36.1404 36.1273 3331(59) 0.0002919 2250. 3064.
36.1441 36.1310 3148(58) 0.0002961 2250. 2892.
36.1479 36.1348 2841(55) 0.0003341 2250. 2787.
36.1516 36.1385 2808(54) 0.0003459 2250. 2719.
36.1554 36.1423 2655(52) 0.000364 2249. 2668.
36.1592 36.1461 2627(52) 0.000368 2249. 2629.
36.1629 36.1498 2607(52) 0.000367 2249. 2600.
36.1667 36.1536 2609(52) 0.000368 2249. 2576.
36.1705 36.1574 2690(53) 0.000356 2249. 2557.
36.1742 36.1611 2523(51) 0.000382 2249. 2544.
36.1780 36.1649 2535(51) 0.000382 2248. 2533.
36.1817 36.1686 2562(52) 0.000371 2248. 2527.
36.1855 36.1724 2543(51) 0.000381 2248. 2523.
36.1893 36.1762 2625(51) 0.000380 2248. 2523.
36.1930 36.1799 2584(51) 0.000380 2248. 2526.
36.1968 36.1837 2571(52) 0.000373 2248. 2533.
36.2005 36.1874 2520(52) 0.000369 2248. 2543.
36.2043 36.1912 2614(52) 0.000369 2247. 2558.
36.2081 36.1950 2623(53) 0.000360 2247. 2578.
36.2118 36.1987 2656(52) 0.000370 2247. 2605.
36.2156 36.2025 2756(54) 0.0003493 2247. 2643.
36.2193 36.2062 2694(52) 0.000374 2247. 2697.
36.2231 36.2100 2829(54) 0.0003402 2247. 2786.
36.2269 36.2138 2806(53) 0.000356 2247. 2938.
36.2306 36.2175 3065(57) 0.0003087 2246. 3199.
36.2344 36.2213 3450(60) 0.0002779 2246. 3665.
36.2381 36.2250 3699(63) 0.0002524 2246. 4406.
36.2419 36.2288 4828(71) 0.0001993 2246. 5538.
36.2457 36.2326 6306(81) 0.0001527 2246. 7051.
36.2494 36.2363 8505(95) 0.0001106 2246. 8770.
36.2532 36.2401 10550(110) 0.0000907 2245. 10466.
36.2569 36.2438 11620(110) 0.0000801 2245. 11579.
36.2607 36.2476 10850(110) 0.0000852 2245. 11689.
36.2645 36.2514 9670(100) 0.0000971 2245. 10699.
36.2682 36.2551 7817(90) 0.0001238 2245. 9101.
36.2720 36.2589 6527(82) 0.0001475 2245. 7319.
36.2757 36.2626 5453(75) 0.0001793 2245. 5788.
36.2795 36.2664 4495(70) 0.0002054 2244. 4579.
36.2833 36.2702 3895(64) 0.0002441 2244. 3756.
36.2870 36.2739 3599(62) 0.0002610 2244. 3258.
36.2908 36.2777 3110(57) 0.0003040 2244. 2959.
36.2945 36.2814 3019(56) 0.0003145 2244. 2794.
36.2983 36.2852 2772(55) 0.0003337 2244. 2694.
36.3021 36.2890 2658(53) 0.000355 2244. 2632.
36.3058 36.2927 2545(52) 0.000370 2243. 2590.
36.3096 36.2965 2569(52) 0.000371 2243. 2558.
36.3134 36.3003 2561(51) 0.000383 2243. 2534.
36.3171 36.3040 2529(52) 0.000366 2243. 2515.
36.3209 36.3078 2489(52) 0.000372 2243. 2500.
36.3246 36.3115 2533(52) 0.000369 2243. 2488.
36.3284 36.3153 2437(51) 0.000391 2242. 2479.
36.3322 36.3191 2504(50) 0.000395 2242. 2473.
36.3359 36.3228 2440(51) 0.000387 2242. 2468.
36.3397 36.3266 2432(51) 0.000388 2242. 2466.
36.3434 36.3303 2508(51) 0.000380 2242. 2466.
36.3472 36.3341 2483(51) 0.000388 2242. 2467.
36.3510 36.3379 2459(50) 0.000396 2242. 2470.
36.3547 36.3416 2512(52) 0.000377 2241. 2475.
36.3585 36.3454 2462(51) 0.000391 2241. 2483.
36.3622 36.3491 2565(52) 0.000366 2241. 2492.
36.3660 36.3529 2566(51) 0.000378 2241. 2505.
36.3698 36.3567 2665(53) 0.000354 2241. 2521.
36.3735 36.3604 2521(52) 0.000370 2241. 2542.
36.3773 36.3642 2644(54) 0.0003418 2241. 2572.
36.3810 36.3679 2654(53) 0.0003507 2240. 2611.
36.3848 36.3717 2839(55) 0.0003324 2240. 2666.
36.3886 36.3755 2658(54) 0.0003437 2240. 2740.
36.3923 36.3792 2811(55) 0.0003265 2240. 2832.
36.3961 36.3830 2888(55) 0.0003363 2240. 2946.
36.3998 36.3867 3103(58) 0.0003008 2240. 3076.
36.4036 36.3905 3267(59) 0.0002915 2239. 3227.
36.4074 36.3943 3431(62) 0.0002603 2239. 3416.
36.4111 36.3980 3630(63) 0.0002514 2239. 3691.
36.4149 36.4018 3921(65) 0.0002335 2239. 4173.
36.4186 36.4055 4493(71) 0.0001975 2239. 4964.
36.4224 36.4093 5592(79) 0.0001621 2239. 6227.
36.4262 36.4131 7270(90) 0.0001239 2239. 7993.
36.4299 36.4168 9830(110) 0.0000909 2238. 10098.
36.4337 36.4206 12730(120) 0.0000704 2238. 12357.
36.4374 36.4243 15520(130) 0.0000566 2238. 14132.
36.4412 36.4281 15390(130) 0.0000584 2238. 14851.
36.4450 36.4319 13980(120) 0.0000663 2238. 14115.
36.4487 36.4356 11770(120) 0.0000763 2238. 12330.
36.4525 36.4394 9430(100) 0.0000960 2238. 10057.
36.4562 36.4431 7550(92) 0.0001181 2237. 7937.
36.4600 36.4469 6043(81) 0.0001532 2237. 6145.
36.4638 36.4507 4978(73) 0.0001857 2237. 4844.
36.4675 36.4544 4395(70) 0.0002069 2237. 4007.
36.4713 36.4582 3817(65) 0.0002340 2237. 3484.
36.4750 36.4619 3576(63) 0.0002558 2237. 3189.
36.4788 36.4657 3216(60) 0.0002762 2237. 3017.
36.4826 36.4695 3048(58) 0.0003016 2236. 2918.
36.4863 36.4732 3029(58) 0.0003007 2236. 2860.
36.4901 36.4770 2958(57) 0.0003071 2236. 2825.
36.4938 36.4807 2877(56) 0.0003180 2236. 2807.
36.4976 36.4845 3086(58) 0.0002943 2236. 2805.
36.5014 36.4883 2910(56) 0.0003185 2236. 2821.
36.5051 36.4920 2888(55) 0.0003296 2235. 2858.
36.5089 36.4958 3043(57) 0.0003056 2235. 2928.
36.5126 36.4995 3004(57) 0.0003099 2235. 3035.
36.5164 36.5033 3191(59) 0.0002826 2235. 3191.
36.5202 36.5071 3452(61) 0.0002674 2235. 3396.
36.5239 36.5108 3744(64) 0.0002471 2235. 3635.
36.5277 36.5146 3951(66) 0.0002299 2235. 3905.
36.5314 36.5183 4194(68) 0.0002163 2234. 4182.
36.5352 36.5221 4560(70) 0.0002018 2234. 4514.
36.5390 36.5259 4725(71) 0.0001989 2234. 5033.
36.5427 36.5296 5443(76) 0.0001709 2234. 5962.
36.5465 36.5334 6391(83) 0.0001441 2234. 7647.
36.5502 36.5371 8990(100) 0.0001004 2234. 10213.
36.5540 36.5409 12900(120) 0.0000699 2234. 13774.
36.5578 36.5447 18630(140) 0.0000484 2233. 17872.
36.5615 36.5484 23380(160) 0.0000386 2233. 21513.
36.5653 36.5522 25570(170) 0.0000355 2233. 23643.
36.5690 36.5559 23390(160) 0.0000379 2233. 23210.
36.5728 36.5597 19520(150) 0.0000458 2233. 20390.
36.5766 36.5635 15290(130) 0.0000584 2233. 16348.
36.5803 36.5672 11870(110) 0.0000764 2232. 12366.
36.5841 36.5710 9010(100) 0.0001005 2232. 8950.
36.5878 36.5747 7197(87) 0.0001308 2232. 6541.
36.5916 36.5785 5865(78) 0.0001655 2232. 4957.
36.5954 36.5823 4921(71) 0.0001971 2232. 4049.
36.5991 36.5860 4142(66) 0.0002277 2232. 3579.
36.6029 36.5898 3790(64) 0.0002434 2232. 3339.
36.6066 36.5935 3549(62) 0.0002636 2231. 3237.
36.6104 36.5973 3539(63) 0.0002543 2231. 3221.
36.6142 36.6011 3463(61) 0.0002662 2231. 3295.
36.6179 36.6048 3588(62) 0.0002587 2231. 3485.
36.6217 36.6086 3748(63) 0.0002533 2231. 3862.
36.6254 36.6123 4284(68) 0.0002158 2231. 4487.
36.6292 36.6161 4932(72) 0.0001926 2231. 5460.
36.6330 36.6199 6308(83) 0.0001455 2230. 6786.
36.6367 36.6236 8180(93) 0.0001147 2230. 8330.
36.6405 36.6274 10730(110) 0.0000822 2230. 9934.
36.6442 36.6311 12170(120) 0.0000753 2230. 11140.
36.6480 36.6349 12170(120) 0.0000762 2230. 11559.
36.6517 36.6386 10890(110) 0.0000835 2230. 10975.
36.6555 36.6424 9330(100) 0.0000986 2230. 9625.
36.6593 36.6462 7540(90) 0.0001223 2229. 7982.
36.6630 36.6499 6255(82) 0.0001475 2229. 6449.
36.6668 36.6537 4927(74) 0.0001808 2229. 5143.
36.6705 36.6574 4423(70) 0.0002040 2229. 4202.
36.6743 36.6612 3885(65) 0.0002358 2229. 3549.
36.6781 36.6650 3444(62) 0.0002618 2229. 3140.
36.6818 36.6687 3047(57) 0.0003034 2228. 2899.
36.6856 36.6725 2813(55) 0.0003343 2228. 2749.
36.6893 36.6762 2765(55) 0.0003302 2228. 2657.
36.6931 36.6800 2695(55) 0.0003337 2228. 2593.
36.6969 36.6838 2690(55) 0.0003358 2228. 2548.
36.7006 36.6875 2531(53) 0.000360 2228. 2515.
36.7044 36.6913 2435(51) 0.000381 2228. 2489.
36.7081 36.6950 2481(51) 0.000387 2227. 2470.
36.7119 36.6988 2419(51) 0.000377 2227. 2457.
36.7157 36.7026 2525(52) 0.000371 2227. 2449.
36.7194 36.7063 2415(50) 0.000392 2227. 2447.
36.7232 36.7101 2473(52) 0.000377 2227. 2447.
36.7269 36.7138 2423(51) 0.000379 2227. 2447.
36.7307 36.7176 2372(51) 0.000391 2227. 2442.
36.7345 36.7214 2370(51) 0.000388 2226. 2431.
36.7382 36.7251 2366(51) 0.000386 2226. 2416.
36.7420 36.7289 2277(50) 0.000398 2226. 2400.
36.7457 36.7326 2378(51) 0.000392 2226. 2389.
36.7495 36.7364 2376(51) 0.000384 2226. 2386.
36.7533 36.7402 2371(51) 0.000388 2226. 2395.
36.7570 36.7439 2371(51) 0.000382 2226. 2417.
36.7608 36.7477 2418(51) 0.000382 2225. 2452.
36.7645 36.7514 2432(51) 0.000385 2225. 2496.
36.7683 36.7552 2469(52) 0.000370 2225. 2541.
36.7720 36.7589 2579(53) 0.000358 2225. 2571.
36.7758 36.7627 2556(52) 0.000370 2225. 2573.
36.7796 36.7665 2510(53) 0.000362 2225. 2544.
36.7833 36.7702 2443(52) 0.000372 2225. 2496.
36.7871 36.7740 2408(52) 0.000377 2224. 2441.
36.7908 36.7777 2308(50) 0.000399 2224. 2393.
36.7946 36.7815 2317(49) 0.000414 2224. 2356.
36.7984 36.7853 2329(50) 0.000408 2224. 2328.
36.8021 36.7890 2265(50) 0.000400 2224. 2311.
36.8059 36.7928 2318(49) 0.000411 2224. 2299.
36.8096 36.7965 2218(49) 0.000413 2223. 2292.
36.8134 36.8003 2272(49) 0.000422 2223. 2289.
36.8172 36.8041 2262(48) 0.000429 2223. 2285.
36.8209 36.8078 2421(52) 0.000375 2223. 2282.
36.8247 36.8116 2276(49) 0.000409 2223. 2280.
36.8284 36.8153 2268(49) 0.000414 2223. 2278.
36.8322 36.8191 2188(48) 0.000436 2223. 2276.
36.8360 36.8229 2363(50) 0.000401 2222. 2274.
36.8397 36.8266 2325(50) 0.000400 2222. 2272.
36.8435 36.8304 2258(49) 0.000411 2222. 2270.
36.8472 36.8341 2249(50) 0.000402 2222. 2269.
36.8510 36.8379 2275(49) 0.000410 2222. 2268.
36.8547 36.8416 2235(50) 0.000408 2222. 2266.
36.8585 36.8454 2248(48) 0.000433 2222. 2266.
36.8623 36.8492 2139(46) 0.000471 2221. 2265.
36.8660 36.8529 2213(48) 0.000440 2221. 2264.
36.8698 36.8567 2272(48) 0.000433 2221. 2263.
36.8735 36.8604 2277(48) 0.000427 2221. 2263.
36.8773 36.8642 2218(47) 0.000448 2221. 2262.
36.8811 36.8680 2263(48) 0.000439 2221. 2261.
36.8848 36.8717 2186(47) 0.000453 2221. 2261.
36.8886 36.8755 2227(47) 0.000447 2220. 2260.
36.8923 36.8792 2238(47) 0.000446 2220. 2260.
36.8961 36.8830 2270(48) 0.000437 2220. 2261.
36.8999 36.8868 2256(48) 0.000441 2220. 2262.
36.9036 36.8905 2290(48) 0.000427 2220. 2265.
36.9074 36.8943 2301(48) 0.000428 2220. 2270.
36.9111 36.8980 2313(48) 0.000432 2219. 2278.
36.9149 36.9018 2223(48) 0.000434 2219. 2289.
36.9186 36.9055 2305(48) 0.000427 2219. 2301.
36.9224 36.9093 2270(48) 0.000432 2219. 2314.
36.9262 36.9131 2419(50) 0.000404 2219. 2322.
36.9299 36.9168 2335(49) 0.000421 2219. 2324.
36.9337 36.9206 2261(47) 0.000446 2219. 2316.
36.9374 36.9243 2241(48) 0.000436 2218. 2304.
36.9412 36.9281 2260(48) 0.000437 2218. 2290.
36.9450 36.9319 2181(48) 0.000443 2218. 2277.
36.9487 36.9356 2302(49) 0.000423 2218. 2267.
36.9525 36.9394 2243(48) 0.000435 2218. 2260.
36.9562 36.9431 2196(47) 0.000446 2218. 2255.
36.9600 36.9469 2202(47) 0.000444 2218. 2252.
36.9637 36.9506 2225(48) 0.000436 2217. 2251.
36.9675 36.9544 2161(47) 0.000454 2217. 2249.
36.9713 36.9582 2256(48) 0.000439 2217. 2248.
36.9750 36.9619 2224(48) 0.000440 2217. 2248.
36.9788 36.9657 2194(48) 0.000437 2217. 2247.
36.9825 36.9694 2256(48) 0.000437 2217. 2247.
36.9863 36.9732 2245(47) 0.000449 2217. 2246.
36.9901 36.9770 2204(47) 0.000448 2216. 2246.
36.9938 36.9807 2160(47) 0.000453 2216. 2246.
36.9976 36.9845 2201(48) 0.000441 2216. 2245.
37.0013 36.9882 2226(47) 0.000443 2216. 2245.
37.0051 36.9920 2192(47) 0.000453 2216. 2245.
37.0089 36.9958 2231(47) 0.000443 2216. 2245.
37.0126 36.9995 2129(46) 0.000469 2216. 2244.
37.0164 37.0033 2248(48) 0.000439 2215. 2244.
37.0201 37.0070 2186(47) 0.000447 2215. 2244.
37.0239 37.0108 2245(48) 0.000434 2215. 2244.
37.0276 37.0145 2191(47) 0.000446 2215. 2244.
37.0314 37.0183 2311(48) 0.000432 2215. 2244.
37.0352 37.0221 2211(47) 0.000448 2215. 2244.
37.0389 37.0258 2313(49) 0.000424 2215. 2244.
37.0427 37.0296 2171(47) 0.000449 2214. 2244.
37.0464 37.0333 2257(48) 0.000433 2214. 2244.
37.0502 37.0371 2282(48) 0.000435 2214. 2244.
37.0540 37.0409 2248(47) 0.000449 2214. 2244.
37.0577 37.0446 2159(47) 0.000459 2214. 2244.
37.0615 37.0484 2223(48) 0.000439 2214. 2244.
37.0652 37.0521 2284(49) 0.000422 2213. 2244.
37.0690 37.0559 2197(47) 0.000447 2213. 2244.
37.0727 37.0596 2278(49) 0.000419 2213. 2246.
37.0765 37.0634 2285(47) 0.000444 2213. 2247.
37.0803 37.0672 2164(47) 0.000457 2213. 2247.
37.0840 37.0709 2207(47) 0.000452 2213. 2248.
37.0878 37.0747 2214(47) 0.000444 2213. 2248.
37.0915 37.0784 2171(47) 0.000453 2212. 2250.
37.0953 37.0822 2208(47) 0.000445 2212. 2251.
37.0990 37.0859 2240(48) 0.000436 2212. 2251.
37.1028 37.0897 2222(48) 0.000441 2212. 2252.
37.1066 37.0935 2225(48) 0.000440 2212. 2254.
37.1103 37.0972 2188(47) 0.000446 2212. 2255.
37.1141 37.1010 2231(47) 0.000444 2212. 2256.
37.1178 37.1047 2284(48) 0.000431 2211. 2258.
37.1216 37.1085 2204(48) 0.000441 2211. 2260.
37.1254 37.1123 2214(47) 0.000451 2211. 2262.
37.1291 37.1160 2233(48) 0.000432 2211. 2265.
37.1329 37.1198 2167(47) 0.000454 2211. 2268.
37.1366 37.1235 2224(47) 0.000450 2211. 2272.
37.1404 37.1273 2247(48) 0.000428 2211. 2277.
37.1441 37.1310 2236(48) 0.000435 2210. 2283.
37.1479 37.1348 2352(49) 0.000414 2210. 2292.
37.1517 37.1386 2285(48) 0.000430 2210. 2305.
37.1554 37.1423 2313(49) 0.000419 2210. 2328.
37.1592 37.1461 2322(49) 0.000412 2210. 2368.
37.1629 37.1498 2342(50) 0.000407 2210. 2435.
37.1667 37.1536 2416(50) 0.000403 2210. 2547.
37.1704 37.1573 2502(51) 0.000382 2209. 2708.
37.1742 37.1611 2761(53) 0.000351 2209. 2927.
37.1780 37.1649 3074(56) 0.0003169 2209. 3182.
37.1817 37.1686 3434(59) 0.0002910 2209. 3424.
37.1855 37.1724 3531(59) 0.0002842 2209. 3597.
37.1892 37.1761 3589(61) 0.0002670 2209. 3627.
37.1930 37.1799 3285(59) 0.0002918 2209. 3500.
37.1968 37.1837 3089(57) 0.0003107 2208. 3271.
37.2005 37.1874 2751(54) 0.0003471 2208. 3020.
37.2043 37.1912 2672(52) 0.000374 2208. 2787.
37.2080 37.1949 2635(53) 0.000362 2208. 2608.
37.2118 37.1987 2536(51) 0.000388 2208. 2481.
37.2155 37.2024 2413(51) 0.000390 2208. 2402.
37.2193 37.2062 2335(49) 0.000414 2208. 2355.
37.2231 37.2100 2298(48) 0.000438 2207. 2330.
37.2268 37.2137 2415(50) 0.000404 2207. 2316.
37.2306 37.2175 2293(49) 0.000424 2207. 2309.
37.2343 37.2212 2316(48) 0.000427 2207. 2304.
37.2381 37.2250 2271(48) 0.000427 2207. 2302.
37.2418 37.2287 2218(47) 0.000448 2207. 2301.
37.2456 37.2325 2198(48) 0.000428 2207. 2302.
37.2494 37.2363 2230(48) 0.000437 2206. 2304.
37.2531 37.2400 2270(48) 0.000434 2206. 2307.
37.2569 37.2438 2205(48) 0.000443 2206. 2314.
37.2606 37.2475 2308(49) 0.000425 2206. 2322.
37.2644 37.2513 2464(51) 0.000383 2206. 2337.
37.2681 37.2550 2277(49) 0.000420 2206. 2360.
37.2719 37.2588 2376(50) 0.000408 2205. 2397.
37.2757 37.2626 2355(49) 0.000414 2205. 2452.
37.2794 37.2663 2535(51) 0.000382 2205. 2522.
37.2832 37.2701 2550(52) 0.000369 2205. 2607.
37.2869 37.2738 2729(53) 0.000356 2205. 2690.
37.2907 37.2776 2772(54) 0.0003456 2205. 2756.
37.2944 37.2813 2747(53) 0.000354 2205. 2780.
37.2982 37.2851 2625(53) 0.000361 2204. 2757.
37.3020 37.2889 2738(53) 0.000355 2204. 2702.
37.3057 37.2926 2573(51) 0.000391 2204. 2642.
37.3095 37.2964 2530(52) 0.000372 2204. 2591.
37.3132 37.3001 2606(52) 0.000366 2204. 2562.
37.3170 37.3039 2672(53) 0.000362 2204. 2560.
37.3207 37.3076 2636(53) 0.000362 2204. 2591.
37.3245 37.3114 2870(55) 0.0003293 2203. 2673.
37.3283 37.3152 2898(55) 0.0003334 2203. 2841.
37.3320 37.3189 3088(56) 0.0003245 2203. 3149.
37.3358 37.3227 3496(61) 0.0002706 2203. 3711.
37.3395 37.3264 4189(66) 0.0002309 2203. 4593.
37.3433 37.3302 5255(73) 0.0001859 2203. 5904.
37.3470 37.3339 7331(84) 0.0001406 2203. 7529.
37.3508 37.3377 9570(100) 0.0001004 2202. 9332.
37.3546 37.3415 11920(110) 0.0000815 2202. 10857.
37.3583 37.3452 12060(110) 0.0000812 2202. 11566.
37.3621 37.3490 11450(110) 0.0000845 2202. 11168.
37.3658 37.3527 9385(97) 0.0001055 2202. 9867.
37.3696 37.3565 7919(90) 0.0001247 2202. 8096.
37.3733 37.3602 6287(80) 0.0001573 2202. 6400.
37.3771 37.3640 5048(71) 0.0002012 2201. 4963.
37.3809 37.3678 4265(66) 0.0002313 2201. 3936.
37.3846 37.3715 3749(62) 0.0002621 2201. 3296.
37.3884 37.3753 3184(57) 0.0003045 2201. 2912.
37.3921 37.3790 3042(56) 0.0003212 2201. 2708.
37.3959 37.3828 2790(53) 0.000361 2201. 2593.
37.3996 37.3865 2688(52) 0.000369 2201. 2529.
37.4034 37.3903 2581(51) 0.000385 2200. 2487.
37.4072 37.3941 2550(51) 0.000390 2200. 2458.
37.4109 37.3978 2498(51) 0.000391 2200. 2437.
37.4147 37.4016 2447(50) 0.000404 2200. 2420.
37.4184 37.4053 2386(49) 0.000410 2200. 2407.
37.4222 37.4091 2445(49) 0.000409 2200. 2396.
37.4259 37.4128 2332(49) 0.000416 2200. 2388.
37.4297 37.4166 2457(50) 0.000405 2199. 2383.
37.4335 37.4204 2341(49) 0.000424 2199. 2379.
37.4372 37.4241 2408(49) 0.000413 2199. 2377.
37.4410 37.4279 2373(49) 0.000424 2199. 2376.
37.4447 37.4316 2369(49) 0.000415 2199. 2379.
37.4485 37.4354 2364(49) 0.000419 2199. 2384.
37.4522 37.4391 2443(50) 0.000407 2199. 2392.
37.4560 37.4429 2479(51) 0.000387 2198. 2404.
37.4597 37.4466 2444(49) 0.000409 2198. 2420.
37.4635 37.4504 2380(49) 0.000413 2198. 2438.
37.4673 37.4542 2530(51) 0.000388 2198. 2456.
37.4710 37.4579 2459(49) 0.000414 2198. 2469.
37.4748 37.4617 2380(49) 0.000415 2198. 2476.
37.4785 37.4654 2519(50) 0.000400 2198. 2477.
37.4823 37.4692 2502(51) 0.000392 2197. 2476.
37.4860 37.4729 2427(50) 0.000407 2197. 2475.
37.4898 37.4767 2542(51) 0.000391 2197. 2479.
37.4936 37.4805 2580(51) 0.000378 2197. 2490.
37.4973 37.4842 2471(50) 0.000396 2197. 2508.
37.5011 37.4880 2590(52) 0.000376 2197. 2536.
37.5048 37.4917 2572(52) 0.000377 2197. 2571.
37.5086 37.4955 2521(50) 0.000400 2196. 2614.
37.5123 37.4992 2760(52) 0.000364 2196. 2660.
37.5161 37.5030 2777(53) 0.000351 2196. 2708.
37.5199 37.5068 2793(53) 0.000362 2196. 2754.
37.5236 37.5105 2773(53) 0.000352 2196. 2798.
37.5274 37.5143 2997(56) 0.0003191 2196. 2851.
37.5311 37.5180 2974(54) 0.0003387 2196. 2920.
37.5349 37.5218 3147(56) 0.0003191 2195. 3028.
37.5386 37.5255 3185(57) 0.0003100 2195. 3195.
37.5424 37.5293 3418(59) 0.0002839 2195. 3485.
37.5461 37.5330 3840(62) 0.0002614 2195. 3967.
37.5499 37.5368 4451(68) 0.0002163 2195. 4798.
37.5537 37.5406 5232(74) 0.0001845 2195. 6131.
37.5574 37.5443 6949(85) 0.0001384 2195. 8046.
37.5612 37.5481 9590(100) 0.0000972 2194. 10681.
37.5649 37.5518 14020(120) 0.0000675 2194. 13740.
37.5687 37.5556 18140(140) 0.0000520 2194. 16967.
37.5724 37.5593 21770(150) 0.0000441 2194. 19489.
37.5762 37.5631 21440(150) 0.0000435 2194. 20584.
37.5799 37.5668 19570(140) 0.0000484 2194. 19751.
37.5837 37.5706 16300(130) 0.0000582 2194. 17342.
37.5875 37.5744 13100(120) 0.0000738 2193. 14259.
37.5912 37.5781 10570(110) 0.0000889 2193. 11404.
37.5950 37.5819 8575(94) 0.0001134 2193. 9136.
37.5987 37.5856 7845(90) 0.0001239 2193. 7847.
37.6025 37.5894 7550(88) 0.0001278 2193. 7536.
37.6062 37.5931 8002(90) 0.0001248 2193. 8146.
37.6100 37.5969 9420(100) 0.0001005 2193. 9494.
37.6137 37.6006 12050(110) 0.0000827 2192. 11164.
37.6175 37.6044 14360(120) 0.0000657 2192. 12734.
37.6213 37.6082 14650(130) 0.0000637 2192. 13532.
37.6250 37.6119 13780(120) 0.0000690 2192. 13152.
37.6288 37.6157 11440(110) 0.0000835 2192. 11699.
37.6325 37.6194 9229(98) 0.0001042 2192. 9764.
37.6363 37.6232 7399(87) 0.0001320 2192. 7746.
37.6400 37.6269 6179(79) 0.0001611 2191. 6070.
37.6476 37.6345 4377(66) 0.0002320 2191. 3909.
37.6513 37.6382 3768(63) 0.0002516 2191. 3386.
37.6551 37.6420 3421(59) 0.0002865 2191. 3069.
37.6588 37.6457 3107(58) 0.0003007 2191. 2890.
37.6626 37.6495 2868(54) 0.0003412 2191. 2777.
37.6663 37.6532 2787(54) 0.0003378 2190. 2704.
37.6701 37.6570 2816(54) 0.0003396 2190. 2650.
37.6738 37.6607 2657(52) 0.000373 2190. 2609.
37.6776 37.6645 2649(52) 0.000375 2190. 2574.
37.6814 37.6683 2522(50) 0.000402 2190. 2546.
37.6851 37.6720 2592(51) 0.000381 2190. 2525.
37.6889 37.6758 2556(51) 0.000384 2190. 2505.
37.6926 37.6795 2607(52) 0.000375 2189. 2489.
37.6964 37.6833 2577(51) 0.000380 2189. 2476.
37.7001 37.6870 2519(51) 0.000384 2189. 2465.
37.7039 37.6908 2473(50) 0.000394 2189. 2456.
37.7076 37.6945 2502(51) 0.000383 2189. 2449.
37.7114 37.6983 2433(50) 0.000404 2189. 2444.
37.7151 37.7020 2516(50) 0.000393 2189. 2440.
37.7189 37.7058 2504(51) 0.000390 2188. 2437.
37.7227 37.7096 2497(51) 0.000380 2188. 2436.
37.7264 37.7133 2520(51) 0.000384 2188. 2436.
37.7302 37.7171 2414(50) 0.000405 2188. 2438.
37.7339 37.7208 2465(50) 0.000397 2188. 2441.
37.7377 37.7246 2479(51) 0.000387 2188. 2446.
37.7414 37.7283 2433(51) 0.000389 2188. 2451.
37.7452 37.7321 2455(50) 0.000396 2187. 2459.
37.7489 37.7358 2601(52) 0.000370 2187. 2469.
37.7527 37.7396 2546(51) 0.000384 2187. 2480.
37.7565 37.7434 2485(51) 0.000388 2187. 2494.
37.7602 37.7471 2539(51) 0.000390 2187. 2511.
37.7640 37.7509 2502(51) 0.000387 2187. 2530.
37.7677 37.7546 2681(53) 0.000357 2187. 2553.
37.7715 37.7584 2616(52) 0.000367 2186. 2581.
37.7752 37.7621 2563(51) 0.000384 2186. 2613.
37.7790 37.7659 2637(52) 0.000365 2186. 2653.
37.7827 37.7696 2817(54) 0.0003439 2186. 2700.
37.7865 37.7734 2781(54) 0.0003477 2186. 2758.
37.7902 37.7771 2916(55) 0.0003333 2186. 2830.
37.7940 37.7809 2968(55) 0.0003308 2186. 2928.
37.7965 37.7834 3018(55) 0.0003326 2186. 3014.
37.8002 37.7871 3245(59) 0.0002893 2185. 3194.
37.8040 37.7909 3629(62) 0.0002625 2185. 3496.
37.8077 37.7946 3983(64) 0.0002419 2185. 3990.
37.8115 37.7984 4564(69) 0.0002080 2185. 4841.
37.8153 37.8022 5471(76) 0.0001718 2185. 6190.
37.8190 37.8059 7103(86) 0.0001348 2185. 8118.
37.8228 37.8097 10170(100) 0.0000971 2185. 10749.
37.8265 37.8134 14110(120) 0.0000656 2184. 13805.
37.8303 37.8172 17910(140) 0.0000525 2184. 17062.
37.8340 37.8209 20130(150) 0.0000471 2184. 19702.
37.8378 37.8247 20720(140) 0.0000484 2184. 21150.
37.8416 37.8285 19490(140) 0.0000483 2184. 21080.
37.8453 37.8322 18950(140) 0.0000505 2184. 19974.
37.8491 37.8360 17540(140) 0.0000552 2184. 18332.
37.8528 37.8397 16260(130) 0.0000589 2183. 16495.
37.8566 37.8435 13770(120) 0.0000712 2183. 14364.
37.8603 37.8472 11900(110) 0.0000823 2183. 12112.
37.8641 37.8510 9299(97) 0.0001057 2183. 9847.
37.8679 37.8548 7563(87) 0.0001336 2183. 7849.
37.8716 37.8585 6092(79) 0.0001613 2183. 6275.
37.8754 37.8623 5225(73) 0.0001875 2183. 5057.
37.8791 37.8660 4356(67) 0.0002220 2182. 4222.
37.8829 37.8698 3882(63) 0.0002513 2182. 3653.
37.8866 37.8735 3450(59) 0.0002912 2182. 3301.
37.8904 37.8773 3215(57) 0.0003084 2182. 3074.
37.8941 37.8810 2910(54) 0.0003410 2182. 2933.
37.8979 37.8848 2876(54) 0.0003456 2182. 2834.
37.9017 37.8886 2848(54) 0.0003426 2182. 2764.
37.9054 37.8923 2858(54) 0.0003454 2181. 2713.
37.9092 37.8961 2710(53) 0.000361 2181. 2671.
37.9129 37.8998 2675(52) 0.000373 2181. 2639.
37.9167 37.9036 2650(52) 0.000366 2181. 2613.
37.9204 37.9073 2611(51) 0.000381 2181. 2594.
37.9242 37.9111 2638(52) 0.000376 2181. 2580.
37.9280 37.9149 2597(51) 0.000383 2181. 2572.
37.9317 37.9186 2640(51) 0.000381 2180. 2571.
37.9355 37.9224 2559(51) 0.000384 2180. 2579.
37.9392 37.9261 2704(52) 0.000366 2180. 2599.
37.9430 37.9299 2646(52) 0.000376 2180. 2637.
37.9467 37.9336 2622(52) 0.000366 2180. 2694.
37.9505 37.9374 2601(51) 0.000384 2180. 2775.
37.9543 37.9412 2795(53) 0.000351 2180. 2878.
37.9580 37.9449 3043(56) 0.0003220 2179. 2987.
37.9618 37.9487 3183(56) 0.0003193 2179. 3094.
37.9655 37.9524 3156(57) 0.0003121 2179. 3167.
37.9693 37.9562 3154(56) 0.0003188 2179. 3194.
37.9730 37.9599 2994(55) 0.0003269 2179. 3183.
37.9768 37.9637 3206(57) 0.0003077 2179. 3160.
37.9805 37.9674 3035(55) 0.0003269 2179. 3163.
37.9843 37.9712 3155(57) 0.0003088 2179. 3232.
37.9881 37.9750 3398(59) 0.0002871 2178. 3419.
37.9918 37.9787 3500(60) 0.0002780 2178. 3792.
37.9956 37.9825 4074(65) 0.0002370 2178. 4471.
37.9993 37.9862 4875(70) 0.0002057 2178. 5533.
38.0031 37.9900 6516(81) 0.0001529 2178. 7133.
38.0068 37.9937 8966(97) 0.0001073 2178. 9189.
38.0106 37.9975 12930(110) 0.0000766 2178. 11674.
38.0144 38.0013 16370(130) 0.0000579 2177. 14183.
38.0181 38.0050 18960(140) 0.0000488 2177. 16073.
38.0219 38.0088 17940(140) 0.0000544 2177. 16777.
38.0256 38.0125 15910(130) 0.0000615 2177. 15958.
38.0294 38.0163 12900(120) 0.0000750 2177. 13930.
38.0304 38.0173 12300(110) 0.0000839 2177. 13287.
38.0342 38.0211 10040(99) 0.0001011 2177. 10719.
38.0379 38.0248 7846(88) 0.0001286 2177. 8388.
38.0417 38.0286 6504(80) 0.0001578 2176. 6437.
38.0455 38.0324 5287(72) 0.0001924 2176. 5011.
38.0492 38.0361 4518(67) 0.0002259 2176. 4081.
38.0530 38.0399 3942(62) 0.0002571 2176. 3484.
38.0567 38.0436 3623(59) 0.0002832 2176. 3133.
38.0605 38.0474 3191(55) 0.0003248 2176. 2916.
38.0642 38.0511 3068(55) 0.0003328 2176. 2784.
38.0680 38.0549 2843(53) 0.000358 2175. 2692.
38.0717 38.0586 2766(51) 0.000378 2175. 2626.
38.0755 38.0624 2648(51) 0.000387 2175. 2574.
38.0793 38.0662 2659(51) 0.000383 2175. 2531.
38.0830 38.0699 2480(49) 0.000417 2175. 2497.
38.0868 38.0737 2621(51) 0.000384 2175. 2468.
38.0905 38.0774 2382(49) 0.000422 2175. 2444.
38.0943 38.0812 2532(50) 0.000404 2174. 2423.
38.0980 38.0849 2496(50) 0.000407 2174. 2406.
38.1018 38.0887 2428(48) 0.000427 2174. 2392.
38.1055 38.0924 2315(47) 0.000445 2174. 2383.
38.1093 38.0962 2493(50) 0.000406 2174. 2379.
38.1130 38.0999 2385(48) 0.000427 2174. 2382.
38.1168 38.1037 2445(49) 0.000417 2174. 2395.
38.1206 38.1075 2379(48) 0.000430 2173. 2420.
38.1243 38.1112 2485(50) 0.000407 2173. 2455.
38.1281 38.1150 2586(51) 0.000392 2173. 2499.
38.1318 38.1187 2725(51) 0.000384 2173. 2542.
38.1356 38.1225 2690(51) 0.000379 2173. 2575.
38.1393 38.1262 2699(52) 0.000376 2173. 2582.
38.1431 38.1300 2670(52) 0.000376 2173. 2558.
38.1468 38.1337 2556(50) 0.000394 2173. 2512.
38.1506 38.1375 2481(49) 0.000414 2172. 2455.
38.1544 38.1413 2387(48) 0.000436 2172. 2401.
38.1581 38.1450 2419(49) 0.000422 2172. 2356.
38.1619 38.1488 2290(47) 0.000445 2172. 2322.
38.1656 38.1525 2242(47) 0.000459 2172. 2298.
38.1694 38.1563 2401(49) 0.000420 2172. 2282.
38.1731 38.1600 2312(47) 0.000443 2172. 2272.
38.1769 38.1638 2256(47) 0.000451 2171. 2264.
38.1806 38.1675 2247(47) 0.000454 2171. 2260.
38.1844 38.1713 2332(48) 0.000432 2171. 2256.
38.1882 38.1751 2266(47) 0.000456 2171. 2253.
38.1919 38.1788 2327(48) 0.000442 2171. 2250.
38.1957 38.1826 2255(47) 0.000461 2171. 2248.
38.1994 38.1863 2229(47) 0.000452 2171. 2246.
38.2032 38.1901 2232(47) 0.000454 2170. 2244.
38.2069 38.1938 2309(47) 0.000444 2170. 2243.
38.2107 38.1976 2292(48) 0.000441 2170. 2242.
38.2144 38.2013 2228(47) 0.000450 2170. 2241.
38.2182 38.2051 2187(46) 0.000468 2170. 2241.
38.2220 38.2089 2177(46) 0.000467 2170. 2241.
38.2257 38.2126 2220(47) 0.000460 2170. 2241.
38.2295 38.2164 2293(47) 0.000443 2169. 2241.
38.2332 38.2201 2245(46) 0.000468 2169. 2242.
38.2370 38.2239 2298(48) 0.000440 2169. 2243.
38.2407 38.2276 2248(47) 0.000450 2169. 2244.
38.2445 38.2314 2264(47) 0.000448 2169. 2247.
38.2483 38.2352 2231(47) 0.000449 2169. 2250.
38.2520 38.2389 2334(48) 0.000435 2169. 2254.
38.2558 38.2427 2276(47) 0.000455 2169. 2260.
38.2595 38.2464 2293(48) 0.000443 2168. 2268.
38.2633 38.2502 2278(47) 0.000446 2168. 2282.
38.2670 38.2539 2311(48) 0.000436 2168. 2304.
38.2708 38.2577 2283(48) 0.000439 2168. 2342.
38.2745 38.2614 2435(49) 0.000417 2168. 2403.
38.2783 38.2652 2364(48) 0.000437 2168. 2500.
38.2821 38.2690 2662(51) 0.000380 2168. 2642.
38.2858 38.2727 2905(53) 0.0003503 2167. 2824.
38.2896 38.2765 3285(57) 0.0003077 2167. 3046.
38.2933 38.2802 3498(59) 0.0002883 2167. 3267.
38.2971 38.2840 3948(63) 0.0002555 2167. 3452.
38.3008 38.2877 3866(62) 0.0002586 2167. 3535.
38.3046 38.2915 3720(61) 0.0002694 2167. 3493.
38.3083 38.2952 3391(58) 0.0003017 2167. 3347.
38.3121 38.2990 3216(56) 0.0003147 2166. 3139.
38.3159 38.3028 2842(53) 0.000356 2166. 2918.
38.3196 38.3065 2760(52) 0.000376 2166. 2724.
38.3234 38.3103 2590(51) 0.000378 2166. 2563.
38.3271 38.3140 2449(49) 0.000409 2166. 2449.
38.3309 38.3178 2371(49) 0.000413 2166. 2369.
38.3346 38.3215 2502(50) 0.000401 2166. 2319.
38.3384 38.3253 2254(48) 0.000437 2166. 2287.
38.3422 38.3291 2300(48) 0.000438 2165. 2267.
38.3459 38.3328 2302(47) 0.000443 2165. 2254.
38.3497 38.3366 2291(48) 0.000435 2165. 2245.
38.3534 38.3403 2223(47) 0.000451 2165. 2239.
38.3572 38.3441 2226(47) 0.000455 2165. 2234.
38.3609 38.3478 2175(47) 0.000461 2165. 2230.
38.3647 38.3516 2319(48) 0.000432 2165. 2227.
38.3685 38.3554 2121(46) 0.000477 2164. 2225.
38.3722 38.3591 2231(47) 0.000445 2164. 2222.
38.3760 38.3629 2263(48) 0.000436 2164. 2221.
38.3797 38.3666 2160(46) 0.000469 2164. 2219.
38.3835 38.3704 2380(49) 0.000423 2164. 2218.
38.3872 38.3741 2177(46) 0.000463 2164. 2217.
38.3910 38.3779 2144(46) 0.000463 2164. 2216.
38.3947 38.3816 2219(47) 0.000454 2163. 2215.
38.3985 38.3854 2205(47) 0.000452 2163. 2214.
38.4023 38.3892 2158(46) 0.000467 2163. 2214.
38.4060 38.3929 2222(47) 0.000450 2163. 2213.
38.4098 38.3967 2097(46) 0.000478 2163. 2213.
38.4135 38.4004 2208(47) 0.000446 2163. 2213.
38.4173 38.4042 2207(48) 0.000442 2163. 2213.
38.4210 38.4079 2177(47) 0.000459 2163. 2213.
38.4248 38.4117 2159(47) 0.000462 2162. 2213.
38.4286 38.4155 2239(47) 0.000451 2162. 2213.
38.4323 38.4192 2171(47) 0.000458 2162. 2213.
38.4361 38.4230 2188(47) 0.000455 2162. 2214.
38.4398 38.4267 2282(48) 0.000436 2162. 2214.
38.4436 38.4305 2211(47) 0.000448 2162. 2215.
38.4473 38.4342 2194(47) 0.000462 2162. 2216.
38.4511 38.4380 2196(47) 0.000455 2161. 2216.
38.4549 38.4418 2152(46) 0.000464 2161. 2217.
38.4586 38.4455 2141(46) 0.000471 2161. 2218.
38.4624 38.4493 2291(48) 0.000431 2161. 2219.
38.4661 38.4530 2192(47) 0.000449 2161. 2220.
38.4699 38.4568 2219(47) 0.000450 2161. 2222.
38.4736 38.4605 2236(47) 0.000444 2161. 2223.
38.4774 38.4643 2240(48) 0.000436 2160. 2225.
38.4812 38.4681 2267(48) 0.000435 2160. 2226.
38.4849 38.4718 2294(48) 0.000427 2160. 2228.
38.4887 38.4756 2362(49) 0.000408 2160. 2230.
38.4924 38.4793 2240(47) 0.000445 2160. 2232.
38.4962 38.4831 2201(47) 0.000451 2160. 2235.
38.4999 38.4868 2242(47) 0.000450 2160. 2238.
38.5037 38.4906 2269(48) 0.000437 2160. 2241.
38.5075 38.4944 2402(49) 0.000420 2159. 2244.
38.5112 38.4981 2303(48) 0.000428 2159. 2247.
38.5150 38.5019 2262(47) 0.000443 2159. 2252.
38.5187 38.5056 2244(47) 0.000447 2159. 2256.
38.5225 38.5094 2326(48) 0.000433 2159. 2261.
38.5262 38.5131 2184(47) 0.000458 2159. 2266.
38.5300 38.5169 2260(48) 0.000438 2159. 2272.
38.5338 38.5207 2310(48) 0.000436 2158. 2279.
38.5375 38.5244 2251(47) 0.000444 2158. 2287.
38.5413 38.5282 2299(48) 0.000434 2158. 2295.
38.5450 38.5319 2354(49) 0.000424 2158. 2307.
38.5488 38.5357 2359(49) 0.000414 2158. 2319.
38.5525 38.5394 2378(49) 0.000421 2158. 2332.
38.5563 38.5432 2342(48) 0.000425 2158. 2349.
38.5601 38.5470 2454(49) 0.000409 2158. 2372.
38.5638 38.5507 2441(49) 0.000409 2157. 2402.
38.5676 38.5545 2404(49) 0.000417 2157. 2451.
38.5713 38.5582 2457(50) 0.000403 2157. 2527.
38.5751 38.5620 2608(51) 0.000380 2157. 2654.
38.5788 38.5657 2715(52) 0.000366 2157. 2843.
38.5826 38.5695 2893(54) 0.0003464 2157. 3123.
38.5864 38.5733 3326(57) 0.0003035 2157. 3488.
38.5901 38.5770 3846(62) 0.0002578 2156. 3900.
38.5939 38.5808 4234(66) 0.0002293 2156. 4318.
38.5976 38.5845 4631(68) 0.0002133 2156. 4625.
38.6014 38.5883 4471(67) 0.0002261 2156. 4734.
38.6051 38.5920 4227(65) 0.0002334 2156. 4606.
38.6089 38.5958 3992(63) 0.0002539 2156. 4307.
38.6127 38.5996 3734(62) 0.0002629 2156. 3948.
38.6164 38.6033 3411(59) 0.0002887 2156. 3630.
38.6202 38.6071 3490(60) 0.0002785 2155. 3390.
38.6239 38.6108 3334(58) 0.0002972 2155. 3266.
38.6277 38.6146 3465(59) 0.0002868 2155. 3268.
38.6314 38.6183 3484(60) 0.0002819 2155. 3411.
38.6352 38.6221 3800(63) 0.0002555 2155. 3743.
38.6390 38.6259 4172(65) 0.0002376 2155. 4336.
38.6427 38.6296 4748(70) 0.0002068 2155. 5252.
38.6465 38.6334 5766(77) 0.0001693 2154. 6630.
38.6502 38.6371 7880(90) 0.0001245 2154. 8437.
38.6540 38.6409 10340(100) 0.0000943 2154. 10706.
38.6578 38.6447 13970(120) 0.0000701 2154. 13173.
38.6615 38.6484 16860(130) 0.0000567 2154. 15371.
38.6653 38.6522 18470(140) 0.0000532 2154. 16808.
38.6690 38.6559 17570(140) 0.0000547 2154. 16911.
38.6728 38.6597 15470(130) 0.0000636 2154. 15664.
38.6765 38.6634 12690(110) 0.0000774 2153. 13631.
38.6803 38.6672 10210(100) 0.0000972 2153. 11335.
38.6841 38.6710 8718(95) 0.0001101 2153. 9286.
38.6878 38.6747 7385(87) 0.0001332 2153. 7762.
38.6916 38.6785 6962(84) 0.0001409 2153. 6731.
38.6953 38.6822 6704(82) 0.0001476 2153. 6162.
38.6991 38.6860 6310(81) 0.0001530 2153. 5838.
38.7028 38.6897 5810(77) 0.0001707 2152. 5569.
38.7066 38.6935 5052(71) 0.0001976 2152. 5198.
38.7104 38.6973 4615(68) 0.0002174 2152. 4716.
38.7141 38.7010 3966(64) 0.0002465 2152. 4211.
38.7179 38.7048 3661(61) 0.0002719 2152. 3725.
38.7216 38.7085 3266(58) 0.0003003 2152. 3331.
38.7254 38.7123 3013(55) 0.0003307 2152. 3022.
38.7292 38.7161 2864(54) 0.0003451 2152. 2806.
38.7329 38.7198 2769(53) 0.000357 2151. 2665.
38.7367 38.7236 2529(51) 0.000386 2151. 2570.
38.7404 38.7273 2549(51) 0.000382 2151. 2508.
38.7442 38.7311 2467(50) 0.000399 2151. 2464.
38.7479 38.7348 2464(50) 0.000398 2151. 2431.
38.7517 38.7386 2401(48) 0.000429 2151. 2403.
38.7555 38.7424 2484(50) 0.000398 2151. 2381.
38.7592 38.7461 2373(49) 0.000422 2150. 2362.
38.7630 38.7499 2333(49) 0.000422 2150. 2345.
38.7667 38.7536 2310(48) 0.000430 2150. 2330.
38.7705 38.7574 2367(49) 0.000415 2150. 2317.
38.7743 38.7612 2286(48) 0.000430 2150. 2306.
38.7780 38.7649 2392(49) 0.000413 2150. 2296.
38.7818 38.7687 2258(48) 0.000436 2150. 2286.
38.7855 38.7724 2260(48) 0.000435 2150. 2278.
38.7893 38.7762 2258(48) 0.000440 2149. 2271.
38.7930 38.7799 2313(49) 0.000420 2149. 2265.
38.7968 38.7837 2154(47) 0.000458 2149. 2258.
38.8006 38.7875 2344(49) 0.000423 2149. 2253.
38.8043 38.7912 2241(48) 0.000438 2149. 2248.
38.8081 38.7950 2273(48) 0.000436 2149. 2244.
38.8118 38.7987 2109(46) 0.000477 2149. 2240.
38.8156 38.8025 2249(48) 0.000437 2148. 2236.
38.8194 38.8063 2222(47) 0.000453 2148. 2232.
38.8231 38.8100 2191(48) 0.000441 2148. 2229.
38.8269 38.8138 2143(47) 0.000456 2148. 2227.
38.8306 38.8175 2198(47) 0.000449 2148. 2224.
38.8344 38.8213 2224(47) 0.000449 2148. 2222.
38.8381 38.8250 2259(48) 0.000432 2148. 2221.
38.8419 38.8288 2274(48) 0.000435 2148. 2219.
38.8457 38.8326 2214(47) 0.000444 2147. 2218.
38.8494 38.8363 2227(48) 0.000436 2147. 2217.
38.8532 38.8401 2180(46) 0.000464 2147. 2217.
38.8569 38.8438 2170(47) 0.000459 2147. 2218.
38.8607 38.8476 2193(47) 0.000458 2147. 2219.
38.8645 38.8514 2187(47) 0.000450 2147. 2223.
38.8682 38.8551 2237(47) 0.000443 2147. 2231.
38.8720 38.8589 2248(48) 0.000442 2147. 2247.
38.8757 38.8626 2296(48) 0.000429 2146. 2274.
38.8795 38.8664 2314(48) 0.000426 2146. 2318.
38.8832 38.8701 2332(48) 0.000427 2146. 2381.
38.8870 38.8739 2494(50) 0.000405 2146. 2467.
38.8908 38.8777 2577(51) 0.000386 2146. 2566.
38.8945 38.8814 2748(53) 0.000353 2146. 2659.
38.8983 38.8852 2891(54) 0.0003451 2146. 2726.
38.9020 38.8889 2808(53) 0.000353 2145. 2739.
38.9058 38.8927 2718(53) 0.000351 2145. 2693.
38.9096 38.8965 2564(51) 0.000384 2145. 2605.
38.9133 38.9002 2620(52) 0.000373 2145. 2506.
38.9171 38.9040 2337(49) 0.000420 2145. 2411.
38.9208 38.9077 2292(49) 0.000423 2145. 2336.
38.9246 38.9115 2289(48) 0.000438 2145. 2280.
38.9284 38.9153 2320(48) 0.000425 2145. 2244.
38.9321 38.9190 2164(47) 0.000456 2144. 2223.
38.9359 38.9228 2282(48) 0.000427 2144. 2210.
38.9396 38.9265 2184(47) 0.000448 2144. 2203.
38.9434 38.9303 2245(48) 0.000432 2144. 2199.
38.9471 38.9340 2165(47) 0.000451 2144. 2196.
38.9509 38.9378 2185(47) 0.000447 2144. 2194.
38.9547 38.9416 2234(48) 0.000434 2144. 2193.
38.9584 38.9453 2210(47) 0.000445 2144. 2193.
38.9622 38.9491 2198(47) 0.000452 2143. 2193.
38.9659 38.9528 2181(47) 0.000454 2143. 2195.
38.9697 38.9566 2086(46) 0.000466 2143. 2197.
38.9735 38.9604 2189(48) 0.000437 2143. 2203.
38.9772 38.9641 2213(48) 0.000441 2143. 2212.
38.9810 38.9679 2264(48) 0.000431 2143. 2229.
38.9847 38.9716 2221(48) 0.000433 2143. 2254.
38.9885 38.9754 2364(50) 0.000402 2142. 2292.
38.9923 38.9792 2332(49) 0.000415 2142. 2344.
38.9960 38.9829 2566(50) 0.000398 2142. 2403.
38.9998 38.9867 2600(52) 0.000371 2142. 2466.
39.0035 38.9904 2674(52) 0.000372 2142. 2516.
39.0073 38.9942 2658(53) 0.000361 2142. 2541.
39.0110 38.9979 2648(52) 0.000372 2142. 2529.
39.0148 39.0017 2599(52) 0.000367 2142. 2484.
39.0186 39.0055 2492(50) 0.000392 2141. 2422.
39.0223 39.0092 2318(48) 0.000432 2141. 2360.
39.0261 39.0130 2326(49) 0.000414 2141. 2305.
39.0298 39.0167 2266(49) 0.000425 2141. 2262.
39.0336 39.0205 2326(49) 0.000411 2141. 2231.
39.0374 39.0243 2331(49) 0.000419 2141. 2211.
39.0411 39.0280 2270(49) 0.000423 2141. 2199.
39.0449 39.0318 2274(48) 0.000425 2141. 2192.
39.0486 39.0355 2198(48) 0.000428 2140. 2187.
39.0524 39.0393 2184(48) 0.000436 2140. 2184.
39.0562 39.0431 2304(49) 0.000424 2140. 2182.
39.0599 39.0468 2171(47) 0.000450 2140. 2181.
39.0637 39.0506 2295(49) 0.000423 2140. 2180.
39.0674 39.0543 2179(47) 0.000447 2140. 2178.
39.0712 39.0581 2240(48) 0.000432 2140. 2178.
39.0750 39.0619 2114(47) 0.000459 2139. 2178.
39.0787 39.0656 2226(48) 0.000428 2139. 2177.
39.0825 39.0694 2275(48) 0.000428 2139. 2177.
39.0862 39.0731 2126(47) 0.000453 2139. 2177.
39.0900 39.0769 2160(47) 0.000446 2139. 2177.
39.0937 39.0806 2248(49) 0.000424 2139. 2178.
39.0975 39.0844 2161(47) 0.000450 2139. 2178.
39.1013 39.0882 2268(48) 0.000438 2139. 2178.
39.1050 39.0919 2265(49) 0.000423 2138. 2179.
39.1088 39.0957 2229(48) 0.000434 2138. 2179.
39.1125 39.0994 2107(47) 0.000455 2138. 2180.
39.1163 39.1032 2247(48) 0.000442 2138. 2181.
39.1201 39.1070 2058(46) 0.000480 2138. 2182.
39.1238 39.1107 2164(48) 0.000442 2138. 2182.
39.1276 39.1145 2142(47) 0.000458 2138. 2184.
39.1313 39.1182 2240(48) 0.000435 2138. 2185.
39.1351 39.1220 2146(47) 0.000449 2137. 2186.
39.1389 39.1258 2200(48) 0.000443 2137. 2187.
39.1426 39.1295 2145(47) 0.000459 2137. 2189.
39.1464 39.1333 2203(47) 0.000458 2137. 2191.
39.1501 39.1370 2211(47) 0.000444 2137. 2193.
39.1539 39.1408 2167(47) 0.000446 2137. 2195.
39.1577 39.1446 2275(49) 0.000423 2137. 2197.
39.1614 39.1483 2233(48) 0.000434 2137. 2200.
39.1652 39.1521 2240(48) 0.000431 2136. 2202.
39.1689 39.1558 2170(48) 0.000443 2136. 2205.
39.1727 39.1596 2165(47) 0.000448 2136. 2208.
39.1765 39.1634 2163(47) 0.000459 2136. 2212.
39.1802 39.1671 2114(47) 0.000460 2136. 2216.
39.1840 39.1709 2197(48) 0.000438 2136. 2220.
39.1877 39.1746 2200(48) 0.000439 2136. 2225.
39.1915 39.1784 2240(48) 0.000435 2136. 2230.
39.1953 39.1822 2186(48) 0.000442 2135. 2236.
39.1990 39.1859 2262(48) 0.000426 2135. 2242.
39.2028 39.1897 2204(48) 0.000432 2135. 2249.
39.2065 39.1934 2337(50) 0.000407 2135. 2257.
39.2103 39.1972 2224(48) 0.000440 2135. 2267.
39.2141 39.2010 2276(48) 0.000431 2135. 2278.
39.2178 39.2047 2259(49) 0.000422 2135. 2290.
39.2216 39.2085 2333(49) 0.000424 2134. 2305.
39.2253 39.2122 2332(49) 0.000419 2134. 2324.
39.2291 39.2160 2395(50) 0.000402 2134. 2350.
39.2329 39.2198 2426(50) 0.000399 2134. 2384.
39.2366 39.2235 2430(50) 0.000395 2134. 2429.
39.2404 39.2273 2495(51) 0.000385 2134. 2488.
39.2441 39.2310 2542(51) 0.000383 2134. 2558.
39.2479 39.2348 2667(53) 0.000362 2134. 2640.
39.2517 39.2386 2973(56) 0.0003183 2133. 2725.
39.2554 39.2423 2949(56) 0.0003211 2133. 2803.
39.2592 39.2461 2904(55) 0.0003355 2133. 2875.
39.2629 39.2498 3004(56) 0.0003188 2133. 2949.
39.2667 39.2536 3146(57) 0.0003081 2133. 3068.
39.2704 39.2573 3260(58) 0.0002965 2133. 3285.
39.2742 39.2611 3637(60) 0.0002734 2133. 3715.
39.2780 39.2649 3891(63) 0.0002489 2133. 4499.
39.2817 39.2686 5026(72) 0.0001913 2132. 5766.
39.2855 39.2724 6437(82) 0.0001487 2132. 7740.
39.2892 39.2761 9498(98) 0.0001036 2132. 10344.
39.2930 39.2799 13510(120) 0.0000717 2132. 13552.
39.2968 39.2837 18480(140) 0.0000517 2132. 16841.
39.3005 39.2874 21040(150) 0.0000456 2132. 19395.
39.3043 39.2912 21380(150) 0.0000432 2132. 20486.
39.3080 39.2949 18440(140) 0.0000501 2132. 19620.
39.3118 39.2987 15290(130) 0.0000620 2131. 17127.
39.3156 39.3025 11880(110) 0.0000812 2131. 13869.
39.3193 39.3062 9332(99) 0.0001027 2131. 10715.
39.3231 39.3100 7321(87) 0.0001315 2131. 7972.
39.3268 39.3137 6105(80) 0.0001547 2131. 5990.
39.3306 39.3175 5105(73) 0.0001880 2131. 4640.
39.3344 39.3213 4281(67) 0.0002249 2131. 3847.
39.3381 39.3250 3810(63) 0.0002544 2131. 3450.
39.3419 39.3288 3599(62) 0.0002631 2130. 3281.
39.3456 39.3325 3398(59) 0.0002866 2130. 3246.
39.3494 39.3363 3541(60) 0.0002761 2130. 3268.
39.3532 39.3401 3364(59) 0.0002835 2130. 3291.
39.3569 39.3438 3333(59) 0.0002890 2130. 3270.
39.3607 39.3476 3109(57) 0.0003082 2130. 3184.
39.3644 39.3513 2988(55) 0.0003292 2130. 3051.
39.3682 39.3551 2779(53) 0.000351 2130. 2893.
39.3720 39.3589 2788(53) 0.0003507 2129. 2740.
39.3757 39.3626 2650(53) 0.000358 2129. 2611.
39.3795 39.3664 2613(53) 0.000360 2129. 2506.
39.3832 39.3701 2457(50) 0.000394 2129. 2430.
39.3870 39.3739 2427(50) 0.000394 2129. 2374.
39.3908 39.3777 2396(50) 0.000402 2129. 2336.
39.3945 39.3814 2351(49) 0.000423 2129. 2310.
39.3983 39.3852 2452(51) 0.000387 2129. 2292.
39.4020 39.3889 2389(50) 0.000399 2128. 2277.
39.4058 39.3927 2211(48) 0.000433 2128. 2265.
39.4096 39.3965 2269(49) 0.000418 2128. 2255.
39.4133 39.4002 2209(48) 0.000437 2128. 2246.
39.4171 39.4040 2270(49) 0.000417 2128. 2239.
39.4208 39.4077 2250(49) 0.000421 2128. 2232.
39.4246 39.4115 2313(49) 0.000417 2128. 2226.
39.4284 39.4153 2188(47) 0.000448 2128. 2221.
39.4321 39.4190 2268(48) 0.000442 2127. 2216.
39.4359 39.4228 2307(49) 0.000416 2127. 2212.
39.4397 39.4266 2302(49) 0.000418 2127. 2208.
39.4434 39.4303 2180(48) 0.000442 2127. 2205.
39.4472 39.4341 2272(49) 0.000422 2127. 2202.
39.4509 39.4378 2199(48) 0.000441 2127. 2199.
39.4547 39.4416 2307(48) 0.000428 2127. 2196.
39.4585 39.4454 2272(47) 0.000444 2127. 2194.
39.4622 39.4491 2190(47) 0.000461 2126. 2193.
39.4660 39.4529 2232(47) 0.000451 2126. 2191.
39.4697 39.4566 2215(47) 0.000461 2126. 2190.
39.4735 39.4604 2298(48) 0.000441 2126. 2189.
39.4773 39.4642 2179(46) 0.000469 2126. 2188.
39.4810 39.4679 2215(46) 0.000464 2126. 2188.
39.4848 39.4717 2288(48) 0.000439 2126. 2187.
39.4885 39.4754 2132(46) 0.000475 2126. 2188.
39.4923 39.4792 2240(47) 0.000446 2125. 2188.
39.4961 39.4830 2201(46) 0.000464 2125. 2189.
39.4998 39.4867 2196(47) 0.000457 2125. 2191.
39.5036 39.4905 2162(46) 0.000465 2125. 2194.
39.5073 39.4942 2280(48) 0.000439 2125. 2198.
39.5111 39.4980 2160(46) 0.000466 2125. 2205.
39.5149 39.5018 2260(47) 0.000447 2125. 2216.
39.5186 39.5055 2186(46) 0.000463 2125. 2235.
39.5224 39.5093 2342(49) 0.000425 2124. 2267.
39.5261 39.5130 2152(46) 0.000470 2124. 2318.
39.5299 39.5168 2306(48) 0.000440 2124. 2397.
39.5337 39.5206 2290(48) 0.000434 2124. 2504.
39.5374 39.5243 2535(51) 0.000388 2124. 2634.
39.5412 39.5281 2645(51) 0.000389 2124. 2780.
39.5449 39.5318 2827(52) 0.000366 2124. 2911.
39.5487 39.5356 2891(54) 0.0003461 2124. 3000.
39.5525 39.5394 2923(54) 0.0003424 2123. 3009.
39.5562 39.5431 2717(52) 0.000367 2123. 2937.
39.5600 39.5469 2637(52) 0.000375 2123. 2809.
39.5637 39.5506 2431(49) 0.000419 2123. 2667.
39.5675 39.5544 2390(49) 0.000420 2123. 2530.
39.5713 39.5582 2373(49) 0.000425 2123. 2418.
39.5750 39.5619 2274(47) 0.000453 2123. 2337.
39.5788 39.5657 2265(48) 0.000443 2123. 2282.
39.5825 39.5694 2314(48) 0.000433 2122. 2248.
39.5863 39.5732 2196(47) 0.000456 2122. 2228.
39.5901 39.5770 2269(47) 0.000449 2122. 2218.
39.5938 39.5807 2159(46) 0.000469 2122. 2213.
39.5976 39.5845 2172(46) 0.000466 2122. 2212.
39.6013 39.5882 2225(47) 0.000450 2122. 2214.
39.6051 39.5920 2254(48) 0.000436 2122. 2218.
39.6089 39.5958 2210(47) 0.000456 2122. 2226.
39.6126 39.5995 2342(48) 0.000426 2122. 2241.
39.6164 39.6033 2246(47) 0.000456 2121. 2266.
39.6202 39.6071 2337(48) 0.000431 2121. 2308.
39.6239 39.6108 2293(48) 0.000434 2121. 2376.
39.6277 39.6146 2355(49) 0.000424 2121. 2484.
39.6314 39.6183 2470(50) 0.000398 2121. 2633.
39.6352 39.6221 2683(52) 0.000371 2121. 2834.
39.6390 39.6259 2946(54) 0.0003393 2121. 3072.
39.6427 39.6296 3323(58) 0.0002948 2121. 3311.
39.6465 39.6334 3583(60) 0.0002779 2120. 3515.
39.6502 39.6371 3551(60) 0.0002798 2120. 3616.
39.6540 39.6409 3394(58) 0.0002944 2120. 3578.
39.6578 39.6447 3241(57) 0.0003059 2120. 3413.
39.6615 39.6484 2927(54) 0.0003373 2120. 3185.
39.6653 39.6522 2724(52) 0.000370 2120. 2938.
39.6690 39.6559 2619(51) 0.000383 2120. 2721.
39.6728 39.6597 2451(49) 0.000410 2120. 2542.
39.6766 39.6635 2385(49) 0.000420 2119. 2412.
39.6803 39.6672 2385(49) 0.000421 2119. 2326.
39.6841 39.6710 2263(47) 0.000447 2119. 2270.
39.6878 39.6747 2228(48) 0.000441 2119. 2236.
39.6916 39.6785 2192(47) 0.000459 2119. 2215.
39.6954 39.6823 2214(47) 0.000459 2119. 2201.
39.6991 39.6860 2149(46) 0.000479 2119. 2192.
39.7029 39.6898 2176(42) 0.000572 2119. 2185.
39.7104 39.6973 2233(44) 0.000511 2118. 2176.
39.7142 39.7011 2131(46) 0.000476 2118. 2172.
39.7179 39.7048 2221(47) 0.000448 2118. 2169.
39.7217 39.7086 2143(46) 0.000471 2118. 2166.
39.7255 39.7124 2124(46) 0.000465 2118. 2164.
39.7292 39.7161 2096(46) 0.000476 2118. 2162.
39.7330 39.7199 2109(46) 0.000470 2118. 2160.
39.7367 39.7236 2055(45) 0.000488 2117. 2159.
39.7405 39.7274 2165(46) 0.000463 2117. 2158.
39.7443 39.7312 2101(46) 0.000476 2117. 2157.
39.7480 39.7349 2183(47) 0.000458 2117. 2156.
39.7518 39.7387 2172(47) 0.000457 2117. 2155.
39.7555 39.7424 2126(46) 0.000470 2117. 2154.
39.7593 39.7462 2106(46) 0.000468 2117. 2153.
39.7631 39.7500 2157(46) 0.000471 2117. 2153.
39.7668 39.7537 2110(46) 0.000473 2117. 2152.
39.7706 39.7575 2118(46) 0.000467 2116. 2152.
39.7743 39.7612 2079(46) 0.000478 2116. 2152.
39.7781 39.7650 2166(46) 0.000470 2116. 2151.
39.7819 39.7688 2089(46) 0.000482 2116. 2151.
39.7856 39.7725 2233(47) 0.000448 2116. 2151.
39.7894 39.7763 2078(46) 0.000480 2116. 2151.
39.7931 39.7800 2071(46) 0.000482 2116. 2151.
39.7969 39.7838 2085(46) 0.000472 2116. 2151.
39.8007 39.7876 2190(46) 0.000466 2115. 2151.
39.8044 39.7913 2214(47) 0.000449 2115. 2151.
39.8082 39.7951 2051(45) 0.000499 2115. 2151.
39.8119 39.7988 2105(46) 0.000473 2115. 2151.
39.8157 39.8026 2137(46) 0.000467 2115. 2151.
39.8195 39.8064 2134(46) 0.000466 2115. 2151.
39.8232 39.8101 2259(47) 0.000451 2115. 2151.
39.8270 39.8139 2114(46) 0.000465 2115. 2152.
39.8308 39.8177 2217(47) 0.000452 2114. 2152.
39.8345 39.8214 2155(47) 0.000459 2114. 2153.
39.8383 39.8252 2261(48) 0.000436 2114. 2153.
39.8420 39.8289 2081(46) 0.000481 2114. 2154.
39.8458 39.8327 2140(46) 0.000463 2114. 2154.
39.8496 39.8365 2105(46) 0.000466 2114. 2155.
39.8533 39.8402 2237(47) 0.000444 2114. 2155.
39.8571 39.8440 2193(47) 0.000447 2114. 2156.
39.8608 39.8477 2192(47) 0.000455 2114. 2156.
39.8646 39.8515 2013(45) 0.000491 2113. 2157.
39.8684 39.8553 2090(46) 0.000477 2113. 2158.
39.8721 39.8590 2067(46) 0.000471 2113. 2159.
39.8759 39.8628 2083(46) 0.000480 2113. 2159.
39.8796 39.8665 2187(47) 0.000461 2113. 2160.
39.8834 39.8703 2178(46) 0.000463 2113. 2161.
39.8872 39.8741 2144(46) 0.000463 2113. 2162.
39.8909 39.8778 2230(47) 0.000449 2113. 2163.
39.8947 39.8816 2166(47) 0.000453 2112. 2164.
39.8985 39.8854 2248(48) 0.000439 2112. 2166.
39.9022 39.8891 2110(46) 0.000471 2112. 2167.
39.9060 39.8929 2099(46) 0.000474 2112. 2168.
39.9097 39.8966 2199(47) 0.000455 2112. 2170.
39.9135 39.9004 2152(47) 0.000459 2112. 2171.
39.9173 39.9042 2101(46) 0.000479 2112. 2173.
39.9210 39.9079 2244(48) 0.000440 2112. 2174.
39.9248 39.9117 2082(46) 0.000470 2111. 2176.
39.9285 39.9154 2224(47) 0.000451 2111. 2178.
39.9323 39.9192 2170(47) 0.000446 2111. 2180.
39.9361 39.9230 2178(45) 0.000493 2111. 2182.
39.9398 39.9267 2186(45) 0.000490 2111. 2185.
39.9436 39.9305 2215(46) 0.000481 2111. 2187.
39.9473 39.9342 2142(45) 0.000487 2111. 2189.
39.9511 39.9380 2203(45) 0.000490 2111. 2192.
39.9549 39.9418 2194(45) 0.000484 2111. 2195.
39.9586 39.9455 2210(46) 0.000478 2110. 2199.
39.9624 39.9493 2141(45) 0.000500 2110. 2202.
39.9662 39.9531 2215(46) 0.000478 2110. 2206.
39.9699 39.9568 2228(46) 0.000470 2110. 2210.
39.9737 39.9606 2321(47) 0.000460 2110. 2215.
39.9774 39.9643 2258(46) 0.000464 2110. 2220.
39.9812 39.9681 2322(46) 0.000464 2110. 2225.
39.9850 39.9719 2267(46) 0.000475 2110. 2231.
39.9887 39.9756 2259(46) 0.000475 2109. 2237.
39.9925 39.9794 2291(46) 0.000463 2109. 2244.
39.9962 39.9831 2299(46) 0.000470 2109. 2251.
40.0000 39.9869 2225(46) 0.000474 2109. 2260.
40.0038 39.9907 2385(47) 0.000446 2109. 2269.
40.0075 39.9944 2339(47) 0.000454 2109. 2279.
40.0113 39.9982 2360(47) 0.000445 2109. 2290.
40.0150 40.0019 2293(46) 0.000463 2109. 2302.
40.0188 40.0057 2399(47) 0.000450 2109. 2316.
40.0226 40.0095 2386(48) 0.000442 2108. 2333.
40.0263 40.0132 2426(48) 0.000433 2108. 2351.
40.0301 40.0170 2440(48) 0.000433 2108. 2374.
40.0339 40.0208 2527(49) 0.000412 2108. 2402.
40.0376 40.0245 2508(48) 0.000428 2108. 2439.
40.0414 40.0283 2576(49) 0.000412 2108. 2488.
40.0451 40.0320 2580(49) 0.000413 2108. 2552.
40.0489 40.0358 2767(51) 0.000382 2108. 2636.
40.0527 40.0396 2778(51) 0.000382 2107. 2740.
40.0564 40.0433 3028(54) 0.0003464 2107. 2859.
40.0602 40.0471 3114(55) 0.0003317 2107. 2995.
40.0639 40.0508 3274(56) 0.0003191 2107. 3140.
40.0677 40.0546 3320(56) 0.0003135 2107. 3311.
40.0715 40.0584 3633(59) 0.0002879 2107. 3543.
40.0752 40.0621 3716(60) 0.0002803 2107. 3890.
40.0790 40.0659 4249(63) 0.0002556 2107. 4447.
40.0827 40.0696 4910(68) 0.0002151 2107. 5242.
40.0865 40.0734 5949(76) 0.0001750 2106. 6346.
40.0903 40.0772 7225(84) 0.0001424 2106. 7704.
40.0940 40.0809 9564(96) 0.0001094 2106. 9153.
40.0978 40.0847 11070(110) 0.0000914 2106. 10568.
40.1016 40.0885 11850(110) 0.0000862 2106. 11636.
40.1053 40.0922 11530(110) 0.0000906 2106. 12150.
40.1091 40.0960 10840(100) 0.0000968 2106. 12225.
40.1128 40.0997 10530(100) 0.0000987 2106. 12155.
40.1166 40.1035 11030(100) 0.0000937 2105. 12229.
40.1204 40.1073 12160(110) 0.0000848 2105. 12580.
40.1241 40.1110 13250(110) 0.0000777 2105. 13122.
40.1279 40.1148 13710(110) 0.0000764 2105. 13667.
40.1316 40.1185 13450(110) 0.0000771 2105. 13996.
40.1354 40.1223 12650(110) 0.0000816 2105. 14184.
40.1392 40.1261 12740(110) 0.0000802 2105. 14532.
40.1429 40.1298 13810(120) 0.0000739 2105. 15301.
40.1467 40.1336 15930(130) 0.0000640 2105. 16571.
40.1504 40.1373 18720(140) 0.0000537 2104. 17994.
40.1542 40.1411 20490(140) 0.0000486 2104. 19071.
40.1580 40.1449 19430(140) 0.0000530 2104. 19063.
40.1617 40.1486 17050(130) 0.0000601 2104. 17711.
40.1655 40.1524 13990(120) 0.0000723 2104. 15255.
40.1693 40.1562 11310(110) 0.0000906 2104. 12369.
40.1730 40.1599 8739(92) 0.0001178 2104. 9666.
40.1768 40.1637 7115(82) 0.0001473 2104. 7346.
40.1805 40.1674 5844(75) 0.0001782 2104. 5653.
40.1843 40.1712 5015(69) 0.0002099 2103. 4468.
40.1881 40.1750 4069(63) 0.0002545 2103. 3727.
40.1918 40.1787 3698(59) 0.0002844 2103. 3296.
40.1956 40.1825 3313(57) 0.0003131 2103. 3035.
40.1993 40.1862 3145(55) 0.0003328 2103. 2882.
40.2031 40.1900 2953(53) 0.000352 2103. 2780.
40.2069 40.1938 2803(51) 0.000379 2103. 2708.
40.2106 40.1975 2762(52) 0.000376 2103. 2656.
40.2144 40.2013 2744(51) 0.000381 2102. 2615.
40.2182 40.2051 2631(50) 0.000392 2102. 2583.
40.2219 40.2088 2608(50) 0.000402 2102. 2561.
40.2257 40.2126 2535(50) 0.000407 2102. 2546.
40.2294 40.2163 2625(50) 0.000404 2102. 2540.
40.2332 40.2201 2628(50) 0.000395 2102. 2543.
40.2370 40.2239 2671(51) 0.000392 2102. 2558.
40.2407 40.2276 2625(50) 0.000402 2102. 2586.
40.2445 40.2314 2832(52) 0.000367 2102. 2632.
40.2482 40.2351 2626(50) 0.000397 2101. 2699.
40.2520 40.2389 2804(52) 0.000368 2101. 2803.
40.2558 40.2427 3025(54) 0.0003482 2101. 2962.
40.2595 40.2464 3110(55) 0.0003349 2101. 3210.
40.2633 40.2502 3424(57) 0.0003070 2101. 3618.
40.2670 40.2539 3844(61) 0.0002672 2101. 4244.
40.2708 40.2577 4567(66) 0.0002294 2101. 5197.
40.2746 40.2615 6062(76) 0.0001712 2101. 6492.
40.2783 40.2652 8060(89) 0.0001272 2101. 8009.
40.2821 40.2690 10610(100) 0.0000973 2100. 9614.
40.2859 40.2728 12230(110) 0.0000833 2100. 10916.
40.2896 40.2765 12840(110) 0.0000795 2100. 11486.
40.2934 40.2803 11380(110) 0.0000892 2100. 11113.
40.2971 40.2840 9520(96) 0.0001092 2100. 9957.
40.3009 40.2878 7783(87) 0.0001320 2100. 8346.
40.3047 40.2916 6296(78) 0.0001655 2100. 6693.
40.3084 40.2953 5150(70) 0.0002062 2100. 5299.
40.3122 40.2991 4283(65) 0.0002399 2100. 4202.
40.3159 40.3028 3670(60) 0.0002816 2099. 3465.
40.3197 40.3066 3283(56) 0.0003159 2099. 2989.
40.3235 40.3104 2859(52) 0.000366 2099. 2710.
40.3272 40.3141 2749(51) 0.000386 2099. 2555.
40.3310 40.3179 2577(50) 0.000405 2099. 2462.
40.3348 40.3217 2460(49) 0.000417 2099. 2405.
40.3385 40.3254 2311(47) 0.000450 2099. 2367.
40.3423 40.3292 2417(48) 0.000430 2099. 2337.
40.3460 40.3329 2364(48) 0.000437 2098. 2315.
40.3498 40.3367 2389(48) 0.000438 2098. 2295.
40.3536 40.3405 2316(47) 0.000452 2098. 2280.
40.3573 40.3442 2258(47) 0.000458 2098. 2267.
40.3611 40.3480 2257(46) 0.000467 2098. 2256.
40.3648 40.3517 2212(46) 0.000468 2098. 2247.
40.3686 40.3555 2302(47) 0.000453 2098. 2240.
40.3724 40.3593 2234(46) 0.000466 2098. 2233.
40.3761 40.3630 2162(46) 0.000477 2098. 2227.
40.3799 40.3668 2295(47) 0.000458 2097. 2220.
40.3836 40.3705 2178(45) 0.000484 2097. 2213.
40.3874 40.3743 2180(46) 0.000474 2097. 2207.
40.3912 40.3781 2207(46) 0.000476 2097. 2200.
40.3949 40.3818 2233(46) 0.000468 2097. 2194.
40.3987 40.3856 2124(45) 0.000490 2097. 2189.
40.4025 40.3894 2246(47) 0.000456 2097. 2185.
40.4062 40.3931 2197(46) 0.000468 2097. 2183.
40.4100 40.3969 2139(45) 0.000488 2097. 2180.
40.4137 40.4006 2066(45) 0.000501 2096. 2177.
40.4175 40.4044 2185(48) 0.000443 2096. 2175.
40.4213 40.4082 2162(46) 0.000465 2096. 2173.
40.4250 40.4119 2198(47) 0.000459 2096. 2171.
40.4288 40.4157 2120(47) 0.000461 2096. 2169.
40.4325 40.4194 2111(46) 0.000477 2096. 2168.
40.4363 40.4232 2154(46) 0.000475 2096. 2167.
40.4401 40.4270 2225(48) 0.000442 2096. 2166.
40.4438 40.4307 2156(46) 0.000471 2096. 2165.
40.4476 40.4345 2117(45) 0.000488 2095. 2164.
40.4514 40.4383 2186(47) 0.000459 2095. 2164.
40.4551 40.4420 2174(47) 0.000456 2095. 2163.
40.4589 40.4458 2123(46) 0.000477 2095. 2163.
40.4626 40.4495 2154(47) 0.000462 2095. 2163.
40.4664 40.4533 2155(47) 0.000461 2095. 2164.
40.4702 40.4571 2083(45) 0.000489 2095. 2164.
40.4739 40.4608 2105(46) 0.000472 2095. 2165.
40.4777 40.4646 2199(47) 0.000460 2095. 2165.
40.4814 40.4683 2152(46) 0.000464 2094. 2167.
40.4852 40.4721 2100(46) 0.000475 2094. 2168.
40.4890 40.4759 2171(46) 0.000463 2094. 2170.
40.4927 40.4796 2153(47) 0.000458 2094. 2172.
40.4965 40.4834 2093(46) 0.000477 2094. 2174.
40.5003 40.4872 2290(48) 0.000436 2094. 2177.
40.5040 40.4909 2155(47) 0.000462 2094. 2180.
40.5078 40.4947 2176(47) 0.000454 2094. 2184.
40.5115 40.4984 2060(46) 0.000476 2094. 2189.
40.5153 40.5022 2146(46) 0.000465 2093. 2194.
40.5191 40.5060 2122(46) 0.000480 2093. 2201.
40.5228 40.5097 2204(47) 0.000453 2093. 2208.
40.5266 40.5135 2114(46) 0.000475 2093. 2217.
40.5303 40.5172 2278(48) 0.000434 2093. 2228.
40.5341 40.5210 2118(47) 0.000460 2093. 2241.
40.5379 40.5248 2260(48) 0.000438 2093. 2258.
40.5416 40.5285 2283(48) 0.000432 2093. 2279.
40.5454 40.5323 2381(49) 0.000420 2093. 2310.
40.5491 40.5360 2191(46) 0.000464 2092. 2356.
40.5529 40.5398 2340(49) 0.000415 2092. 2435.
40.5567 40.5436 2477(50) 0.000399 2092. 2570.
40.5604 40.5473 2601(51) 0.000380 2092. 2789.
40.5642 40.5511 2735(53) 0.000359 2092. 3146.
40.5680 40.5549 3275(57) 0.0003038 2092. 3677.
40.5717 40.5586 3756(61) 0.0002686 2092. 4373.
40.5755 40.5624 4921(70) 0.0002046 2092. 5243.
40.5792 40.5661 6060(78) 0.0001648 2092. 6143.
40.5830 40.5699 7259(86) 0.0001354 2091. 6956.
40.5868 40.5737 7281(85) 0.0001369 2091. 7429.
40.5905 40.5774 7083(84) 0.0001404 2091. 7395.
40.5943 40.5812 6053(79) 0.0001604 2091. 6866.
40.5980 40.5849 5328(73) 0.0001879 2091. 6052.
40.6018 40.5887 4577(69) 0.0002119 2091. 5129.
40.6056 40.5925 3942(63) 0.0002496 2091. 4280.
40.6093 40.5962 3480(59) 0.0002857 2091. 3609.
40.6131 40.6000 3173(56) 0.0003133 2091. 3106.
40.6169 40.6038 2790(53) 0.000359 2090. 2772.
40.6206 40.6075 2581(51) 0.000386 2090. 2570.
40.6244 40.6113 2428(49) 0.000416 2090. 2449.
40.6281 40.6150 2447(50) 0.000405 2090. 2381.
40.6319 40.6188 2353(49) 0.000413 2090. 2341.
40.6357 40.6226 2376(49) 0.000415 2090. 2317.
40.6394 40.6263 2306(48) 0.000439 2090. 2303.
40.6432 40.6301 2300(48) 0.000442 2090. 2295.
40.6469 40.6338 2317(48) 0.000437 2090. 2292.
40.6507 40.6376 2212(47) 0.000445 2089. 2293.
40.6545 40.6414 2353(49) 0.000421 2089. 2299.
40.6582 40.6451 2298(48) 0.000431 2089. 2311.
40.6620 40.6489 2296(48) 0.000432 2089. 2333.
40.6657 40.6526 2291(48) 0.000433 2089. 2369.
40.6695 40.6564 2383(49) 0.000423 2089. 2434.
40.6733 40.6602 2447(49) 0.000418 2089. 2544.
40.6770 40.6639 2495(51) 0.000386 2089. 2716.
40.6808 40.6677 2661(52) 0.000373 2089. 2988.
40.6846 40.6715 3022(55) 0.0003283 2088. 3378.
40.6883 40.6752 3438(59) 0.0002907 2088. 3874.
40.6921 40.6790 4306(66) 0.0002267 2088. 4477.
40.6958 40.6827 5148(72) 0.0001928 2088. 5094.
40.6996 40.6865 5735(76) 0.0001729 2088. 5644.
40.7034 40.6903 6049(78) 0.0001648 2088. 5960.
40.7071 40.6940 5547(76) 0.0001744 2088. 5933.
40.7109 40.6978 5050(72) 0.0001952 2088. 5571.
40.7146 40.7015 4339(66) 0.0002316 2088. 5014.
40.7184 40.7053 3888(63) 0.0002552 2088. 4375.
40.7222 40.7091 3367(58) 0.0002980 2087. 3778.
40.7259 40.7128 3206(57) 0.0003111 2087. 3295.
40.7297 40.7166 2783(53) 0.000361 2087. 2920.
40.7335 40.7204 2706(52) 0.000371 2087. 2658.
40.7372 40.7241 2527(51) 0.000392 2087. 2491.
40.7410 40.7279 2497(49) 0.000413 2087. 2383.
40.7447 40.7316 2362(48) 0.000430 2087. 2318.
40.7485 40.7354 2272(47) 0.000444 2087. 2276.
40.7523 40.7392 2224(47) 0.000447 2087. 2248.
40.7560 40.7429 2278(48) 0.000435 2086. 2228.
40.7598 40.7467 2225(47) 0.000446 2086. 2213.
40.7635 40.7504 2167(46) 0.000464 2086. 2200.
40.7673 40.7542 2285(49) 0.000421 2086. 2190.
40.7711 40.7580 2146(46) 0.000465 2086. 2181.
40.7748 40.7617 2182(47) 0.000460 2086. 2174.
40.7786 40.7655 2189(47) 0.000452 2086. 2167.
40.7823 40.7692 2092(46) 0.000479 2086. 2161.
40.7861 40.7730 2143(47) 0.000460 2086. 2156.
40.7899 40.7768 2058(46) 0.000472 2085. 2152.
40.7936 40.7805 2123(46) 0.000467 2085. 2148.
40.7974 40.7843 2153(47) 0.000462 2085. 2145.
40.8012 40.7881 2179(47) 0.000454 2085. 2142.
40.8049 40.7918 2029(45) 0.000493 2085. 2139.
40.8087 40.7956 2072(46) 0.000479 2085. 2137.
40.8124 40.7993 2089(45) 0.000485 2085. 2134.
40.8162 40.8031 2052(45) 0.000486 2085. 2132.
40.8200 40.8069 2101(46) 0.000480 2085. 2130.
40.8237 40.8106 2055(46) 0.000480 2085. 2129.
40.8275 40.8144 2136(46) 0.000473 2084. 2127.
40.8312 40.8181 2203(47) 0.000457 2084. 2126.
40.8350 40.8219 2076(45) 0.000489 2084. 2125.
40.8388 40.8257 2052(45) 0.000488 2084. 2124.
40.8425 40.8294 2077(46) 0.000482 2084. 2123.
40.8463 40.8332 2048(46) 0.000480 2084. 2122.
40.8500 40.8369 2120(46) 0.000473 2084. 2122.
40.8538 40.8407 2142(46) 0.000468 2084. 2121.
40.8576 40.8445 2081(45) 0.000485 2084. 2121.
40.8613 40.8482 2083(45) 0.000488 2083. 2122.
40.8651 40.8520 2096(46) 0.000475 2083. 2124.
40.8689 40.8558 2017(45) 0.000503 2083. 2127.
40.8726 40.8595 2042(45) 0.000491 2083. 2132.
40.8764 40.8633 2108(46) 0.000473 2083. 2139.
40.8801 40.8670 2157(46) 0.000463 2083. 2148.
40.8839 40.8708 2134(46) 0.000472 2083. 2158.
40.8877 40.8746 2093(46) 0.000478 2083. 2168.
40.8914 40.8783 2161(46) 0.000463 2083. 2174.
40.8952 40.8821 2120(46) 0.000476 2082. 2176.
40.8989 40.8858 2114(46) 0.000474 2082. 2172.
40.9027 40.8896 2077(45) 0.000490 2082. 2163.
40.9065 40.8934 2126(46) 0.000479 2082. 2153.
40.9102 40.8971 2000(45) 0.000503 2082. 2143.
40.9140 40.9009 2024(45) 0.000500 2082. 2134.
40.9177 40.9046 2128(45) 0.000486 2082. 2127.
40.9215 40.9084 2135(45) 0.000483 2082. 2122.
40.9253 40.9122 2017(44) 0.000512 2082. 2119.
40.9290 40.9159 2039(45) 0.000500 2082. 2118.
40.9328 40.9197 2089(44) 0.000507 2081. 2117.
40.9366 40.9235 2150(46) 0.000467 2081. 2117.
40.9403 40.9272 2093(45) 0.000485 2081. 2117.
40.9441 40.9310 2032(45) 0.000499 2081. 2118.
40.9478 40.9347 1996(45) 0.000497 2081. 2119.
40.9516 40.9385 2145(46) 0.000481 2081. 2121.
40.9554 40.9423 2116(46) 0.000476 2081. 2125.
40.9591 40.9460 2091(45) 0.000490 2081. 2130.
40.9629 40.9498 2043(45) 0.000493 2081. 2138.
40.9666 40.9535 2145(45) 0.000487 2080. 2151.
40.9704 40.9573 2130(46) 0.000481 2080. 2172.
40.9742 40.9611 2187(46) 0.000466 2080. 2202.
40.9779 40.9648 2230(47) 0.000453 2080. 2241.
40.9817 40.9686 2294(47) 0.000445 2080. 2293.
40.9854 40.9723 2302(48) 0.000438 2080. 2350.
40.9892 40.9761 2480(50) 0.000407 2080. 2411.
40.9930 40.9799 2488(49) 0.000410 2080. 2464.
40.9967 40.9836 2619(52) 0.000377 2080. 2498.
41.0005 40.9874 2530(50) 0.000401 2080. 2507.
41.0042 40.9911 2490(50) 0.000400 2079. 2487.
41.0080 40.9949 2528(50) 0.000398 2079. 2440.
41.0118 40.9987 2382(49) 0.000421 2079. 2378.
41.0155 41.0024 2337(48) 0.000432 2079. 2315.
41.0193 41.0062 2323(48) 0.000436 2079. 2257.
41.0231 41.0100 2192(47) 0.000461 2079. 2211.
41.0268 41.0137 2176(46) 0.000466 2079. 2177.
41.0306 41.0175 2147(46) 0.000472 2079. 2154.
41.0343 41.0212 2129(46) 0.000479 2079. 2139.
41.0381 41.0250 2084(46) 0.000482 2078. 2129.
41.0419 41.0288 2139(46) 0.000467 2078. 2124.
41.0456 41.0325 2012(44) 0.000507 2078. 2120.
41.0494 41.0363 2161(47) 0.000462 2078. 2118.
41.0531 41.0400 2135(46) 0.000480 2078. 2116.
41.0569 41.0438 2107(45) 0.000490 2078. 2115.
41.0607 41.0476 2119(46) 0.000480 2078. 2114.
41.0644 41.0513 2111(45) 0.000483 2078. 2113.
41.0682 41.0551 2019(44) 0.000514 2078. 2113.
41.0719 41.0588 2113(46) 0.000479 2078. 2112.
41.0757 41.0626 2123(46) 0.000479 2077. 2112.
41.0795 41.0664 2075(45) 0.000490 2077. 2112.
41.0832 41.0701 2045(44) 0.000510 2077. 2112.
41.0870 41.0739 2050(45) 0.000496 2077. 2112.
41.0907 41.0776 2037(45) 0.000498 2077. 2112.
41.0945 41.0814 2055(45) 0.000496 2077. 2113.
41.0983 41.0852 2070(45) 0.000498 2077. 2113.
41.1020 41.0889 2171(46) 0.000469 2077. 2114.
41.1058 41.0927 2079(46) 0.000477 2077. 2114.
41.1096 41.0965 2113(46) 0.000477 2077. 2115.
41.1133 41.1002 2166(46) 0.000473 2076. 2116.
41.1171 41.1040 2114(46) 0.000483 2076. 2117.
41.1208 41.1077 2112(46) 0.000481 2076. 2118.
41.1246 41.1115 2069(45) 0.000494 2076. 2120.
41.1284 41.1153 2041(45) 0.000497 2076. 2121.
41.1321 41.1190 2095(45) 0.000490 2076. 2123.
41.1359 41.1228 2037(45) 0.000503 2076. 2126.
41.1396 41.1265 2076(45) 0.000487 2076. 2131.
41.1434 41.1303 2113(45) 0.000487 2076. 2138.
41.1472 41.1341 2194(46) 0.000466 2075. 2151.
41.1509 41.1378 2150(46) 0.000478 2075. 2172.
41.1547 41.1416 2046(45) 0.000492 2075. 2210.
41.1584 41.1453 2234(47) 0.000458 2075. 2269.
41.1622 41.1491 2223(47) 0.000456 2075. 2355.
41.1660 41.1529 2294(47) 0.000449 2075. 2465.
41.1697 41.1566 2440(49) 0.000422 2075. 2585.
41.1735 41.1604 2551(50) 0.000399 2075. 2700.
41.1772 41.1641 2638(51) 0.000387 2075. 2776.
41.1810 41.1679 2474(49) 0.000417 2075. 2790.
41.1848 41.1717 2609(51) 0.000389 2074. 2733.
41.1885 41.1754 2353(48) 0.000427 2074. 2632.
41.1923 41.1792 2354(48) 0.000432 2074. 2510.
41.1960 41.1829 2378(49) 0.000425 2074. 2399.
41.1998 41.1867 2320(48) 0.000439 2074. 2306.
41.2036 41.1905 2108(45) 0.000490 2074. 2240.
41.2073 41.1942 2194(46) 0.000464 2074. 2198.
41.2111 41.1980 2144(46) 0.000476 2074. 2174.
41.2149 41.2018 2200(47) 0.000461 2074. 2161.
41.2186 41.2055 2224(47) 0.000460 2074. 2155.
41.2224 41.2093 2150(46) 0.000463 2073. 2152.
41.2261 41.2130 2151(46) 0.000477 2073. 2151.
41.2299 41.2168 2153(46) 0.000472 2073. 2151.
41.2337 41.2206 2035(45) 0.000500 2073. 2152.
41.2374 41.2243 2175(46) 0.000475 2073. 2154.
41.2412 41.2281 2108(46) 0.000483 2073. 2156.
41.2449 41.2318 2153(46) 0.000471 2073. 2158.
41.2487 41.2356 2132(46) 0.000470 2073. 2161.
41.2525 41.2394 2105(45) 0.000485 2073. 2164.
41.2562 41.2431 2156(46) 0.000473 2073. 2167.
41.2600 41.2469 2248(47) 0.000453 2072. 2171.
41.2637 41.2506 2178(46) 0.000471 2072. 2176.
41.2675 41.2544 2116(46) 0.000480 2072. 2181.
41.2713 41.2582 2159(46) 0.000478 2072. 2187.
41.2750 41.2619 2343(48) 0.000431 2072. 2195.
41.2788 41.2657 2240(47) 0.000458 2072. 2204.
41.2825 41.2694 2215(47) 0.000457 2072. 2216.
41.2863 41.2732 2234(47) 0.000447 2072. 2231.
41.2901 41.2770 2436(49) 0.000420 2072. 2250.
41.2938 41.2807 2353(48) 0.000433 2072. 2273.
41.2976 41.2845 2436(49) 0.000418 2071. 2300.
41.3013 41.2882 2369(48) 0.000433 2071. 2330.
41.3051 41.2920 2465(49) 0.000410 2071. 2362.
41.3089 41.2958 2477(49) 0.000413 2071. 2393.
41.3126 41.2995 2573(51) 0.000388 2071. 2419.
41.3164 41.3033 2448(49) 0.000411 2071. 2440.
41.3201 41.3070 2607(51) 0.000386 2071. 2454.
41.3239 41.3108 2553(50) 0.000400 2071. 2466.
41.3277 41.3146 2632(51) 0.000386 2071. 2480.
41.3314 41.3183 2548(50) 0.000400 2071. 2501.
41.3352 41.3221 2580(50) 0.000395 2070. 2538.
41.3389 41.3258 2710(52) 0.000376 2070. 2596.
41.3427 41.3296 2869(53) 0.000359 2070. 2691.
41.3465 41.3334 2806(52) 0.000364 2070. 2845.
41.3502 41.3371 3040(55) 0.0003360 2070. 3087.
41.3540 41.3409 3358(57) 0.0003049 2070. 3483.
41.3577 41.3446 3741(61) 0.0002694 2070. 4073.
41.3615 41.3484 4193(65) 0.0002402 2070. 4954.
41.3653 41.3522 5206(72) 0.0001925 2070. 6151.
41.3690 41.3559 6669(81) 0.0001530 2070. 7609.
41.3728 41.3597 8690(93) 0.0001150 2069. 9305.
41.3766 41.3635 10900(110) 0.0000903 2069. 10995.
41.3803 41.3672 12730(120) 0.0000756 2069. 12317.
41.3841 41.3710 13310(120) 0.0000728 2069. 12960.
41.3878 41.3747 12540(110) 0.0000794 2069. 12671.
41.3916 41.3785 10920(110) 0.0000898 2069. 11551.
41.3954 41.3823 9301(97) 0.0001053 2069. 9959.
41.3991 41.3860 7564(87) 0.0001313 2069. 8301.
41.4029 41.3898 6263(79) 0.0001584 2069. 6736.
41.4066 41.3935 5331(74) 0.0001840 2069. 5471.
41.4104 41.3973 4676(69) 0.0002126 2068. 4485.
41.4142 41.4011 3971(64) 0.0002460 2068. 3796.
41.4179 41.4048 3609(60) 0.0002736 2068. 3355.
41.4217 41.4086 3308(58) 0.0002975 2068. 3074.
41.4254 41.4123 3116(56) 0.0003181 2068. 2912.
41.4292 41.4161 2947(53) 0.000352 2068. 2820.
41.4330 41.4199 2875(54) 0.0003399 2068. 2778.
41.4367 41.4236 2849(53) 0.000351 2068. 2775.
41.4405 41.4274 2862(54) 0.0003442 2068. 2815.
41.4442 41.4311 2915(54) 0.0003437 2068. 2914.
41.4480 41.4349 3030(55) 0.0003273 2067. 3111.
41.4518 41.4387 3176(57) 0.0003096 2067. 3457.
41.4555 41.4424 3677(61) 0.0002680 2067. 3996.
41.4593 41.4462 4188(65) 0.0002388 2067. 4811.
41.4630 41.4499 5275(72) 0.0001911 2067. 5880.
41.4668 41.4537 6849(84) 0.0001417 2067. 7210.
41.4706 41.4575 8917(94) 0.0001121 2067. 8636.
41.4743 41.4612 10540(100) 0.0000917 2067. 9884.
41.4781 41.4650 11410(110) 0.0000850 2067. 10695.
41.4818 41.4687 10930(110) 0.0000886 2067. 10761.
41.4856 41.4725 9670(100) 0.0001003 2066. 10057.
41.4894 41.4763 8216(92) 0.0001186 2066. 8826.
41.4931 41.4800 6814(83) 0.0001434 2066. 7438.
41.4969 41.4838 5558(75) 0.0001774 2066. 6078.
41.5006 41.4875 5016(71) 0.0001964 2066. 4966.
41.5044 41.4913 4102(65) 0.0002378 2066. 4102.
41.5082 41.4951 3743(62) 0.0002606 2066. 3509.
41.5119 41.4988 3481(59) 0.0002865 2066. 3145.
41.5157 41.5026 3246(58) 0.0002967 2066. 2929.
41.5194 41.5063 3106(56) 0.0003236 2066. 2824.
41.5232 41.5101 2896(54) 0.0003376 2065. 2790.
41.5270 41.5139 2928(54) 0.0003415 2065. 2818.
41.5307 41.5176 3012(56) 0.0003200 2065. 2910.
41.5345 41.5214 3074(56) 0.0003165 2065. 3090.
41.5382 41.5251 3218(58) 0.0003021 2065. 3375.
41.5420 41.5289 3439(59) 0.0002901 2065. 3807.
41.5458 41.5327 4173(65) 0.0002346 2065. 4396.
41.5495 41.5364 4850(70) 0.0002048 2065. 5109.
41.5533 41.5402 6073(79) 0.0001601 2065. 5933.
41.5570 41.5439 7288(86) 0.0001347 2065. 6735.
41.5608 41.5477 7904(90) 0.0001223 2065. 7412.
41.5646 41.5515 8020(91) 0.0001216 2064. 7789.
41.5683 41.5552 7610(89) 0.0001263 2064. 7818.
41.5721 41.5590 6981(83) 0.0001440 2064. 7588.
41.5758 41.5627 6889(84) 0.0001407 2064. 7253.
41.5796 41.5665 6672(82) 0.0001480 2064. 6891.
41.5834 41.5703 6705(83) 0.0001440 2064. 6536.
41.5871 41.5740 6256(80) 0.0001548 2064. 6163.
41.5909 41.5778 5726(77) 0.0001707 2064. 5732.
41.5946 41.5815 5241(73) 0.0001884 2064. 5300.
41.5984 41.5853 4675(68) 0.0002148 2064. 4927.
41.6022 41.5891 4366(66) 0.0002277 2063. 4710.
41.6059 41.5928 4346(67) 0.0002235 2063. 4713.
41.6097 41.5966 4555(69) 0.0002119 2063. 4974.
41.6134 41.6003 5464(75) 0.0001794 2063. 5478.
41.6172 41.6041 6508(81) 0.0001516 2063. 6195.
41.6210 41.6079 7845(90) 0.0001232 2063. 6993.
41.6247 41.6116 8732(95) 0.0001100 2063. 7670.
41.6285 41.6154 8809(96) 0.0001084 2063. 8044.
41.6322 41.6191 8304(94) 0.0001136 2063. 7944.
41.6360 41.6229 7306(87) 0.0001327 2063. 7379.
41.6397 41.6266 6169(80) 0.0001552 2062. 6542.
41.6435 41.6304 5249(73) 0.0001877 2062. 5589.
41.6473 41.6342 4475(68) 0.0002150 2062. 4698.
41.6510 41.6379 3887(62) 0.0002560 2062. 3971.
41.6548 41.6417 3480(60) 0.0002785 2062. 3401.
41.6585 41.6454 3211(58) 0.0002996 2062. 3007.
41.6623 41.6492 2897(54) 0.0003393 2062. 2739.
41.6661 41.6530 2751(53) 0.000353 2062. 2568.
41.6698 41.6567 2525(51) 0.000385 2062. 2464.
41.6736 41.6605 2531(50) 0.000393 2062. 2395.
41.6773 41.6642 2424(50) 0.000398 2062. 2349.
41.6811 41.6680 2414(50) 0.000405 2061. 2315.
41.6849 41.6718 2252(48) 0.000430 2061. 2289.
41.6886 41.6755 2288(48) 0.000427 2061. 2267.
41.6924 41.6793 2286(48) 0.000430 2061. 2249.
41.6961 41.6830 2237(47) 0.000456 2061. 2234.
41.6999 41.6868 2223(48) 0.000434 2061. 2220.
41.7037 41.6906 2317(49) 0.000420 2061. 2209.
41.7074 41.6943 2116(47) 0.000458 2061. 2198.
41.7112 41.6981 2260(48) 0.000430 2061. 2189.
41.7149 41.7018 2175(47) 0.000451 2061. 2181.
41.7187 41.7056 2200(47) 0.000447 2060. 2174.
41.7225 41.7094 2181(47) 0.000453 2060. 2167.
41.7262 41.7131 2172(47) 0.000452 2060. 2162.
41.7300 41.7169 2090(46) 0.000472 2060. 2156.
41.7337 41.7206 2070(46) 0.000466 2060. 2152.
41.7375 41.7244 2147(47) 0.000455 2060. 2147.
41.7413 41.7282 2090(46) 0.000472 2060. 2143.
41.7450 41.7319 2109(46) 0.000465 2060. 2140.
41.7488 41.7357 2179(47) 0.000460 2060. 2137.
41.7525 41.7394 2047(46) 0.000481 2060. 2134.
41.7563 41.7432 2126(47) 0.000454 2060. 2131.
41.7601 41.7470 2135(47) 0.000452 2059. 2129.
41.7638 41.7507 2197(47) 0.000452 2059. 2127.
41.7676 41.7545 2149(47) 0.000445 2059. 2125.
41.7713 41.7582 2208(47) 0.000451 2059. 2124.
41.7751 41.7620 2117(46) 0.000468 2059. 2124.
41.7788 41.7657 2117(47) 0.000459 2059. 2124.
41.7826 41.7695 2064(47) 0.000452 2059. 2126.
41.7864 41.7733 2091(46) 0.000470 2059. 2130.
41.7901 41.7770 2084(46) 0.000473 2059. 2139.
41.7939 41.7808 2174(48) 0.000441 2059. 2154.
41.7976 41.7845 2115(46) 0.000474 2058. 2178.
41.8014 41.7883 2162(47) 0.000447 2058. 2212.
41.8052 41.7921 2190(47) 0.000447 2058. 2257.
41.8089 41.7958 2334(49) 0.000410 2058. 2306.
41.8127 41.7996 2307(49) 0.000423 2058. 2355.
41.8164 41.8033 2442(50) 0.000401 2058. 2391.
41.8202 41.8071 2263(48) 0.000431 2058. 2404.
41.8240 41.8109 2298(49) 0.000416 2058. 2389.
41.8277 41.8146 2268(49) 0.000418 2058. 2351.
41.8315 41.8184 2205(48) 0.000428 2058. 2299.
41.8352 41.8221 2189(47) 0.000450 2058. 2248.
41.8390 41.8259 2192(47) 0.000452 2057. 2202.
41.8428 41.8297 2156(47) 0.000446 2057. 2165.
41.8465 41.8334 2096(47) 0.000457 2057. 2140.
41.8503 41.8372 2068(46) 0.000469 2057. 2122.
41.8540 41.8409 2189(48) 0.000443 2057. 2111.
41.8578 41.8447 2098(47) 0.000454 2057. 2103.
41.8615 41.8484 2166(47) 0.000457 2057. 2099.
41.8653 41.8522 2068(45) 0.000492 2057. 2096.
41.8691 41.8560 2058(45) 0.000502 2057. 2094.
41.8728 41.8597 2141(46) 0.000467 2057. 2092.
41.8766 41.8635 2113(46) 0.000472 2057. 2091.
41.8803 41.8672 2025(45) 0.000489 2056. 2090.
41.8841 41.8710 2129(46) 0.000469 2056. 2089.
41.8879 41.8748 1989(45) 0.000498 2056. 2088.
41.8916 41.8785 2153(47) 0.000458 2056. 2087.
41.8954 41.8823 2060(46) 0.000482 2056. 2086.
41.8991 41.8860 2167(47) 0.000460 2056. 2085.
41.9029 41.8898 2073(45) 0.000485 2056. 2085.
41.9067 41.8936 2087(46) 0.000481 2056. 2084.
41.9104 41.8973 2052(45) 0.000489 2056. 2084.
41.9142 41.9011 2050(46) 0.000482 2056. 2083.
41.9179 41.9048 2025(45) 0.000486 2056. 2083.
41.9217 41.9086 2079(46) 0.000474 2055. 2083.
41.9254 41.9123 2051(45) 0.000493 2055. 2082.
41.9292 41.9161 2099(46) 0.000474 2055. 2082.
41.9330 41.9199 2021(45) 0.000496 2055. 2082.
41.9367 41.9236 2115(46) 0.000471 2055. 2082.
41.9405 41.9274 2087(46) 0.000469 2055. 2082.
41.9442 41.9311 2012(45) 0.000499 2055. 2082.
41.9480 41.9349 2071(46) 0.000470 2055. 2082.
41.9518 41.9387 2063(45) 0.000486 2055. 2082.
41.9555 41.9424 2025(45) 0.000499 2055. 2082.
41.9593 41.9462 2157(47) 0.000460 2054. 2083.
41.9630 41.9499 2095(46) 0.000475 2054. 2083.
41.9668 41.9537 2121(46) 0.000479 2054. 2084.
41.9706 41.9575 2098(46) 0.000477 2054. 2086.
41.9743 41.9612 2121(46) 0.000466 2054. 2087.
41.9781 41.9650 2149(47) 0.000458 2054. 2090.
41.9818 41.9687 2127(47) 0.000452 2054. 2095.
41.9856 41.9725 2127(46) 0.000466 2054. 2102.
41.9893 41.9762 2111(46) 0.000465 2054. 2113.
41.9931 41.9800 2115(46) 0.000467 2054. 2130.
41.9969 41.9838 2137(46) 0.000468 2054. 2153.
42.0006 41.9875 2151(47) 0.000456 2053. 2183.
42.0044 41.9913 2147(46) 0.000471 2053. 2219.
42.0081 41.9950 2352(49) 0.000417 2053. 2257.
42.0119 41.9988 2440(50) 0.000399 2053. 2292.
42.0157 42.0026 2438(50) 0.000401 2053. 2316.
42.0194 42.0063 2456(50) 0.000407 2053. 2321.
42.0232 42.0101 2379(50) 0.000405 2053. 2305.
42.0269 42.0138 2448(50) 0.000405 2053. 2276.
42.0307 42.0176 2322(49) 0.000416 2053. 2238.
42.0344 42.0213 2225(47) 0.000446 2053. 2201.
42.0382 42.0251 2302(48) 0.000431 2053. 2168.
42.0420 42.0289 2259(48) 0.000433 2052. 2141.
42.0457 42.0326 2202(48) 0.000442 2052. 2122.
42.0495 42.0364 2113(46) 0.000464 2052. 2109.
42.0532 42.0401 2019(45) 0.000488 2052. 2100.
42.0570 42.0439 2062(46) 0.000475 2052. 2095.
42.0608 42.0477 2096(46) 0.000468 2052. 2091.
42.0645 42.0514 2053(46) 0.000479 2052. 2090.
42.0683 42.0552 2021(45) 0.000498 2052. 2089.
42.0720 42.0589 1990(45) 0.000493 2052. 2088.
42.0758 42.0627 2147(46) 0.000467 2052. 2089.
42.0795 42.0664 2153(47) 0.000451 2052. 2089.
42.0833 42.0702 2067(46) 0.000469 2051. 2089.
42.0871 42.0740 2084(45) 0.000489 2051. 2090.
42.0908 42.0777 1983(45) 0.000497 2051. 2091.
42.0946 42.0815 2019(46) 0.000480 2051. 2093.
42.0983 42.0852 2025(45) 0.000502 2051. 2095.
42.1021 42.0890 2161(46) 0.000469 2051. 2097.
42.1059 42.0928 2047(46) 0.000479 2051. 2100.
42.1096 42.0965 2113(47) 0.000460 2051. 2104.
42.1134 42.1003 2036(45) 0.000496 2051. 2108.
42.1171 42.1040 2188(47) 0.000449 2051. 2114.
42.1209 42.1078 2113(47) 0.000457 2051. 2122.
42.1246 42.1115 2118(46) 0.000467 2050. 2130.
42.1284 42.1153 2067(46) 0.000470 2050. 2140.
42.1322 42.1191 2155(47) 0.000457 2050. 2149.
42.1359 42.1228 2147(46) 0.000464 2050. 2158.
42.1397 42.1266 2166(47) 0.000450 2050. 2167.
42.1434 42.1303 2165(47) 0.000454 2050. 2177.
42.1472 42.1341 2197(48) 0.000441 2050. 2192.
42.1509 42.1378 2188(47) 0.000445 2050. 2214.
42.1547 42.1416 2228(48) 0.000441 2050. 2254.
42.1585 42.1454 2355(49) 0.000415 2050. 2323.
42.1622 42.1491 2396(49) 0.000410 2050. 2440.
42.1660 42.1529 2520(51) 0.000381 2050. 2637.
42.1697 42.1566 2621(52) 0.000374 2049. 2935.
42.1735 42.1604 2963(55) 0.0003268 2049. 3373.
42.1773 42.1642 3571(61) 0.0002726 2049. 3947.
42.1810 42.1679 4371(67) 0.0002217 2049. 4603.
42.1848 42.1717 5378(74) 0.0001821 2049. 5293.
42.1885 42.1754 6106(80) 0.0001577 2049. 5855.
42.1923 42.1792 6198(80) 0.0001574 2049. 6163.
42.1960 42.1829 5714(78) 0.0001657 2049. 6095.
42.1998 42.1867 5171(73) 0.0001874 2049. 5674.
42.2036 42.1905 4444(67) 0.0002209 2049. 5038.
42.2073 42.1942 3944(63) 0.0002512 2049. 4359.
42.2111 42.1980 3406(59) 0.0002863 2048. 3715.
42.2148 42.2017 3069(56) 0.0003239 2048. 3203.
42.2186 42.2055 2832(54) 0.0003451 2048. 2813.
42.2223 42.2092 2652(52) 0.000368 2048. 2556.
42.2261 42.2130 2432(50) 0.000400 2048. 2388.
42.2299 42.2168 2291(49) 0.000425 2048. 2289.
42.2336 42.2205 2298(48) 0.000436 2048. 2232.
42.2374 42.2243 2199(47) 0.000445 2048. 2197.
42.2411 42.2280 2118(47) 0.000461 2048. 2177.
42.2449 42.2318 2207(48) 0.000442 2048. 2164.
42.2486 42.2355 2136(47) 0.000457 2048. 2157.
42.2524 42.2393 2130(47) 0.000450 2047. 2155.
42.2562 42.2431 2122(47) 0.000459 2047. 2158.
42.2599 42.2468 2126(47) 0.000459 2047. 2166.
42.2637 42.2506 2075(46) 0.000474 2047. 2179.
42.2674 42.2543 2228(48) 0.000435 2047. 2196.
42.2712 42.2581 2258(48) 0.000436 2047. 2212.
42.2749 42.2618 2363(50) 0.000405 2047. 2224.
42.2787 42.2656 2166(47) 0.000456 2047. 2228.
42.2825 42.2694 2317(49) 0.000419 2047. 2220.
42.2862 42.2731 2157(47) 0.000456 2047. 2203.
42.2900 42.2769 2227(48) 0.000434 2047. 2181.
42.2937 42.2806 2058(46) 0.000477 2047. 2157.
42.2975 42.2844 2147(47) 0.000447 2046. 2136.
42.3012 42.2881 2064(46) 0.000473 2046. 2118.
42.3050 42.2919 2074(46) 0.000466 2046. 2104.
42.3088 42.2957 1997(45) 0.000484 2046. 2095.
42.3125 42.2994 2094(47) 0.000459 2046. 2088.
42.3163 42.3032 2085(46) 0.000463 2046. 2083.
42.3200 42.3069 2032(46) 0.000473 2046. 2080.
42.3238 42.3107 2035(45) 0.000488 2046. 2078.
42.3275 42.3144 2034(46) 0.000471 2046. 2076.
42.3313 42.3182 2003(45) 0.000493 2046. 2075.
42.3351 42.3220 2005(46) 0.000482 2046. 2074.
42.3388 42.3257 2075(47) 0.000460 2045. 2073.
42.3426 42.3295 2165(47) 0.000447 2045. 2072.
42.3463 42.3332 2055(46) 0.000480 2045. 2071.
42.3501 42.3370 2161(47) 0.000454 2045. 2070.
42.3538 42.3407 1942(44) 0.000515 2045. 2070.
42.3576 42.3445 1932(44) 0.000523 2045. 2069.
42.3614 42.3483 2041(46) 0.000478 2045. 2069.
42.3651 42.3520 2024(45) 0.000490 2045. 2068.
42.3689 42.3558 2125(47) 0.000457 2045. 2068.
42.3726 42.3595 2042(46) 0.000482 2045. 2068.
42.3764 42.3633 1990(45) 0.000501 2045. 2068.
42.3801 42.3670 2061(46) 0.000480 2044. 2068.
42.3839 42.3708 2030(45) 0.000495 2044. 2068.
42.3877 42.3746 2101(46) 0.000473 2044. 2068.
42.3914 42.3783 2058(46) 0.000483 2044. 2068.
42.3952 42.3821 2005(45) 0.000495 2044. 2068.
42.3989 42.3858 2031(45) 0.000484 2044. 2068.
42.4027 42.3896 2085(46) 0.000473 2044. 2068.
42.4064 42.3933 1977(45) 0.000504 2044. 2068.
42.4102 42.3971 2059(45) 0.000484 2044. 2069.
42.4140 42.4009 2071(46) 0.000471 2044. 2069.
42.4177 42.4046 2205(47) 0.000459 2044. 2070.
42.4215 42.4084 1971(45) 0.000486 2044. 2070.
42.4252 42.4121 2082(46) 0.000481 2043. 2071.
42.4290 42.4159 2049(46) 0.000477 2043. 2073.
42.4327 42.4196 2050(46) 0.000477 2043. 2074.
42.4365 42.4234 2076(46) 0.000480 2043. 2076.
42.4403 42.4272 2128(46) 0.000472 2043. 2080.
42.4440 42.4309 2037(46) 0.000480 2043. 2085.
42.4478 42.4347 2101(46) 0.000469 2043. 2095.
42.4515 42.4384 2059(45) 0.000483 2043. 2112.
42.4553 42.4422 2036(45) 0.000487 2043. 2141.
42.4590 42.4459 2160(47) 0.000460 2043. 2184.
42.4628 42.4497 2143(47) 0.000459 2043. 2245.
42.4666 42.4535 2220(47) 0.000445 2043. 2324.
42.4703 42.4572 2290(48) 0.000425 2042. 2408.
42.4741 42.4610 2379(50) 0.000407 2042. 2489.
42.4778 42.4647 2447(49) 0.000409 2042. 2544.
42.4816 42.4685 2477(50) 0.000392 2042. 2558.
42.4853 42.4722 2344(49) 0.000422 2042. 2526.
42.4891 42.4760 2267(48) 0.000439 2042. 2457.
42.4928 42.4797 2360(49) 0.000421 2042. 2376.
42.4966 42.4835 2161(47) 0.000454 2042. 2294.
42.5004 42.4873 2253(48) 0.000438 2042. 2226.
42.5041 42.4910 2157(47) 0.000458 2042. 2178.
42.5079 42.4948 2148(46) 0.000463 2042. 2149.
42.5116 42.4985 2061(45) 0.000488 2041. 2137.
42.5154 42.5023 2137(47) 0.000461 2041. 2142.
42.5191 42.5060 2141(47) 0.000457 2041. 2160.
42.5229 42.5098 2155(47) 0.000458 2041. 2194.
42.5267 42.5136 2340(49) 0.000417 2041. 2242.
42.5304 42.5173 2419(49) 0.000409 2041. 2299.
42.5342 42.5211 2485(50) 0.000396 2041. 2362.
42.5379 42.5248 2689(52) 0.000363 2041. 2417.
42.5417 42.5286 2582(51) 0.000391 2041. 2454.
42.5454 42.5323 2692(52) 0.000375 2041. 2462.
42.5492 42.5361 2627(52) 0.000377 2041. 2439.
42.5529 42.5398 2537(51) 0.000381 2041. 2398.
42.5567 42.5436 2315(48) 0.000429 2040. 2353.
42.5605 42.5474 2429(50) 0.000406 2040. 2316.
42.5642 42.5511 2464(50) 0.000404 2040. 2295.
42.5680 42.5549 2388(49) 0.000418 2040. 2291.
42.5717 42.5586 2423(50) 0.000406 2040. 2298.
42.5755 42.5624 2412(50) 0.000405 2040. 2311.
42.5792 42.5661 2389(49) 0.000411 2040. 2317.
42.5830 42.5699 2468(50) 0.000400 2040. 2309.
42.5868 42.5737 2318(48) 0.000429 2040. 2285.
42.5905 42.5774 2372(49) 0.000418 2040. 2251.
42.5943 42.5812 2173(47) 0.000454 2040. 2214.
42.5980 42.5849 2155(47) 0.000461 2040. 2179.
42.6018 42.5887 2198(47) 0.000443 2039. 2149.
42.6055 42.5924 2277(48) 0.000427 2039. 2126.
42.6093 42.5962 2088(46) 0.000463 2039. 2110.
42.6130 42.5999 2136(47) 0.000461 2039. 2099.
42.6168 42.6037 2111(47) 0.000458 2039. 2092.
42.6206 42.6075 2143(47) 0.000458 2039. 2088.
42.6243 42.6112 2104(46) 0.000468 2039. 2086.
42.6281 42.6150 2159(47) 0.000453 2039. 2085.
42.6318 42.6187 2062(46) 0.000479 2039. 2084.
42.6356 42.6225 2104(46) 0.000463 2039. 2084.
42.6393 42.6262 2066(46) 0.000472 2039. 2084.
42.6431 42.6300 2166(47) 0.000458 2039. 2084.
42.6468 42.6337 2204(48) 0.000441 2038. 2085.
42.6506 42.6375 2146(47) 0.000453 2038. 2085.
42.6544 42.6413 2087(46) 0.000468 2038. 2086.
42.6581 42.6450 2179(47) 0.000453 2038. 2087.
42.6619 42.6488 2138(47) 0.000457 2038. 2087.
42.6656 42.6525 2123(47) 0.000461 2038. 2088.
42.6694 42.6563 2181(47) 0.000447 2038. 2089.
42.6731 42.6600 2071(46) 0.000471 2038. 2090.
42.6769 42.6638 2060(46) 0.000475 2038. 2092.
42.6806 42.6675 2061(46) 0.000470 2038. 2093.
42.6844 42.6713 2043(46) 0.000477 2038. 2095.
42.6882 42.6751 2171(47) 0.000455 2038. 2097.
42.6919 42.6788 2077(46) 0.000470 2037. 2099.
42.6957 42.6826 2090(46) 0.000471 2037. 2101.
42.6994 42.6863 2152(46) 0.000467 2037. 2104.
42.7032 42.6901 2082(46) 0.000473 2037. 2107.
42.7069 42.6938 2085(46) 0.000465 2037. 2110.
42.7107 42.6976 2272(49) 0.000421 2037. 2113.
42.7144 42.7013 2097(46) 0.000472 2037. 2117.
42.7182 42.7051 2217(48) 0.000432 2037. 2121.
42.7220 42.7089 2182(47) 0.000448 2037. 2126.
42.7257 42.7126 2139(47) 0.000456 2037. 2131.
42.7295 42.7164 2118(46) 0.000463 2037. 2137.
42.7332 42.7201 2223(48) 0.000434 2037. 2143.
42.7370 42.7239 2236(48) 0.000440 2036. 2151.
42.7407 42.7276 2246(48) 0.000435 2036. 2159.
42.7445 42.7314 2185(46) 0.000466 2036. 2169.
42.7482 42.7351 2219(48) 0.000436 2036. 2179.
42.7520 42.7389 2191(48) 0.000441 2036. 2192.
42.7558 42.7427 2279(48) 0.000430 2036. 2207.
42.7595 42.7464 2265(48) 0.000430 2036. 2224.
42.7633 42.7502 2264(48) 0.000435 2036. 2245.
42.7670 42.7539 2274(48) 0.000427 2036. 2270.
42.7708 42.7577 2406(50) 0.000408 2036. 2305.
42.7745 42.7614 2426(50) 0.000405 2036. 2353.
42.7783 42.7652 2487(50) 0.000399 2036. 2428.
42.7820 42.7689 2531(51) 0.000385 2035. 2544.
42.7858 42.7727 2734(53) 0.000359 2035. 2733.
42.7895 42.7764 2840(54) 0.0003448 2035. 3021.
42.7933 42.7802 3135(56) 0.0003173 2035. 3462.
42.7971 42.7840 3691(62) 0.0002643 2035. 4080.
42.8008 42.7877 4614(68) 0.0002147 2035. 4856.
42.8033 42.7902 5384(75) 0.0001771 2035. 5463.
42.8070 42.7939 6795(84) 0.0001406 2035. 6422.
42.8108 42.7977 8138(93) 0.0001166 2035. 7356.
42.8145 42.8014 8465(93) 0.0001158 2035. 8033.
42.8183 42.8052 8742(96) 0.0001081 2035. 8289.
42.8221 42.8090 7856(90) 0.0001242 2035. 8018.
42.8258 42.8127 6850(85) 0.0001397 2035. 7345.
42.8296 42.8165 5783(78) 0.0001637 2034. 6448.
42.8333 42.8202 5169(73) 0.0001862 2034. 5562.
42.8371 42.8240 4429(67) 0.0002215 2034. 4786.
42.8408 42.8277 4181(65) 0.0002338 2034. 4254.
42.8446 42.8315 3891(63) 0.0002559 2034. 3994.
42.8484 42.8353 3818(62) 0.0002638 2034. 4050.
42.8521 42.8390 4159(65) 0.0002336 2034. 4416.
42.8559 42.8428 4847(70) 0.0002033 2034. 5088.
42.8596 42.8465 5925(78) 0.0001626 2034. 5974.
42.8634 42.8503 7564(88) 0.0001287 2034. 7003.
42.8671 42.8540 8875(95) 0.0001108 2034. 7947.
42.8709 42.8578 9650(100) 0.0001009 2034. 8621.
42.8747 42.8616 8840(94) 0.0001120 2033. 8773.
42.8784 42.8653 7965(90) 0.0001232 2033. 8356.
42.8822 42.8691 6695(82) 0.0001470 2033. 7489.
42.8859 42.8728 5948(78) 0.0001654 2033. 6443.
42.8897 42.8766 4810(70) 0.0002031 2033. 5366.
42.8934 42.8803 4259(66) 0.0002307 2033. 4447.
42.8972 42.8841 3612(60) 0.0002751 2033. 3703.
42.9010 42.8879 3415(59) 0.0002907 2033. 3167.
42.9047 42.8916 3016(56) 0.0003229 2033. 2818.
42.9085 42.8954 2836(53) 0.000357 2033. 2593.
42.9122 42.8991 2607(52) 0.000367 2033. 2459.
42.9160 42.9029 2545(50) 0.000393 2033. 2375.
42.9197 42.9066 2413(50) 0.000405 2033. 2323.
42.9235 42.9104 2378(49) 0.000411 2032. 2288.
42.9272 42.9141 2335(48) 0.000426 2032. 2262.
42.9310 42.9179 2331(48) 0.000431 2032. 2242.
42.9348 42.9217 2288(48) 0.000428 2032. 2226.
42.9385 42.9254 2269(48) 0.000434 2032. 2212.
42.9423 42.9292 2189(47) 0.000454 2032. 2201.
42.9460 42.9329 2244(48) 0.000441 2032. 2191.
42.9498 42.9367 2205(47) 0.000450 2032. 2183.
42.9535 42.9404 2181(47) 0.000451 2032. 2176.
42.9573 42.9442 2130(46) 0.000464 2032. 2170.
42.9611 42.9480 2133(47) 0.000457 2032. 2165.
42.9648 42.9517 2237(48) 0.000433 2032. 2161.
42.9686 42.9555 2187(47) 0.000458 2031. 2157.
42.9723 42.9592 2188(47) 0.000445 2031. 2154.
42.9761 42.9630 2249(48) 0.000440 2031. 2152.
42.9798 42.9667 2214(47) 0.000450 2031. 2150.
42.9836 42.9705 2195(47) 0.000453 2031. 2148.
42.9874 42.9743 2179(47) 0.000450 2031. 2147.
42.9911 42.9780 2194(47) 0.000449 2031. 2147.
42.9949 42.9818 2149(47) 0.000460 2031. 2147.
42.9986 42.9855 2221(47) 0.000448 2031. 2147.
43.0024 42.9893 2161(46) 0.000465 2031. 2147.
43.0061 42.9930 2193(47) 0.000449 2031. 2148.
43.0099 42.9968 2069(46) 0.000473 2031. 2150.
43.0136 43.0005 2215(47) 0.000446 2031. 2151.
43.0174 43.0043 2210(48) 0.000442 2030. 2154.
43.0212 43.0081 2146(47) 0.000461 2030. 2156.
43.0249 43.0118 2197(47) 0.000448 2030. 2159.
43.0287 43.0156 2231(48) 0.000438 2030. 2163.
43.0308 43.0177 2195(46) 0.000466 2030. 2165.
43.0346 43.0215 2161(45) 0.000485 2030. 2170.
43.0383 43.0252 2215(46) 0.000469 2030. 2175.
43.0421 43.0290 2219(47) 0.000460 2030. 2181.
43.0459 43.0328 2240(47) 0.000456 2030. 2188.
43.0496 43.0365 2348(48) 0.000440 2030. 2196.
43.0534 43.0403 2268(47) 0.000451 2030. 2206.
43.0571 43.0440 2238(47) 0.000462 2030. 2218.
43.0609 43.0478 2289(47) 0.000453 2030. 2234.
43.0646 43.0515 2288(47) 0.000449 2029. 2256.
43.0684 43.0553 2221(47) 0.000459 2029. 2288.
43.0721 43.0590 2345(48) 0.000443 2029. 2338.
43.0759 43.0628 2364(47) 0.000447 2029. 2415.
43.0796 43.0665 2463(49) 0.000423 2029. 2529.
43.0834 43.0703 2448(49) 0.000417 2029. 2695.
43.0872 43.0741 2766(52) 0.000371 2029. 2913.
43.0909 43.0778 3093(55) 0.0003304 2029. 3171.
43.0947 43.0816 3490(59) 0.0002890 2029. 3459.
43.0984 43.0853 3719(60) 0.0002780 2029. 3723.
43.1022 43.0891 3893(62) 0.0002611 2029. 3923.
43.1059 43.0928 3918(62) 0.0002576 2029. 3996.
43.1097 43.0966 3767(61) 0.0002699 2028. 3928.
43.1134 43.1003 3599(59) 0.0002883 2028. 3755.
43.1172 43.1041 3326(57) 0.0003088 2028. 3525.
43.1209 43.1078 3067(55) 0.0003329 2028. 3302.
43.1247 43.1116 3132(55) 0.0003305 2028. 3113.
43.1285 43.1154 2990(54) 0.0003410 2028. 2986.
43.1322 43.1191 3150(56) 0.0003225 2028. 2935.
43.1360 43.1229 3038(54) 0.0003372 2028. 2967.
43.1397 43.1266 3249(57) 0.0003120 2028. 3101.
43.1435 43.1304 3366(58) 0.0003015 2028. 3383.
43.1472 43.1341 3610(59) 0.0002868 2028. 3858.
43.1510 43.1379 4128(63) 0.0002492 2028. 4637.
43.1547 43.1416 5050(70) 0.0002060 2028. 5762.
43.1585 43.1454 6383(79) 0.0001596 2027. 7362.
43.1623 43.1492 8403(90) 0.0001245 2027. 9404.
43.1660 43.1529 11370(110) 0.0000877 2027. 11716.
43.1698 43.1567 14440(120) 0.0000687 2027. 14189.
43.1735 43.1604 17040(130) 0.0000579 2027. 16348.
43.1773 43.1642 19260(140) 0.0000514 2027. 17922.
43.1810 43.1679 19470(140) 0.0000524 2027. 18561.
43.1848 43.1717 18600(140) 0.0000538 2027. 18181.
43.1885 43.1754 16190(130) 0.0000623 2027. 16844.
43.1923 43.1792 13950(120) 0.0000728 2027. 14741.
43.1960 43.1829 11520(110) 0.0000871 2027. 12381.
43.1998 43.1867 9546(97) 0.0001069 2027. 10017.
43.2036 43.1905 7787(87) 0.0001312 2027. 7953.
43.2073 43.1942 6414(80) 0.0001575 2026. 6332.
43.2111 43.1980 5382(73) 0.0001873 2026. 5078.
43.2148 43.2017 4683(68) 0.0002188 2026. 4210.
43.2186 43.2055 4108(63) 0.0002518 2026. 3607.
43.2223 43.2092 3584(59) 0.0002867 2026. 3224.
43.2261 43.2130 3377(57) 0.0003039 2026. 2972.
43.2298 43.2167 3095(55) 0.0003288 2026. 2813.
43.2336 43.2205 2899(53) 0.000362 2026. 2706.
43.2374 43.2243 2848(53) 0.000359 2026. 2631.
43.2411 43.2280 2722(52) 0.000374 2026. 2578.
43.2449 43.2318 2655(50) 0.000392 2026. 2537.
43.2486 43.2355 2623(50) 0.000395 2026. 2507.
43.2524 43.2393 2527(50) 0.000401 2026. 2483.
43.2561 43.2430 2630(51) 0.000389 2025. 2466.
43.2599 43.2468 2643(51) 0.000390 2025. 2453.
43.2636 43.2505 2632(51) 0.000390 2025. 2446.
43.2674 43.2543 2659(51) 0.000380 2025. 2443.
43.2712 43.2581 2597(51) 0.000388 2025. 2446.
43.2749 43.2618 2510(50) 0.000404 2025. 2454.
43.2787 43.2656 2589(50) 0.000402 2025. 2469.
43.2824 43.2693 2679(51) 0.000379 2025. 2492.
43.2862 43.2731 2739(52) 0.000376 2025. 2526.
43.2899 43.2768 2681(51) 0.000379 2025. 2573.
43.2937 43.2806 2828(53) 0.000355 2025. 2641.
43.2974 43.2843 2792(52) 0.000363 2025. 2736.
43.3012 43.2881 2980(54) 0.0003430 2025. 2879.
43.3050 43.2919 3195(56) 0.0003212 2024. 3098.
43.3087 43.2956 3666(60) 0.0002760 2024. 3423.
43.3125 43.2994 3872(62) 0.0002600 2024. 3928.
43.3162 43.3031 4451(67) 0.0002255 2024. 4647.
43.3200 43.3069 5457(73) 0.0001858 2024. 5675.
43.3237 43.3106 6661(81) 0.0001506 2024. 6989.
43.3275 43.3144 8492(91) 0.0001196 2024. 8630.
43.3312 43.3181 10940(110) 0.0000906 2024. 10407.
43.3350 43.3219 13650(120) 0.0000714 2024. 12195.
43.3388 43.3257 15490(130) 0.0000633 2024. 13686.
43.3425 43.3294 16460(130) 0.0000610 2024. 14600.
43.3463 43.3332 15900(130) 0.0000627 2024. 14750.
43.3500 43.3369 14500(120) 0.0000679 2024. 14025.
43.3538 43.3407 11950(110) 0.0000840 2023. 12541.
43.3575 43.3444 9898(99) 0.0001026 2023. 10709.
43.3613 43.3482 8303(91) 0.0001220 2023. 8782.
43.3650 43.3519 6928(84) 0.0001421 2023. 7086.
43.3688 43.3557 5789(76) 0.0001721 2023. 5658.
43.3726 43.3595 4963(69) 0.0002072 2023. 4587.
43.3763 43.3632 4324(64) 0.0002414 2023. 3857.
43.3801 43.3670 3798(61) 0.0002675 2023. 3370.
43.3838 43.3707 3538(59) 0.0002850 2023. 3080.
43.3876 43.3745 3333(57) 0.0003049 2023. 2906.
43.3913 43.3782 2984(54) 0.0003460 2023. 2808.
43.3951 43.3820 3002(55) 0.0003336 2023. 2742.
43.3989 43.3858 2820(53) 0.000359 2023. 2689.
43.4026 43.3895 2770(52) 0.000364 2023. 2639.
43.4064 43.3933 2729(51) 0.000378 2022. 2586.
43.4101 43.3970 2679(51) 0.000378 2022. 2538.
43.4139 43.4008 2601(51) 0.000387 2022. 2495.
43.4176 43.4045 2503(50) 0.000401 2022. 2462.
43.4214 43.4083 2541(50) 0.000401 2022. 2437.
43.4251 43.4120 2476(49) 0.000418 2022. 2423.
43.4289 43.4158 2610(51) 0.000392 2022. 2418.
43.4327 43.4196 2594(50) 0.000393 2022. 2424.
43.4364 43.4233 2614(50) 0.000392 2022. 2444.
43.4402 43.4271 2650(51) 0.000385 2022. 2482.
43.4439 43.4308 2592(51) 0.000390 2022. 2548.
43.4477 43.4346 2726(52) 0.000374 2022. 2659.
43.4514 43.4383 2755(52) 0.000367 2022. 2826.
43.4552 43.4421 3017(54) 0.0003395 2021. 3073.
43.4590 43.4459 3305(57) 0.0003063 2021. 3407.
43.4627 43.4496 3584(59) 0.0002882 2021. 3811.
43.4665 43.4534 4349(66) 0.0002281 2021. 4278.
43.4702 43.4571 5073(71) 0.0001957 2021. 4731.
43.4740 43.4609 5374(73) 0.0001880 2021. 5112.
43.4777 43.4646 5594(74) 0.0001814 2021. 5312.
43.4815 43.4684 5368(73) 0.0001900 2021. 5283.
43.4853 43.4722 4829(69) 0.0002072 2021. 5042.
43.4890 43.4759 4387(66) 0.0002297 2021. 4695.
43.4928 43.4797 4170(64) 0.0002442 2021. 4330.
43.4965 43.4834 3954(63) 0.0002538 2021. 4057.
43.5003 43.4872 3890(61) 0.0002661 2021. 3935.
43.5040 43.4909 3894(62) 0.0002603 2020. 4022.
43.5078 43.4947 4079(64) 0.0002435 2020. 4355.
43.5115 43.4984 4588(67) 0.0002229 2020. 4914.
43.5153 43.5022 5699(75) 0.0001762 2020. 5688.
43.5191 43.5060 6916(83) 0.0001452 2020. 6574.
43.5228 43.5097 8113(90) 0.0001241 2020. 7405.
43.5266 43.5135 8678(93) 0.0001147 2020. 8044.
43.5303 43.5172 8527(92) 0.0001177 2020. 8299.
43.5341 43.5210 8004(89) 0.0001256 2020. 8147.
43.5378 43.5247 7354(85) 0.0001372 2020. 7719.
43.5416 43.5285 6566(81) 0.0001530 2020. 7201.
43.5454 43.5323 6147(78) 0.0001656 2020. 6799.
43.5491 43.5360 6206(79) 0.0001613 2020. 6644.
43.5529 43.5398 6518(81) 0.0001526 2020. 6785.
43.5566 43.5435 6996(83) 0.0001434 2019. 7198.
43.5604 43.5473 7795(89) 0.0001268 2019. 7832.
43.5641 43.5510 8469(91) 0.0001205 2019. 8555.
43.5679 43.5548 9640(100) 0.0001007 2019. 9278.
43.5717 43.5586 9900(100) 0.0001004 2019. 9836.
43.5754 43.5623 9760(99) 0.0001016 2019. 10119.
43.5792 43.5661 9227(96) 0.0001075 2019. 10157.
43.5829 43.5698 8638(92) 0.0001169 2019. 10106.
43.5867 43.5736 8587(93) 0.0001152 2019. 10189.
43.5904 43.5773 9090(95) 0.0001100 2019. 10564.
43.5942 43.5811 10330(100) 0.0000960 2019. 11298.
43.5980 43.5849 12250(110) 0.0000810 2019. 12287.
43.6017 43.5886 13880(120) 0.0000712 2019. 13262.
43.6055 43.5924 14490(120) 0.0000673 2018. 13941.
43.6092 43.5961 13990(120) 0.0000706 2018. 14010.
43.6130 43.5999 12560(110) 0.0000794 2018. 13423.
43.6167 43.6036 11060(110) 0.0000892 2018. 12422.
43.6205 43.6074 9930(100) 0.0001005 2018. 11297.
43.6243 43.6112 9364(97) 0.0001073 2018. 10356.
43.6280 43.6149 9469(98) 0.0001040 2018. 9764.
43.6318 43.6187 10300(100) 0.0000952 2018. 9494.
43.6355 43.6224 10690(100) 0.0000932 2018. 9432.
43.6393 43.6262 10720(100) 0.0000921 2018. 9348.
43.6430 43.6299 9880(100) 0.0001000 2018. 9026.
43.6468 43.6337 8578(92) 0.0001170 2018. 8353.
43.6506 43.6375 7387(86) 0.0001346 2018. 7414.
43.6543 43.6412 6075(78) 0.0001631 2018. 6397.
43.6581 43.6450 5337(73) 0.0001873 2017. 5392.
43.6618 43.6487 4502(66) 0.0002282 2017. 4540.
43.6656 43.6525 4036(64) 0.0002469 2017. 3846.
43.6693 43.6562 3560(60) 0.0002747 2017. 3347.
43.6731 43.6600 3328(58) 0.0002970 2017. 2992.
43.6769 43.6638 2972(54) 0.0003391 2017. 2759.
43.6806 43.6675 2881(53) 0.000351 2017. 2611.
43.6844 43.6713 2648(51) 0.000379 2017. 2513.
43.6881 43.6750 2578(50) 0.000397 2017. 2447.
43.6919 43.6788 2548(50) 0.000396 2017. 2398.
43.6956 43.6825 2529(50) 0.000401 2017. 2361.
43.6994 43.6863 2472(49) 0.000409 2017. 2330.
43.7032 43.6901 2382(49) 0.000416 2017. 2304.
43.7069 43.6938 2286(48) 0.000431 2017. 2282.
43.7107 43.6976 2339(48) 0.000427 2016. 2263.
43.7144 43.7013 2284(48) 0.000426 2016. 2246.
43.7182 43.7051 2290(48) 0.000435 2016. 2230.
43.7219 43.7088 2307(48) 0.000429 2016. 2217.
43.7257 43.7126 2311(48) 0.000432 2016. 2205.
43.7295 43.7164 2303(48) 0.000434 2016. 2194.
43.7332 43.7201 2255(48) 0.000432 2016. 2185.
43.7370 43.7239 2225(47) 0.000453 2016. 2176.
43.7407 43.7276 2154(46) 0.000464 2016. 2168.
43.7445 43.7314 2242(48) 0.000437 2016. 2160.
43.7483 43.7352 2213(47) 0.000452 2016. 2154.
43.7520 43.7389 2189(47) 0.000462 2016. 2147.
43.7558 43.7427 2187(47) 0.000449 2016. 2142.
43.7595 43.7464 2185(47) 0.000461 2016. 2137.
43.7633 43.7502 2142(45) 0.000488 2015. 2132.
43.7670 43.7539 2100(47) 0.000459 2015. 2127.
43.7708 43.7577 2197(47) 0.000445 2015. 2123.
43.7746 43.7615 2140(46) 0.000464 2015. 2119.
43.7783 43.7652 2153(47) 0.000460 2015. 2115.
43.7821 43.7690 2131(46) 0.000474 2015. 2112.
43.7858 43.7727 2141(46) 0.000471 2015. 2109.
43.7896 43.7765 2185(47) 0.000452 2015. 2106.
43.7933 43.7802 2158(46) 0.000467 2015. 2103.
43.7971 43.7840 2242(48) 0.000441 2015. 2100.
43.8009 43.7878 2208(47) 0.000457 2015. 2098.
43.8046 43.7915 2113(46) 0.000466 2015. 2095.
43.8084 43.7953 2299(48) 0.000435 2015. 2093.
43.8121 43.7990 2173(47) 0.000458 2015. 2091.
43.8159 43.8028 2155(47) 0.000457 2014. 2089.
43.8197 43.8066 2094(46) 0.000464 2014. 2087.
43.8234 43.8103 2056(46) 0.000477 2014. 2085.
43.8272 43.8141 2118(46) 0.000471 2014. 2084.
43.8309 43.8178 2207(48) 0.000443 2014. 2083.
43.8347 43.8216 2142(47) 0.000462 2014. 2081.
43.8384 43.8253 2173(47) 0.000459 2014. 2080.
43.8422 43.8291 2072(46) 0.000473 2014. 2079.
43.8460 43.8329 2106(46) 0.000478 2014. 2077.
43.8497 43.8366 2107(46) 0.000473 2014. 2076.
43.8535 43.8404 2113(46) 0.000478 2014. 2075.
43.8572 43.8441 2126(47) 0.000460 2014. 2074.
43.8610 43.8479 2180(47) 0.000460 2014. 2073.
43.8647 43.8516 2136(46) 0.000474 2014. 2072.
43.8685 43.8554 2115(47) 0.000456 2013. 2071.
43.8723 43.8592 2122(47) 0.000461 2013. 2071.
43.8760 43.8629 2149(46) 0.000464 2013. 2070.
43.8798 43.8667 2121(46) 0.000478 2013. 2069.
43.8835 43.8704 2145(47) 0.000455 2013. 2068.
43.8873 43.8742 2166(47) 0.000459 2013. 2068.
43.8911 43.8780 2101(46) 0.000471 2013. 2067.
43.8948 43.8817 2004(45) 0.000489 2013. 2067.
43.8986 43.8855 2149(47) 0.000451 2013. 2066.
43.9023 43.8892 2140(46) 0.000468 2013. 2066.
43.9061 43.8930 2082(46) 0.000475 2013. 2065.
43.9098 43.8967 2118(46) 0.000480 2013. 2065.
43.9136 43.9005 2176(47) 0.000459 2013. 2065.
43.9174 43.9043 2040(45) 0.000484 2013. 2064.
43.9211 43.9080 2085(46) 0.000477 2012. 2064.
43.9249 43.9118 2005(45) 0.000492 2012. 2064.
43.9286 43.9155 2070(46) 0.000477 2012. 2064.
43.9324 43.9193 2067(46) 0.000475 2012. 2064.
43.9362 43.9231 2137(46) 0.000465 2012. 2064.
43.9399 43.9268 2093(46) 0.000471 2012. 2063.
43.9437 43.9306 2051(45) 0.000484 2012. 2063.
43.9474 43.9343 2242(48) 0.000443 2012. 2064.
43.9512 43.9381 2017(45) 0.000491 2012. 2064.
43.9549 43.9418 2103(46) 0.000473 2012. 2064.
43.9587 43.9456 2125(47) 0.000460 2012. 2064.
43.9625 43.9494 2072(46) 0.000478 2012. 2064.
43.9662 43.9531 2070(45) 0.000484 2012. 2064.
43.9700 43.9569 2028(46) 0.000475 2012. 2065.
43.9737 43.9606 2122(46) 0.000476 2011. 2065.
43.9775 43.9644 2159(47) 0.000462 2011. 2066.
43.9813 43.9682 2021(45) 0.000502 2011. 2066.
43.9850 43.9719 2097(46) 0.000469 2011. 2067.
43.9888 43.9757 2066(45) 0.000488 2011. 2067.
43.9925 43.9794 2080(46) 0.000477 2011. 2068.
43.9963 43.9832 2029(45) 0.000501 2011. 2069.
44.0000 43.9869 2153(46) 0.000470 2011. 2070.
44.0038 43.9907 2081(45) 0.000485 2011. 2071.
44.0076 43.9945 2146(46) 0.000476 2011. 2072.
44.0113 43.9982 2141(46) 0.000472 2011. 2073.
44.0151 44.0020 2167(46) 0.000463 2011. 2074.
44.0188 44.0057 2178(47) 0.000462 2011. 2075.
44.0226 44.0095 2154(47) 0.000462 2011. 2077.
44.0264 44.0133 2128(46) 0.000475 2010. 2078.
44.0301 44.0170 2154(47) 0.000461 2010. 2080.
44.0339 44.0208 2165(46) 0.000463 2010. 2082.
44.0376 44.0245 2192(47) 0.000460 2010. 2084.
44.0414 44.0283 2097(45) 0.000484 2010. 2086.
44.0452 44.0321 2142(46) 0.000469 2010. 2089.
44.0489 44.0358 2174(47) 0.000461 2010. 2091.
44.0527 44.0396 2135(46) 0.000477 2010. 2094.
44.0564 44.0433 2120(46) 0.000469 2010. 2097.
44.0602 44.0471 2151(46) 0.000475 2010. 2101.
44.0639 44.0508 2129(46) 0.000477 2010. 2105.
44.0677 44.0546 2209(47) 0.000451 2010. 2109.
44.0715 44.0584 2147(46) 0.000464 2010. 2114.
44.0752 44.0621 2140(46) 0.000470 2010. 2119.
44.0790 44.0659 2250(47) 0.000444 2010. 2125.
44.0827 44.0696 2118(46) 0.000476 2009. 2131.
44.0865 44.0734 2189(47) 0.000454 2009. 2138.
44.0903 44.0772 2177(46) 0.000465 2009. 2146.
44.0940 44.0809 2175(47) 0.000456 2009. 2155.
44.0978 44.0847 2138(46) 0.000470 2009. 2166.
44.1015 44.0884 2224(47) 0.000448 2009. 2177.
44.1053 44.0922 2244(48) 0.000440 2009. 2190.
44.1091 44.0960 2240(47) 0.000450 2009. 2206.
44.1128 44.0997 2230(47) 0.000462 2009. 2223.
44.1166 44.1035 2327(48) 0.000429 2009. 2245.
44.1203 44.1072 2297(48) 0.000427 2009. 2270.
44.1241 44.1110 2396(49) 0.000417 2009. 2301.
44.1278 44.1147 2391(49) 0.000414 2009. 2339.
44.1316 44.1185 2503(50) 0.000400 2009. 2391.
44.1354 44.1223 2457(50) 0.000404 2008. 2466.
44.1391 44.1260 2659(52) 0.000375 2008. 2577.
44.1429 44.1298 2834(53) 0.0003495 2008. 2755.
44.1466 44.1335 2935(54) 0.0003380 2008. 3028.
44.1504 44.1373 3244(56) 0.0003135 2008. 3460.
44.1542 44.1411 3673(61) 0.0002687 2008. 4092.
44.1579 44.1448 4395(66) 0.0002281 2008. 4932.
44.1617 44.1486 5786(77) 0.0001695 2008. 6027.
44.1654 44.1523 7443(85) 0.0001395 2008. 7268.
44.1692 44.1561 9690(100) 0.0000993 2008. 8598.
44.1730 44.1599 11440(110) 0.0000833 2008. 9782.
44.1767 44.1636 11840(110) 0.0000823 2008. 10545.
44.1805 44.1674 11270(110) 0.0000893 2008. 10709.
44.1842 44.1711 10150(100) 0.0000975 2008. 10236.
44.1880 44.1749 8595(93) 0.0001163 2008. 9291.
44.1917 44.1786 7326(85) 0.0001381 2007. 8196.
44.1955 44.1824 6283(80) 0.0001565 2007. 7150.
44.1993 44.1862 5739(76) 0.0001734 2007. 6357.
44.2030 44.1899 5529(74) 0.0001826 2007. 5919.
44.2068 44.1937 5562(73) 0.0001852 2007. 5822.
44.2105 44.1974 6023(79) 0.0001614 2007. 6009.
44.2143 44.2012 6541(82) 0.0001505 2007. 6368.
44.2181 44.2050 6848(83) 0.0001441 2007. 6729.
44.2218 44.2087 7134(85) 0.0001375 2007. 6908.
44.2256 44.2125 6564(81) 0.0001513 2007. 6787.
44.2293 44.2162 5971(78) 0.0001653 2007. 6365.
44.2331 44.2200 5309(74) 0.0001823 2007. 5724.
44.2369 44.2238 4717(69) 0.0002115 2007. 5004.
44.2406 44.2275 4069(64) 0.0002434 2007. 4328.
44.2444 44.2313 3573(60) 0.0002814 2007. 3729.
44.2481 44.2350 3184(57) 0.0003102 2006. 3265.
44.2519 44.2388 2994(55) 0.0003265 2006. 2913.
44.2557 44.2426 2703(52) 0.000369 2006. 2670.
44.2594 44.2463 2583(51) 0.000382 2006. 2513.
44.2632 44.2501 2524(50) 0.000396 2006. 2409.
44.2669 44.2538 2433(49) 0.000412 2006. 2344.
44.2707 44.2576 2395(50) 0.000402 2006. 2299.
44.2745 44.2614 2426(50) 0.000404 2006. 2267.
44.2782 44.2651 2305(48) 0.000436 2006. 2244.
44.2820 44.2689 2348(48) 0.000429 2006. 2225.
44.2857 44.2726 2341(48) 0.000431 2006. 2210.
44.2895 44.2764 2214(47) 0.000447 2006. 2197.
44.2932 44.2801 2252(48) 0.000428 2006. 2186.
44.2970 44.2839 2191(47) 0.000448 2006. 2177.
44.3008 44.2877 2165(47) 0.000462 2005. 2169.
44.3045 44.2914 2196(47) 0.000450 2005. 2162.
44.3083 44.2952 2206(47) 0.000446 2005. 2157.
44.3120 44.2989 2208(47) 0.000447 2005. 2152.
44.3158 44.3027 2269(48) 0.000437 2005. 2148.
44.3196 44.3065 2192(47) 0.000452 2005. 2145.
44.3233 44.3102 2144(47) 0.000462 2005. 2142.
44.3271 44.3140 2250(47) 0.000445 2005. 2140.
44.3308 44.3177 2222(48) 0.000442 2005. 2139.
44.3346 44.3215 2204(48) 0.000442 2005. 2138.
44.3384 44.3253 2183(47) 0.000456 2005. 2137.
44.3421 44.3290 2316(48) 0.000432 2005. 2137.
44.3459 44.3328 2256(48) 0.000442 2005. 2138.
44.3496 44.3365 2213(47) 0.000449 2005. 2139.
44.3534 44.3403 2181(47) 0.000452 2005. 2141.
44.3572 44.3441 2240(48) 0.000440 2004. 2143.
44.3609 44.3478 2146(47) 0.000449 2004. 2146.
44.3647 44.3516 2174(47) 0.000461 2004. 2149.
44.3684 44.3553 2207(47) 0.000443 2004. 2153.
44.3722 44.3591 2244(48) 0.000429 2004. 2158.
44.3760 44.3629 2209(47) 0.000448 2004. 2163.
44.3797 44.3666 2262(48) 0.000436 2004. 2169.
44.3835 44.3704 2243(48) 0.000443 2004. 2177.
44.3872 44.3741 2240(47) 0.000445 2004. 2185.
44.3910 44.3779 2346(49) 0.000419 2004. 2195.
44.3948 44.3817 2320(48) 0.000430 2004. 2205.
44.3985 44.3854 2294(49) 0.000424 2004. 2217.
44.4023 44.3892 2329(49) 0.000423 2004. 2232.
44.4060 44.3929 2298(48) 0.000428 2004. 2248.
44.4098 44.3967 2388(49) 0.000415 2004. 2267.
44.4136 44.4005 2352(49) 0.000418 2003. 2289.
44.4173 44.4042 2405(49) 0.000414 2003. 2314.
44.4211 44.4080 2395(49) 0.000413 2003. 2345.
44.4248 44.4117 2486(50) 0.000394 2003. 2382.
44.4286 44.4155 2576(51) 0.000379 2003. 2429.
44.4324 44.4193 2686(52) 0.000373 2003. 2492.
44.4361 44.4230 2760(53) 0.000356 2003. 2581.
44.4399 44.4268 2812(53) 0.000355 2003. 2719.
44.4436 44.4305 3050(56) 0.0003228 2003. 2934.
44.4474 44.4343 3271(57) 0.0003069 2003. 3291.
44.4512 44.4381 3592(61) 0.0002683 2003. 3860.
44.4549 44.4418 4206(65) 0.0002375 2003. 4698.
44.4587 44.4456 5237(72) 0.0001931 2003. 5924.
44.4624 44.4493 6586(82) 0.0001489 2003. 7512.
44.4662 44.4531 9133(94) 0.0001125 2003. 9508.
44.4700 44.4569 12260(110) 0.0000779 2002. 11720.
44.4737 44.4606 14620(120) 0.0000681 2002. 13835.
44.4775 44.4644 16500(130) 0.0000592 2002. 15607.
44.4812 44.4681 16670(130) 0.0000590 2002. 16610.
44.4850 44.4719 15880(130) 0.0000631 2002. 16739.
44.4888 44.4757 14660(120) 0.0000684 2002. 16085.
44.4925 44.4794 13940(120) 0.0000698 2002. 14986.
44.4963 44.4832 13270(120) 0.0000739 2002. 13643.
44.5000 44.4869 12220(110) 0.0000793 2002. 12251.
44.5038 44.4907 10570(100) 0.0000916 2002. 10768.
44.5076 44.4945 9413(99) 0.0001029 2002. 9258.
44.5113 44.4982 7543(87) 0.0001315 2002. 7840.
44.5151 44.5020 6450(81) 0.0001538 2002. 6529.
44.5188 44.5057 5373(73) 0.0001858 2002. 5449.
44.5226 44.5095 4800(69) 0.0002102 2002. 4562.
44.5264 44.5133 4084(64) 0.0002409 2001. 3899.
44.5301 44.5170 3726(61) 0.0002708 2001. 3449.
44.5339 44.5208 3539(60) 0.0002787 2001. 3156.
44.5376 44.5245 3317(58) 0.0002974 2001. 3012.
44.5414 44.5283 3324(58) 0.0003007 2001. 2993.
44.5452 44.5321 3382(58) 0.0002961 2001. 3110.
44.5489 44.5358 3283(57) 0.0003065 2001. 3373.
44.5527 44.5396 3653(61) 0.0002718 2001. 3824.
44.5564 44.5433 4076(64) 0.0002419 2001. 4461.
44.5602 44.5471 5094(72) 0.0001944 2001. 5309.
44.5640 44.5509 6376(80) 0.0001575 2001. 6296.
44.5677 44.5546 7383(86) 0.0001349 2001. 7280.
44.5715 44.5584 8665(94) 0.0001121 2001. 8136.
44.5752 44.5621 8892(95) 0.0001115 2001. 8616.
44.5790 44.5659 8467(92) 0.0001183 2001. 8590.
44.5828 44.5697 7562(87) 0.0001329 2001. 8043.
44.5865 44.5734 6459(80) 0.0001544 2000. 7167.
44.5903 44.5772 5615(76) 0.0001753 2000. 6125.
44.5940 44.5809 4799(70) 0.0002057 2000. 5138.
44.5978 44.5847 4278(64) 0.0002420 2000. 4265.
44.6016 44.5885 3735(62) 0.0002626 2000. 3585.
44.6053 44.5922 3367(58) 0.0002958 2000. 3111.
44.6091 44.5960 2939(54) 0.0003416 2000. 2791.
44.6128 44.5997 2869(54) 0.0003460 2000. 2604.
44.6166 44.6035 2717(53) 0.000360 2000. 2499.
44.6204 44.6073 2710(51) 0.000386 2000. 2451.
44.6241 44.6110 2615(52) 0.000376 2000. 2437.
44.6279 44.6148 2673(52) 0.000372 2000. 2438.
44.6316 44.6185 2685(52) 0.000373 2000. 2442.
44.6354 44.6223 2638(52) 0.000375 2000. 2437.
44.6392 44.6261 2603(51) 0.000377 2000. 2418.
44.6429 44.6298 2593(51) 0.000381 1999. 2384.
44.6467 44.6336 2492(49) 0.000417 1999. 2340.
44.6504 44.6373 2377(48) 0.000429 1999. 2293.
44.6542 44.6411 2418(50) 0.000404 1999. 2248.
44.6580 44.6449 2295(48) 0.000430 1999. 2209.
44.6617 44.6486 2207(47) 0.000458 1999. 2178.
44.6655 44.6524 2278(47) 0.000451 1999. 2154.
44.6692 44.6561 2260(48) 0.000434 1999. 2136.
44.6730 44.6599 2283(48) 0.000434 1999. 2123.
44.6768 44.6637 2146(46) 0.000476 1999. 2114.
44.6805 44.6674 2127(46) 0.000474 1999. 2107.
44.6843 44.6712 2131(46) 0.000474 1999. 2101.
44.6880 44.6749 2175(47) 0.000460 1999. 2097.
44.6918 44.6787 2170(47) 0.000455 1999. 2092.
44.6956 44.6825 2041(46) 0.000483 1999. 2089.
44.6993 44.6862 2180(47) 0.000445 1999. 2086.
44.7031 44.6900 2208(47) 0.000455 1998. 2083.
44.7068 44.6937 2136(46) 0.000464 1998. 2081.
44.7106 44.6975 2159(46) 0.000468 1998. 2078.
44.7144 44.7013 2200(47) 0.000447 1998. 2076.
44.7181 44.7050 2218(47) 0.000454 1998. 2075.
44.7219 44.7088 2088(46) 0.000469 1998. 2073.
44.7256 44.7125 2055(45) 0.000489 1998. 2072.
44.7294 44.7163 2134(47) 0.000456 1998. 2071.
44.7332 44.7201 2148(47) 0.000454 1998. 2070.
44.7369 44.7238 2196(47) 0.000448 1998. 2069.
44.7407 44.7276 2145(46) 0.000469 1998. 2068.
44.7444 44.7313 2148(47) 0.000460 1998. 2068.
44.7482 44.7351 2155(47) 0.000460 1998. 2068.
44.7520 44.7389 2042(46) 0.000476 1998. 2068.
44.7557 44.7426 2084(46) 0.000476 1998. 2069.
44.7595 44.7464 2116(47) 0.000461 1997. 2070.
44.7632 44.7501 2076(46) 0.000479 1997. 2072.
44.7670 44.7539 2073(45) 0.000491 1997. 2074.
44.7708 44.7577 2118(47) 0.000451 1997. 2079.
44.7745 44.7614 2159(46) 0.000471 1997. 2085.
44.7783 44.7652 2115(46) 0.000468 1997. 2094.
44.7820 44.7689 2138(47) 0.000460 1997. 2105.
44.7858 44.7727 2084(46) 0.000483 1997. 2120.
44.7896 44.7765 2118(45) 0.000487 1997. 2136.
44.7933 44.7802 2176(47) 0.000453 1997. 2152.
44.7971 44.7840 2184(47) 0.000455 1997. 2167.
44.8008 44.7877 2163(47) 0.000450 1997. 2177.
44.8046 44.7915 2176(47) 0.000453 1997. 2180.
44.8084 44.7953 2196(47) 0.000452 1997. 2176.
44.8121 44.7990 2227(47) 0.000444 1997. 2168.
44.8159 44.8028 2222(48) 0.000440 1997. 2157.
44.8196 44.8065 2124(46) 0.000463 1996. 2148.
44.8234 44.8103 2290(48) 0.000427 1996. 2141.
44.8272 44.8141 2226(48) 0.000434 1996. 2138.
44.8309 44.8178 2170(46) 0.000462 1996. 2140.
44.8347 44.8216 2160(47) 0.000448 1996. 2149.
44.8385 44.8254 2242(48) 0.000437 1996. 2166.
44.8422 44.8291 2249(48) 0.000439 1996. 2191.
44.8460 44.8329 2310(48) 0.000428 1996. 2227.
44.8497 44.8366 2399(49) 0.000410 1996. 2272.
44.8535 44.8404 2465(51) 0.000391 1996. 2329.
44.8573 44.8442 2680(52) 0.000366 1996. 2400.
44.8610 44.8479 2739(53) 0.000358 1996. 2485.
44.8648 44.8517 2751(53) 0.000362 1996. 2600.
44.8685 44.8554 2760(53) 0.000353 1996. 2756.
44.8723 44.8592 3079(56) 0.0003204 1996. 2990.
44.8761 44.8630 3208(57) 0.0003079 1996. 3331.
44.8798 44.8667 3457(59) 0.0002880 1995. 3783.
44.8836 44.8705 4286(66) 0.0002291 1995. 4365.
44.8873 44.8742 5188(72) 0.0001934 1995. 5008.
44.8911 44.8780 6120(79) 0.0001590 1995. 5665.
44.8949 44.8818 6450(80) 0.0001543 1995. 6195.
44.8986 44.8855 6586(81) 0.0001527 1995. 6458.
44.9024 44.8893 6157(78) 0.0001627 1995. 6380.
44.9061 44.8930 5561(74) 0.0001803 1995. 5987.
44.9099 44.8968 4789(69) 0.0002083 1995. 5371.
44.9137 44.9006 4254(65) 0.0002366 1995. 4679.
44.9174 44.9043 3818(62) 0.0002598 1995. 4035.
44.9212 44.9081 3360(57) 0.0003046 1995. 3469.
44.9249 44.9118 3084(55) 0.0003290 1995. 3039.
44.9287 44.9156 2931(54) 0.0003402 1995. 2720.
44.9325 44.9194 2602(52) 0.000375 1995. 2508.
44.9362 44.9231 2564(50) 0.000400 1994. 2378.
44.9400 44.9269 2452(49) 0.000418 1994. 2298.
44.9437 44.9306 2398(48) 0.000431 1994. 2255.
44.9475 44.9344 2317(47) 0.000446 1994. 2233.
44.9513 44.9382 2339(48) 0.000441 1994. 2231.
44.9550 44.9419 2287(47) 0.000449 1994. 2248.
44.9588 44.9457 2375(48) 0.000434 1994. 2290.
44.9625 44.9494 2396(48) 0.000429 1994. 2367.
44.9663 44.9532 2505(50) 0.000401 1994. 2492.
44.9701 44.9570 2517(49) 0.000416 1994. 2673.
44.9738 44.9607 2762(52) 0.000363 1994. 2902.
44.9776 44.9645 2978(54) 0.0003422 1994. 3177.
44.9814 44.9683 3352(57) 0.0003060 1994. 3460.
44.9851 44.9720 3619(60) 0.0002801 1994. 3696.
44.9889 44.9758 3627(59) 0.0002826 1994. 3842.
44.9926 44.9795 3636(60) 0.0002780 1994. 3844.
44.9964 44.9833 3417(58) 0.0002989 1993. 3703.
45.0002 44.9871 3084(55) 0.0003329 1993. 3460.
45.0039 44.9908 2979(54) 0.0003448 1993. 3181.
45.0077 44.9946 2778(53) 0.000360 1993. 2901.
45.0114 44.9983 2651(51) 0.000380 1993. 2664.
45.0152 45.0021 2486(50) 0.000405 1993. 2476.
45.0190 45.0059 2475(49) 0.000414 1993. 2343.
45.0227 45.0096 2374(49) 0.000419 1993. 2258.
45.0265 45.0134 2274(48) 0.000441 1993. 2206.
45.0302 45.0171 2252(47) 0.000446 1993. 2178.
45.0340 45.0209 2248(47) 0.000445 1993. 2165.
45.0378 45.0247 2162(47) 0.000454 1993. 2161.
45.0415 45.0284 2262(47) 0.000452 1993. 2163.
45.0453 45.0322 2239(47) 0.000452 1993. 2169.
45.0490 45.0359 2272(47) 0.000450 1993. 2176.
45.0528 45.0397 2248(46) 0.000467 1993. 2186.
45.0566 45.0435 2228(46) 0.000474 1992. 2199.
45.0603 45.0472 2144(45) 0.000486 1992. 2215.
45.0641 45.0510 2217(46) 0.000466 1992. 2242.
45.0678 45.0547 2353(47) 0.000447 1992. 2287.
45.0716 45.0585 2378(49) 0.000417 1992. 2364.
45.0754 45.0623 2450(49) 0.000415 1992. 2489.
45.0791 45.0660 2551(50) 0.000404 1992. 2678.
45.0829 45.0698 2716(52) 0.000369 1992. 2957.
45.0867 45.0736 3041(55) 0.0003325 1992. 3331.
45.0904 45.0773 3591(60) 0.0002772 1992. 3778.
45.0942 45.0811 4287(66) 0.0002301 1992. 4288.
45.0979 45.0848 4934(70) 0.0002024 1992. 4775.
45.1017 45.0886 5485(73) 0.0001867 1992. 5176.
45.1055 45.0924 5413(74) 0.0001827 1992. 5380.
45.1092 45.0961 5026(69) 0.0002096 1992. 5328.
45.1130 45.0999 4648(68) 0.0002171 1992. 5037.
45.1167 45.1036 4185(64) 0.0002407 1991. 4600.
45.1205 45.1074 3697(61) 0.0002731 1991. 4094.
45.1243 45.1112 3447(58) 0.0002929 1991. 3607.
45.1280 45.1149 3003(55) 0.0003348 1991. 3199.
45.1318 45.1187 2806(53) 0.000353 1991. 2871.
45.1355 45.1224 2601(51) 0.000383 1991. 2641.
45.1393 45.1262 2570(50) 0.000397 1991. 2483.
45.1431 45.1300 2544(50) 0.000397 1991. 2387.
45.1468 45.1337 2487(50) 0.000407 1991. 2337.
45.1506 45.1375 2420(48) 0.000425 1991. 2318.
45.1543 45.1412 2345(48) 0.000427 1991. 2327.
45.1581 45.1450 2439(49) 0.000413 1991. 2365.
45.1619 45.1488 2459(49) 0.000414 1991. 2442.
45.1656 45.1525 2531(50) 0.000402 1991. 2567.
45.1694 45.1563 2667(52) 0.000371 1991. 2764.
45.1731 45.1600 2805(53) 0.000358 1991. 3037.
45.1769 45.1638 3185(56) 0.0003149 1991. 3404.
45.1807 45.1676 3636(60) 0.0002795 1990. 3845.
45.1844 45.1713 4303(66) 0.0002313 1990. 4312.
45.1882 45.1751 4898(70) 0.0002034 1990. 4765.
45.1920 45.1789 5286(72) 0.0001931 1990. 5105.
45.1957 45.1826 5296(72) 0.0001907 1990. 5240.
45.1995 45.1864 4927(71) 0.0002007 1990. 5136.
45.2032 45.1901 4497(67) 0.0002221 1990. 4832.
45.2070 45.1939 4096(64) 0.0002450 1990. 4397.
45.2108 45.1977 3489(59) 0.0002851 1990. 3929.
45.2145 45.2014 3340(58) 0.0003002 1990. 3504.
45.2183 45.2052 3122(56) 0.0003149 1990. 3141.
45.2220 45.2089 2889(53) 0.0003499 1990. 2874.
45.2258 45.2127 2809(53) 0.000355 1990. 2690.
45.2296 45.2165 2682(51) 0.000378 1990. 2587.
45.2333 45.2202 2738(53) 0.000358 1990. 2557.
45.2371 45.2240 2742(52) 0.000366 1990. 2596.
45.2408 45.2277 2820(53) 0.0003498 1989. 2714.
45.2446 45.2315 2947(54) 0.0003463 1989. 2937.
45.2484 45.2353 3118(56) 0.0003229 1989. 3294.
45.2521 45.2390 3665(60) 0.0002758 1989. 3797.
45.2559 45.2428 4199(65) 0.0002371 1989. 4483.
45.2596 45.2465 5171(71) 0.0001968 1989. 5293.
45.2634 45.2503 6432(81) 0.0001542 1989. 6205.
45.2672 45.2541 7820(88) 0.0001287 1989. 7076.
45.2709 45.2578 8376(93) 0.0001151 1989. 7727.
45.2747 45.2616 8509(94) 0.0001142 1989. 8021.
45.2785 45.2654 7947(89) 0.0001256 1989. 7841.
45.2822 45.2691 7051(83) 0.0001457 1989. 7269.
45.2860 45.2729 5872(77) 0.0001683 1989. 6437.
45.2897 45.2766 5026(71) 0.0001988 1989. 5553.
45.2935 45.2804 4384(67) 0.0002261 1989. 4703.
45.2973 45.2842 3973(63) 0.0002491 1989. 3990.
45.3010 45.2879 3696(61) 0.0002711 1988. 3459.
45.3048 45.2917 3331(58) 0.0002994 1988. 3079.
45.3085 45.2954 3038(55) 0.0003283 1988. 2846.
45.3123 45.2992 2854(54) 0.0003446 1988. 2719.
45.3161 45.3030 2816(53) 0.000354 1988. 2680.
45.3198 45.3067 2825(54) 0.0003460 1988. 2714.
45.3236 45.3105 2805(53) 0.000358 1988. 2822.
45.3273 45.3142 2881(54) 0.0003416 1988. 3005.
45.3311 45.3180 3033(55) 0.0003275 1988. 3283.
45.3349 45.3218 3421(59) 0.0002893 1988. 3662.
45.3386 45.3255 3742(61) 0.0002652 1988. 4126.
45.3424 45.3293 4756(68) 0.0002143 1988. 4681.
45.3461 45.3330 5422(74) 0.0001838 1988. 5261.
45.3499 45.3368 5957(77) 0.0001673 1988. 5838.
45.3537 45.3406 6384(80) 0.0001551 1988. 6316.
45.3574 45.3443 6496(82) 0.0001490 1988. 6628.
45.3612 45.3481 6104(78) 0.0001641 1988. 6791.
45.3650 45.3519 6106(78) 0.0001638 1987. 6869.
45.3687 45.3556 6264(79) 0.0001593 1987. 6950.
45.3725 45.3594 6751(82) 0.0001476 1987. 7088.
45.3762 45.3631 7260(87) 0.0001330 1987. 7268.
45.3800 45.3669 7594(87) 0.0001313 1987. 7422.
45.3838 45.3707 7654(89) 0.0001275 1987. 7429.
45.3875 45.3744 7277(85) 0.0001370 1987. 7201.
45.3913 45.3782 6338(80) 0.0001557 1987. 6721.
45.3950 45.3819 5656(76) 0.0001726 1987. 6101.
45.3988 45.3857 5047(71) 0.0001969 1987. 5433.
45.4026 45.3895 4420(67) 0.0002257 1987. 4847.
45.4063 45.3932 4095(65) 0.0002392 1987. 4438.
45.4101 45.3970 3907(63) 0.0002515 1987. 4238.
45.4138 45.4007 4131(65) 0.0002348 1987. 4284.
45.4176 45.4045 4406(67) 0.0002221 1987. 4573.
45.4214 45.4083 4882(69) 0.0002088 1987. 5070.
45.4251 45.4120 5864(75) 0.0001763 1986. 5688.
45.4289 45.4158 7194(84) 0.0001422 1986. 6352.
45.4326 45.4195 7789(88) 0.0001284 1986. 6896.
45.4364 45.4233 7967(89) 0.0001266 1986. 7197.
45.4402 45.4271 7541(86) 0.0001339 1986. 7131.
45.4439 45.4308 6548(81) 0.0001525 1986. 6723.
45.4477 45.4346 5771(76) 0.0001748 1986. 6063.
45.4515 45.4384 4958(70) 0.0002024 1986. 5301.
45.4552 45.4421 4219(64) 0.0002415 1986. 4573.
45.4590 45.4459 3767(61) 0.0002701 1986. 3915.
45.4627 45.4496 3391(58) 0.0003008 1986. 3396.
45.4665 45.4534 3051(55) 0.0003330 1986. 2994.
45.4703 45.4572 2902(54) 0.0003419 1986. 2712.
45.4740 45.4609 2686(52) 0.000372 1986. 2527.
45.4778 45.4647 2531(50) 0.000404 1986. 2404.
45.4815 45.4684 2472(49) 0.000417 1986. 2327.
45.4853 45.4722 2369(49) 0.000424 1986. 2276.
45.4891 45.4760 2368(49) 0.000423 1985. 2243.
45.4928 45.4797 2328(48) 0.000436 1985. 2220.
45.4966 45.4835 2292(48) 0.000440 1985. 2204.
45.5003 45.4872 2277(47) 0.000446 1985. 2192.
45.5041 45.4910 2314(48) 0.000434 1985. 2182.
45.5079 45.4948 2181(46) 0.000463 1985. 2173.
45.5116 45.4985 2244(47) 0.000456 1985. 2163.
45.5154 45.5023 2234(47) 0.000452 1985. 2152.
45.5191 45.5060 2135(46) 0.000476 1985. 2140.
45.5229 45.5098 2213(47) 0.000460 1985. 2128.
45.5267 45.5136 2099(46) 0.000476 1985. 2117.
45.5304 45.5173 2205(46) 0.000475 1985. 2107.
45.5342 45.5211 2095(46) 0.000483 1985. 2099.
45.5380 45.5249 2249(47) 0.000458 1985. 2091.
45.5417 45.5286 2119(46) 0.000483 1985. 2086.
45.5455 45.5324 2024(44) 0.000506 1985. 2081.
45.5492 45.5361 2073(45) 0.000500 1985. 2078.
45.5530 45.5399 2136(46) 0.000475 1984. 2076.
45.5568 45.5437 2173(46) 0.000468 1984. 2075.
45.5605 45.5474 2086(45) 0.000485 1984. 2075.
45.5643 45.5512 2092(45) 0.000486 1984. 2077.
45.5680 45.5549 2180(46) 0.000471 1984. 2081.
45.5718 45.5587 2121(46) 0.000465 1984. 2086.
45.5756 45.5625 2129(46) 0.000476 1984. 2092.
45.5793 45.5662 2060(45) 0.000491 1984. 2098.
45.5831 45.5700 2142(46) 0.000472 1984. 2102.
45.5868 45.5737 2107(46) 0.000481 1984. 2105.
45.5906 45.5775 2026(44) 0.000505 1984. 2103.
45.5944 45.5813 2093(45) 0.000484 1984. 2098.
45.5981 45.5850 2052(45) 0.000490 1984. 2091.
45.6019 45.5888 2063(45) 0.000493 1984. 2083.
45.6056 45.5925 2098(45) 0.000485 1984. 2076.
45.6094 45.5963 2094(46) 0.000477 1984. 2070.
45.6132 45.6001 2065(45) 0.000495 1984. 2065.
45.6169 45.6038 2020(45) 0.000499 1983. 2062.
45.6207 45.6076 2084(45) 0.000484 1983. 2060.
45.6245 45.6114 2075(45) 0.000485 1983. 2060.
45.6282 45.6151 2086(46) 0.000479 1983. 2061.
45.6320 45.6189 2174(46) 0.000465 1983. 2062.
45.6357 45.6226 2123(46) 0.000482 1983. 2064.
45.6395 45.6264 1990(44) 0.000506 1983. 2067.
45.6433 45.6302 2159(46) 0.000465 1983. 2071.
45.6470 45.6339 2078(46) 0.000481 1983. 2076.
45.6508 45.6377 2109(46) 0.000478 1983. 2082.
45.6545 45.6414 2190(46) 0.000469 1983. 2089.
45.6583 45.6452 2076(45) 0.000486 1983. 2096.
45.6621 45.6490 2198(47) 0.000459 1983. 2104.
45.6658 45.6527 2147(46) 0.000483 1983. 2113.
45.6696 45.6565 2181(46) 0.000463 1983. 2121.
45.6733 45.6602 2071(45) 0.000487 1983. 2130.
45.6771 45.6640 2180(46) 0.000467 1983. 2141.
45.6809 45.6678 2221(47) 0.000450 1982. 2155.
45.6846 45.6715 2245(47) 0.000450 1982. 2176.
45.6884 45.6753 2317(48) 0.000436 1982. 2207.
45.6921 45.6790 2398(49) 0.000419 1982. 2257.
45.6959 45.6828 2254(47) 0.000454 1982. 2341.
45.6997 45.6866 2550(51) 0.000388 1982. 2478.
45.7034 45.6903 2695(53) 0.000363 1982. 2691.
45.7072 45.6941 2879(54) 0.0003426 1982. 3022.
45.7109 45.6978 3191(57) 0.0003111 1982. 3477.
45.7147 45.7016 3734(61) 0.0002656 1982. 4095.
45.7185 45.7054 4877(71) 0.0002009 1982. 4847.
45.7222 45.7091 6064(78) 0.0001627 1982. 5650.
45.7260 45.7129 7354(86) 0.0001338 1982. 6445.
45.7298 45.7167 8236(92) 0.0001185 1982. 7066.
45.7335 45.7204 8144(91) 0.0001214 1982. 7353.
45.7373 45.7242 7557(88) 0.0001294 1982. 7229.
45.7410 45.7279 6680(82) 0.0001478 1982. 6740.
45.7448 45.7317 5729(76) 0.0001729 1981. 5998.
45.7486 45.7355 4786(69) 0.0002083 1981. 5170.
45.7523 45.7392 4095(64) 0.0002461 1981. 4398.
45.7561 45.7430 3625(61) 0.0002719 1981. 3719.
45.7598 45.7467 3161(56) 0.0003155 1981. 3199.
45.7636 45.7505 3008(55) 0.0003354 1981. 2811.
45.7674 45.7543 2751(52) 0.000365 1981. 2549.
45.7711 45.7580 2631(52) 0.000372 1981. 2384.
45.7749 45.7618 2410(50) 0.000406 1981. 2279.
45.7786 45.7655 2398(48) 0.000426 1981. 2216.
45.7824 45.7693 2241(47) 0.000447 1981. 2175.
45.7862 45.7731 2208(47) 0.000458 1981. 2148.
45.7899 45.7768 2205(47) 0.000452 1981. 2129.
45.7937 45.7806 2127(46) 0.000473 1981. 2113.
45.7974 45.7843 2247(48) 0.000442 1981. 2102.
45.8012 45.7881 2053(45) 0.000488 1981. 2092.
45.8050 45.7919 1980(45) 0.000499 1981. 2083.
45.8087 45.7956 2120(46) 0.000469 1980. 2076.
45.8125 45.7994 2089(46) 0.000480 1980. 2070.
45.8162 45.8031 2113(46) 0.000477 1980. 2064.
45.8200 45.8069 2111(46) 0.000466 1980. 2060.
45.8238 45.8107 2081(46) 0.000477 1980. 2055.
45.8275 45.8144 2031(45) 0.000488 1980. 2052.
45.8313 45.8182 2090(46) 0.000483 1980. 2049.
45.8351 45.8220 1958(45) 0.000502 1980. 2046.
45.8388 45.8257 2081(46) 0.000475 1980. 2044.
45.8426 45.8295 1995(45) 0.000501 1980. 2042.
45.8463 45.8332 2058(46) 0.000481 1980. 2040.
45.8501 45.8370 1962(44) 0.000509 1980. 2039.
45.8539 45.8408 2033(45) 0.000495 1980. 2037.
45.8576 45.8445 2037(46) 0.000483 1980. 2036.
45.8614 45.8483 2103(46) 0.000477 1980. 2036.
45.8651 45.8520 1992(44) 0.000506 1980. 2035.
45.8689 45.8558 2035(45) 0.000491 1980. 2035.
45.8727 45.8596 2098(47) 0.000462 1979. 2035.
45.8764 45.8633 2114(46) 0.000470 1979. 2035.
45.8802 45.8671 2001(45) 0.000501 1979. 2035.
45.8839 45.8708 1986(45) 0.000505 1979. 2036.
45.8877 45.8746 1980(45) 0.000503 1979. 2037.
45.8915 45.8784 2023(45) 0.000488 1979. 2038.
45.8952 45.8821 2007(46) 0.000477 1979. 2039.
45.8990 45.8859 2081(45) 0.000491 1979. 2041.
45.9027 45.8896 2045(44) 0.000508 1979. 2043.
45.9065 45.8934 2082(45) 0.000484 1979. 2046.
45.9103 45.8972 2147(46) 0.000474 1979. 2050.
45.9140 45.9009 2086(45) 0.000496 1979. 2054.
45.9178 45.9047 2044(45) 0.000500 1979. 2060.
45.9215 45.9084 2055(45) 0.000493 1979. 2068.
45.9253 45.9122 2089(45) 0.000493 1979. 2078.
45.9291 45.9160 2083(46) 0.000482 1979. 2094.
45.9328 45.9197 2220(47) 0.000454 1979. 2117.
45.9366 45.9235 2223(47) 0.000453 1978. 2154.
45.9404 45.9273 2175(46) 0.000472 1978. 2213.
45.9441 45.9310 2311(48) 0.000439 1978. 2301.
45.9479 45.9348 2382(48) 0.000432 1978. 2437.
45.9516 45.9385 2563(50) 0.000396 1978. 2626.
45.9554 45.9423 2869(53) 0.000360 1978. 2885.
45.9592 45.9461 3124(56) 0.0003209 1978. 3208.
45.9629 45.9498 3615(60) 0.0002790 1978. 3564.
45.9667 45.9536 4156(64) 0.0002450 1978. 3934.
45.9704 45.9573 4560(67) 0.0002236 1978. 4247.
45.9742 45.9611 4859(71) 0.0002002 1978. 4450.
45.9780 45.9649 4734(69) 0.0002097 1978. 4477.
45.9817 45.9686 4388(65) 0.0002331 1978. 4321.
45.9855 45.9724 3850(61) 0.0002645 1978. 4018.
45.9892 45.9761 3511(58) 0.0002928 1978. 3652.
45.9930 45.9799 3180(56) 0.0003184 1978. 3269.
45.9968 45.9837 2933(54) 0.0003425 1978. 2925.
46.0005 45.9874 2691(52) 0.000369 1978. 2651.
46.0043 45.9912 2535(50) 0.000398 1977. 2441.
46.0080 45.9949 2302(48) 0.000442 1977. 2298.
46.0118 45.9987 2391(48) 0.000427 1977. 2202.
46.0156 46.0025 2208(47) 0.000454 1977. 2143.
46.0193 46.0062 2122(45) 0.000489 1977. 2107.
46.0231 46.0100 2097(46) 0.000476 1977. 2085.
46.0268 46.0137 2125(46) 0.000480 1977. 2071.
46.0306 46.0175 2071(45) 0.000483 1977. 2061.
46.0344 46.0213 2068(45) 0.000488 1977. 2054.
46.0381 46.0250 2035(45) 0.000496 1977. 2048.
46.0419 46.0288 2101(45) 0.000485 1977. 2043.
46.0456 46.0325 2041(45) 0.000497 1977. 2040.
46.0494 46.0363 2016(45) 0.000495 1977. 2036.
46.0532 46.0401 2048(46) 0.000478 1977. 2033.
46.0569 46.0438 2046(45) 0.000483 1977. 2031.
46.0607 46.0476 2114(45) 0.000488 1977. 2029.
46.0644 46.0513 1960(43) 0.000541 1977. 2027.
46.0682 46.0551 2057(45) 0.000504 1976. 2026.
46.0720 46.0589 2031(45) 0.000497 1976. 2025.
46.0757 46.0626 2015(45) 0.000500 1976. 2024.
46.0795 46.0664 2026(45) 0.000497 1976. 2023.
46.0832 46.0701 2005(44) 0.000508 1976. 2022.
46.0870 46.0739 2071(45) 0.000492 1976. 2021.
46.0908 46.0777 2060(45) 0.000495 1976. 2021.
46.0945 46.0814 2012(45) 0.000504 1976. 2020.
46.0983 46.0852 2051(45) 0.000496 1976. 2020.
46.1020 46.0889 1986(44) 0.000508 1976. 2020.
46.1058 46.0927 1996(45) 0.000501 1976. 2020.
46.1096 46.0965 2046(45) 0.000502 1976. 2020.
46.1133 46.1002 2057(45) 0.000488 1976. 2020.
46.1171 46.1040 2058(45) 0.000489 1976. 2020.
46.1209 46.1078 1934(44) 0.000519 1976. 2020.
46.1246 46.1115 2119(46) 0.000478 1976. 2021.
46.1284 46.1153 2022(45) 0.000499 1976. 2021.
46.1321 46.1190 2035(45) 0.000498 1976. 2021.
46.1359 46.1228 1957(44) 0.000520 1975. 2022.
46.1397 46.1266 2053(45) 0.000505 1975. 2023.
46.1434 46.1303 1993(44) 0.000506 1975. 2023.
46.1472 46.1341 2058(45) 0.000491 1975. 2024.
46.1509 46.1378 2051(46) 0.000480 1975. 2025.
46.1547 46.1416 1970(44) 0.000524 1975. 2026.
46.1585 46.1454 2073(46) 0.000480 1975. 2027.
46.1622 46.1491 1979(45) 0.000497 1975. 2028.
46.1660 46.1529 1985(44) 0.000511 1975. 2029.
46.1697 46.1566 2089(45) 0.000488 1975. 2031.
46.1735 46.1604 2086(46) 0.000479 1975. 2032.
46.1773 46.1642 2014(45) 0.000501 1975. 2034.
46.1810 46.1679 2006(45) 0.000502 1975. 2036.
46.1848 46.1717 2124(46) 0.000469 1975. 2038.
46.1885 46.1754 2001(45) 0.000493 1975. 2040.
46.1923 46.1792 2141(46) 0.000471 1975. 2042.
46.1961 46.1830 2062(45) 0.000497 1975. 2045.
46.1998 46.1867 2163(47) 0.000448 1974. 2048.
46.2036 46.1905 2082(45) 0.000484 1974. 2051.
46.2073 46.1942 2057(45) 0.000504 1974. 2054.
46.2111 46.1980 2060(46) 0.000479 1974. 2058.
46.2149 46.2018 2075(45) 0.000486 1974. 2063.
46.2186 46.2055 2180(47) 0.000456 1974. 2067.
46.2224 46.2093 2074(46) 0.000483 1974. 2073.
46.2261 46.2130 2129(47) 0.000459 1974. 2079.
46.2299 46.2168 2069(45) 0.000486 1974. 2086.
46.2337 46.2206 2095(46) 0.000479 1974. 2095.
46.2374 46.2243 2155(47) 0.000457 1974. 2106.
46.2412 46.2281 2168(47) 0.000458 1974. 2121.
46.2449 46.2318 2174(46) 0.000464 1974. 2141.
46.2487 46.2356 2134(46) 0.000469 1974. 2173.
46.2525 46.2394 2293(48) 0.000435 1974. 2223.
46.2562 46.2431 2336(49) 0.000414 1974. 2299.
46.2600 46.2469 2419(49) 0.000410 1974. 2416.
46.2637 46.2506 2474(50) 0.000406 1974. 2579.
46.2675 46.2544 2608(51) 0.000382 1973. 2802.
46.2713 46.2582 2952(55) 0.0003353 1973. 3080.
46.2750 46.2619 3488(60) 0.0002797 1973. 3387.
46.2788 46.2657 3869(63) 0.0002552 1973. 3705.
46.2825 46.2694 4264(65) 0.0002355 1973. 3972.
46.2863 46.2732 4368(67) 0.0002213 1973. 4145.
46.2901 46.2770 4334(66) 0.0002266 1973. 4172.
46.2938 46.2807 4119(65) 0.0002385 1973. 4057.
46.2976 46.2845 3727(61) 0.0002678 1973. 3836.
46.3013 46.2882 3509(60) 0.0002778 1973. 3576.
46.3051 46.2920 3248(57) 0.0003113 1973. 3309.
46.3089 46.2958 2940(55) 0.0003339 1973. 3078.
46.3126 46.2995 2976(55) 0.0003314 1973. 2900.
46.3164 46.3033 2807(53) 0.000360 1973. 2770.
46.3201 46.3070 2705(52) 0.000364 1973. 2688.
46.3239 46.3108 2568(50) 0.000395 1973. 2641.
46.3277 46.3146 2696(52) 0.000373 1973. 2629.
46.3314 46.3183 2656(52) 0.000369 1973. 2652.
46.3352 46.3221 2723(53) 0.000358 1972. 2720.
46.3389 46.3258 2743(53) 0.000361 1972. 2845.
46.3427 46.3296 3084(56) 0.0003201 1972. 3057.
46.3465 46.3334 3181(56) 0.0003160 1972. 3381.
46.3502 46.3371 3474(59) 0.0002841 1972. 3834.
46.3540 46.3409 3874(62) 0.0002560 1972. 4464.
46.3577 46.3446 4682(69) 0.0002105 1972. 5253.
46.3615 46.3484 5625(75) 0.0001772 1972. 6236.
46.3653 46.3522 6875(83) 0.0001445 1972. 7355.
46.3690 46.3559 8156(91) 0.0001220 1972. 8498.
46.3728 46.3597 9420(100) 0.0001005 1972. 9603.
46.3765 46.3634 9890(100) 0.0000953 1972. 10489.
46.3803 46.3672 10660(100) 0.0000966 1972. 11118.
46.3841 46.3710 11000(100) 0.0000929 1972. 11433.
46.3878 46.3747 11450(110) 0.0000898 1972. 11416.
46.3916 46.3785 10480(100) 0.0000954 1972. 11021.
46.3953 46.3822 9754(97) 0.0001056 1972. 10262.
46.3991 46.3860 8435(91) 0.0001213 1971. 9188.
46.4029 46.3898 7289(85) 0.0001399 1971. 7975.
46.4066 46.3935 6042(77) 0.0001700 1971. 6812.
46.4104 46.3973 5383(72) 0.0001922 1971. 5743.
46.4141 46.4010 4601(66) 0.0002275 1971. 4885.
46.4179 46.4048 4184(64) 0.0002424 1971. 4215.
46.4217 46.4086 3788(61) 0.0002726 1971. 3756.
46.4254 46.4123 3411(57) 0.0003037 1971. 3498.
46.4292 46.4161 3264(56) 0.0003171 1971. 3403.
46.4329 46.4198 3324(57) 0.0003072 1971. 3457.
46.4367 46.4236 3447(58) 0.0003021 1971. 3643.
46.4405 46.4274 3754(61) 0.0002717 1971. 3943.
46.4442 46.4311 4205(64) 0.0002451 1971. 4321.
46.4480 46.4349 4841(69) 0.0002123 1971. 4763.
46.4517 46.4386 5503(74) 0.0001834 1971. 5198.
46.4555 46.4424 6240(77) 0.0001698 1971. 5586.
46.4592 46.4461 6415(79) 0.0001593 1971. 5842.
46.4630 46.4499 6235(78) 0.0001656 1971. 5909.
46.4668 46.4537 5737(75) 0.0001764 1970. 5740.
46.4705 46.4574 5226(71) 0.0001993 1970. 5379.
46.4743 46.4612 4633(69) 0.0002125 1970. 4885.
46.4780 46.4649 4252(65) 0.0002384 1970. 4367.
46.4818 46.4687 3744(60) 0.0002742 1970. 3859.
46.4856 46.4725 3409(58) 0.0002990 1970. 3419.
46.4893 46.4762 3116(55) 0.0003291 1970. 3071.
46.4931 46.4800 2954(54) 0.0003439 1970. 2800.
46.4968 46.4837 2727(52) 0.000374 1970. 2610.
46.5006 46.4875 2536(50) 0.000408 1970. 2476.
46.5044 46.4913 2425(49) 0.000418 1970. 2388.
46.5081 46.4950 2484(49) 0.000414 1970. 2333.
46.5119 46.4988 2384(48) 0.000428 1970. 2298.
46.5156 46.5025 2385(48) 0.000434 1970. 2276.
46.5194 46.5063 2252(47) 0.000448 1970. 2263.
46.5232 46.5101 2246(47) 0.000457 1970. 2256.
46.5269 46.5138 2321(48) 0.000442 1970. 2254.
46.5307 46.5176 2344(48) 0.000439 1970. 2256.
46.5344 46.5213 2373(48) 0.000431 1969. 2264.
46.5382 46.5251 2380(48) 0.000434 1969. 2277.
46.5420 46.5289 2307(48) 0.000440 1969. 2300.
46.5457 46.5326 2352(47) 0.000443 1969. 2337.
46.5495 46.5364 2486(49) 0.000412 1969. 2398.
46.5532 46.5401 2534(50) 0.000402 1969. 2494.
46.5570 46.5439 2639(51) 0.000392 1969. 2653.
46.5608 46.5477 2682(51) 0.000384 1969. 2899.
46.5645 46.5514 2932(54) 0.0003479 1969. 3254.
46.5683 46.5552 3331(57) 0.0003076 1969. 3761.
46.5720 46.5589 3878(61) 0.0002646 1969. 4407.
46.5758 46.5627 4987(71) 0.0001993 1969. 5210.
46.5796 46.5665 6385(80) 0.0001576 1969. 6105.
46.5833 46.5702 8019(90) 0.0001239 1969. 6972.
46.5871 46.5740 8946(94) 0.0001141 1969. 7720.
46.5908 46.5777 9504(97) 0.0001065 1969. 8154.
46.5946 46.5815 8595(92) 0.0001173 1969. 8172.
46.5983 46.5852 7982(89) 0.0001272 1969. 7768.
46.6021 46.5890 6725(81) 0.0001511 1968. 7036.
46.6059 46.5928 5728(76) 0.0001749 1968. 6145.
46.6096 46.5965 4801(69) 0.0002077 1968. 5264.
46.6134 46.6003 4338(65) 0.0002352 1968. 4445.
46.6171 46.6040 3707(61) 0.0002711 1968. 3782.
46.6209 46.6078 3357(57) 0.0003036 1968. 3254.
46.6247 46.6116 3004(55) 0.0003365 1968. 2875.
46.6284 46.6153 2774(52) 0.000372 1968. 2621.
46.6322 46.6191 2521(50) 0.000400 1968. 2449.
46.6359 46.6228 2387(49) 0.000424 1968. 2341.
46.6397 46.6266 2282(47) 0.000446 1968. 2270.
46.6435 46.6304 2336(48) 0.000441 1968. 2222.
46.6472 46.6341 2170(46) 0.000468 1968. 2190.
46.6510 46.6379 2164(46) 0.000476 1968. 2165.
46.6547 46.6416 2170(47) 0.000461 1968. 2146.
46.6585 46.6454 2171(46) 0.000475 1968. 2129.
46.6623 46.6492 2043(45) 0.000500 1968. 2116.
46.6660 46.6529 2132(46) 0.000473 1968. 2104.
46.6698 46.6567 2122(46) 0.000481 1967. 2094.
46.6735 46.6604 2084(46) 0.000479 1967. 2085.
46.6773 46.6642 2082(46) 0.000476 1967. 2077.
46.6811 46.6680 2096(45) 0.000493 1967. 2070.
46.6848 46.6717 2028(44) 0.000506 1967. 2064.
46.6886 46.6755 2125(46) 0.000482 1967. 2058.
46.6923 46.6792 2024(44) 0.000505 1967. 2053.
46.6961 46.6830 2070(45) 0.000489 1967. 2049.
46.6998 46.6867 2087(46) 0.000482 1967. 2045.
46.7036 46.6905 1980(44) 0.000505 1967. 2041.
46.7074 46.6943 1970(44) 0.000513 1967. 2037.
46.7111 46.6980 2036(45) 0.000502 1967. 2034.
46.7149 46.7018 1943(44) 0.000523 1967. 2031.
46.7186 46.7055 2015(45) 0.000505 1967. 2029.
46.7224 46.7093 2014(45) 0.000502 1967. 2026.
46.7262 46.7131 2081(45) 0.000490 1967. 2024.
46.7299 46.7168 2088(46) 0.000483 1967. 2022.
46.7337 46.7206 1915(44) 0.000526 1967. 2020.
46.7374 46.7243 1956(44) 0.000519 1967. 2018.
46.7412 46.7281 2047(45) 0.000485 1966. 2017.
46.7450 46.7319 2073(45) 0.000492 1966. 2015.
46.7487 46.7356 2015(44) 0.000506 1966. 2014.
46.7525 46.7394 1992(45) 0.000496 1966. 2013.
46.7562 46.7431 2030(45) 0.000502 1966. 2012.
46.7600 46.7469 2080(45) 0.000486 1966. 2010.
46.7637 46.7506 1989(44) 0.000510 1966. 2010.
46.7675 46.7544 2017(44) 0.000507 1966. 2009.
46.7713 46.7582 2042(44) 0.000509 1966. 2008.
46.7750 46.7619 1899(44) 0.000523 1966. 2007.
46.7788 46.7657 2055(45) 0.000497 1966. 2006.
46.7825 46.7694 1980(44) 0.000510 1966. 2006.
46.7863 46.7732 1943(43) 0.000533 1966. 2006.
46.7901 46.7770 1981(44) 0.000515 1966. 2005.
46.7938 46.7807 2011(44) 0.000508 1966. 2005.
46.7976 46.7845 1978(44) 0.000515 1966. 2004.
46.8013 46.7882 2076(46) 0.000481 1966. 2004.
46.8051 46.7920 1951(44) 0.000509 1966. 2004.
46.8089 46.7958 2093(46) 0.000483 1965. 2004.
46.8126 46.7995 1978(44) 0.000516 1965. 2003.
46.8164 46.8033 2042(44) 0.000509 1965. 2003.
46.8201 46.8070 2011(44) 0.000508 1965. 2003.
46.8239 46.8108 1946(44) 0.000515 1965. 2003.
46.8276 46.8145 2003(44) 0.000506 1965. 2003.
46.8314 46.8183 2004(45) 0.000501 1965. 2003.
46.8352 46.8221 1961(44) 0.000513 1965. 2004.
46.8389 46.8258 1998(44) 0.000517 1965. 2004.
46.8427 46.8296 1881(43) 0.000544 1965. 2004.
46.8464 46.8333 1974(44) 0.000522 1965. 2005.
46.8502 46.8371 1954(44) 0.000521 1965. 2005.
46.8540 46.8409 1988(44) 0.000511 1965. 2006.
46.8577 46.8446 1974(45) 0.000501 1965. 2007.
46.8615 46.8484 1980(45) 0.000503 1965. 2008.
46.8652 46.8521 2014(45) 0.000499 1965. 2009.
46.8690 46.8559 2077(45) 0.000492 1965. 2010.
46.8727 46.8596 1895(44) 0.000521 1965. 2011.
46.8765 46.8634 2002(45) 0.000491 1964. 2013.
46.8803 46.8672 1980(44) 0.000515 1964. 2014.
46.8840 46.8709 1979(44) 0.000525 1964. 2016.
46.8878 46.8747 2063(45) 0.000497 1964. 2019.
46.8915 46.8784 1963(44) 0.000522 1964. 2021.
46.8953 46.8822 1979(44) 0.000510 1964. 2025.
46.8991 46.8860 1976(44) 0.000517 1964. 2028.
46.9028 46.8897 1967(44) 0.000517 1964. 2033.
46.9066 46.8935 2063(45) 0.000486 1964. 2038.
46.9103 46.8972 2010(44) 0.000505 1964. 2044.
46.9141 46.9010 1967(45) 0.000501 1964. 2051.
46.9178 46.9047 2065(45) 0.000485 1964. 2061.
46.9216 46.9085 2077(45) 0.000485 1964. 2075.
46.9254 46.9123 2119(46) 0.000478 1964. 2095.
46.9291 46.9160 2217(47) 0.000452 1964. 2124.
46.9329 46.9198 2152(47) 0.000459 1964. 2170.
46.9366 46.9235 2178(46) 0.000465 1964. 2241.
46.9404 46.9273 2270(47) 0.000444 1964. 2349.
46.9442 46.9311 2404(49) 0.000413 1964. 2505.
46.9479 46.9348 2511(50) 0.000400 1963. 2712.
46.9517 46.9386 2754(52) 0.000365 1963. 2983.
46.9554 46.9423 3065(56) 0.0003220 1963. 3296.
46.9592 46.9461 3636(61) 0.0002712 1963. 3646.
46.9629 46.9498 3943(63) 0.0002554 1963. 3976.
46.9667 46.9536 4384(66) 0.0002292 1963. 4250.
46.9705 46.9574 4449(66) 0.0002298 1963. 4395.
46.9742 46.9611 4121(65) 0.0002358 1963. 4373.
46.9780 46.9649 3858(62) 0.0002598 1963. 4189.
46.9817 46.9686 3393(58) 0.0002989 1963. 3901.
46.9855 46.9724 3096(55) 0.0003259 1963. 3556.
46.9893 46.9762 2995(55) 0.0003357 1963. 3211.
46.9930 46.9799 2660(51) 0.000382 1963. 2910.
46.9968 46.9837 2606(51) 0.000389 1963. 2654.
47.0005 46.9874 2283(48) 0.000439 1963. 2462.
47.0043 46.9912 2253(47) 0.000450 1963. 2321.
47.0080 46.9949 2132(46) 0.000470 1963. 2226.
47.0118 46.9987 2138(46) 0.000477 1963. 2163.
47.0156 47.0025 2096(47) 0.000460 1962. 2124.
47.0193 47.0062 2116(46) 0.000476 1962. 2100.
47.0231 47.0100 2111(45) 0.000486 1962. 2087.
47.0268 47.0137 2019(45) 0.000489 1962. 2081.
47.0306 47.0175 2078(45) 0.000486 1962. 2080.
47.0343 47.0212 2114(46) 0.000477 1962. 2085.
47.0381 47.0250 2118(46) 0.000474 1962. 2095.
47.0419 47.0288 2144(46) 0.000475 1962. 2109.
47.0456 47.0325 2118(46) 0.000477 1962. 2125.
47.0494 47.0363 2237(47) 0.000455 1962. 2143.
47.0531 47.0400 2225(47) 0.000443 1962. 2159.
47.0569 47.0438 2237(47) 0.000453 1962. 2170.
47.0607 47.0476 2268(47) 0.000449 1962. 2173.
47.0644 47.0513 2274(48) 0.000439 1962. 2167.
47.0682 47.0551 2178(46) 0.000465 1962. 2154.
47.0719 47.0588 2178(46) 0.000465 1962. 2136.
47.0757 47.0626 2202(46) 0.000464 1962. 2116.
47.0794 47.0663 2079(45) 0.000483 1962. 2097.
47.0832 47.0701 2111(46) 0.000483 1962. 2078.
47.0870 47.0739 2118(46) 0.000480 1961. 2063.
47.0907 47.0776 2063(45) 0.000485 1961. 2050.
47.0945 47.0814 2013(45) 0.000497 1961. 2041.
47.0982 47.0851 2006(44) 0.000511 1961. 2035.
47.1020 47.0889 1967(44) 0.000523 1961. 2032.
47.1057 47.0926 1957(44) 0.000511 1961. 2032.
47.1095 47.0964 2109(46) 0.000477 1961. 2035.
47.1133 47.1002 1942(44) 0.000523 1961. 2041.
47.1170 47.1039 1986(44) 0.000514 1961. 2050.
47.1208 47.1077 2065(45) 0.000492 1961. 2062.
47.1245 47.1114 2017(45) 0.000504 1961. 2076.
47.1283 47.1152 2140(46) 0.000477 1961. 2091.
47.1320 47.1189 2132(46) 0.000464 1961. 2106.
47.1358 47.1227 2006(45) 0.000500 1961. 2118.
47.1396 47.1265 2149(46) 0.000468 1961. 2126.
47.1433 47.1302 2076(45) 0.000498 1961. 2127.
47.1471 47.1340 2138(46) 0.000472 1961. 2122.
47.1508 47.1377 2070(46) 0.000483 1961. 2114.
47.1546 47.1415 2083(45) 0.000491 1960. 2105.
47.1583 47.1452 2028(45) 0.000500 1960. 2097.
47.1621 47.1490 1988(44) 0.000517 1960. 2093.
47.1659 47.1528 2080(45) 0.000483 1960. 2094.
47.1696 47.1565 2069(45) 0.000488 1960. 2102.
47.1734 47.1603 2032(45) 0.000490 1960. 2120.
47.1771 47.1640 2219(47) 0.000454 1960. 2150.
47.1809 47.1678 2169(47) 0.000461 1960. 2198.
47.1847 47.1716 2091(46) 0.000482 1960. 2269.
47.1884 47.1753 2268(48) 0.000441 1960. 2364.
47.1922 47.1791 2460(49) 0.000410 1960. 2490.
47.1959 47.1828 2515(50) 0.000398 1960. 2640.
47.1997 47.1866 2693(52) 0.000376 1960. 2813.
47.2034 47.1903 2913(54) 0.0003478 1960. 2986.
47.2072 47.1941 3129(56) 0.0003219 1960. 3148.
47.2110 47.1979 3106(56) 0.0003245 1960. 3263.
47.2147 47.2016 3204(57) 0.0003118 1960. 3305.
47.2185 47.2054 3102(56) 0.0003195 1960. 3266.
47.2222 47.2091 2971(55) 0.0003365 1960. 3159.
47.2260 47.2129 2814(52) 0.000366 1959. 3006.
47.2297 47.2166 2682(51) 0.000378 1959. 2842.
47.2335 47.2204 2502(50) 0.000400 1959. 2682.
47.2373 47.2242 2502(50) 0.000402 1959. 2543.
47.2410 47.2279 2390(49) 0.000417 1959. 2435.
47.2448 47.2317 2421(49) 0.000414 1959. 2355.
47.2485 47.2354 2301(48) 0.000436 1959. 2305.
47.2523 47.2392 2302(48) 0.000438 1959. 2280.
47.2560 47.2429 2208(47) 0.000457 1959. 2278.
47.2598 47.2467 2345(49) 0.000422 1959. 2300.
47.2636 47.2505 2305(48) 0.000433 1959. 2352.
47.2673 47.2542 2409(48) 0.000434 1959. 2443.
47.2711 47.2580 2492(49) 0.000414 1959. 2598.
47.2748 47.2617 2728(53) 0.000362 1959. 2833.
47.2786 47.2655 2897(54) 0.0003480 1959. 3193.
47.2823 47.2692 3276(56) 0.0003148 1959. 3686.
47.2861 47.2730 3874(62) 0.0002617 1959. 4354.
47.2898 47.2767 5069(71) 0.0001975 1959. 5154.
47.2936 47.2805 6330(79) 0.0001588 1959. 6080.
47.2974 47.2843 8147(91) 0.0001208 1958. 7022.
47.3011 47.2880 9080(96) 0.0001086 1958. 7828.
47.3049 47.2918 9705(98) 0.0001037 1958. 8373.
47.3086 47.2955 9018(96) 0.0001094 1958. 8494.
47.3124 47.2993 8495(92) 0.0001182 1958. 8157.
47.3161 47.3030 7292(86) 0.0001366 1958. 7467.
47.3199 47.3068 6341(80) 0.0001545 1958. 6554.
47.3237 47.3106 5304(72) 0.0001910 1958. 5590.
47.3274 47.3143 4688(68) 0.0002145 1958. 4717.
47.3312 47.3181 4033(64) 0.0002461 1958. 3957.
47.3349 47.3218 3519(59) 0.0002834 1958. 3378.
47.3387 47.3256 3221(57) 0.0003120 1958. 2943.
47.3424 47.3293 2936(55) 0.0003353 1958. 2651.
47.3462 47.3331 2626(51) 0.000388 1958. 2454.
47.3500 47.3369 2561(51) 0.000384 1958. 2330.
47.3537 47.3406 2309(48) 0.000441 1958. 2253.
47.3575 47.3444 2342(48) 0.000431 1958. 2202.
47.3612 47.3481 2216(47) 0.000453 1958. 2169.
47.3650 47.3519 2269(47) 0.000445 1958. 2144.
47.3687 47.3556 2223(47) 0.000460 1957. 2125.
47.3725 47.3594 2154(46) 0.000465 1957. 2110.
47.3763 47.3632 2135(47) 0.000459 1957. 2097.
47.3800 47.3669 2168(46) 0.000463 1957. 2086.
47.3838 47.3707 2235(47) 0.000459 1957. 2077.
47.3875 47.3744 2090(46) 0.000481 1957. 2069.
47.3913 47.3782 2132(46) 0.000474 1957. 2062.
47.3950 47.3819 2053(45) 0.000495 1957. 2056.
47.3988 47.3857 2011(45) 0.000493 1957. 2050.
47.4025 47.3894 2113(46) 0.000471 1957. 2046.
47.4063 47.3932 1999(45) 0.000501 1957. 2041.
47.4101 47.3970 2108(46) 0.000481 1957. 2038.
47.4138 47.4007 2019(45) 0.000498 1957. 2034.
47.4176 47.4045 2036(45) 0.000499 1957. 2031.
47.4213 47.4082 2092(46) 0.000481 1957. 2029.
47.4251 47.4120 2069(45) 0.000488 1957. 2026.
47.4288 47.4157 2039(45) 0.000494 1957. 2024.
47.4326 47.4195 2002(45) 0.000492 1957. 2022.
47.4364 47.4233 2037(45) 0.000487 1956. 2021.
47.4401 47.4270 2069(45) 0.000490 1956. 2019.
47.4439 47.4308 1999(45) 0.000499 1956. 2018.
47.4476 47.4345 2033(45) 0.000491 1956. 2017.
47.4514 47.4383 2061(46) 0.000480 1956. 2016.
47.4551 47.4420 2038(45) 0.000489 1956. 2015.
47.4589 47.4458 2020(45) 0.000497 1956. 2014.
47.4626 47.4495 2079(46) 0.000481 1956. 2014.
47.4664 47.4533 1950(44) 0.000510 1956. 2013.
47.4702 47.4571 2073(45) 0.000486 1956. 2013.
47.4739 47.4608 2001(45) 0.000485 1956. 2013.
47.4777 47.4646 2090(46) 0.000473 1956. 2012.
47.4814 47.4683 1968(44) 0.000507 1956. 2012.
47.4852 47.4721 2016(45) 0.000494 1956. 2012.
47.4889 47.4758 2074(46) 0.000483 1956. 2012.
47.4927 47.4796 2050(45) 0.000486 1956. 2013.
47.4965 47.4834 2021(45) 0.000495 1956. 2013.
47.5002 47.4871 2089(46) 0.000473 1956. 2013.
47.5040 47.4909 2038(45) 0.000497 1956. 2014.
47.5077 47.4946 2032(45) 0.000490 1955. 2014.
47.5115 47.4984 2080(46) 0.000482 1955. 2015.
47.5152 47.5021 2033(45) 0.000496 1955. 2016.
47.5190 47.5059 2029(46) 0.000480 1955. 2017.
47.5227 47.5096 2060(45) 0.000484 1955. 2017.
47.5265 47.5134 1922(44) 0.000516 1955. 2019.
47.5303 47.5172 2063(45) 0.000483 1955. 2020.
47.5340 47.5209 2013(45) 0.000502 1955. 2021.
47.5378 47.5247 2128(46) 0.000468 1955. 2023.
47.5415 47.5284 2000(45) 0.000497 1955. 2024.
47.5453 47.5322 2018(45) 0.000494 1955. 2026.
47.5490 47.5359 2076(46) 0.000481 1955. 2028.
47.5528 47.5397 2106(46) 0.000478 1955. 2030.
47.5565 47.5434 2046(45) 0.000487 1955. 2033.
47.5603 47.5472 2091(46) 0.000469 1955. 2036.
47.5641 47.5510 2092(46) 0.000472 1955. 2040.
47.5678 47.5547 2134(46) 0.000467 1955. 2045.
47.5716 47.5585 2012(45) 0.000502 1955. 2052.
47.5753 47.5622 2124(46) 0.000465 1955. 2061.
47.5791 47.5660 2117(45) 0.000487 1954. 2073.
47.5828 47.5697 2120(46) 0.000476 1954. 2088.
47.5866 47.5735 2157(46) 0.000470 1954. 2108.
47.5903 47.5772 2170(47) 0.000461 1954. 2131.
47.5941 47.5810 2181(47) 0.000451 1954. 2158.
47.5979 47.5848 2339(49) 0.000425 1954. 2185.
47.6016 47.5885 2286(48) 0.000436 1954. 2211.
47.6054 47.5923 2403(49) 0.000413 1954. 2234.
47.6091 47.5960 2356(48) 0.000428 1954. 2251.
47.6129 47.5998 2297(48) 0.000431 1954. 2263.
47.6166 47.6035 2293(48) 0.000443 1954. 2273.
47.6204 47.6073 2332(48) 0.000439 1954. 2284.
47.6241 47.6110 2324(48) 0.000430 1954. 2297.
47.6279 47.6148 2392(49) 0.000412 1954. 2311.
47.6317 47.6186 2358(49) 0.000425 1954. 2325.
47.6354 47.6223 2337(49) 0.000425 1954. 2334.
47.6392 47.6261 2327(48) 0.000426 1954. 2338.
47.6429 47.6298 2366(49) 0.000417 1954. 2338.
47.6467 47.6336 2293(48) 0.000428 1954. 2341.
47.6504 47.6373 2368(49) 0.000425 1953. 2355.
47.6542 47.6411 2322(48) 0.000430 1953. 2390.
47.6579 47.6448 2518(50) 0.000395 1953. 2456.
47.6617 47.6486 2552(51) 0.000388 1953. 2570.
47.6654 47.6523 2656(51) 0.000377 1953. 2739.
47.6692 47.6561 2807(54) 0.0003443 1953. 2983.
47.6730 47.6599 3003(55) 0.0003288 1953. 3302.
47.6767 47.6636 3460(60) 0.0002814 1953. 3678.
47.6805 47.6674 4082(64) 0.0002436 1953. 4106.
47.6842 47.6711 4428(68) 0.0002177 1953. 4524.
47.6880 47.6749 4969(71) 0.0001975 1953. 4894.
47.6917 47.6786 5159(72) 0.0001926 1953. 5133.
47.6955 47.6824 5329(74) 0.0001844 1953. 5200.
47.6992 47.6861 4786(70) 0.0002041 1953. 5091.
47.7030 47.6899 4690(70) 0.0002069 1953. 4857.
47.7068 47.6937 4335(68) 0.0002193 1953. 4586.
47.7105 47.6974 4102(65) 0.0002356 1953. 4367.
47.7143 47.7012 3974(64) 0.0002475 1953. 4258.
47.7180 47.7049 4064(64) 0.0002427 1953. 4317.
47.7218 47.7087 4271(66) 0.0002319 1953. 4580.
47.7255 47.7124 4636(68) 0.0002137 1952. 5041.
47.7293 47.7162 5307(73) 0.0001878 1952. 5707.
47.7330 47.7199 6646(83) 0.0001446 1952. 6498.
47.7368 47.7237 8037(91) 0.0001201 1952. 7373.
47.7405 47.7274 9136(97) 0.0001052 1952. 8172.
47.7443 47.7312 9510(100) 0.0001000 1952. 8794.
47.7481 47.7350 9840(100) 0.0000976 1952. 9092.
47.7518 47.7387 9240(99) 0.0001022 1952. 9025.
47.7556 47.7425 8636(95) 0.0001100 1952. 8634.
47.7593 47.7462 7491(87) 0.0001316 1952. 8025.
47.7631 47.7500 6851(85) 0.0001400 1952. 7260.
47.7668 47.7537 5888(78) 0.0001664 1952. 6474.
47.7706 47.7575 5320(74) 0.0001842 1952. 5715.
47.7743 47.7612 4695(71) 0.0002008 1952. 5095.
47.7781 47.7650 4497(69) 0.0002124 1952. 4631.
47.7818 47.7687 4138(66) 0.0002299 1952. 4373.
47.7856 47.7725 4105(65) 0.0002396 1952. 4324.
47.7894 47.7763 4107(64) 0.0002408 1952. 4494.
47.7931 47.7800 4452(67) 0.0002247 1952. 4865.
47.7969 47.7838 4892(71) 0.0002000 1951. 5432.
47.8006 47.7875 5960(77) 0.0001668 1951. 6122.
47.8031 47.7900 6770(82) 0.0001489 1951. 6633.
47.8069 47.7938 7872(89) 0.0001264 1951. 7405.
47.8107 47.7976 8927(96) 0.0001091 1951. 8058.
47.8144 47.8013 8677(93) 0.0001159 1951. 8447.
47.8182 47.8051 8624(93) 0.0001157 1951. 8497.
47.8219 47.8088 7853(89) 0.0001254 1951. 8215.
47.8257 47.8126 7225(85) 0.0001370 1951. 7702.
47.8294 47.8163 6392(80) 0.0001562 1951. 7144.
47.8332 47.8201 5887(78) 0.0001662 1951. 6662.
47.8370 47.8239 5641(75) 0.0001793 1951. 6383.
47.8407 47.8276 5594(76) 0.0001747 1951. 6359.
47.8445 47.8314 6128(78) 0.0001649 1951. 6585.
47.8482 47.8351 7025(84) 0.0001423 1951. 6983.
47.8520 47.8389 8002(90) 0.0001241 1951. 7452.
47.8557 47.8426 8474(92) 0.0001175 1951. 7812.
47.8595 47.8464 8340(91) 0.0001211 1951. 7922.
47.8632 47.8501 7682(88) 0.0001289 1951. 7688.
47.8670 47.8539 6818(84) 0.0001425 1950. 7126.
47.8708 47.8577 5805(76) 0.0001717 1950. 6357.
47.8745 47.8614 4886(69) 0.0002091 1950. 5539.
47.8783 47.8652 4281(65) 0.0002337 1950. 4744.
47.8820 47.8689 3862(62) 0.0002607 1950. 4088.
47.8858 47.8727 3683(60) 0.0002749 1950. 3576.
47.8895 47.8764 3259(57) 0.0003037 1950. 3247.
47.8933 47.8802 3170(57) 0.0003133 1950. 3080.
47.8971 47.8840 3062(55) 0.0003262 1950. 3075.
47.9008 47.8877 3180(56) 0.0003179 1950. 3216.
47.9046 47.8915 3349(58) 0.0002995 1950. 3501.
47.9083 47.8952 3735(61) 0.0002708 1950. 3900.
47.9121 47.8990 4409(66) 0.0002274 1950. 4407.
47.9158 47.9027 5386(73) 0.0001862 1950. 4947.
47.9196 47.9065 6021(78) 0.0001658 1950. 5473.
47.9233 47.9102 6685(83) 0.0001459 1950. 5870.
47.9271 47.9140 6436(81) 0.0001526 1950. 6059.
47.9309 47.9178 6055(78) 0.0001659 1950. 5973.
47.9346 47.9215 5435(74) 0.0001823 1950. 5649.
47.9384 47.9253 4850(70) 0.0002047 1950. 5156.
47.9421 47.9290 4113(65) 0.0002395 1949. 4618.
47.9459 47.9328 3840(62) 0.0002588 1949. 4091.
47.9496 47.9365 3490(59) 0.0002865 1949. 3659.
47.9534 47.9403 3264(57) 0.0003056 1949. 3327.
47.9572 47.9441 3119(56) 0.0003181 1949. 3114.
47.9609 47.9478 3086(55) 0.0003254 1949. 3005.
47.9647 47.9516 3024(56) 0.0003205 1949. 2969.
47.9684 47.9553 3147(56) 0.0003135 1949. 2975.
47.9722 47.9591 2999(55) 0.0003318 1949. 2990.
47.9759 47.9628 3059(55) 0.0003248 1949. 2987.
47.9797 47.9666 2868(54) 0.0003484 1949. 2952.
47.9834 47.9703 2939(54) 0.0003383 1949. 2890.
47.9872 47.9741 2739(52) 0.000364 1949. 2812.
47.9910 47.9779 2848(54) 0.0003465 1949. 2740.
47.9947 47.9816 2626(51) 0.000385 1949. 2693.
47.9985 47.9854 2772(53) 0.000359 1949. 2689.
48.0022 47.9891 2618(51) 0.000383 1949. 2750.
48.0060 47.9929 2890(54) 0.0003481 1949. 2904.
48.0097 47.9966 3067(56) 0.0003171 1949. 3171.
48.0135 48.0004 3317(58) 0.0002995 1948. 3594.
48.0172 48.0041 3763(62) 0.0002627 1948. 4171.
48.0210 48.0079 4639(68) 0.0002138 1948. 4937.
48.0248 48.0117 5627(75) 0.0001784 1948. 5849.
48.0285 48.0154 7105(85) 0.0001388 1948. 6815.
48.0323 48.0192 8467(93) 0.0001159 1948. 7775.
48.0360 48.0229 9362(98) 0.0001048 1948. 8537.
48.0383 48.0252 9393(98) 0.0001043 1948. 8856.
48.0421 48.0290 9610(99) 0.0001028 1948. 9031.
48.0458 48.0327 8544(92) 0.0001169 1948. 8750.
48.0496 48.0365 7786(90) 0.0001248 1948. 8069.
48.0534 48.0403 6472(82) 0.0001500 1948. 7148.
48.0571 48.0440 5675(76) 0.0001742 1948. 6175.
48.0609 48.0478 4917(71) 0.0001961 1948. 5217.
48.0646 48.0515 4261(66) 0.0002302 1948. 4405.
48.0684 48.0553 3918(63) 0.0002512 1948. 3731.
48.0721 48.0590 3481(59) 0.0002854 1948. 3232.
48.0759 48.0628 3023(55) 0.0003264 1948. 2864.
48.0796 48.0665 2913(54) 0.0003398 1948. 2619.
48.0834 48.0703 2586(52) 0.000374 1948. 2452.
48.0871 48.0740 2496(50) 0.000397 1947. 2346.
48.0909 48.0778 2364(49) 0.000411 1947. 2274.
48.0946 48.0815 2330(49) 0.000424 1947. 2227.
48.0984 48.0853 2225(48) 0.000440 1947. 2192.
48.1022 48.0891 2256(48) 0.000436 1947. 2166.
48.1059 48.0928 2206(47) 0.000449 1947. 2146.
48.1097 48.0966 2243(48) 0.000437 1947. 2128.
48.1134 48.1003 2247(48) 0.000433 1947. 2114.
48.1172 48.1041 2162(47) 0.000448 1947. 2102.
48.1209 48.1078 2199(48) 0.000443 1947. 2091.
48.1247 48.1116 2124(46) 0.000464 1947. 2081.
48.1284 48.1153 2041(45) 0.000490 1947. 2073.
48.1322 48.1191 2059(45) 0.000488 1947. 2066.
48.1359 48.1228 2062(46) 0.000483 1947. 2059.
48.1397 48.1266 2170(47) 0.000451 1947. 2053.
48.1435 48.1304 2014(46) 0.000482 1947. 2048.
48.1472 48.1341 2090(46) 0.000464 1947. 2043.
48.1510 48.1379 1948(44) 0.000507 1947. 2039.
48.1547 48.1416 2005(45) 0.000503 1947. 2035.
48.1585 48.1454 2036(45) 0.000484 1947. 2031.
48.1622 48.1491 2104(46) 0.000466 1946. 2028.
48.1660 48.1529 2033(45) 0.000486 1946. 2025.
48.1697 48.1566 2124(47) 0.000462 1946. 2023.
48.1735 48.1604 2075(46) 0.000476 1946. 2020.
48.1772 48.1641 2047(45) 0.000487 1946. 2018.
48.1810 48.1679 1989(45) 0.000492 1946. 2016.
48.1848 48.1717 2050(46) 0.000482 1946. 2015.
48.1885 48.1754 1956(45) 0.000503 1946. 2013.
48.1923 48.1792 2088(46) 0.000473 1946. 2012.
48.1960 48.1829 1983(45) 0.000492 1946. 2010.
48.1998 48.1867 1955(44) 0.000511 1946. 2009.
48.2035 48.1904 1976(45) 0.000499 1946. 2009.
48.2073 48.1942 2037(46) 0.000481 1946. 2008.
48.2110 48.1979 1979(45) 0.000499 1946. 2007.
48.2148 48.2017 2087(46) 0.000472 1946. 2007.
48.2186 48.2055 2045(45) 0.000487 1946. 2007.
48.2223 48.2092 2002(46) 0.000477 1946. 2007.
48.2261 48.2130 1977(45) 0.000499 1946. 2008.
48.2298 48.2167 2074(46) 0.000473 1946. 2009.
48.2336 48.2205 2001(45) 0.000487 1945. 2010.
48.2373 48.2242 2037(46) 0.000471 1945. 2013.
48.2411 48.2280 1983(45) 0.000486 1945. 2017.
48.2448 48.2317 2031(45) 0.000489 1945. 2024.
48.2486 48.2355 2066(46) 0.000470 1945. 2033.
48.2523 48.2392 2071(46) 0.000466 1945. 2047.
48.2561 48.2430 2037(46) 0.000476 1945. 2067.
48.2599 48.2468 2169(47) 0.000445 1945. 2093.
48.2636 48.2505 2221(48) 0.000428 1945. 2125.
48.2674 48.2543 2238(48) 0.000432 1945. 2165.
48.2711 48.2580 2296(48) 0.000439 1945. 2208.
48.2749 48.2618 2352(49) 0.000417 1945. 2252.
48.2786 48.2655 2405(50) 0.000407 1945. 2292.
48.2824 48.2693 2433(50) 0.000404 1945. 2323.
48.2861 48.2730 2506(51) 0.000387 1945. 2341.
48.2899 48.2768 2520(51) 0.000387 1945. 2342.
48.2937 48.2806 2421(50) 0.000393 1945. 2327.
48.2974 48.2843 2410(49) 0.000408 1945. 2301.
48.3012 48.2881 2219(48) 0.000439 1945. 2267.
48.3049 48.2918 2308(49) 0.000424 1945. 2231.
48.3087 48.2956 2130(47) 0.000459 1944. 2196.
48.3124 48.2993 2129(46) 0.000481 1944. 2165.
48.3162 48.3031 2163(47) 0.000446 1944. 2141.
48.3199 48.3068 2229(47) 0.000447 1944. 2125.
48.3237 48.3106 2109(46) 0.000464 1944. 2118.
48.3275 48.3144 2249(48) 0.000436 1944. 2123.
48.3312 48.3181 2157(47) 0.000454 1944. 2142.
48.3350 48.3219 2195(48) 0.000443 1944. 2180.
48.3387 48.3256 2207(48) 0.000428 1944. 2245.
48.3425 48.3294 2276(48) 0.000428 1944. 2352.
48.3462 48.3331 2452(50) 0.000404 1944. 2510.
48.3500 48.3369 2635(52) 0.000365 1944. 2742.
48.3537 48.3406 2879(55) 0.0003359 1944. 3046.
48.3575 48.3444 3200(57) 0.0003104 1944. 3437.
48.3613 48.3482 3832(62) 0.0002591 1944. 3890.
48.3650 48.3519 4812(70) 0.0002046 1944. 4353.
48.3688 48.3557 5094(72) 0.0001914 1944. 4791.
48.3725 48.3594 5691(76) 0.0001730 1944. 5108.
48.3763 48.3632 5662(77) 0.0001680 1944. 5243.
48.3800 48.3669 5383(75) 0.0001798 1944. 5152.
48.3838 48.3707 4760(69) 0.0002074 1943. 4854.
48.3875 48.3744 4278(65) 0.0002362 1943. 4434.
48.3913 48.3782 3902(63) 0.0002503 1943. 3951.
48.3951 48.3820 3398(58) 0.0002952 1943. 3482.
48.3988 48.3857 3216(57) 0.0003130 1943. 3085.
48.4026 48.3895 2901(55) 0.0003330 1943. 2759.
48.4063 48.3932 2571(52) 0.000371 1943. 2525.
48.4101 48.3970 2559(51) 0.000387 1943. 2361.
48.4138 48.4007 2388(50) 0.000402 1943. 2260.
48.4176 48.4045 2304(49) 0.000421 1943. 2202.
48.4214 48.4083 2251(49) 0.000425 1943. 2179.
48.4251 48.4120 2180(47) 0.000447 1943. 2182.
48.4289 48.4158 2128(47) 0.000453 1943. 2210.
48.4326 48.4195 2269(48) 0.000426 1943. 2261.
48.4364 48.4233 2252(48) 0.000432 1943. 2339.
48.4401 48.4270 2365(49) 0.000416 1943. 2440.
48.4439 48.4308 2488(50) 0.000394 1943. 2567.
48.4476 48.4345 2758(53) 0.000359 1943. 2705.
48.4514 48.4383 2912(55) 0.0003302 1943. 2849.
48.4552 48.4421 2986(56) 0.0003188 1942. 2975.
48.4589 48.4458 3121(57) 0.0003074 1942. 3056.
48.4627 48.4496 3017(55) 0.0003249 1942. 3075.
48.4664 48.4533 2909(54) 0.0003383 1942. 3027.
48.4702 48.4571 2815(54) 0.0003466 1942. 2920.
48.4739 48.4608 2722(53) 0.000353 1942. 2783.
48.4777 48.4646 2623(52) 0.000370 1942. 2631.
48.4814 48.4683 2356(49) 0.000415 1942. 2490.
48.4852 48.4721 2365(50) 0.000408 1942. 2364.
48.4890 48.4759 2235(48) 0.000430 1942. 2260.
48.4927 48.4796 2286(48) 0.000429 1942. 2183.
48.4965 48.4834 2147(48) 0.000440 1942. 2125.
48.5002 48.4871 2037(45) 0.000489 1942. 2086.
48.5040 48.4909 1960(44) 0.000515 1942. 2059.
48.5077 48.4946 2113(46) 0.000475 1942. 2041.
48.5115 48.4984 2029(45) 0.000493 1942. 2029.
48.5153 48.5022 2027(45) 0.000499 1942. 2021.
48.5190 48.5059 1937(43) 0.000536 1942. 2015.
48.5228 48.5097 1984(45) 0.000504 1942. 2011.
48.5265 48.5134 1980(44) 0.000507 1942. 2007.
48.5303 48.5172 2016(45) 0.000500 1941. 2004.
48.5340 48.5209 1909(44) 0.000525 1941. 2002.
48.5378 48.5247 2049(45) 0.000485 1941. 2000.
48.5416 48.5285 1996(45) 0.000505 1941. 1999.
48.5453 48.5322 1980(44) 0.000508 1941. 1998.
48.5491 48.5360 2005(45) 0.000495 1941. 1997.
48.5528 48.5397 2019(44) 0.000515 1941. 1996.
48.5566 48.5435 1999(45) 0.000501 1941. 1996.
48.5603 48.5472 2016(45) 0.000497 1941. 1995.
48.5641 48.5510 1955(45) 0.000503 1941. 1995.
48.5678 48.5547 1985(44) 0.000506 1941. 1995.
48.5716 48.5585 1855(44) 0.000528 1941. 1995.
48.5754 48.5623 2015(45) 0.000498 1941. 1995.
48.5791 48.5660 1984(44) 0.000510 1941. 1996.
48.5829 48.5698 2009(45) 0.000501 1941. 1996.
48.5866 48.5735 2015(45) 0.000494 1941. 1997.
48.5904 48.5773 2005(44) 0.000508 1941. 1998.
48.5941 48.5810 1964(45) 0.000500 1941. 2000.
48.5979 48.5848 1896(44) 0.000521 1941. 2001.
48.6017 48.5886 2036(45) 0.000488 1941. 2003.
48.6054 48.5923 1973(45) 0.000504 1940. 2006.
48.6092 48.5961 1989(45) 0.000502 1940. 2009.
48.6129 48.5998 2054(45) 0.000493 1940. 2012.
48.6167 48.6036 1975(45) 0.000499 1940. 2017.
48.6204 48.6073 2050(45) 0.000490 1940. 2023.
48.6242 48.6111 1969(45) 0.000496 1940. 2032.
48.6280 48.6149 2019(45) 0.000499 1940. 2044.
48.6317 48.6186 1996(45) 0.000498 1940. 2062.
48.6355 48.6224 2090(45) 0.000487 1940. 2091.
48.6392 48.6261 2013(45) 0.000485 1940. 2132.
48.6430 48.6299 2124(46) 0.000470 1940. 2195.
48.6467 48.6336 2224(47) 0.000451 1940. 2282.
48.6505 48.6374 2394(49) 0.000413 1940. 2400.
48.6543 48.6412 2351(49) 0.000424 1940. 2548.
48.6580 48.6449 2545(51) 0.000388 1940. 2718.
48.6618 48.6487 2910(54) 0.0003409 1940. 2906.
48.6655 48.6524 3150(56) 0.0003187 1940. 3083.
48.6693 48.6562 3171(56) 0.0003178 1940. 3232.
48.6730 48.6599 3397(58) 0.0002953 1940. 3317.
48.6768 48.6637 3224(57) 0.0003061 1940. 3322.
48.6806 48.6675 3160(56) 0.0003151 1939. 3243.
48.6843 48.6712 2942(54) 0.0003379 1939. 3106.
48.6881 48.6750 2894(54) 0.0003435 1939. 2931.
48.6918 48.6787 2613(51) 0.000382 1939. 2752.
48.6956 48.6825 2473(50) 0.000403 1939. 2582.
48.6993 48.6862 2391(49) 0.000416 1939. 2439.
48.7031 48.6900 2276(48) 0.000439 1939. 2321.
48.7069 48.6938 2240(48) 0.000443 1939. 2235.
48.7106 48.6975 2258(48) 0.000431 1939. 2175.
48.7144 48.7013 2183(47) 0.000446 1939. 2135.
48.7181 48.7050 2199(47) 0.000455 1939. 2111.
48.7219 48.7088 2058(45) 0.000496 1939. 2097.
48.7256 48.7125 2183(47) 0.000445 1939. 2091.
48.7294 48.7163 2089(46) 0.000470 1939. 2089.
48.7332 48.7201 2137(46) 0.000463 1939. 2091.
48.7369 48.7238 2061(46) 0.000482 1939. 2095.
48.7407 48.7276 2097(46) 0.000467 1939. 2102.
48.7444 48.7313 2054(45) 0.000486 1939. 2111.
48.7482 48.7351 2121(46) 0.000473 1939. 2123.
48.7519 48.7388 2058(45) 0.000500 1939. 2138.
48.7557 48.7426 2205(47) 0.000453 1939. 2158.
48.7595 48.7464 2153(46) 0.000467 1938. 2186.
48.7632 48.7501 2209(47) 0.000445 1938. 2225.
48.7670 48.7539 2248(48) 0.000440 1938. 2286.
48.7707 48.7576 2379(49) 0.000414 1938. 2375.
48.7745 48.7614 2348(48) 0.000431 1938. 2513.
48.7782 48.7651 2632(52) 0.000372 1938. 2711.
48.7820 48.7689 2716(52) 0.000365 1938. 3001.
48.7858 48.7727 3090(56) 0.0003159 1938. 3397.
48.7895 48.7764 3444(59) 0.0002844 1938. 3892.
48.7933 48.7802 4186(65) 0.0002376 1938. 4506.
48.7970 48.7839 5143(73) 0.0001899 1938. 5178.
48.8008 48.7877 6441(81) 0.0001512 1938. 5887.
48.8045 48.7914 7117(86) 0.0001359 1938. 6513.
48.8083 48.7952 7753(89) 0.0001257 1938. 6978.
48.8121 48.7990 7573(87) 0.0001315 1938. 7157.
48.8158 48.8027 6900(85) 0.0001391 1938. 7010.
48.8196 48.8065 6271(81) 0.0001537 1938. 6571.
48.8233 48.8102 5535(75) 0.0001776 1938. 5961.
48.8271 48.8140 4720(70) 0.0002039 1938. 5260.
48.8308 48.8177 4326(66) 0.0002302 1938. 4591.
48.8346 48.8215 3789(62) 0.0002615 1937. 3976.
48.8384 48.8253 3472(60) 0.0002788 1937. 3470.
48.8421 48.8290 3130(56) 0.0003142 1937. 3089.
48.8459 48.8328 3013(55) 0.0003331 1937. 2810.
48.8496 48.8365 2764(53) 0.0003495 1937. 2635.
48.8534 48.8403 2730(53) 0.000363 1937. 2545.
48.8572 48.8441 2623(52) 0.000370 1937. 2537.
48.8609 48.8478 2687(52) 0.000368 1937. 2612.
48.8647 48.8516 2768(53) 0.000352 1937. 2780.
48.8684 48.8553 2911(55) 0.0003328 1937. 3042.
48.8722 48.8591 3271(58) 0.0002960 1937. 3413.
48.8759 48.8628 3929(63) 0.0002482 1937. 3859.
48.8797 48.8666 4528(68) 0.0002135 1937. 4366.
48.8835 48.8704 5397(75) 0.0001773 1937. 4856.
48.8872 48.8741 5727(76) 0.0001720 1937. 5234.
48.8910 48.8779 5887(77) 0.0001665 1937. 5432.
48.8947 48.8816 5378(75) 0.0001786 1937. 5387.
48.8985 48.8854 5189(73) 0.0001876 1937. 5107.
48.9022 48.8891 4417(67) 0.0002223 1937. 4675.
48.9060 48.8929 4185(64) 0.0002421 1937. 4157.
48.9098 48.8967 3573(61) 0.0002687 1936. 3644.
48.9135 48.9004 3238(57) 0.0003058 1936. 3202.
48.9173 48.9042 2994(56) 0.0003188 1936. 2838.
48.9210 48.9079 2814(54) 0.0003432 1936. 2576.
48.9248 48.9117 2562(51) 0.000378 1936. 2392.
48.9286 48.9155 2577(51) 0.000385 1936. 2276.
48.9323 48.9192 2357(49) 0.000415 1936. 2210.
48.9361 48.9230 2378(49) 0.000416 1936. 2176.
48.9398 48.9267 2192(48) 0.000443 1936. 2167.
48.9436 48.9305 2229(47) 0.000447 1936. 2177.
48.9473 48.9342 2215(47) 0.000450 1936. 2205.
48.9511 48.9380 2329(49) 0.000417 1936. 2254.
48.9549 48.9418 2272(48) 0.000433 1936. 2325.
48.9586 48.9455 2377(49) 0.000411 1936. 2414.
48.9624 48.9493 2359(49) 0.000413 1936. 2523.
48.9661 48.9530 2514(51) 0.000390 1936. 2637.
48.9699 48.9568 2587(51) 0.000384 1936. 2748.
48.9737 48.9606 2832(54) 0.0003470 1936. 2836.
48.9774 48.9643 2653(53) 0.000362 1936. 2882.
48.9812 48.9681 2816(54) 0.0003448 1936. 2881.
48.9849 48.9718 2556(51) 0.000384 1935. 2839.
48.9887 48.9756 2711(52) 0.000372 1935. 2769.
48.9924 48.9793 2583(51) 0.000380 1935. 2693.
48.9962 48.9831 2621(51) 0.000391 1935. 2622.
49.0000 48.9869 2587(51) 0.000388 1935. 2565.
49.0037 48.9906 2764(52) 0.000364 1935. 2524.
49.0075 48.9944 2675(53) 0.000361 1935. 2494.
49.0112 48.9981 2609(51) 0.000390 1935. 2470.
49.0150 49.0019 2528(51) 0.000385 1935. 2451.
49.0187 49.0056 2483(50) 0.000394 1935. 2441.
49.0225 49.0094 2513(51) 0.000390 1935. 2451.
49.0263 49.0132 2505(49) 0.000411 1935. 2496.
49.0300 49.0169 2575(50) 0.000393 1935. 2591.
49.0338 49.0207 2659(52) 0.000369 1935. 2758.
49.0375 49.0244 2866(54) 0.0003468 1935. 2999.
49.0413 49.0282 3170(56) 0.0003193 1935. 3330.
49.0451 49.0320 3533(60) 0.0002776 1935. 3731.
49.0488 49.0357 4322(66) 0.0002310 1935. 4159.
49.0526 49.0395 4892(71) 0.0001989 1935. 4585.
49.0563 49.0432 5284(74) 0.0001848 1935. 4917.
49.0601 49.0470 5270(73) 0.0001874 1935. 5103.
49.0639 49.0508 5142(73) 0.0001902 1934. 5082.
49.0676 49.0545 4690(69) 0.0002078 1934. 4873.
49.0714 49.0583 4370(67) 0.0002239 1934. 4519.
49.0751 49.0620 3772(61) 0.0002649 1934. 4114.
49.0789 49.0658 3503(59) 0.0002860 1934. 3702.
49.0826 49.0695 3170(56) 0.0003155 1934. 3351.
49.0864 49.0733 3165(57) 0.0003117 1934. 3076.
49.0902 49.0771 2909(54) 0.0003452 1934. 2899.
49.0939 49.0808 2854(54) 0.0003475 1934. 2824.
49.0977 49.0846 2661(52) 0.000367 1934. 2840.
49.1014 49.0883 2917(53) 0.000351 1934. 2936.
49.1052 49.0921 2907(54) 0.0003367 1934. 3105.
49.1090 49.0959 3149(56) 0.0003171 1934. 3328.
49.1127 49.0996 3618(61) 0.0002710 1934. 3578.
49.1165 49.1034 3998(63) 0.0002501 1934. 3840.
49.1202 49.1071 4153(65) 0.0002367 1934. 4060.
49.1240 49.1109 4427(67) 0.0002226 1934. 4205.
49.1277 49.1146 4162(65) 0.0002392 1934. 4230.
49.1315 49.1184 4147(65) 0.0002345 1934. 4125.
49.1353 49.1222 3749(61) 0.0002646 1934. 3916.
49.1390 49.1259 3489(60) 0.0002781 1933. 3653.
49.1428 49.1297 3120(56) 0.0003158 1933. 3368.
49.1465 49.1334 3154(57) 0.0003127 1933. 3108.
49.1503 49.1372 2814(54) 0.0003492 1933. 2880.
49.1541 49.1410 2811(53) 0.000354 1933. 2704.
49.1578 49.1447 2584(51) 0.000378 1933. 2585.
49.1616 49.1485 2666(51) 0.000378 1933. 2515.
49.1653 49.1522 2550(51) 0.000388 1933. 2496.
49.1691 49.1560 2600(51) 0.000380 1933. 2526.
49.1729 49.1598 2586(52) 0.000375 1933. 2610.
49.1766 49.1635 2634(52) 0.000377 1933. 2756.
49.1804 49.1673 2810(54) 0.0003482 1933. 2985.
49.1841 49.1710 3012(55) 0.0003259 1933. 3303.
49.1879 49.1748 3381(59) 0.0002869 1933. 3738.
49.1916 49.1785 3919(63) 0.0002509 1933. 4277.
49.1954 49.1823 4633(68) 0.0002156 1933. 4940.
49.1992 49.1861 5816(77) 0.0001681 1933. 5696.
49.2029 49.1898 6463(81) 0.0001523 1933. 6483.
49.2067 49.1936 7388(87) 0.0001328 1933. 7288.
49.2104 49.1973 7713(89) 0.0001261 1933. 8011.
49.2142 49.2011 8364(94) 0.0001136 1933. 8659.
49.2180 49.2049 8995(96) 0.0001088 1932. 9218.
49.2217 49.2086 9850(100) 0.0000975 1932. 9690.
49.2255 49.2124 10500(110) 0.0000913 1932. 10083.
49.2292 49.2161 11580(110) 0.0000811 1932. 10320.
49.2330 49.2199 11510(110) 0.0000826 1932. 10342.
49.2368 49.2237 11200(110) 0.0000876 1932. 10082.
49.2405 49.2274 10340(100) 0.0000936 1932. 9531.
49.2443 49.2312 9177(98) 0.0001048 1932. 8695.
49.2480 49.2349 7757(89) 0.0001252 1932. 7715.
49.2518 49.2387 6694(83) 0.0001464 1932. 6662.
49.2555 49.2424 5625(76) 0.0001743 1932. 5699.
49.2593 49.2462 5049(72) 0.0001954 1932. 4860.
49.2631 49.2500 4388(67) 0.0002257 1932. 4218.
49.2668 49.2537 3919(63) 0.0002483 1932. 3803.
49.2706 49.2575 3687(61) 0.0002646 1932. 3592.
49.2743 49.2612 3778(63) 0.0002557 1932. 3584.
49.2781 49.2650 3750(62) 0.0002598 1932. 3752.
49.2819 49.2688 4185(66) 0.0002297 1932. 4068.
49.2856 49.2725 4567(68) 0.0002157 1932. 4474.
49.2894 49.2763 5566(75) 0.0001779 1932. 4934.
49.2931 49.2800 5853(78) 0.0001660 1932. 5353.
49.2969 49.2838 6322(80) 0.0001563 1931. 5668.
49.3007 49.2876 5983(79) 0.0001609 1931. 5784.
49.3044 49.2913 5675(75) 0.0001755 1931. 5668.
49.3082 49.2951 4953(72) 0.0001953 1931. 5340.
49.3119 49.2988 4618(68) 0.0002136 1931. 4886.
49.3157 49.3026 4109(64) 0.0002408 1931. 4364.
49.3195 49.3064 3670(61) 0.0002661 1931. 3851.
49.3232 49.3101 3221(58) 0.0003021 1931. 3405.
49.3270 49.3139 3057(56) 0.0003230 1931. 3027.
49.3307 49.3176 2797(54) 0.0003490 1931. 2741.
49.3345 49.3214 2578(51) 0.000385 1931. 2526.
49.3382 49.3251 2472(50) 0.000396 1931. 2380.
49.3420 49.3289 2444(50) 0.000406 1931. 2279.
49.3458 49.3327 2267(48) 0.000430 1931. 2213.
49.3495 49.3364 2256(48) 0.000428 1931. 2171.
49.3533 49.3402 2098(46) 0.000471 1931. 2141.
49.3570 49.3439 2218(47) 0.000443 1931. 2121.
49.3608 49.3477 2158(47) 0.000443 1931. 2106.
49.3646 49.3515 2094(46) 0.000467 1931. 2096.
49.3683 49.3552 2133(46) 0.000475 1931. 2091.
49.3721 49.3590 2132(46) 0.000467 1931. 2091.
49.3758 49.3627 2103(47) 0.000457 1930. 2095.
49.3796 49.3665 2160(47) 0.000452 1930. 2106.
49.3834 49.3703 2157(47) 0.000448 1930. 2122.
49.3871 49.3740 2283(48) 0.000436 1930. 2144.
49.3909 49.3778 2245(48) 0.000434 1930. 2169.
49.3946 49.3815 2346(49) 0.000417 1930. 2195.
49.3984 49.3853 2358(49) 0.000413 1930. 2218.
49.4022 49.3891 2433(50) 0.000396 1930. 2232.
49.4059 49.3928 2391(49) 0.000411 1930. 2234.
49.4097 49.3966 2443(50) 0.000406 1930. 2223.
49.4134 49.4003 2329(48) 0.000433 1930. 2201.
49.4172 49.4041 2271(48) 0.000429 1930. 2174.
49.4210 49.4079 2176(47) 0.000445 1930. 2146.
49.4247 49.4116 2176(47) 0.000451 1930. 2122.
49.4285 49.4154 2088(46) 0.000469 1930. 2106.
49.4322 49.4191 2155(47) 0.000452 1930. 2101.
49.4360 49.4229 2186(47) 0.000444 1930. 2106.
49.4398 49.4267 2110(46) 0.000468 1930. 2124.
49.4435 49.4304 2120(47) 0.000453 1930. 2151.
49.4473 49.4342 2235(48) 0.000434 1930. 2188.
49.4510 49.4379 2205(47) 0.000453 1930. 2229.
49.4548 49.4417 2282(48) 0.000429 1929. 2272.
49.4585 49.4454 2376(50) 0.000393 1929. 2309.
49.4623 49.4492 2390(47) 0.000451 1929. 2335.
49.4661 49.4530 2300(46) 0.000465 1929. 2345.
49.4698 49.4567 2290(46) 0.000467 1929. 2338.
49.4736 49.4605 2263(47) 0.000462 1929. 2319.
49.4773 49.4642 2343(47) 0.000454 1929. 2294.
49.4811 49.4680 2361(47) 0.000458 1929. 2266.
49.4849 49.4718 2403(47) 0.000449 1929. 2238.
49.4886 49.4755 2337(47) 0.000457 1929. 2209.
49.4924 49.4793 2232(46) 0.000473 1929. 2179.
49.4961 49.4830 2236(46) 0.000480 1929. 2148.
49.4999 49.4868 2251(46) 0.000468 1929. 2117.
49.5037 49.4906 2124(45) 0.000495 1929. 2087.
49.5074 49.4943 2194(45) 0.000485 1929. 2062.
49.5112 49.4981 2066(44) 0.000516 1929. 2040.
49.5149 49.5018 2054(44) 0.000512 1929. 2024.
49.5187 49.5056 2117(45) 0.000500 1929. 2013.
49.5225 49.5094 1998(43) 0.000535 1929. 2007.
49.5262 49.5131 1985(43) 0.000534 1929. 2005.
49.5300 49.5169 2031(44) 0.000522 1929. 2006.
49.5337 49.5206 1990(43) 0.000538 1928. 2009.
49.5375 49.5244 2131(45) 0.000501 1928. 2014.
49.5413 49.5282 2061(44) 0.000516 1928. 2018.
49.5450 49.5319 2015(44) 0.000524 1928. 2022.
49.5488 49.5357 2067(44) 0.000510 1928. 2023.
49.5525 49.5394 2063(44) 0.000513 1928. 2021.
49.5563 49.5432 2103(45) 0.000500 1928. 2016.
49.5601 49.5470 2014(44) 0.000523 1928. 2010.
49.5638 49.5507 1986(43) 0.000529 1928. 2003.
49.5676 49.5545 2165(45) 0.000486 1928. 1995.
49.5713 49.5582 1996(43) 0.000530 1928. 1989.
49.5751 49.5620 2005(44) 0.000517 1928. 1984.
49.5789 49.5658 2037(44) 0.000517 1928. 1980.
49.5826 49.5695 1978(43) 0.000534 1928. 1976.
49.5864 49.5733 1971(43) 0.000534 1928. 1974.
49.5901 49.5770 2020(44) 0.000515 1928. 1973.
49.5939 49.5808 2010(44) 0.000527 1928. 1973.
49.5977 49.5846 2007(44) 0.000519 1928. 1975.
49.6014 49.5883 1922(43) 0.000553 1928. 1980.
49.6052 49.5921 1992(44) 0.000524 1928. 1988.
49.6089 49.5958 2019(44) 0.000516 1928. 1999.
49.6127 49.5996 2093(45) 0.000503 1927. 2014.
49.6165 49.6034 2025(44) 0.000522 1927. 2032.
49.6202 49.6071 2109(45) 0.000498 1927. 2051.
49.6240 49.6109 2187(45) 0.000487 1927. 2070.
49.6277 49.6146 2175(46) 0.000481 1927. 2086.
49.6315 49.6184 2105(45) 0.000497 1927. 2094.
49.6353 49.6222 2209(46) 0.000481 1927. 2094.
49.6390 49.6259 2085(45) 0.000500 1927. 2084.
49.6428 49.6297 2068(44) 0.000510 1927. 2068.
49.6465 49.6334 2058(44) 0.000508 1927. 2049.
49.6503 49.6372 2053(44) 0.000506 1927. 2029.
49.6541 49.6410 1978(43) 0.000535 1927. 2010.
49.6578 49.6447 1967(43) 0.000542 1927. 1994.
49.6616 49.6485 1957(43) 0.000531 1927. 1982.
49.6653 49.6522 1898(43) 0.000546 1927. 1973.
49.6691 49.6560 1857(42) 0.000569 1927. 1967.
49.6729 49.6598 1968(43) 0.000531 1927. 1963.
49.6766 49.6635 1917(42) 0.000556 1927. 1960.
49.6804 49.6673 1892(42) 0.000556 1927. 1959.
49.6841 49.6710 1930(43) 0.000538 1927. 1958.
49.6879 49.6748 1971(44) 0.000526 1927. 1957.
49.6917 49.6786 1875(42) 0.000559 1926. 1957.
49.6954 49.6823 2029(44) 0.000512 1926. 1957.
49.6992 49.6861 1949(43) 0.000535 1926. 1956.
49.7029 49.6898 1995(44) 0.000525 1926. 1956.
49.7067 49.6936 1916(43) 0.000546 1926. 1956.
49.7105 49.6974 2037(44) 0.000518 1926. 1957.
49.7142 49.7011 1932(43) 0.000539 1926. 1957.
49.7180 49.7049 1894(42) 0.000556 1926. 1957.
49.7217 49.7086 1913(43) 0.000545 1926. 1957.
49.7255 49.7124 1980(43) 0.000533 1926. 1957.
49.7293 49.7162 1839(42) 0.000566 1926. 1958.
49.7330 49.7199 1921(43) 0.000546 1926. 1958.
49.7368 49.7237 1846(41) 0.000582 1926. 1958.
49.7405 49.7274 1909(43) 0.000545 1926. 1959.
49.7443 49.7312 1937(43) 0.000544 1926. 1959.
49.7481 49.7350 1981(43) 0.000529 1926. 1960.
49.7518 49.7387 1927(43) 0.000548 1926. 1960.
49.7556 49.7425 1947(43) 0.000539 1926. 1961.
49.7593 49.7462 1971(44) 0.000527 1926. 1962.
49.7631 49.7500 1931(43) 0.000536 1926. 1963.
49.7669 49.7538 1968(43) 0.000535 1926. 1963.
49.7706 49.7575 1954(43) 0.000534 1926. 1965.
49.7744 49.7613 1921(43) 0.000544 1925. 1966.
49.7781 49.7650 1988(44) 0.000513 1925. 1967.
49.7819 49.7688 1981(43) 0.000531 1925. 1969.
49.7857 49.7726 1929(43) 0.000539 1925. 1972.
49.7894 49.7763 1927(43) 0.000542 1925. 1975.
49.7932 49.7801 2032(44) 0.000515 1925. 1979.
49.7969 49.7838 1988(44) 0.000524 1925. 1984.
49.8007 49.7876 1987(44) 0.000524 1925. 1989.
49.8045 49.7914 1898(43) 0.000545 1925. 1995.
49.8082 49.7951 1993(44) 0.000522 1925. 2000.
49.8120 49.7989 1942(43) 0.000534 1925. 2005.
49.8157 49.8026 2091(45) 0.000497 1925. 2009.
49.8195 49.8064 1944(43) 0.000536 1925. 2011.
49.8233 49.8102 2047(44) 0.000513 1925. 2011.
49.8270 49.8139 1927(43) 0.000538 1925. 2010.
49.8308 49.8177 2009(44) 0.000518 1925. 2009.
49.8345 49.8214 1999(44) 0.000518 1925. 2009.
49.8383 49.8252 2042(44) 0.000514 1925. 2008.
49.8421 49.8290 2044(44) 0.000517 1925. 2009.
49.8458 49.8327 2102(45) 0.000499 1925. 2011.
49.8496 49.8365 2015(44) 0.000515 1925. 2015.
49.8533 49.8402 2080(45) 0.000495 1924. 2019.
49.8571 49.8440 1971(44) 0.000527 1924. 2026.
49.8609 49.8478 2021(44) 0.000510 1924. 2034.
49.8646 49.8515 2034(44) 0.000510 1924. 2044.
49.8684 49.8553 2088(45) 0.000499 1924. 2058.
49.8721 49.8590 2084(44) 0.000507 1924. 2074.
49.8759 49.8628 2185(46) 0.000470 1924. 2094.
49.8797 49.8666 2131(45) 0.000489 1924. 2118.
49.8834 49.8703 2240(47) 0.000456 1924. 2144.
49.8872 49.8741 2280(47) 0.000460 1924. 2174.
49.8909 49.8778 2301(47) 0.000444 1924. 2205.
49.8947 49.8816 2251(47) 0.000459 1924. 2239.
49.8985 49.8854 2389(48) 0.000429 1924. 2279.
49.9022 49.8891 2444(48) 0.000426 1924. 2330.
49.9060 49.8929 2460(49) 0.000413 1924. 2404.
49.9097 49.8966 2474(49) 0.000424 1924. 2514.
49.9135 49.9004 2570(50) 0.000399 1924. 2683.
49.9173 49.9042 2759(51) 0.000382 1924. 2927.
49.9210 49.9079 3045(54) 0.0003399 1924. 3252.
49.9248 49.9117 3422(58) 0.0002932 1924. 3680.
49.9285 49.9154 3999(62) 0.0002607 1924. 4182.
49.9323 49.9192 4716(67) 0.0002196 1924. 4757.
49.9361 49.9230 5731(74) 0.0001802 1923. 5346.
49.9398 49.9267 6188(78) 0.0001655 1923. 5867.
49.9436 49.9305 6957(83) 0.0001441 1923. 6274.
49.9473 49.9342 6862(84) 0.0001430 1923. 6481.
49.9511 49.9380 6911(84) 0.0001433 1923. 6465.
49.9549 49.9418 6254(79) 0.0001617 1923. 6238.
49.9586 49.9455 5868(77) 0.0001687 1923. 5882.
49.9624 49.9493 5108(71) 0.0001966 1923. 5477.
49.9661 49.9530 4882(70) 0.0002056 1923. 5138.
49.9699 49.9568 4445(66) 0.0002272 1923. 4922.
49.9737 49.9606 4630(68) 0.0002188 1923. 4887.
49.9774 49.9643 4798(70) 0.0002061 1923. 5044.
49.9812 49.9681 5222(72) 0.0001920 1923. 5383.
49.9849 49.9718 6045(78) 0.0001640 1923. 5838.
49.9887 49.9756 7004(84) 0.0001414 1923. 6351.
49.9925 49.9794 7599(87) 0.0001307 1923. 6802.
49.9962 49.9831 7881(89) 0.0001276 1923. 7067.
50.0000 49.9869 7481(87) 0.0001331 1923. 7069.
50.0037 49.9906 6946(83) 0.0001438 1923. 6789.
50.0075 49.9944 6103(78) 0.0001640 1923. 6270.
50.0113 49.9982 5559(74) 0.0001806 1923. 5618.
50.0150 50.0019 4542(68) 0.0002180 1923. 4947.
50.0188 50.0057 4236(65) 0.0002385 1922. 4295.
50.0226 50.0095 3768(61) 0.0002680 1922. 3728.
50.0263 50.0132 3366(56) 0.0003157 1922. 3277.
50.0301 50.0170 3027(55) 0.0003315 1922. 2924.
50.0338 50.0207 2965(54) 0.0003408 1922. 2674.
50.0376 50.0245 2629(51) 0.000380 1922. 2498.
50.0414 50.0283 2552(50) 0.000396 1922. 2383.
50.0451 50.0320 2435(49) 0.000411 1922. 2313.
50.0489 50.0358 2444(49) 0.000418 1922. 2271.
50.0526 50.0395 2459(50) 0.000404 1922. 2252.
50.0564 50.0433 2377(49) 0.000422 1922. 2249.
50.0602 50.0471 2293(47) 0.000451 1922. 2263.
50.0639 50.0508 2390(49) 0.000416 1922. 2296.
50.0677 50.0546 2456(49) 0.000409 1922. 2357.
50.0714 50.0583 2673(51) 0.000381 1922. 2454.
50.0752 50.0621 2665(52) 0.000377 1922. 2605.
50.0790 50.0659 2775(53) 0.000358 1922. 2826.
50.0827 50.0696 2970(55) 0.0003362 1922. 3122.
50.0865 50.0734 3351(58) 0.0002993 1922. 3512.
50.0902 50.0771 3825(62) 0.0002636 1922. 3969.
50.0940 50.0809 4634(68) 0.0002155 1922. 4485.
50.0978 50.0847 5349(73) 0.0001857 1922. 4993.
50.1015 50.0884 6009(77) 0.0001680 1921. 5408.
50.1053 50.0922 6131(79) 0.0001600 1921. 5666.
50.1090 50.0959 6091(78) 0.0001642 1921. 5693.
50.1128 50.0997 5280(72) 0.0001936 1921. 5481.
50.1166 50.1035 4900(71) 0.0001992 1921. 5077.
50.1203 50.1072 4213(65) 0.0002399 1921. 4580.
50.1241 50.1110 3890(62) 0.0002617 1921. 4042.
50.1278 50.1147 3333(58) 0.0002982 1921. 3550.
50.1316 50.1185 3105(55) 0.0003333 1921. 3118.
50.1354 50.1223 2781(52) 0.000365 1921. 2775.
50.1391 50.1260 2593(51) 0.000389 1921. 2529.
50.1429 50.1298 2329(48) 0.000432 1921. 2354.
50.1466 50.1335 2441(49) 0.000413 1921. 2241.
50.1504 50.1373 2295(48) 0.000443 1921. 2168.
50.1542 50.1411 2221(47) 0.000455 1921. 2124.
50.1579 50.1448 2022(45) 0.000505 1921. 2099.
50.1617 50.1486 2093(45) 0.000487 1921. 2085.
50.1654 50.1523 2069(45) 0.000489 1921. 2080.
50.1692 50.1561 2133(46) 0.000479 1921. 2080.
50.1730 50.1599 2089(45) 0.000494 1921. 2086.
50.1767 50.1636 2233(47) 0.000445 1921. 2094.
50.1805 50.1674 2160(47) 0.000461 1921. 2106.
50.1843 50.1712 2197(47) 0.000458 1920. 2118.
50.1880 50.1749 2190(46) 0.000468 1920. 2131.
50.1918 50.1787 2178(47) 0.000457 1920. 2142.
50.1955 50.1824 2167(47) 0.000455 1920. 2153.
50.1993 50.1862 2187(47) 0.000461 1920. 2166.
50.2031 50.1900 2175(46) 0.000471 1920. 2186.
50.2068 50.1937 2300(48) 0.000436 1920. 2219.
50.2106 50.1975 2112(46) 0.000478 1920. 2272.
50.2143 50.2012 2239(47) 0.000445 1920. 2346.
50.2181 50.2050 2364(49) 0.000419 1920. 2446.
50.2219 50.2088 2464(49) 0.000414 1920. 2570.
50.2256 50.2125 2564(50) 0.000399 1920. 2705.
50.2294 50.2163 2844(53) 0.000360 1920. 2847.
50.2331 50.2200 2891(53) 0.0003507 1920. 2970.
50.2369 50.2238 3054(55) 0.0003343 1920. 3059.
50.2407 50.2276 2940(54) 0.0003467 1920. 3090.
50.2444 50.2313 2909(54) 0.0003476 1920. 3054.
50.2482 50.2351 2831(53) 0.000361 1920. 2960.
50.2519 50.2388 2605(51) 0.000386 1920. 2830.
50.2557 50.2426 2555(51) 0.000391 1920. 2681.
50.2595 50.2464 2428(49) 0.000415 1920. 2534.
50.2632 50.2501 2282(48) 0.000437 1920. 2404.
50.2670 50.2539 2285(47) 0.000447 1919. 2291.
50.2707 50.2576 2103(46) 0.000473 1919. 2203.
50.2745 50.2614 2143(46) 0.000467 1919. 2135.
50.2783 50.2652 2098(45) 0.000486 1919. 2086.
50.2820 50.2689 1994(44) 0.000511 1919. 2054.
50.2858 50.2727 1988(44) 0.000506 1919. 2032.
50.2895 50.2764 2050(45) 0.000488 1919. 2020.
50.2933 50.2802 1995(44) 0.000509 1919. 2014.
50.2971 50.2840 1980(44) 0.000519 1919. 2013.
50.3008 50.2877 2001(45) 0.000502 1919. 2018.
50.3046 50.2915 2008(45) 0.000503 1919. 2026.
50.3084 50.2953 1969(44) 0.000521 1919. 2039.
50.3121 50.2990 2056(45) 0.000499 1919. 2054.
50.3159 50.3028 1983(44) 0.000518 1919. 2070.
50.3196 50.3065 2104(46) 0.000479 1919. 2083.
50.3234 50.3103 2048(45) 0.000492 1919. 2093.
50.3272 50.3141 2019(45) 0.000500 1919. 2095.
50.3309 50.3178 1998(44) 0.000507 1919. 2089.
50.3347 50.3216 2057(45) 0.000493 1919. 2077.
50.3384 50.3253 1989(44) 0.000516 1919. 2062.
50.3422 50.3291 2034(45) 0.000490 1919. 2045.
50.3460 50.3329 1988(44) 0.000511 1919. 2031.
50.3497 50.3366 2039(44) 0.000505 1919. 2021.
50.3535 50.3404 1894(43) 0.000536 1918. 2014.
50.3572 50.3441 2010(44) 0.000513 1918. 2011.
50.3610 50.3479 1962(44) 0.000518 1918. 2011.
50.3648 50.3517 1972(44) 0.000517 1918. 2012.
50.3685 50.3554 1963(44) 0.000513 1918. 2013.
50.3723 50.3592 1963(44) 0.000507 1918. 2012.
50.3760 50.3629 1931(44) 0.000527 1918. 2009.
50.3798 50.3667 1925(43) 0.000533 1918. 2003.
50.3836 50.3705 1922(43) 0.000529 1918. 1997.
50.3873 50.3742 1948(44) 0.000517 1918. 1991.
50.3911 50.3780 1870(43) 0.000541 1918. 1985.
50.3948 50.3817 2011(45) 0.000499 1918. 1980.
50.3986 50.3855 1981(44) 0.000515 1918. 1976.
50.4024 50.3893 1938(43) 0.000532 1918. 1974.
50.4061 50.3930 1962(44) 0.000523 1918. 1973.
50.4099 50.3968 1994(44) 0.000514 1918. 1974.
50.4136 50.4005 1865(43) 0.000552 1918. 1975.
50.4174 50.4043 1989(44) 0.000518 1918. 1978.
50.4212 50.4081 1941(44) 0.000521 1918. 1982.
50.4249 50.4118 2021(45) 0.000502 1918. 1987.
50.4287 50.4156 1993(45) 0.000493 1918. 1993.
50.4324 50.4193 1991(45) 0.000496 1918. 2001.
50.4362 50.4231 1966(44) 0.000511 1917. 2009.
50.4400 50.4269 2055(45) 0.000487 1917. 2018.
50.4437 50.4306 2027(45) 0.000499 1917. 2028.
50.4475 50.4344 1995(45) 0.000495 1917. 2037.
50.4513 50.4382 2050(46) 0.000479 1917. 2045.
50.4550 50.4419 2129(46) 0.000475 1917. 2051.
50.4588 50.4457 2057(45) 0.000486 1917. 2057.
50.4625 50.4494 2138(46) 0.000467 1917. 2063.
50.4663 50.4532 2100(46) 0.000470 1917. 2072.
50.4701 50.4570 2276(48) 0.000436 1917. 2085.
50.4738 50.4607 2069(45) 0.000495 1917. 2106.
50.4776 50.4645 2220(47) 0.000448 1917. 2143.
50.4813 50.4682 2158(47) 0.000459 1917. 2201.
50.4851 50.4720 2282(48) 0.000441 1917. 2298.
50.4889 50.4758 2379(49) 0.000409 1917. 2448.
50.4926 50.4795 2430(50) 0.000405 1917. 2665.
50.4964 50.4833 2738(52) 0.000363 1917. 2979.
50.5001 50.4870 3049(55) 0.0003271 1917. 3384.
50.5039 50.4908 3533(59) 0.0002841 1917. 3900.
50.5077 50.4946 4393(66) 0.0002281 1917. 4496.
50.5114 50.4983 5380(73) 0.0001869 1917. 5111.
50.5152 50.5021 6370(80) 0.0001567 1917. 5706.
50.5189 50.5058 6801(84) 0.0001432 1917. 6162.
50.5227 50.5096 7225(85) 0.0001373 1916. 6410.
50.5265 50.5134 6612(82) 0.0001497 1916. 6373.
50.5302 50.5171 5956(78) 0.0001659 1916. 6072.
50.5340 50.5209 5457(76) 0.0001753 1916. 5564.
50.5377 50.5246 4702(69) 0.0002081 1916. 4968.
50.5415 50.5284 3919(63) 0.0002529 1916. 4341.
50.5453 50.5322 3738(61) 0.0002670 1916. 3762.
50.5490 50.5359 3242(57) 0.0003072 1916. 3282.
50.5528 50.5397 3064(56) 0.0003201 1916. 2892.
50.5565 50.5434 2698(53) 0.000359 1916. 2611.
50.5603 50.5472 2557(51) 0.000388 1916. 2409.
50.5641 50.5510 2353(48) 0.000427 1916. 2276.
50.5678 50.5547 2332(49) 0.000421 1916. 2195.
50.5716 50.5585 2216(47) 0.000449 1916. 2146.
50.5754 50.5623 2178(47) 0.000456 1916. 2119.
50.5791 50.5660 2057(46) 0.000475 1916. 2107.
50.5829 50.5698 2156(47) 0.000461 1916. 2103.
50.5866 50.5735 2025(45) 0.000490 1916. 2105.
50.5904 50.5773 2086(46) 0.000474 1916. 2109.
50.5942 50.5811 2004(45) 0.000497 1916. 2113.
50.5979 50.5848 2046(46) 0.000481 1916. 2115.
50.6017 50.5886 2067(46) 0.000479 1916. 2115.
50.6054 50.5923 2117(47) 0.000459 1916. 2110.
50.6092 50.5961 2089(46) 0.000474 1915. 2103.
50.6130 50.5999 2071(45) 0.000496 1915. 2092.
50.6167 50.6036 2035(45) 0.000491 1915. 2078.
50.6205 50.6074 2071(46) 0.000476 1915. 2062.
50.6242 50.6111 1917(44) 0.000514 1915. 2046.
50.6280 50.6149 2068(46) 0.000472 1915. 2030.
50.6318 50.6187 1920(44) 0.000519 1915. 2016.
50.6355 50.6224 2030(45) 0.000494 1915. 2005.
50.6393 50.6262 2030(45) 0.000491 1915. 1996.
50.6430 50.6299 2018(45) 0.000486 1915. 1991.
50.6468 50.6337 1934(45) 0.000499 1915. 1990.
50.6506 50.6375 2042(45) 0.000500 1915. 1992.
50.6543 50.6412 2027(45) 0.000483 1915. 1999.
50.6581 50.6450 2094(46) 0.000474 1915. 2012.
50.6618 50.6487 2073(46) 0.000471 1915. 2029.
50.6656 50.6525 2113(46) 0.000474 1915. 2053.
50.6694 50.6563 2161(47) 0.000458 1915. 2083.
50.6731 50.6600 2234(48) 0.000436 1915. 2116.
50.6769 50.6638 2243(48) 0.000435 1915. 2150.
50.6806 50.6675 2322(49) 0.000423 1915. 2182.
50.6844 50.6713 2396(50) 0.000408 1915. 2207.
50.6882 50.6751 2397(50) 0.000401 1915. 2219.
50.6919 50.6788 2407(49) 0.000409 1915. 2218.
50.6957 50.6826 2302(48) 0.000439 1914. 2204.
50.6994 50.6863 2344(49) 0.000413 1914. 2182.
50.7032 50.6901 2178(47) 0.000452 1914. 2154.
50.7070 50.6939 2133(46) 0.000467 1914. 2125.
50.7107 50.6976 2175(48) 0.000442 1914. 2099.
50.7145 50.7014 2094(46) 0.000466 1914. 2079.
50.7183 50.7052 2137(46) 0.000481 1914. 2066.
50.7220 50.7089 2048(46) 0.000475 1914. 2060.
50.7258 50.7127 2028(45) 0.000486 1914. 2061.
50.7295 50.7164 2026(45) 0.000489 1914. 2066.
50.7333 50.7202 2095(46) 0.000471 1914. 2072.
50.7371 50.7240 1908(44) 0.000518 1914. 2077.
50.7408 50.7277 2046(45) 0.000484 1914. 2077.
50.7446 50.7315 2017(45) 0.000495 1914. 2070.
50.7483 50.7352 1995(45) 0.000498 1914. 2058.
50.7521 50.7390 1987(45) 0.000496 1914. 2042.
50.7559 50.7428 1954(44) 0.000508 1914. 2023.
50.7596 50.7465 1882(44) 0.000522 1914. 2006.
50.7634 50.7503 2010(45) 0.000500 1914. 1990.
50.7671 50.7540 1943(45) 0.000502 1914. 1976.
50.7709 50.7578 1938(45) 0.000503 1914. 1965.
50.7747 50.7616 1824(43) 0.000543 1914. 1957.
50.7784 50.7653 1955(45) 0.000497 1914. 1951.
50.7822 50.7691 1901(44) 0.000521 1914. 1947.
50.7859 50.7728 1927(44) 0.000511 1913. 1944.
50.7897 50.7766 1942(44) 0.000506 1913. 1942.
50.7935 50.7804 1962(45) 0.000500 1913. 1941.
50.7972 50.7841 1922(44) 0.000507 1913. 1940.
50.8010 50.7879 1942(45) 0.000495 1913. 1939.
50.8047 50.7916 1930(44) 0.000510 1913. 1939.
50.8085 50.7954 1945(45) 0.000503 1913. 1938.
50.8123 50.7992 1882(44) 0.000520 1913. 1938.
50.8160 50.8029 1932(45) 0.000493 1913. 1937.
50.8198 50.8067 1884(43) 0.000531 1913. 1937.
50.8235 50.8104 2015(46) 0.000482 1913. 1937.
50.8273 50.8142 1924(44) 0.000508 1913. 1937.
50.8311 50.8180 1933(45) 0.000504 1913. 1937.
50.8348 50.8217 1871(44) 0.000522 1913. 1937.
50.8386 50.8255 1798(43) 0.000548 1913. 1937.
50.8423 50.8292 1880(44) 0.000514 1913. 1936.
50.8461 50.8330 1924(45) 0.000498 1913. 1936.
50.8499 50.8368 1964(45) 0.000504 1913. 1936.
50.8536 50.8405 1972(46) 0.000482 1913. 1936.
50.8574 50.8443 1865(44) 0.000517 1913. 1936.
50.8611 50.8480 2007(45) 0.000485 1913. 1936.
50.8649 50.8518 1925(44) 0.000509 1913. 1937.
50.8687 50.8556 1857(43) 0.000530 1913. 1937.
50.8724 50.8593 1878(44) 0.000518 1912. 1937.
50.8762 50.8631 1988(45) 0.000492 1912. 1937.
50.8800 50.8669 1932(45) 0.000502 1912. 1937.
50.8837 50.8706 1927(44) 0.000505 1912. 1937.
50.8875 50.8744 1940(44) 0.000516 1912. 1937.
50.8912 50.8781 1919(44) 0.000507 1912. 1938.
50.8950 50.8819 1843(43) 0.000535 1912. 1938.
50.8988 50.8857 1896(43) 0.000531 1912. 1938.
50.9025 50.8894 1899(45) 0.000502 1912. 1938.
50.9063 50.8932 1950(45) 0.000503 1912. 1939.
50.9100 50.8969 1945(45) 0.000499 1912. 1939.
50.9138 50.9007 1829(43) 0.000542 1912. 1939.
50.9176 50.9045 1914(44) 0.000525 1912. 1940.
50.9213 50.9082 1990(45) 0.000496 1912. 1940.
50.9251 50.9120 1983(45) 0.000502 1912. 1941.
50.9288 50.9157 2028(44) 0.000507 1912. 1941.
50.9326 50.9195 1893(44) 0.000525 1912. 1941.
50.9364 50.9233 1954(44) 0.000505 1912. 1942.
50.9401 50.9270 1965(44) 0.000516 1912. 1943.
50.9439 50.9308 1859(43) 0.000532 1912. 1943.
50.9476 50.9345 1943(45) 0.000505 1912. 1944.
50.9514 50.9383 1915(44) 0.000522 1912. 1944.
50.9552 50.9421 1928(44) 0.000514 1912. 1945.
50.9589 50.9458 1987(45) 0.000491 1912. 1946.
50.9627 50.9496 1949(44) 0.000507 1911. 1946.
50.9664 50.9533 2001(45) 0.000483 1911. 1947.
50.9702 50.9571 1874(44) 0.000528 1911. 1948.
50.9740 50.9609 1973(45) 0.000502 1911. 1949.
50.9777 50.9646 1912(45) 0.000503 1911. 1950.
50.9815 50.9684 1937(44) 0.000509 1911. 1951.
50.9852 50.9721 1999(45) 0.000489 1911. 1952.
50.9890 50.9759 1987(45) 0.000493 1911. 1954.
50.9928 50.9797 1874(43) 0.000531 1911. 1955.
50.9965 50.9834 2041(45) 0.000487 1911. 1957.
51.0003 50.9872 1926(45) 0.000499 1911. 1959.
51.0040 50.9909 1940(44) 0.000515 1911. 1962.
51.0078 50.9947 2003(45) 0.000493 1911. 1965.
51.0116 50.9985 2041(46) 0.000482 1911. 1969.
51.0153 51.0022 1992(44) 0.000509 1911. 1973.
51.0191 51.0060 2058(46) 0.000467 1911. 1977.
51.0228 51.0097 2018(46) 0.000480 1911. 1980.
51.0266 51.0135 2005(45) 0.000502 1911. 1984.
51.0304 51.0173 2072(46) 0.000472 1911. 1986.
51.0341 51.0210 1995(45) 0.000487 1911. 1988.
51.0379 51.0248 2043(46) 0.000474 1911. 1989.
51.0416 51.0285 2030(45) 0.000493 1911. 1990.
51.0454 51.0323 1994(45) 0.000493 1911. 1991.
51.0492 51.0361 1939(45) 0.000502 1911. 1992.
51.0529 51.0398 2031(45) 0.000484 1910. 1994.
51.0567 51.0436 2037(46) 0.000480 1910. 1997.
51.0604 51.0473 1998(45) 0.000487 1910. 2000.
51.0642 51.0511 2135(46) 0.000466 1910. 2004.
51.0680 51.0549 2116(46) 0.000464 1910. 2009.
51.0717 51.0586 2065(45) 0.000484 1910. 2015.
51.0755 51.0624 2032(46) 0.000476 1910. 2021.
51.0792 51.0661 2116(46) 0.000465 1910. 2028.
51.0830 51.0699 2125(47) 0.000459 1910. 2036.
51.0868 51.0737 2075(46) 0.000471 1910. 2045.
51.0905 51.0774 2100(46) 0.000464 1910. 2056.
51.0943 51.0812 2232(48) 0.000433 1910. 2068.
51.0980 51.0849 2064(46) 0.000473 1910. 2083.
51.1018 51.0887 2185(48) 0.000432 1910. 2102.
51.1056 51.0925 2145(47) 0.000458 1910. 2128.
51.1093 51.0962 2394(50) 0.000405 1910. 2164.
51.1131 51.1000 2225(48) 0.000437 1910. 2222.
51.1168 51.1037 2416(50) 0.000406 1910. 2311.
51.1206 51.1075 2499(51) 0.000392 1910. 2453.
51.1244 51.1113 2629(51) 0.000378 1910. 2670.
51.1281 51.1150 2721(52) 0.000366 1910. 2976.
51.1319 51.1188 3149(57) 0.0003045 1910. 3407.
51.1356 51.1225 3558(60) 0.0002735 1910. 3946.
51.1394 51.1263 4290(66) 0.0002290 1910. 4605.
51.1432 51.1301 5162(72) 0.0001938 1910. 5327.
51.1469 51.1338 6278(79) 0.0001588 1909. 6020.
51.1507 51.1376 6751(85) 0.0001399 1909. 6626.
51.1544 51.1413 7168(85) 0.0001374 1909. 7020.
51.1582 51.1451 6948(85) 0.0001376 1909. 7157.
51.1620 51.1489 6579(82) 0.0001478 1909. 7032.
51.1657 51.1526 5979(79) 0.0001611 1909. 6741.
51.1695 51.1564 5841(78) 0.0001648 1909. 6392.
51.1732 51.1601 5314(74) 0.0001819 1909. 6119.
51.1770 51.1639 5415(74) 0.0001816 1909. 5996.
51.1808 51.1677 5784(77) 0.0001678 1909. 6080.
51.1845 51.1714 6612(83) 0.0001458 1909. 6365.
51.1883 51.1752 7510(87) 0.0001334 1909. 6823.
51.1920 51.1789 8383(93) 0.0001165 1909. 7355.
51.1958 51.1827 8734(96) 0.0001096 1909. 7884.
51.1996 51.1865 8850(96) 0.0001091 1909. 8291.
51.2033 51.1902 8935(96) 0.0001093 1909. 8512.
51.2071 51.1940 9074(97) 0.0001056 1909. 8554.
51.2108 51.1977 8871(97) 0.0001055 1909. 8444.
51.2146 51.2015 9045(97) 0.0001062 1909. 8203.
51.2184 51.2053 8315(94) 0.0001134 1909. 7836.
51.2221 51.2090 7799(92) 0.0001185 1909. 7351.
51.2259 51.2128 6926(86) 0.0001364 1909. 6733.
51.2296 51.2165 6132(80) 0.0001572 1909. 6058.
51.2334 51.2203 5383(75) 0.0001800 1909. 5349.
51.2372 51.2241 4843(71) 0.0001996 1908. 4678.
51.2409 51.2278 4034(65) 0.0002372 1908. 4098.
51.2447 51.2316 3696(62) 0.0002576 1908. 3599.
51.2484 51.2353 3432(60) 0.0002817 1908. 3211.
51.2522 51.2391 3174(57) 0.0003083 1908. 2908.
51.2560 51.2429 2940(55) 0.0003306 1908. 2691.
51.2597 51.2466 2797(54) 0.0003423 1908. 2547.
51.2635 51.2504 2702(53) 0.000359 1908. 2452.
51.2672 51.2541 2614(52) 0.000363 1908. 2399.
51.2710 51.2579 2493(50) 0.000393 1908. 2379.
51.2748 51.2617 2609(53) 0.000359 1908. 2391.
51.2785 51.2654 2564(52) 0.000376 1908. 2437.
51.2823 51.2692 2679(53) 0.000359 1908. 2529.
51.2860 51.2729 2718(53) 0.0003495 1908. 2678.
51.2898 51.2767 2808(54) 0.0003446 1908. 2906.
51.2936 51.2805 2957(56) 0.0003239 1908. 3225.
51.2973 51.2842 3390(60) 0.0002816 1908. 3630.
51.3011 51.2880 3800(63) 0.0002533 1908. 4135.
51.3048 51.2917 4705(70) 0.0002022 1908. 4689.
51.3086 51.2955 5547(76) 0.0001734 1908. 5273.
51.3124 51.2993 6458(82) 0.0001503 1908. 5803.
51.3161 51.3030 6847(85) 0.0001369 1908. 6182.
51.3199 51.3068 6911(85) 0.0001381 1908. 6352.
51.3236 51.3105 6544(82) 0.0001491 1908. 6264.
51.3274 51.3143 5925(79) 0.0001592 1908. 5936.
51.3312 51.3181 5053(73) 0.0001894 1907. 5443.
51.3349 51.3218 4691(70) 0.0002028 1907. 4891.
51.3387 51.3256 4129(65) 0.0002382 1907. 4327.
51.3424 51.3293 3859(63) 0.0002494 1907. 3834.
51.3462 51.3331 3463(60) 0.0002798 1907. 3423.
51.3500 51.3369 3143(57) 0.0003072 1907. 3128.
51.3537 51.3406 3024(57) 0.0003120 1907. 2958.
51.3575 51.3444 2986(56) 0.0003214 1907. 2901.
51.3612 51.3481 2967(56) 0.0003174 1907. 2955.
51.3650 51.3519 2948(56) 0.0003161 1907. 3116.
51.3688 51.3557 3107(57) 0.0003128 1907. 3376.
51.3725 51.3594 3451(60) 0.0002799 1907. 3711.
51.3763 51.3632 3894(64) 0.0002458 1907. 4117.
51.3800 51.3669 4684(70) 0.0002050 1907. 4542.
51.3838 51.3707 5050(73) 0.0001857 1907. 4964.
51.3875 51.3744 5500(75) 0.0001771 1907. 5307.
51.3913 51.3782 5728(76) 0.0001748 1907. 5535.
51.3951 51.3820 5478(74) 0.0001813 1907. 5596.
51.3988 51.3857 5413(74) 0.0001842 1907. 5484.
51.4026 51.3895 4971(70) 0.0002016 1907. 5218.
51.4063 51.3932 4330(66) 0.0002301 1907. 4861.
51.4101 51.3970 4024(63) 0.0002488 1907. 4459.
51.4139 51.4008 3829(62) 0.0002605 1907. 4077.
51.4176 51.4045 3537(60) 0.0002807 1907. 3766.
51.4214 51.4083 3279(57) 0.0003037 1907. 3539.
51.4251 51.4120 3250(57) 0.0003031 1906. 3423.
51.4289 51.4158 3098(56) 0.0003192 1906. 3419.
51.4327 51.4196 3207(57) 0.0003108 1906. 3526.
51.4364 51.4233 3389(59) 0.0002907 1906. 3722.
51.4402 51.4271 3826(62) 0.0002596 1906. 3990.
51.4439 51.4308 4298(66) 0.0002281 1906. 4280.
51.4477 51.4346 4857(70) 0.0002022 1906. 4556.
51.4515 51.4384 4961(71) 0.0001960 1906. 4752.
51.4552 51.4421 4930(71) 0.0002009 1906. 4813.
51.4590 51.4459 4824(71) 0.0002011 1906. 4718.
51.4627 51.4496 4344(66) 0.0002281 1906. 4488.
51.4665 51.4534 3805(62) 0.0002605 1906. 4158.
51.4703 51.4572 3601(60) 0.0002763 1906. 3785.
51.4740 51.4609 3151(56) 0.0003140 1906. 3426.
51.4778 51.4647 3032(55) 0.0003297 1906. 3097.
51.4815 51.4684 2743(52) 0.000367 1906. 2833.
51.4853 51.4722 2654(52) 0.000376 1906. 2626.
51.4891 51.4760 2540(51) 0.000383 1906. 2484.
51.4928 51.4797 2471(50) 0.000406 1906. 2398.
51.4966 51.4835 2249(47) 0.000454 1906. 2353.
51.5003 51.4872 2280(47) 0.000443 1906. 2338.
51.5041 51.4910 2310(48) 0.000428 1906. 2340.
51.5078 51.4947 2386(49) 0.000411 1906. 2349.
51.5116 51.4985 2299(48) 0.000429 1906. 2354.
51.5154 51.5023 2391(49) 0.000409 1906. 2348.
51.5191 51.5060 2330(49) 0.000420 1905. 2330.
51.5229 51.5098 2258(48) 0.000442 1905. 2300.
51.5266 51.5135 2031(46) 0.000479 1905. 2266.
51.5304 51.5173 2169(47) 0.000455 1905. 2230.
51.5342 51.5211 2189(47) 0.000453 1905. 2197.
51.5379 51.5248 2192(47) 0.000451 1905. 2171.
51.5417 51.5286 2180(47) 0.000457 1905. 2149.
51.5454 51.5323 2264(48) 0.000430 1905. 2132.
51.5492 51.5361 2167(47) 0.000452 1905. 2119.
51.5530 51.5399 2203(47) 0.000445 1905. 2106.
51.5567 51.5436 2096(46) 0.000466 1905. 2092.
51.5605 51.5474 2267(48) 0.000443 1905. 2077.
51.5642 51.5511 2046(46) 0.000472 1905. 2061.
51.5680 51.5549 2094(46) 0.000477 1905. 2045.
51.5718 51.5587 2016(45) 0.000491 1905. 2030.
51.5755 51.5624 1992(45) 0.000495 1905. 2018.
51.5793 51.5662 2055(46) 0.000480 1905. 2007.
51.5830 51.5699 2005(45) 0.000491 1905. 1999.
51.5868 51.5737 2037(45) 0.000491 1905. 1992.
51.5906 51.5775 2030(46) 0.000483 1905. 1988.
51.5943 51.5812 1974(45) 0.000503 1905. 1986.
51.5981 51.5850 1936(45) 0.000495 1905. 1986.
51.6018 51.5887 1940(44) 0.000506 1905. 1987.
51.6056 51.5925 2069(46) 0.000483 1905. 1990.
51.6093 51.5962 1958(45) 0.000497 1905. 1995.
51.6131 51.6000 2114(46) 0.000467 1905. 2002.
51.6169 51.6038 1948(44) 0.000514 1904. 2010.
51.6206 51.6075 2090(46) 0.000468 1904. 2019.
51.6244 51.6113 2009(45) 0.000490 1904. 2028.
51.6281 51.6150 1994(45) 0.000492 1904. 2036.
51.6319 51.6188 1967(45) 0.000501 1904. 2042.
51.6357 51.6226 2060(46) 0.000474 1904. 2045.
51.6394 51.6263 1999(45) 0.000485 1904. 2046.
51.6432 51.6301 2083(46) 0.000475 1904. 2044.
51.6469 51.6338 2051(46) 0.000468 1904. 2042.
51.6507 51.6376 2070(46) 0.000476 1904. 2040.
51.6545 51.6414 2032(45) 0.000484 1904. 2042.
51.6582 51.6451 2001(45) 0.000484 1904. 2047.
51.6620 51.6489 2056(46) 0.000467 1904. 2060.
51.6657 51.6526 2106(46) 0.000463 1904. 2083.
51.6695 51.6564 2060(46) 0.000473 1904. 2122.
51.6732 51.6601 2171(47) 0.000462 1904. 2180.
51.6770 51.6639 2143(47) 0.000453 1904. 2268.
51.6808 51.6677 2259(47) 0.000451 1904. 2392.
51.6845 51.6714 2266(48) 0.000430 1904. 2550.
51.6883 51.6752 2545(51) 0.000380 1904. 2751.
51.6920 51.6789 2677(52) 0.000364 1904. 2981.
51.6958 51.6827 3150(56) 0.0003134 1904. 3237.
51.6996 51.6865 3427(59) 0.0002835 1904. 3491.
51.7033 51.6902 3813(63) 0.0002543 1904. 3705.
51.7071 51.6940 3814(63) 0.0002552 1904. 3856.
51.7108 51.6977 3876(63) 0.0002505 1904. 3903.
51.7146 51.7015 3590(61) 0.0002669 1903. 3840.
51.7184 51.7053 3425(59) 0.0002888 1903. 3679.
51.7221 51.7090 3142(57) 0.0003118 1903. 3461.
51.7259 51.7128 3126(57) 0.0003039 1903. 3211.
51.7296 51.7165 2804(53) 0.000361 1903. 2972.
51.7334 51.7203 2608(52) 0.000368 1903. 2752.
51.7371 51.7240 2472(51) 0.000391 1903. 2576.
51.7409 51.7278 2467(50) 0.000402 1903. 2439.
51.7447 51.7316 2325(49) 0.000410 1903. 2349.
51.7484 51.7353 2430(50) 0.000405 1903. 2306.
51.7522 51.7391 2216(48) 0.000439 1903. 2307.
51.7559 51.7428 2280(48) 0.000442 1903. 2351.
51.7597 51.7466 2330(49) 0.000415 1903. 2443.
51.7635 51.7504 2417(49) 0.000409 1903. 2585.
51.7672 51.7541 2570(52) 0.000376 1903. 2770.
51.7710 51.7579 2796(54) 0.0003425 1903. 3004.
51.7747 51.7616 3182(57) 0.0003039 1903. 3265.
51.7785 51.7654 3653(61) 0.0002671 1903. 3547.
51.7822 51.7691 4083(65) 0.0002348 1903. 3808.
51.7860 51.7729 4427(68) 0.0002178 1903. 4024.
51.7898 51.7767 4229(65) 0.0002373 1903. 4146.
51.7935 51.7804 4334(67) 0.0002233 1903. 4147.
51.7973 51.7842 4022(65) 0.0002345 1903. 4026.
51.8010 51.7879 3784(63) 0.0002494 1903. 3816.
51.8048 51.7917 3339(59) 0.0002890 1903. 3545.
51.8086 51.7955 3051(57) 0.0003126 1903. 3255.
51.8123 51.7992 2764(54) 0.0003482 1902. 2985.
51.8161 51.8030 2717(52) 0.000364 1902. 2738.
51.8198 51.8067 2510(51) 0.000389 1902. 2537.
51.8236 51.8105 2432(50) 0.000399 1902. 2374.
51.8273 51.8142 2183(48) 0.000436 1902. 2255.
51.8311 51.8180 2220(48) 0.000435 1902. 2166.
51.8349 51.8218 2083(46) 0.000469 1902. 2105.
51.8386 51.8255 2116(47) 0.000461 1902. 2065.
51.8424 51.8293 2001(45) 0.000490 1902. 2036.
51.8461 51.8330 2087(47) 0.000459 1902. 2017.
51.8499 51.8368 1959(45) 0.000492 1902. 2003.
51.8537 51.8406 2033(45) 0.000494 1902. 1993.
51.8574 51.8443 1953(45) 0.000495 1902. 1985.
51.8612 51.8481 2041(46) 0.000472 1902. 1979.
51.8649 51.8518 1983(46) 0.000470 1902. 1974.
51.8687 51.8556 2042(45) 0.000497 1902. 1969.
51.8724 51.8593 1937(43) 0.000532 1902. 1965.
51.8762 51.8631 2028(45) 0.000494 1902. 1961.
51.8800 51.8669 1923(44) 0.000528 1902. 1958.
51.8837 51.8706 1991(45) 0.000502 1902. 1955.
51.8875 51.8744 1927(44) 0.000522 1902. 1953.
51.8912 51.8781 1959(44) 0.000509 1902. 1951.
51.8950 51.8819 1914(43) 0.000532 1902. 1949.
51.8988 51.8857 1909(44) 0.000525 1902. 1947.
51.9025 51.8894 1850(43) 0.000539 1902. 1946.
51.9063 51.8932 1991(44) 0.000515 1902. 1944.
51.9100 51.8969 1834(43) 0.000545 1902. 1943.
51.9138 51.9007 1887(43) 0.000544 1901. 1942.
51.9175 51.9044 1904(44) 0.000524 1901. 1941.
51.9213 51.9082 1971(44) 0.000517 1901. 1940.
51.9251 51.9120 1906(44) 0.000528 1901. 1940.
51.9288 51.9157 1973(44) 0.000516 1901. 1940.
51.9326 51.9195 1864(43) 0.000541 1901. 1940.
51.9363 51.9232 1926(44) 0.000523 1901. 1939.
51.9401 51.9270 1970(44) 0.000514 1901. 1940.
51.9439 51.9308 1927(43) 0.000533 1901. 1940.
51.9476 51.9345 1922(44) 0.000528 1901. 1940.
51.9514 51.9383 1919(43) 0.000535 1901. 1940.
51.9551 51.9420 1902(44) 0.000524 1901. 1940.
51.9589 51.9458 1965(44) 0.000505 1901. 1941.
51.9626 51.9495 1883(43) 0.000536 1901. 1942.
51.9664 51.9533 1982(44) 0.000512 1901. 1944.
51.9702 51.9571 1943(44) 0.000507 1901. 1948.
51.9739 51.9608 1893(44) 0.000528 1901. 1953.
51.9777 51.9646 1907(43) 0.000531 1901. 1960.
51.9814 51.9683 1957(44) 0.000521 1901. 1970.
51.9852 51.9721 1907(43) 0.000530 1901. 1982.
51.9889 51.9758 2020(45) 0.000496 1901. 1996.
51.9927 51.9796 2033(45) 0.000495 1901. 2011.
51.9965 51.9834 2139(47) 0.000458 1901. 2026.
52.0002 51.9871 2157(47) 0.000460 1901. 2038.
52.0040 51.9909 2137(46) 0.000474 1901. 2046.
52.0077 51.9946 2051(45) 0.000497 1901. 2047.
52.0115 51.9984 2188(47) 0.000454 1901. 2042.
52.0153 52.0022 2017(45) 0.000495 1900. 2032.
52.0190 52.0059 2056(46) 0.000481 1900. 2019.
52.0228 52.0097 1988(45) 0.000494 1900. 2004.
52.0265 52.0134 2046(45) 0.000497 1900. 1990.
52.0303 52.0172 2071(45) 0.000483 1900. 1977.
52.0340 52.0209 2016(45) 0.000493 1900. 1966.
52.0378 52.0247 1935(44) 0.000524 1900. 1958.
52.0416 52.0285 1976(45) 0.000501 1900. 1952.
52.0453 52.0322 1957(44) 0.000514 1900. 1949.
52.0491 52.0360 2007(44) 0.000505 1900. 1946.
52.0528 52.0397 1857(43) 0.000540 1900. 1945.
52.0566 52.0435 1975(44) 0.000506 1900. 1944.
52.0603 52.0472 1937(44) 0.000519 1900. 1944.
52.0641 52.0510 2090(46) 0.000477 1900. 1944.
52.0679 52.0548 1925(44) 0.000517 1900. 1944.
52.0716 52.0585 1913(44) 0.000526 1900. 1945.
52.0754 52.0623 1824(43) 0.000553 1900. 1946.
52.0791 52.0660 2002(45) 0.000498 1900. 1947.
52.0829 52.0698 1931(44) 0.000526 1900. 1948.
52.0866 52.0735 2037(45) 0.000494 1900. 1950.
52.0904 52.0773 1870(43) 0.000537 1900. 1952.
52.0942 52.0811 1916(44) 0.000524 1900. 1955.
52.0979 52.0848 1914(44) 0.000518 1900. 1958.
52.1017 52.0886 1871(43) 0.000537 1900. 1961.
52.1054 52.0923 1881(43) 0.000533 1900. 1966.
52.1092 52.0961 2013(45) 0.000498 1900. 1972.
52.1129 52.0998 1890(44) 0.000524 1900. 1979.
52.1167 52.1036 2022(45) 0.000493 1899. 1990.
52.1205 52.1074 1913(44) 0.000527 1899. 2004.
52.1242 52.1111 2082(45) 0.000488 1899. 2022.
52.1280 52.1149 1941(44) 0.000521 1899. 2047.
52.1317 52.1186 2106(46) 0.000477 1899. 2077.
52.1355 52.1224 2129(46) 0.000468 1899. 2118.
52.1392 52.1261 2152(46) 0.000466 1899. 2168.
52.1430 52.1299 2105(46) 0.000472 1899. 2232.
52.1468 52.1337 2351(48) 0.000429 1899. 2314.
52.1505 52.1374 2280(48) 0.000433 1899. 2412.
52.1543 52.1412 2468(50) 0.000403 1899. 2536.
52.1580 52.1449 2484(49) 0.000420 1899. 2680.
52.1618 52.1487 2675(51) 0.000377 1899. 2854.
52.1655 52.1524 2822(53) 0.000357 1899. 3043.
52.1693 52.1562 3232(57) 0.0003102 1899. 3248.
52.1731 52.1600 3502(59) 0.0002861 1899. 3443.
52.1768 52.1637 3766(61) 0.0002669 1899. 3596.
52.1806 52.1675 3757(61) 0.0002672 1899. 3684.
52.1843 52.1712 3802(62) 0.0002625 1899. 3681.
52.1881 52.1750 3466(59) 0.0002858 1899. 3581.
52.1918 52.1787 3219(57) 0.0003066 1899. 3411.
52.1956 52.1825 3018(55) 0.0003293 1899. 3191.
52.1994 52.1863 2935(54) 0.0003403 1899. 2960.
52.2031 52.1900 2748(52) 0.000367 1899. 2748.
52.2069 52.1938 2534(51) 0.000392 1899. 2562.
52.2106 52.1975 2416(49) 0.000414 1899. 2420.
52.2144 52.2013 2347(48) 0.000430 1899. 2317.
52.2181 52.2050 2294(48) 0.000433 1899. 2256.
52.2219 52.2088 2324(49) 0.000425 1898. 2231.
52.2257 52.2126 2235(48) 0.000437 1898. 2242.
52.2294 52.2163 2262(47) 0.000444 1898. 2288.
52.2332 52.2201 2287(48) 0.000439 1898. 2376.
52.2369 52.2238 2369(49) 0.000424 1898. 2507.
52.2407 52.2276 2499(50) 0.000405 1898. 2697.
52.2444 52.2313 2678(52) 0.000371 1898. 2940.
52.2482 52.2351 2935(54) 0.0003370 1898. 3248.
52.2520 52.2389 3359(58) 0.0002958 1898. 3608.
52.2557 52.2426 3806(62) 0.0002601 1898. 3987.
52.2595 52.2464 4496(68) 0.0002186 1898. 4372.
52.2632 52.2501 4840(70) 0.0002031 1898. 4700.
52.2670 52.2539 5310(74) 0.0001841 1898. 4934.
52.2707 52.2576 5156(72) 0.0001923 1898. 5019.
52.2745 52.2614 4846(70) 0.0002057 1898. 4941.
52.2783 52.2652 4402(66) 0.0002280 1898. 4718.
52.2820 52.2689 4114(64) 0.0002432 1898. 4410.
52.2858 52.2727 3753(61) 0.0002671 1898. 4054.
52.2895 52.2764 3521(59) 0.0002825 1898. 3712.
52.2933 52.2802 3112(56) 0.0003233 1898. 3403.
52.2970 52.2839 3082(55) 0.0003357 1898. 3166.
52.3008 52.2877 2871(54) 0.0003480 1898. 3005.
52.3045 52.2914 2921(54) 0.0003371 1898. 2937.
52.3083 52.2952 2823(53) 0.000355 1898. 2964.
52.3121 52.2990 2965(54) 0.0003378 1898. 3088.
52.3158 52.3027 3111(56) 0.0003231 1898. 3300.
52.3196 52.3065 3400(58) 0.0002945 1898. 3600.
52.3233 52.3102 3824(62) 0.0002619 1898. 3958.
52.3271 52.3140 4589(68) 0.0002147 1897. 4368.
52.3308 52.3177 5183(72) 0.0001936 1897. 4771.
52.3346 52.3215 5937(77) 0.0001667 1897. 5139.
52.3384 52.3253 6233(79) 0.0001597 1897. 5403.
52.3421 52.3290 6270(80) 0.0001580 1897. 5510.
52.3459 52.3328 5766(76) 0.0001710 1897. 5445.
52.3496 52.3365 5511(75) 0.0001786 1897. 5233.
52.3534 52.3403 4925(70) 0.0002037 1897. 4918.
52.3571 52.3440 4455(67) 0.0002229 1897. 4578.
52.3609 52.3478 4017(63) 0.0002483 1897. 4245.
52.3647 52.3516 3820(62) 0.0002618 1897. 3965.
52.3684 52.3553 3611(61) 0.0002729 1897. 3759.
52.3722 52.3591 3773(62) 0.0002585 1897. 3618.
52.3759 52.3628 3562(60) 0.0002799 1897. 3533.
52.3797 52.3666 3515(58) 0.0002936 1897. 3476.
52.3834 52.3703 3509(59) 0.0002887 1897. 3419.
52.3872 52.3741 3369(58) 0.0002939 1897. 3333.
52.3909 52.3778 3051(55) 0.0003277 1897. 3212.
52.3947 52.3816 2984(55) 0.0003355 1897. 3056.
52.3985 52.3854 2684(51) 0.000385 1897. 2881.
52.4022 52.3891 2650(52) 0.000371 1897. 2710.
52.4060 52.3929 2435(49) 0.000411 1897. 2546.
52.4097 52.3966 2436(49) 0.000410 1897. 2408.
52.4135 52.4004 2285(48) 0.000430 1897. 2292.
52.4172 52.4041 2213(47) 0.000444 1897. 2205.
52.4210 52.4079 2131(46) 0.000481 1897. 2139.
52.4248 52.4117 2179(46) 0.000463 1897. 2093.
52.4285 52.4154 2010(45) 0.000499 1897. 2063.
52.4323 52.4192 2038(45) 0.000493 1896. 2042.
52.4360 52.4229 1981(45) 0.000498 1896. 2029.
52.4398 52.4267 2087(45) 0.000485 1896. 2021.
52.4435 52.4304 2086(46) 0.000468 1896. 2016.
52.4473 52.4342 1971(45) 0.000500 1896. 2013.
52.4510 52.4379 1988(44) 0.000509 1896. 2011.
52.4548 52.4417 2017(45) 0.000494 1896. 2010.
52.4586 52.4455 1994(45) 0.000502 1896. 2008.
52.4623 52.4492 1980(44) 0.000515 1896. 2006.
52.4661 52.4530 1903(43) 0.000541 1896. 2003.
52.4698 52.4567 1962(44) 0.000507 1896. 2000.
52.4736 52.4605 1910(44) 0.000518 1896. 1996.
52.4773 52.4642 2013(45) 0.000494 1896. 1993.
52.4811 52.4680 1929(44) 0.000509 1896. 1992.
52.4848 52.4717 1971(45) 0.000502 1896. 1994.
52.4886 52.4755 1820(43) 0.000549 1896. 2000.
52.4924 52.4793 2012(45) 0.000495 1896. 2014.
52.4961 52.4830 1879(43) 0.000547 1896. 2038.
52.4999 52.4868 1994(45) 0.000500 1896. 2076.
52.5036 52.4905 1929(44) 0.000512 1896. 2129.
52.5074 52.4943 2041(45) 0.000484 1896. 2201.
52.5111 52.4980 2069(46) 0.000478 1896. 2287.
52.5149 52.5018 2245(47) 0.000450 1896. 2387.
52.5186 52.5055 2418(50) 0.000407 1896. 2488.
52.5224 52.5093 2540(50) 0.000394 1896. 2581.
52.5262 52.5131 2525(50) 0.000396 1896. 2648.
52.5299 52.5168 2540(49) 0.000409 1896. 2676.
52.5337 52.5206 2488(50) 0.000403 1896. 2659.
52.5374 52.5243 2383(48) 0.000431 1896. 2602.
52.5412 52.5281 2301(48) 0.000429 1895. 2514.
52.5449 52.5318 2272(48) 0.000441 1895. 2416.
52.5487 52.5356 2184(47) 0.000456 1895. 2315.
52.5524 52.5393 2213(47) 0.000448 1895. 2226.
52.5562 52.5431 2193(47) 0.000459 1895. 2150.
52.5600 52.5469 2077(45) 0.000491 1895. 2093.
52.5637 52.5506 1998(45) 0.000502 1895. 2055.
52.5675 52.5544 1910(44) 0.000520 1895. 2033.
52.5712 52.5581 2030(44) 0.000506 1895. 2025.
52.5750 52.5619 2048(45) 0.000498 1895. 2030.
52.5787 52.5656 2017(44) 0.000508 1895. 2045.
52.5825 52.5694 2056(45) 0.000488 1895. 2074.
52.5862 52.5731 2010(45) 0.000487 1895. 2113.
52.5900 52.5769 2035(46) 0.000479 1895. 2166.
52.5938 52.5807 2124(46) 0.000469 1895. 2230.
52.5975 52.5844 2245(48) 0.000440 1895. 2302.
52.6013 52.5882 2182(47) 0.000459 1895. 2378.
52.6050 52.5919 2393(49) 0.000421 1895. 2450.
52.6088 52.5957 2384(49) 0.000410 1895. 2510.
52.6125 52.5994 2449(50) 0.000403 1895. 2545.
52.6163 52.6032 2478(50) 0.000402 1895. 2551.
52.6200 52.6069 2314(48) 0.000433 1895. 2526.
52.6238 52.6107 2222(47) 0.000452 1895. 2475.
52.6275 52.6144 2261(48) 0.000434 1895. 2411.
52.6313 52.6182 2169(47) 0.000460 1895. 2339.
52.6351 52.6220 2190(47) 0.000459 1895. 2271.
52.6388 52.6257 2138(46) 0.000471 1895. 2214.
52.6426 52.6295 2137(47) 0.000459 1895. 2170.
52.6463 52.6332 1997(44) 0.000506 1895. 2145.
52.6501 52.6370 2120(46) 0.000468 1894. 2139.
52.6538 52.6407 2010(45) 0.000498 1894. 2158.
52.6576 52.6445 2069(46) 0.000473 1894. 2205.
52.6613 52.6482 2149(47) 0.000462 1894. 2283.
52.6651 52.6520 2228(47) 0.000452 1894. 2401.
52.6689 52.6558 2336(49) 0.000423 1894. 2560.
52.6726 52.6595 2549(50) 0.000394 1894. 2751.
52.6764 52.6633 2644(51) 0.000379 1894. 2977.
52.6801 52.6670 3117(56) 0.0003176 1894. 3213.
52.6839 52.6708 3349(58) 0.0003018 1894. 3447.
52.6876 52.6745 3653(60) 0.0002749 1894. 3637.
52.6914 52.6783 3588(61) 0.0002729 1894. 3761.
52.6951 52.6820 3660(61) 0.0002729 1894. 3785.
52.6989 52.6858 3278(57) 0.0003044 1894. 3706.
52.7026 52.6895 3225(57) 0.0003055 1894. 3545.
52.7064 52.6933 2988(55) 0.0003315 1894. 3324.
52.7102 52.6971 2848(53) 0.0003506 1894. 3082.
52.7139 52.7008 2548(51) 0.000385 1894. 2851.
52.7177 52.7046 2493(51) 0.000390 1894. 2637.
52.7214 52.7083 2397(49) 0.000424 1894. 2462.
52.7252 52.7121 2397(49) 0.000416 1894. 2320.
52.7289 52.7158 2190(47) 0.000460 1894. 2217.
52.7327 52.7196 2188(47) 0.000459 1894. 2143.
52.7364 52.7233 2140(46) 0.000463 1894. 2095.
52.7402 52.7271 2120(46) 0.000476 1894. 2066.
52.7439 52.7308 2058(45) 0.000485 1894. 2050.
52.7477 52.7346 2054(45) 0.000492 1894. 2044.
52.7515 52.7384 2073(46) 0.000478 1894. 2047.
52.7552 52.7421 2084(46) 0.000479 1894. 2056.
52.7590 52.7459 2096(46) 0.000471 1894. 2072.
52.7627 52.7496 2107(46) 0.000471 1893. 2096.
52.7665 52.7534 2099(46) 0.000474 1893. 2131.
52.7702 52.7571 2196(47) 0.000456 1893. 2177.
52.7740 52.7609 2240(48) 0.000440 1893. 2238.
52.7777 52.7646 2332(48) 0.000430 1893. 2315.
52.7815 52.7684 2295(48) 0.000427 1893. 2414.
52.7852 52.7721 2446(49) 0.000416 1893. 2530.
52.7890 52.7759 2584(51) 0.000385 1893. 2666.
52.7928 52.7797 2804(53) 0.000351 1893. 2811.
52.7965 52.7834 3089(56) 0.0003181 1893. 2950.
52.8003 52.7872 3258(57) 0.0003028 1893. 3071.
52.8040 52.7909 3199(57) 0.0003103 1893. 3149.
52.8078 52.7947 3278(57) 0.0003040 1893. 3171.
52.8103 52.7972 3037(55) 0.0003299 1893. 3148.
52.8141 52.8010 2919(54) 0.0003439 1893. 3065.
52.8178 52.8047 2825(53) 0.0003501 1893. 2940.
52.8216 52.8085 2615(51) 0.000386 1893. 2789.
52.8254 52.8123 2523(50) 0.000395 1893. 2632.
52.8291 52.8160 2337(48) 0.000429 1893. 2488.
52.8329 52.8198 2237(47) 0.000446 1893. 2357.
52.8366 52.8235 2182(47) 0.000455 1893. 2252.
52.8404 52.8273 2182(47) 0.000454 1893. 2166.
52.8441 52.8310 2109(46) 0.000479 1893. 2103.
52.8479 52.8348 2054(45) 0.000486 1893. 2056.
52.8516 52.8385 2023(45) 0.000495 1893. 2024.
52.8554 52.8423 1974(44) 0.000509 1893. 2001.
52.8592 52.8461 1975(45) 0.000501 1893. 1986.
52.8629 52.8498 2031(46) 0.000482 1893. 1976.
52.8667 52.8536 1994(45) 0.000502 1893. 1968.
52.8704 52.8573 2033(44) 0.000509 1893. 1963.
52.8742 52.8611 1824(42) 0.000557 1892. 1959.
52.8779 52.8648 2024(45) 0.000490 1892. 1956.
52.8817 52.8686 1954(44) 0.000513 1892. 1953.
52.8855 52.8724 1995(45) 0.000503 1892. 1951.
52.8892 52.8761 1936(43) 0.000535 1892. 1949.
52.8930 52.8799 1957(45) 0.000504 1892. 1948.
52.8967 52.8836 1892(43) 0.000529 1892. 1947.
52.9005 52.8874 1958(44) 0.000511 1892. 1946.
52.9042 52.8911 1850(43) 0.000532 1892. 1945.
52.9080 52.8949 1979(45) 0.000496 1892. 1945.
52.9117 52.8986 1842(42) 0.000557 1892. 1945.
52.9155 52.9024 1951(44) 0.000517 1892. 1945.
52.9193 52.9062 1877(43) 0.000534 1892. 1945.
52.9230 52.9099 1943(44) 0.000517 1892. 1945.
52.9268 52.9137 1849(43) 0.000534 1892. 1946.
52.9305 52.9174 1939(44) 0.000522 1892. 1946.
52.9343 52.9212 1901(44) 0.000514 1892. 1947.
52.9380 52.9249 1961(45) 0.000503 1892. 1948.
52.9418 52.9287 1883(43) 0.000537 1892. 1950.
52.9455 52.9324 1903(44) 0.000523 1892. 1951.
52.9493 52.9362 1973(44) 0.000507 1892. 1953.
52.9531 52.9400 1999(44) 0.000510 1892. 1955.
52.9568 52.9437 2017(44) 0.000510 1892. 1957.
52.9606 52.9475 1955(44) 0.000509 1892. 1960.
52.9643 52.9512 1945(44) 0.000509 1892. 1964.
52.9681 52.9550 2094(46) 0.000475 1892. 1968.
52.9718 52.9587 1986(45) 0.000495 1892. 1973.
52.9756 52.9625 1998(45) 0.000496 1892. 1978.
52.9794 52.9663 1943(44) 0.000514 1892. 1986.
52.9831 52.9700 2014(45) 0.000495 1892. 1995.
52.9869 52.9738 2023(44) 0.000508 1892. 2008.
52.9906 52.9775 1998(45) 0.000499 1891. 2026.
52.9944 52.9813 2025(45) 0.000488 1891. 2054.
52.9981 52.9850 2138(47) 0.000462 1891. 2096.
53.0019 52.9888 2160(47) 0.000457 1891. 2163.
53.0056 52.9925 2192(47) 0.000461 1891. 2259.
53.0094 52.9963 2234(48) 0.000440 1891. 2404.
53.0132 53.0001 2454(50) 0.000407 1891. 2603.
53.0169 53.0038 2498(50) 0.000400 1891. 2859.
53.0207 53.0076 3025(54) 0.0003428 1891. 3183.
53.0244 53.0113 3275(57) 0.0003056 1891. 3548.
53.0282 53.0151 3961(62) 0.0002582 1891. 3950.
53.0319 53.0188 4478(67) 0.0002195 1891. 4331.
53.0357 53.0226 5033(71) 0.0001981 1891. 4662.
53.0377 53.0246 5036(72) 0.0001930 1891. 4792.
53.0415 53.0284 5124(73) 0.0001870 1891. 4924.
53.0452 53.0321 4788(70) 0.0002014 1891. 4885.
53.0490 53.0359 4382(68) 0.0002188 1891. 4684.
53.0528 53.0397 3815(63) 0.0002559 1891. 4362.
53.0565 53.0434 3633(61) 0.0002678 1891. 3985.
53.0603 53.0472 3314(59) 0.0002851 1891. 3585.
53.0640 53.0509 2976(56) 0.0003190 1891. 3219.
53.0678 53.0547 2828(55) 0.0003311 1891. 2893.
53.0715 53.0584 2605(52) 0.000365 1891. 2635.
53.0753 53.0622 2458(50) 0.000396 1891. 2433.
53.0790 53.0659 2347(49) 0.000412 1891. 2291.
53.0828 53.0697 2261(49) 0.000419 1891. 2190.
53.0865 53.0734 2139(47) 0.000446 1891. 2126.
53.0903 53.0772 2232(48) 0.000428 1891. 2084.
53.0940 53.0809 2169(47) 0.000443 1891. 2059.
53.0978 53.0847 2112(47) 0.000449 1891. 2045.
53.1016 53.0885 2057(46) 0.000471 1891. 2038.
53.1053 53.0922 2085(46) 0.000468 1890. 2037.
53.1091 53.0960 2079(46) 0.000475 1890. 2041.
53.1128 53.0997 2014(45) 0.000488 1890. 2050.
53.1166 53.1035 2171(48) 0.000438 1890. 2064.
53.1203 53.1072 2132(47) 0.000453 1890. 2083.
53.1241 53.1110 2199(49) 0.000419 1890. 2110.
53.1278 53.1147 2155(48) 0.000439 1890. 2142.
53.1316 53.1185 2330(50) 0.000408 1890. 2181.
53.1353 53.1222 2251(49) 0.000418 1890. 2224.
53.1391 53.1260 2289(49) 0.000418 1890. 2272.
53.1429 53.1298 2328(49) 0.000413 1890. 2322.
53.1466 53.1335 2410(51) 0.000391 1890. 2371.
53.1504 53.1373 2429(51) 0.000391 1890. 2418.
53.1541 53.1410 2549(52) 0.000371 1890. 2453.
53.1579 53.1448 2414(50) 0.000399 1890. 2474.
53.1616 53.1485 2475(50) 0.000392 1890. 2474.
53.1654 53.1523 2382(50) 0.000402 1890. 2451.
53.1691 53.1560 2311(49) 0.000418 1890. 2413.
53.1729 53.1598 2350(50) 0.000400 1890. 2364.
53.1767 53.1636 2229(48) 0.000427 1890. 2312.
53.1804 53.1673 2377(50) 0.000403 1890. 2264.
53.1842 53.1711 2202(48) 0.000435 1890. 2223.
53.1879 53.1748 2131(46) 0.000467 1890. 2194.
53.1917 53.1786 2264(49) 0.000414 1890. 2176.
53.1954 53.1823 2224(48) 0.000426 1890. 2172.
53.1992 53.1861 2282(49) 0.000423 1890. 2183.
53.2029 53.1898 2318(50) 0.000401 1890. 2211.
53.2067 53.1936 2272(49) 0.000412 1890. 2265.
53.2104 53.1973 2368(50) 0.000396 1890. 2346.
53.2142 53.2011 2552(52) 0.000366 1890. 2471.
53.2180 53.2049 2528(52) 0.000371 1890. 2649.
53.2217 53.2086 2718(53) 0.000351 1890. 2883.
53.2255 53.2124 2853(55) 0.0003360 1889. 3192.
53.2292 53.2161 3356(59) 0.0002874 1889. 3558.
53.2330 53.2199 3800(63) 0.0002537 1889. 3994.
53.2367 53.2236 4700(70) 0.0002055 1889. 4456.
53.2405 53.2274 5333(76) 0.0001740 1889. 4938.
53.2442 53.2311 5816(78) 0.0001629 1889. 5378.
53.2480 53.2349 6049(81) 0.0001539 1889. 5759.
53.2518 53.2387 6012(80) 0.0001555 1889. 6046.
53.2555 53.2424 5760(78) 0.0001629 1889. 6245.
53.2593 53.2462 5814(78) 0.0001664 1889. 6407.
53.2630 53.2499 6036(79) 0.0001593 1889. 6571.
53.2668 53.2537 6403(82) 0.0001497 1889. 6777.
53.2705 53.2574 7114(88) 0.0001290 1889. 7018.
53.2743 53.2612 7756(91) 0.0001215 1889. 7277.
53.2780 53.2649 7938(93) 0.0001151 1889. 7483.
53.2818 53.2687 7990(92) 0.0001176 1889. 7572.
53.2856 53.2725 7677(91) 0.0001205 1889. 7476.
53.2893 53.2762 7351(89) 0.0001272 1889. 7185.
53.2931 53.2800 6501(83) 0.0001447 1889. 6708.
53.2968 53.2837 5807(79) 0.0001587 1889. 6123.
53.3006 53.2875 4865(72) 0.0001904 1889. 5467.
53.3043 53.2912 4576(70) 0.0002061 1889. 4834.
53.3081 53.2950 3978(66) 0.0002296 1889. 4239.
53.3118 53.2987 3704(62) 0.0002575 1889. 3743.
53.3156 53.3025 3337(61) 0.0002729 1889. 3335.
53.3194 53.3063 3111(57) 0.0003044 1889. 3031.
53.3231 53.3100 2862(55) 0.0003284 1889. 2830.
53.3269 53.3138 2866(56) 0.0003221 1889. 2710.
53.3306 53.3175 2752(54) 0.0003438 1889. 2668.
53.3344 53.3213 2764(54) 0.0003390 1889. 2693.
53.3381 53.3250 2658(53) 0.000353 1889. 2777.
53.3419 53.3288 2953(56) 0.0003133 1889. 2921.
53.3456 53.3325 2985(56) 0.0003202 1888. 3113.
53.3494 53.3363 3512(61) 0.0002663 1888. 3357.
53.3532 53.3401 3893(65) 0.0002371 1888. 3639.
53.3569 53.3438 4382(68) 0.0002137 1888. 3938.
53.3607 53.3476 4695(70) 0.0002017 1888. 4252.
53.3644 53.3513 5172(74) 0.0001808 1888. 4543.
53.3682 53.3551 4963(74) 0.0001827 1888. 4809.
53.3719 53.3588 4991(71) 0.0001958 1888. 5033.
53.3757 53.3626 4957(72) 0.0001913 1888. 5239.
53.3794 53.3663 5325(75) 0.0001781 1888. 5443.
53.3832 53.3701 5683(78) 0.0001651 1888. 5674.
53.3870 53.3739 6327(83) 0.0001458 1888. 5929.
53.3907 53.3776 7143(89) 0.0001269 1888. 6179.
53.3945 53.3814 7835(91) 0.0001209 1888. 6392.
53.3982 53.3851 7738(91) 0.0001212 1888. 6497.
53.4020 53.3889 7618(91) 0.0001204 1888. 6444.
53.4057 53.3926 6972(86) 0.0001365 1888. 6212.
53.4095 53.3964 6417(83) 0.0001455 1888. 5812.
53.4132 53.4001 5510(76) 0.0001710 1888. 5319.
53.4170 53.4039 4827(72) 0.0001910 1888. 4768.
53.4208 53.4077 4231(67) 0.0002204 1888. 4226.
53.4245 53.4114 3939(64) 0.0002408 1888. 3743.
53.4283 53.4152 3429(60) 0.0002820 1888. 3316.
53.4320 53.4189 3234(59) 0.0002916 1888. 2978.
53.4358 53.4227 2985(57) 0.0003105 1888. 2709.
53.4395 53.4264 2814(55) 0.0003355 1888. 2515.
53.4433 53.4302 2664(53) 0.000353 1888. 2373.
53.4471 53.4340 2506(51) 0.000385 1888. 2275.
53.4508 53.4377 2313(50) 0.000402 1888. 2210.
53.4546 53.4415 2255(49) 0.000418 1888. 2164.
53.4583 53.4452 2228(48) 0.000426 1888. 2133.
53.4621 53.4490 2276(49) 0.000415 1888. 2110.
53.4658 53.4527 2248(48) 0.000431 1887. 2094.
53.4696 53.4565 2178(47) 0.000451 1887. 2081.
53.4846 53.4715 2100(46) 0.000475 1887. 2052.
53.4884 53.4753 2077(47) 0.000456 1887. 2049.
53.4921 53.4790 2189(47) 0.000444 1887. 2046.
53.4996 53.4865 2134(47) 0.000461 1887. 2045.
53.5034 53.4903 2172(48) 0.000442 1887. 2046.
53.5072 53.4941 2209(48) 0.000435 1887. 2048.
53.5109 53.4978 2043(46) 0.000479 1887. 2052.
53.5184 53.5053 2154(47) 0.000456 1887. 2064.
53.5222 53.5091 2123(46) 0.000464 1887. 2075.
53.5259 53.5128 2066(46) 0.000465 1887. 2090.
53.5297 53.5166 2154(47) 0.000451 1887. 2112.
53.5334 53.5203 2191(48) 0.000438 1887. 2143.
53.5372 53.5241 2188(48) 0.000435 1887. 2189.
53.5410 53.5279 2263(48) 0.000427 1887. 2257.
53.5447 53.5316 2476(50) 0.000393 1887. 2351.
53.5485 53.5354 2414(50) 0.000392 1887. 2487.
53.5522 53.5391 2561(51) 0.000384 1887. 2664.
53.5560 53.5429 2725(53) 0.0003496 1887. 2899.
53.5597 53.5466 2977(56) 0.0003221 1887. 3182.
53.5635 53.5504 3214(57) 0.0003072 1887. 3524.
53.5673 53.5542 3903(64) 0.0002475 1887. 3904.
53.5710 53.5579 4357(68) 0.0002157 1887. 4288.
53.5748 53.5617 5150(73) 0.0001885 1887. 4661.
53.5785 53.5654 5434(76) 0.0001743 1887. 4960.
53.5823 53.5692 5740(77) 0.0001666 1887. 5149.
53.5860 53.5729 5556(75) 0.0001756 1887. 5184.
53.5898 53.5767 5229(74) 0.0001815 1886. 5056.
53.5936 53.5805 4630(69) 0.0002087 1886. 4792.
53.5973 53.5842 4297(67) 0.0002230 1886. 4449.
53.6011 53.5880 3813(64) 0.0002451 1886. 4059.
53.6048 53.5917 3466(60) 0.0002764 1886. 3680.
53.6086 53.5955 3213(58) 0.0002956 1886. 3321.
53.6123 53.5992 3038(56) 0.0003150 1886. 3018.
53.6161 53.6030 2616(52) 0.000364 1886. 2762.
53.6199 53.6068 2638(53) 0.000357 1886. 2563.
53.6236 53.6105 2405(51) 0.000391 1886. 2417.
53.6274 53.6143 2397(49) 0.000410 1886. 2311.
53.6311 53.6180 2326(49) 0.000412 1886. 2240.
53.6349 53.6218 2258(49) 0.000415 1886. 2194.
53.6386 53.6255 2289(49) 0.000414 1886. 2169.
53.6424 53.6293 2338(49) 0.000408 1886. 2160.
53.6462 53.6331 2331(49) 0.000416 1886. 2168.
53.6499 53.6368 2275(49) 0.000425 1886. 2192.
53.6537 53.6406 2325(49) 0.000416 1886. 2240.
53.6574 53.6443 2422(50) 0.000393 1886. 2314.
53.6612 53.6481 2333(49) 0.000412 1886. 2426.
53.6649 53.6518 2526(52) 0.000375 1886. 2579.
53.6687 53.6556 2717(54) 0.0003491 1886. 2784.
53.6725 53.6594 2979(56) 0.0003136 1886. 3037.
53.6762 53.6631 3285(59) 0.0002838 1886. 3324.
53.6800 53.6669 3933(65) 0.0002392 1886. 3642.
53.6837 53.6706 4337(67) 0.0002201 1886. 3946.
53.6875 53.6744 4996(72) 0.0001930 1886. 4215.
53.6912 53.6781 5330(75) 0.0001776 1886. 4396.
53.6950 53.6819 5083(74) 0.0001841 1886. 4459.
53.6988 53.6857 4524(68) 0.0002180 1886. 4383.
53.7025 53.6894 4505(69) 0.0002113 1886. 4193.
53.7063 53.6932 3854(64) 0.0002463 1886. 3913.
53.7100 53.6969 3654(61) 0.0002648 1886. 3600.
53.7138 53.7007 3265(59) 0.0002870 1885. 3276.
53.7175 53.7044 3099(57) 0.0003026 1885. 2983.
53.7213 53.7082 2713(54) 0.0003446 1885. 2722.
53.7251 53.7120 2596(52) 0.000368 1885. 2510.
53.7288 53.7157 2426(50) 0.000394 1885. 2350.
53.7326 53.7195 2397(50) 0.000405 1885. 2230.
53.7363 53.7232 2169(47) 0.000445 1885. 2147.
53.7401 53.7270 2230(49) 0.000421 1885. 2088.
53.7438 53.7307 2098(47) 0.000448 1885. 2050.
53.7476 53.7345 2144(47) 0.000450 1885. 2023.
53.7514 53.7383 2073(47) 0.000458 1885. 2005.
53.7551 53.7420 1990(45) 0.000485 1885. 1992.
53.7589 53.7458 2022(46) 0.000465 1885. 1982.
53.7626 53.7495 2083(47) 0.000462 1885. 1975.
53.7664 53.7533 1956(45) 0.000486 1885. 1969.
53.7701 53.7570 2029(46) 0.000465 1885. 1964.
53.7739 53.7608 1899(45) 0.000499 1885. 1959.
53.7777 53.7646 1967(45) 0.000488 1885. 1955.
53.7814 53.7683 2014(46) 0.000469 1885. 1952.
53.7852 53.7721 1974(45) 0.000487 1885. 1949.
53.7889 53.7758 1939(46) 0.000470 1885. 1946.
53.7927 53.7796 2015(46) 0.000480 1885. 1943.
53.7964 53.7833 1910(45) 0.000498 1885. 1941.
53.8002 53.7871 1957(45) 0.000489 1885. 1939.
53.8040 53.7909 2002(46) 0.000463 1885. 1938.
53.8077 53.7946 2076(47) 0.000450 1885. 1936.
53.8115 53.7984 1914(44) 0.000517 1885. 1935.
53.8152 53.8021 1968(45) 0.000484 1885. 1934.
53.8190 53.8059 1869(44) 0.000509 1885. 1933.
53.8227 53.8096 1982(45) 0.000485 1885. 1932.
53.8265 53.8134 1967(46) 0.000477 1885. 1931.
53.8303 53.8172 1934(45) 0.000496 1885. 1930.
53.8340 53.8209 1984(46) 0.000478 1885. 1930.
53.8378 53.8247 2004(46) 0.000481 1884. 1930.
53.8415 53.8284 1959(46) 0.000482 1884. 1930.
53.8453 53.8322 1955(46) 0.000482 1884. 1930.
53.8491 53.8360 1905(45) 0.000499 1884. 1931.
53.8528 53.8397 1986(46) 0.000477 1884. 1933.
53.8566 53.8435 2036(46) 0.000468 1884. 1935.
53.8603 53.8472 1963(46) 0.000482 1884. 1939.
53.8641 53.8510 1951(45) 0.000484 1884. 1944.
53.8678 53.8547 2019(46) 0.000474 1884. 1950.
53.8716 53.8585 1956(46) 0.000481 1884. 1957.
53.8754 53.8623 2046(46) 0.000467 1884. 1965.
53.8791 53.8660 1927(45) 0.000485 1884. 1972.
53.8829 53.8698 2141(48) 0.000441 1884. 1979.
53.8866 53.8735 2021(46) 0.000466 1884. 1984.
53.8904 53.8773 2189(48) 0.000435 1884. 1986.
53.8941 53.8810 1972(46) 0.000481 1884. 1984.
53.8979 53.8848 2089(47) 0.000447 1884. 1980.
53.9017 53.8886 2047(46) 0.000467 1884. 1974.
53.9054 53.8923 1995(46) 0.000470 1884. 1968.
53.9092 53.8961 1957(45) 0.000491 1884. 1962.
53.9129 53.8998 2027(46) 0.000464 1884. 1956.
53.9167 53.9036 1893(45) 0.000491 1884. 1952.
53.9205 53.9074 2022(46) 0.000467 1884. 1949.
53.9242 53.9111 2020(46) 0.000473 1884. 1947.
53.9280 53.9149 2025(47) 0.000461 1884. 1947.
53.9317 53.9186 1894(45) 0.000495 1884. 1948.
53.9355 53.9224 1978(46) 0.000479 1884. 1949.
53.9392 53.9261 1896(45) 0.000504 1884. 1952.
53.9430 53.9299 2012(46) 0.000475 1884. 1955.
53.9468 53.9337 1971(45) 0.000486 1884. 1958.
53.9505 53.9374 1993(46) 0.000474 1884. 1963.
53.9543 53.9412 1959(45) 0.000486 1884. 1968.
53.9580 53.9449 2043(46) 0.000470 1884. 1974.
53.9618 53.9487 1971(46) 0.000479 1884. 1981.
53.9656 53.9525 2015(46) 0.000470 1883. 1990.
53.9693 53.9562 2044(47) 0.000454 1883. 2001.
53.9731 53.9600 1999(46) 0.000465 1883. 2016.
53.9768 53.9637 2040(47) 0.000459 1883. 2037.
53.9806 53.9675 2048(46) 0.000479 1883. 2067.
53.9843 53.9712 2057(46) 0.000480 1883. 2109.
53.9881 53.9750 2175(47) 0.000459 1883. 2171.
53.9919 53.9788 2184(47) 0.000451 1883. 2260.
53.9956 53.9825 2295(48) 0.000428 1883. 2381.
53.9994 53.9863 2396(49) 0.000413 1883. 2548.
54.0031 53.9900 2536(51) 0.000391 1883. 2760.
54.0069 53.9938 2838(53) 0.000351 1883. 3034.
54.0107 53.9976 3192(57) 0.0003088 1883. 3364.
54.0144 54.0013 3617(61) 0.0002713 1883. 3730.
54.0182 54.0051 4068(65) 0.0002395 1883. 4132.
54.0219 54.0088 4492(68) 0.0002184 1883. 4523.
54.0257 54.0126 4884(70) 0.0002041 1883. 4885.
54.0294 54.0163 5311(74) 0.0001818 1883. 5163.
54.0332 54.0201 5502(75) 0.0001788 1883. 5341.
54.0370 54.0239 5350(75) 0.0001794 1883. 5387.
54.0407 54.0276 5084(72) 0.0001908 1883. 5294.
54.0445 54.0314 4846(70) 0.0002027 1883. 5062.
54.0482 54.0351 4659(69) 0.0002124 1883. 4730.
54.0520 54.0389 4081(65) 0.0002372 1883. 4325.
54.0558 54.0427 3729(61) 0.0002660 1883. 3902.
54.0595 54.0464 3263(58) 0.0002988 1883. 3507.
54.0633 54.0502 3070(56) 0.0003228 1883. 3145.
54.0670 54.0539 2807(53) 0.0003503 1883. 2849.
54.0708 54.0577 2711(52) 0.000368 1883. 2607.
54.0745 54.0614 2528(51) 0.000391 1883. 2428.
54.0783 54.0652 2436(50) 0.000407 1883. 2297.
54.0821 54.0690 2277(48) 0.000433 1883. 2210.
54.0858 54.0727 2223(48) 0.000439 1883. 2158.
54.0896 54.0765 2135(47) 0.000459 1883. 2132.
54.0933 54.0802 2156(46) 0.000463 1882. 2128.
54.0971 54.0840 2153(47) 0.000455 1882. 2141.
54.1009 54.0878 2161(47) 0.000460 1882. 2169.
54.1046 54.0915 2147(47) 0.000454 1882. 2207.
54.1084 54.0953 2277(47) 0.000450 1882. 2254.
54.1121 54.0990 2287(48) 0.000437 1882. 2302.
54.1159 54.1028 2399(49) 0.000409 1882. 2347.
54.1196 54.1065 2369(49) 0.000414 1882. 2379.
54.1234 54.1103 2370(48) 0.000425 1882. 2394.
54.1272 54.1141 2291(48) 0.000435 1882. 2385.
54.1309 54.1178 2283(48) 0.000433 1882. 2356.
54.1347 54.1216 2293(48) 0.000434 1882. 2309.
54.1384 54.1253 2163(47) 0.000461 1882. 2255.
54.1422 54.1291 2105(46) 0.000474 1882. 2198.
54.1460 54.1329 2059(46) 0.000474 1882. 2144.
54.1497 54.1366 1993(45) 0.000503 1882. 2099.
54.1535 54.1404 2055(46) 0.000480 1882. 2061.
54.1572 54.1441 2065(46) 0.000466 1882. 2033.
54.1610 54.1479 2083(46) 0.000477 1882. 2012.
54.1648 54.1517 2047(45) 0.000486 1882. 1998.
54.1685 54.1554 2123(46) 0.000465 1882. 1989.
54.1723 54.1592 2043(45) 0.000490 1882. 1982.
54.1760 54.1629 2065(46) 0.000480 1882. 1977.
54.1798 54.1667 1948(45) 0.000505 1882. 1972.
54.1835 54.1704 2119(46) 0.000467 1882. 1968.
54.1873 54.1742 2064(45) 0.000486 1882. 1964.
54.1911 54.1780 2013(45) 0.000496 1882. 1962.
54.1948 54.1817 1954(45) 0.000501 1882. 1962.
54.1986 54.1855 2038(45) 0.000486 1882. 1964.
54.2023 54.1892 1882(44) 0.000525 1882. 1969.
54.2061 54.1930 1939(44) 0.000520 1882. 1977.
54.2099 54.1968 1972(45) 0.000495 1882. 1989.
54.2136 54.2005 1978(44) 0.000506 1882. 2004.
54.2174 54.2043 1985(45) 0.000493 1882. 2022.
54.2211 54.2080 2091(46) 0.000471 1882. 2042.
54.2249 54.2118 1993(45) 0.000504 1881. 2063.
54.2287 54.2156 1927(44) 0.000517 1881. 2081.
54.2324 54.2193 2051(46) 0.000480 1881. 2094.
54.2362 54.2231 2145(47) 0.000452 1881. 2101.
54.2399 54.2268 2019(45) 0.000486 1881. 2099.
54.2437 54.2306 2102(46) 0.000474 1881. 2089.
54.2475 54.2344 2009(45) 0.000493 1881. 2074.
54.2512 54.2381 1968(45) 0.000504 1881. 2056.
54.2550 54.2419 1986(44) 0.000508 1881. 2037.
54.2587 54.2456 1994(45) 0.000492 1881. 2019.
54.2625 54.2494 2077(46) 0.000467 1881. 2003.
54.2662 54.2531 1986(44) 0.000506 1881. 1991.
54.2700 54.2569 1936(45) 0.000503 1881. 1981.
54.2738 54.2607 1974(45) 0.000504 1881. 1975.
54.2775 54.2644 1983(45) 0.000498 1881. 1971.
54.2813 54.2682 2006(45) 0.000491 1881. 1970.
54.2850 54.2719 1986(45) 0.000498 1881. 1970.
54.2888 54.2757 1871(43) 0.000529 1881. 1972.
54.2926 54.2795 1955(44) 0.000511 1881. 1976.
54.2963 54.2832 2019(45) 0.000484 1881. 1980.
54.3001 54.2870 1937(44) 0.000521 1881. 1986.
54.3038 54.2907 2068(45) 0.000483 1881. 1993.
54.3076 54.2945 2045(46) 0.000479 1881. 2002.
54.3114 54.2983 2124(46) 0.000470 1881. 2014.
54.3151 54.3020 2059(46) 0.000480 1881. 2030.
54.3189 54.3058 2148(47) 0.000461 1881. 2053.
54.3226 54.3095 2133(46) 0.000468 1881. 2086.
54.3264 54.3133 2279(48) 0.000432 1881. 2135.
54.3302 54.3171 2190(47) 0.000450 1881. 2206.
54.3339 54.3208 2213(47) 0.000443 1881. 2304.
54.3377 54.3246 2332(48) 0.000426 1881. 2440.
54.3414 54.3283 2460(50) 0.000401 1881. 2613.
54.3452 54.3321 2654(52) 0.000371 1881. 2833.
54.3490 54.3359 2949(54) 0.0003367 1881. 3092.
54.3527 54.3396 3301(58) 0.0002969 1881. 3373.
54.3565 54.3434 3810(62) 0.0002600 1880. 3672.
54.3602 54.3471 4193(66) 0.0002306 1880. 3951.
54.3640 54.3509 4418(67) 0.0002215 1880. 4196.
54.3677 54.3546 4428(67) 0.0002209 1880. 4371.
54.3715 54.3584 4356(66) 0.0002300 1880. 4472.
54.3753 54.3622 4212(65) 0.0002378 1880. 4505.
54.3790 54.3659 4281(66) 0.0002293 1880. 4498.
54.3828 54.3697 4127(65) 0.0002378 1880. 4482.
54.3865 54.3734 4548(68) 0.0002166 1880. 4478.
54.3903 54.3772 4531(68) 0.0002132 1880. 4494.
54.3941 54.3810 4804(70) 0.0002067 1880. 4523.
54.3978 54.3847 4731(69) 0.0002085 1880. 4549.
54.4016 54.3885 4703(69) 0.0002080 1880. 4554.
54.4053 54.3922 4407(66) 0.0002280 1880. 4527.
54.4091 54.3960 4323(66) 0.0002303 1880. 4478.
54.4129 54.3998 4051(64) 0.0002422 1880. 4428.
54.4166 54.4035 4176(65) 0.0002375 1880. 4402.
54.4204 54.4073 4111(64) 0.0002437 1880. 4413.
54.4241 54.4110 4467(67) 0.0002228 1880. 4465.
54.4279 54.4148 4742(69) 0.0002091 1880. 4546.
54.4317 54.4186 4948(71) 0.0002009 1880. 4630.
54.4354 54.4223 5084(72) 0.0001951 1880. 4680.
54.4392 54.4261 5169(72) 0.0001913 1880. 4660.
54.4429 54.4298 4661(69) 0.0002123 1880. 4551.
54.4467 54.4336 4387(66) 0.0002270 1880. 4349.
54.4505 54.4374 3978(64) 0.0002428 1880. 4082.
54.4542 54.4411 3583(60) 0.0002740 1880. 3792.
54.4580 54.4449 3316(58) 0.0002991 1880. 3495.
54.4617 54.4486 3036(55) 0.0003293 1880. 3231.
54.4655 54.4524 2848(53) 0.0003495 1880. 3005.
54.4693 54.4562 2777(53) 0.000360 1880. 2837.
54.4730 54.4599 2592(51) 0.000391 1880. 2734.
54.4768 54.4637 2564(51) 0.000391 1880. 2693.
54.4805 54.4674 2623(51) 0.000382 1880. 2711.
54.4843 54.4712 2780(53) 0.000355 1879. 2778.
54.4881 54.4750 2865(54) 0.0003481 1879. 2882.
54.4918 54.4787 3073(55) 0.0003295 1879. 3001.
54.4956 54.4825 3082(55) 0.0003280 1879. 3120.
54.4993 54.4862 3223(57) 0.0003091 1879. 3209.
54.5031 54.4900 3255(57) 0.0003028 1879. 3252.
54.5068 54.4937 3283(57) 0.0003025 1879. 3233.
54.5106 54.4975 2977(54) 0.0003377 1879. 3151.
54.5144 54.5013 2859(53) 0.000354 1879. 3022.
54.5181 54.5050 2653(51) 0.000378 1879. 2869.
54.5219 54.5088 2583(51) 0.000386 1879. 2703.
54.5256 54.5125 2356(49) 0.000419 1879. 2548.
54.5294 54.5163 2391(49) 0.000419 1879. 2406.
54.5332 54.5201 2287(48) 0.000443 1879. 2287.
54.5369 54.5238 2119(45) 0.000491 1879. 2195.
54.5407 54.5276 2149(46) 0.000466 1879. 2124.
54.5444 54.5313 2054(45) 0.000486 1879. 2073.
54.5482 54.5351 2031(45) 0.000497 1879. 2036.
54.5520 54.5389 2005(44) 0.000513 1879. 2011.
54.5557 54.5426 2011(45) 0.000500 1879. 1995.
54.5595 54.5464 2048(45) 0.000490 1879. 1983.
54.5632 54.5501 2017(45) 0.000497 1879. 1975.
54.5670 54.5539 2129(46) 0.000475 1879. 1969.
54.5708 54.5577 1894(43) 0.000538 1879. 1964.
54.5745 54.5614 1924(44) 0.000520 1879. 1961.
54.5783 54.5652 1961(44) 0.000509 1879. 1958.
54.5820 54.5689 1958(44) 0.000513 1879. 1956.
54.5858 54.5727 1949(44) 0.000511 1879. 1955.
54.5896 54.5765 1966(45) 0.000503 1879. 1953.
54.5933 54.5802 1950(44) 0.000512 1879. 1953.
54.5971 54.5840 1922(44) 0.000524 1879. 1952.
54.6008 54.5877 1911(44) 0.000523 1879. 1952.
54.6046 54.5915 2005(45) 0.000492 1879. 1953.
54.6084 54.5953 1901(44) 0.000523 1879. 1953.
54.6121 54.5990 1895(44) 0.000526 1879. 1954.
54.6159 54.6028 1934(44) 0.000516 1879. 1956.
54.6196 54.6065 1955(44) 0.000511 1878. 1959.
54.6234 54.6103 1885(43) 0.000539 1878. 1963.
54.6272 54.6141 2055(45) 0.000484 1878. 1969.
54.6309 54.6178 1898(44) 0.000528 1878. 1975.
54.6347 54.6216 1994(45) 0.000505 1878. 1982.
54.6384 54.6253 2001(45) 0.000502 1878. 1990.
54.6422 54.6291 1983(45) 0.000504 1878. 1998.
54.6460 54.6329 1958(44) 0.000511 1878. 2005.
54.6497 54.6366 2038(45) 0.000494 1878. 2012.
54.6535 54.6404 2012(45) 0.000496 1878. 2018.
54.6572 54.6441 2033(44) 0.000522 1878. 2026.
54.6610 54.6479 1994(45) 0.000500 1878. 2036.
54.6648 54.6517 2070(46) 0.000481 1878. 2049.
54.6685 54.6554 1980(44) 0.000509 1878. 2064.
54.6723 54.6592 2102(45) 0.000487 1878. 2081.
54.6760 54.6629 2027(45) 0.000491 1878. 2099.
54.6798 54.6667 2105(46) 0.000470 1878. 2114.
54.6836 54.6705 2072(46) 0.000480 1878. 2125.
54.6873 54.6742 2128(46) 0.000473 1878. 2130.
54.6911 54.6780 2041(45) 0.000493 1878. 2129.
54.6948 54.6817 2081(46) 0.000483 1878. 2123.
54.6986 54.6855 2103(46) 0.000469 1878. 2116.
54.7024 54.6893 2081(45) 0.000486 1878. 2112.
54.7061 54.6930 1995(45) 0.000491 1878. 2117.
54.7099 54.6968 2108(46) 0.000472 1878. 2135.
54.7136 54.7005 2158(46) 0.000464 1878. 2171.
54.7174 54.7043 2235(47) 0.000449 1878. 2236.
54.7212 54.7081 2244(47) 0.000447 1878. 2336.
54.7249 54.7118 2325(49) 0.000425 1878. 2473.
54.7287 54.7156 2539(51) 0.000390 1878. 2660.
54.7324 54.7193 2755(49) 0.000409 1878. 2887.
54.7362 54.7231 3024(55) 0.0003296 1878. 3163.
54.7400 54.7269 3684(61) 0.0002679 1878. 3470.
54.7437 54.7306 3889(62) 0.0002566 1878. 3785.
54.7475 54.7344 4430(66) 0.0002279 1878. 4103.
54.7550 54.7419 4699(68) 0.0002194 1877. 4625.
54.7663 54.7532 4755(69) 0.0002085 1877. 5124.
54.7700 54.7569 5294(73) 0.0001867 1877. 5278.
54.7738 54.7607 5687(76) 0.0001728 1877. 5442.
54.7776 54.7645 6189(80) 0.0001577 1877. 5589.
54.7813 54.7682 6221(80) 0.0001579 1877. 5678.
54.7851 54.7720 6248(79) 0.0001595 1877. 5667.
54.7888 54.7757 5644(75) 0.0001763 1877. 5525.
54.7926 54.7795 5265(72) 0.0001908 1877. 5241.
54.8001 54.7870 4190(65) 0.0002399 1877. 4413.
54.8039 54.7908 3712(61) 0.0002666 1877. 3951.
54.8076 54.7945 3418(58) 0.0002922 1877. 3526.
54.8114 54.7983 2998(55) 0.0003323 1877. 3142.
54.8189 54.8058 2753(53) 0.000361 1877. 2580.
54.8227 54.8096 2597(51) 0.000387 1877. 2395.
54.8264 54.8133 2352(49) 0.000421 1877. 2267.
54.8302 54.8171 2405(50) 0.000407 1877. 2177.
54.8340 54.8209 2279(48) 0.000434 1877. 2118.
54.8377 54.8246 2207(47) 0.000452 1877. 2081.
54.8415 54.8284 2180(47) 0.000456 1877. 2057.
54.8490 54.8359 2102(46) 0.000479 1877. 2034.
54.8528 54.8397 2152(46) 0.000463 1877. 2029.
54.8565 54.8434 1994(45) 0.000503 1877. 2029.
54.8603 54.8472 2213(46) 0.000467 1877. 2031.
54.8641 54.8510 2043(45) 0.000500 1877. 2036.
54.8678 54.8547 2006(45) 0.000490 1877. 2044.
54.8716 54.8585 2126(47) 0.000458 1877. 2054.
54.8753 54.8622 2191(47) 0.000450 1877. 2065.
54.8791 54.8660 2200(47) 0.000457 1877. 2077.
54.8829 54.8698 2220(47) 0.000446 1876. 2089.
54.8866 54.8735 2188(47) 0.000460 1876. 2101.
54.8904 54.8773 2145(46) 0.000473 1876. 2112.
54.8941 54.8810 2265(47) 0.000444 1876. 2126.
54.8979 54.8848 2264(47) 0.000448 1876. 2145.
54.9017 54.8886 2221(48) 0.000437 1876. 2178.
54.9054 54.8923 2195(49) 0.000416 1876. 2230.
54.9092 54.8961 2359(49) 0.000410 1876. 2315.
54.9129 54.8998 2451(50) 0.000406 1876. 2441.
54.9167 54.9036 2574(51) 0.000377 1876. 2625.
54.9205 54.9074 2733(53) 0.000360 1876. 2874.
54.9242 54.9111 2997(55) 0.0003292 1876. 3180.
54.9280 54.9149 3701(61) 0.0002647 1876. 3554.
54.9317 54.9186 4051(65) 0.0002403 1876. 3955.
54.9355 54.9224 5004(71) 0.0001966 1876. 4374.
54.9393 54.9262 5482(76) 0.0001721 1876. 4753.
54.9430 54.9299 6031(81) 0.0001527 1876. 5034.
54.9468 54.9337 5784(78) 0.0001640 1876. 5180.
54.9505 54.9374 5323(75) 0.0001778 1876. 5157.
54.9543 54.9412 5190(75) 0.0001770 1876. 4968.
54.9581 54.9450 4542(69) 0.0002125 1876. 4653.
54.9618 54.9487 3975(65) 0.0002376 1876. 4277.
54.9656 54.9525 3712(62) 0.0002604 1876. 3873.
54.9693 54.9562 3417(59) 0.0002856 1876. 3502.
54.9731 54.9600 3096(57) 0.0003100 1876. 3176.
54.9769 54.9638 2949(56) 0.0003206 1876. 2923.
54.9806 54.9675 2894(55) 0.0003291 1876. 2754.
54.9844 54.9713 2746(53) 0.000358 1876. 2660.
54.9881 54.9750 2724(53) 0.000351 1876. 2640.
54.9919 54.9788 2701(53) 0.000360 1876. 2686.
54.9957 54.9826 2843(54) 0.0003450 1876. 2790.
54.9994 54.9863 2856(54) 0.0003386 1876. 2935.
55.0032 54.9901 3175(57) 0.0003039 1876. 3118.
55.0069 54.9938 3445(59) 0.0002880 1876. 3317.
55.0107 54.9976 3785(63) 0.0002558 1876. 3524.
55.0145 55.0014 3984(64) 0.0002440 1876. 3712.
55.0182 55.0051 4209(66) 0.0002265 1875. 3856.
55.0220 55.0089 4191(66) 0.0002293 1875. 3941.
55.0257 55.0126 4145(66) 0.0002301 1875. 3956.
55.0295 55.0164 3779(63) 0.0002547 1875. 3909.
55.0333 55.0202 3662(61) 0.0002646 1875. 3823.
55.0370 55.0239 3296(58) 0.0002941 1875. 3729.
55.0408 55.0277 3407(60) 0.0002819 1875. 3646.
55.0446 55.0315 3439(60) 0.0002754 1875. 3594.
55.0483 55.0352 3543(60) 0.0002766 1875. 3580.
55.0521 55.0390 3508(61) 0.0002722 1875. 3597.
55.0558 55.0427 3809(63) 0.0002522 1875. 3630.
55.0596 55.0465 3731(62) 0.0002561 1875. 3658.
55.0634 55.0503 3923(64) 0.0002439 1875. 3653.
55.0671 55.0540 3701(62) 0.0002578 1875. 3596.
55.0709 55.0578 3489(61) 0.0002713 1875. 3479.
55.0746 55.0615 3119(57) 0.0003120 1875. 3317.
55.0784 55.0653 3059(57) 0.0003120 1875. 3121.
55.0822 55.0691 2752(53) 0.000352 1875. 2916.
55.0859 55.0728 2656(52) 0.000370 1875. 2724.
55.0897 55.0766 2514(51) 0.000379 1875. 2547.
55.0934 55.0803 2412(49) 0.000410 1875. 2401.
55.0972 55.0841 2364(49) 0.000415 1875. 2280.
55.1010 55.0879 2277(49) 0.000420 1875. 2188.
55.1047 55.0916 2002(46) 0.000478 1875. 2122.
55.1085 55.0954 2063(46) 0.000464 1875. 2075.
55.1122 55.0991 1983(45) 0.000498 1875. 2042.
55.1160 55.1029 2059(47) 0.000459 1875. 2020.
55.1198 55.1067 2061(47) 0.000461 1875. 2005.
55.1235 55.1104 1986(45) 0.000488 1875. 1994.
55.1273 55.1142 2004(45) 0.000483 1875. 1987.
55.1310 55.1179 2094(47) 0.000459 1875. 1981.
55.1348 55.1217 1997(46) 0.000474 1875. 1977.
55.1386 55.1255 1976(45) 0.000499 1875. 1973.
55.1423 55.1292 1989(45) 0.000488 1875. 1971.
55.1461 55.1330 1987(45) 0.000488 1875. 1969.
55.1498 55.1367 1959(45) 0.000493 1874. 1967.
55.1536 55.1405 1926(44) 0.000509 1874. 1966.
55.1574 55.1443 1997(45) 0.000487 1874. 1965.
55.1611 55.1480 1987(45) 0.000500 1874. 1965.
55.1649 55.1518 1901(44) 0.000519 1874. 1965.
55.1686 55.1555 2013(46) 0.000482 1874. 1965.
55.1724 55.1593 1950(45) 0.000493 1874. 1965.
55.1762 55.1631 1931(45) 0.000504 1874. 1966.
55.1799 55.1668 2002(46) 0.000482 1874. 1967.
55.1837 55.1706 2030(46) 0.000476 1874. 1969.
55.1875 55.1744 2001(45) 0.000492 1874. 1971.
55.1912 55.1781 1986(45) 0.000483 1874. 1974.
55.1950 55.1819 1964(45) 0.000499 1874. 1977.
55.1987 55.1856 2088(46) 0.000465 1874. 1980.
55.2025 55.1894 1984(45) 0.000498 1874. 1985.
55.2063 55.1932 2018(46) 0.000483 1874. 1990.
55.2100 55.1969 2036(46) 0.000471 1874. 1995.
55.2138 55.2007 2051(46) 0.000471 1874. 2002.
55.2175 55.2044 2007(46) 0.000471 1874. 2010.
55.2213 55.2082 2139(47) 0.000461 1874. 2021.
55.2251 55.2120 2095(46) 0.000464 1874. 2034.
55.2288 55.2157 2095(46) 0.000483 1874. 2052.
55.2326 55.2195 2048(46) 0.000481 1874. 2079.
55.2363 55.2232 2250(48) 0.000438 1874. 2116.
55.2401 55.2270 2084(47) 0.000462 1874. 2173.
55.2439 55.2308 2178(47) 0.000448 1874. 2257.
55.2476 55.2345 2286(49) 0.000424 1874. 2372.
55.2514 55.2383 2402(50) 0.000400 1874. 2535.
55.2551 55.2420 2475(51) 0.000391 1874. 2744.
55.2589 55.2458 2800(54) 0.0003477 1874. 3015.
55.2627 55.2496 2996(56) 0.0003210 1874. 3338.
55.2664 55.2533 3629(61) 0.0002707 1874. 3692.
55.2702 55.2571 4217(67) 0.0002251 1874. 4073.
55.2739 55.2608 4763(70) 0.0002029 1874. 4431.
55.2777 55.2646 4895(72) 0.0001944 1874. 4744.
55.2815 55.2684 5316(75) 0.0001799 1873. 4961.
55.2852 55.2721 5086(72) 0.0001925 1873. 5051.
55.2890 55.2759 5132(73) 0.0001872 1873. 5013.
55.2927 55.2796 4753(70) 0.0002036 1873. 4868.
55.2965 55.2834 4510(69) 0.0002117 1873. 4638.
55.3003 55.2872 4135(66) 0.0002297 1873. 4361.
55.3040 55.2909 3936(63) 0.0002506 1873. 4078.
55.3078 55.2947 3601(62) 0.0002642 1873. 3808.
55.3116 55.2985 3429(60) 0.0002801 1873. 3592.
55.3153 55.3022 3373(60) 0.0002788 1873. 3454.
55.3191 55.3060 3367(59) 0.0002868 1873. 3404.
55.3228 55.3097 3195(57) 0.0003046 1873. 3451.
55.3266 55.3135 3468(60) 0.0002801 1873. 3599.
55.3304 55.3173 3610(62) 0.0002620 1873. 3842.
55.3341 55.3210 4106(65) 0.0002361 1873. 4155.
55.3379 55.3248 4501(69) 0.0002112 1873. 4532.
55.3416 55.3285 5253(73) 0.0001891 1873. 4922.
55.3454 55.3323 5649(76) 0.0001718 1873. 5306.
55.3492 55.3361 5951(79) 0.0001601 1873. 5629.
55.3529 55.3398 6008(78) 0.0001625 1873. 5853.
55.3567 55.3436 6070(80) 0.0001563 1873. 5970.
55.3604 55.3473 5987(78) 0.0001626 1873. 5970.
55.3642 55.3511 5712(76) 0.0001711 1873. 5863.
55.3680 55.3549 5428(75) 0.0001775 1873. 5679.
55.3717 55.3586 5326(74) 0.0001830 1873. 5463.
55.3755 55.3624 4956(71) 0.0001983 1873. 5242.
55.3792 55.3661 4897(71) 0.0001989 1873. 5054.
55.3830 55.3699 4680(70) 0.0002033 1873. 4902.
55.3868 55.3737 4609(70) 0.0002068 1873. 4802.
55.3905 55.3774 4578(69) 0.0002082 1873. 4755.
55.3943 55.3812 4941(72) 0.0001938 1873. 4757.
55.3980 55.3849 5144(72) 0.0001906 1873. 4794.
55.4018 55.3887 5458(76) 0.0001753 1873. 4845.
55.4056 55.3925 5301(76) 0.0001752 1873. 4876.
55.4093 55.3962 5202(73) 0.0001853 1873. 4851.
55.4131 55.4000 4833(71) 0.0001973 1872. 4742.
55.4169 55.4038 4648(70) 0.0002039 1872. 4544.
55.4206 55.4075 4102(66) 0.0002274 1872. 4282.
55.4244 55.4113 3842(63) 0.0002557 1872. 3973.
55.4281 55.4150 3388(58) 0.0002964 1872. 3661.
55.4319 55.4188 3182(57) 0.0003103 1872. 3356.
55.4357 55.4226 2883(54) 0.0003457 1872. 3084.
55.4394 55.4263 2814(53) 0.000355 1872. 2860.
55.4432 55.4301 2639(51) 0.000380 1872. 2679.
55.4469 55.4338 2643(52) 0.000371 1872. 2551.
55.4507 55.4376 2458(50) 0.000404 1872. 2466.
55.4545 55.4414 2551(51) 0.000391 1872. 2427.
55.4582 55.4451 2424(49) 0.000417 1872. 2432.
55.4620 55.4489 2467(50) 0.000402 1872. 2480.
55.4657 55.4526 2547(51) 0.000391 1872. 2572.
55.4695 55.4564 2726(52) 0.000364 1872. 2715.
55.4733 55.4602 2921(54) 0.0003435 1872. 2910.
55.4770 55.4639 3223(57) 0.0003096 1872. 3150.
55.4808 55.4677 3666(60) 0.0002747 1872. 3444.
55.4845 55.4714 4314(66) 0.0002302 1872. 3767.
55.4883 55.4752 4801(69) 0.0002088 1872. 4123.
55.4921 55.4790 5332(74) 0.0001844 1872. 4480.
55.4958 55.4827 5589(75) 0.0001768 1872. 4803.
55.4996 55.4865 5649(75) 0.0001768 1872. 5082.
55.5033 55.4902 5439(74) 0.0001823 1872. 5286.
55.5071 55.4940 5536(75) 0.0001773 1872. 5426.
55.5109 55.4978 5370(74) 0.0001833 1872. 5516.
55.5146 55.5015 5441(75) 0.0001795 1872. 5580.
55.5184 55.5053 5772(76) 0.0001727 1872. 5637.
55.5221 55.5090 6140(78) 0.0001630 1872. 5678.
55.5259 55.5128 6349(80) 0.0001554 1872. 5686.
55.5297 55.5166 6195(79) 0.0001589 1872. 5625.
55.5334 55.5203 5739(76) 0.0001728 1872. 5470.
55.5372 55.5241 5602(76) 0.0001742 1872. 5200.
55.5410 55.5279 4752(69) 0.0002106 1871. 4837.
55.5447 55.5316 4467(68) 0.0002167 1871. 4426.
55.5485 55.5354 3928(63) 0.0002511 1871. 3987.
55.5522 55.5391 3575(60) 0.0002760 1871. 3576.
55.5560 55.5429 3141(56) 0.0003159 1871. 3198.
55.5598 55.5467 3045(56) 0.0003210 1871. 2881.
55.5635 55.5504 2617(51) 0.000383 1871. 2634.
55.5673 55.5542 2678(53) 0.000361 1871. 2444.
55.5710 55.5579 2457(50) 0.000406 1871. 2312.
55.5748 55.5617 2381(49) 0.000416 1871. 2221.
55.5786 55.5655 2202(47) 0.000446 1871. 2163.
55.5823 55.5692 2243(47) 0.000444 1871. 2129.
55.5861 55.5730 2100(46) 0.000477 1871. 2110.
55.5898 55.5767 2142(46) 0.000470 1871. 2101.
55.5936 55.5805 2111(46) 0.000481 1871. 2095.
55.5974 55.5843 2157(47) 0.000456 1871. 2091.
55.6011 55.5880 2179(47) 0.000452 1871. 2085.
55.6049 55.5918 2115(46) 0.000464 1871. 2077.
55.6086 55.5955 2064(46) 0.000474 1871. 2068.
55.6124 55.5993 2148(47) 0.000457 1871. 2057.
55.6162 55.6031 2047(45) 0.000483 1871. 2046.
55.6199 55.6068 2003(45) 0.000490 1871. 2038.
55.6237 55.6106 2098(46) 0.000471 1871. 2033.
55.6274 55.6143 2125(47) 0.000457 1871. 2034.
55.6312 55.6181 1973(45) 0.000494 1871. 2043.
55.6350 55.6219 2127(47) 0.000462 1871. 2061.
55.6387 55.6256 2141(46) 0.000464 1871. 2092.
55.6425 55.6294 2137(47) 0.000457 1871. 2137.
55.6463 55.6332 2038(46) 0.000474 1871. 2199.
55.6500 55.6369 2196(47) 0.000444 1871. 2277.
55.6538 55.6407 2150(46) 0.000467 1871. 2372.
55.6575 55.6444 2334(49) 0.000417 1871. 2478.
55.6613 55.6482 2337(49) 0.000414 1871. 2593.
55.6651 55.6520 2582(51) 0.000380 1871. 2707.
55.6688 55.6557 2709(53) 0.000362 1871. 2803.
55.6726 55.6595 2842(53) 0.000354 1870. 2875.
55.6763 55.6632 2688(53) 0.000362 1870. 2905.
55.6801 55.6670 2750(52) 0.000364 1870. 2888.
55.6839 55.6708 2652(52) 0.000370 1870. 2827.
55.6876 55.6745 2625(52) 0.000371 1870. 2735.
55.6914 55.6783 2375(49) 0.000417 1870. 2623.
55.6951 55.6820 2317(49) 0.000418 1870. 2507.
55.6989 55.6858 2204(47) 0.000449 1870. 2392.
55.7027 55.6896 2294(48) 0.000426 1870. 2288.
55.7064 55.6933 2085(46) 0.000474 1870. 2201.
55.7102 55.6971 2097(46) 0.000471 1870. 2128.
55.7139 55.7008 2055(46) 0.000470 1870. 2073.
55.7177 55.7046 1968(45) 0.000496 1870. 2030.
55.7215 55.7084 1994(46) 0.000481 1870. 2000.
55.7252 55.7121 2020(45) 0.000486 1870. 1978.
55.7290 55.7159 1892(44) 0.000527 1870. 1963.
55.7327 55.7196 1976(45) 0.000498 1870. 1954.
55.7365 55.7234 1897(44) 0.000515 1870. 1947.
55.7403 55.7272 2015(45) 0.000487 1870. 1943.
55.7440 55.7309 1892(44) 0.000511 1870. 1941.
55.7478 55.7347 1899(44) 0.000520 1870. 1941.
55.7515 55.7384 1936(45) 0.000502 1870. 1941.
55.7553 55.7422 1961(45) 0.000498 1870. 1943.
55.7591 55.7460 1921(44) 0.000509 1870. 1946.
55.7628 55.7497 1937(45) 0.000502 1870. 1949.
55.7666 55.7535 1919(44) 0.000514 1870. 1951.
55.7703 55.7572 1928(44) 0.000507 1870. 1953.
55.7741 55.7610 1890(44) 0.000517 1870. 1954.
55.7779 55.7648 1997(45) 0.000488 1870. 1953.
55.7816 55.7685 1938(44) 0.000510 1870. 1951.
55.7854 55.7723 1943(45) 0.000499 1870. 1948.
55.7892 55.7761 1832(43) 0.000531 1870. 1943.
55.7929 55.7798 1945(45) 0.000503 1870. 1939.
55.7967 55.7836 1946(45) 0.000499 1870. 1935.
55.8004 55.7873 1865(44) 0.000528 1869. 1932.
55.8042 55.7911 1959(44) 0.000510 1869. 1929.
55.8080 55.7949 1928(44) 0.000505 1869. 1927.
55.8117 55.7986 1970(45) 0.000492 1869. 1927.
55.8155 55.8024 1972(44) 0.000508 1869. 1927.
55.8192 55.8061 1895(44) 0.000515 1869. 1929.
55.8230 55.8099 1981(45) 0.000497 1869. 1932.
55.8268 55.8137 1926(44) 0.000508 1869. 1937.
55.8305 55.8174 2036(46) 0.000475 1869. 1945.
55.8343 55.8212 1973(45) 0.000494 1869. 1958.
55.8380 55.8249 1999(45) 0.000486 1869. 1978.
55.8418 55.8287 1928(45) 0.000498 1869. 2009.
55.8456 55.8325 2081(46) 0.000466 1869. 2053.
55.8493 55.8362 2046(46) 0.000476 1869. 2114.
55.8531 55.8400 2124(47) 0.000460 1869. 2198.
55.8568 55.8437 2127(46) 0.000463 1869. 2301.
55.8606 55.8475 2389(50) 0.000406 1869. 2428.
55.8644 55.8513 2429(50) 0.000399 1869. 2572.
55.8681 55.8550 2699(53) 0.000358 1869. 2720.
55.8719 55.8588 2809(54) 0.0003401 1869. 2865.
55.8756 55.8625 3098(56) 0.0003133 1869. 2983.
55.8794 55.8663 3076(56) 0.0003170 1869. 3063.
55.8832 55.8701 3076(56) 0.0003213 1869. 3086.
55.8869 55.8738 2889(54) 0.0003427 1869. 3049.
55.8907 55.8776 2848(54) 0.0003427 1869. 2957.
55.8944 55.8813 2545(51) 0.000382 1869. 2833.
55.8982 55.8851 2608(52) 0.000376 1869. 2687.
55.9020 55.8889 2376(50) 0.000404 1869. 2540.
55.9057 55.8926 2384(50) 0.000396 1869. 2407.
55.9095 55.8964 2245(48) 0.000433 1869. 2290.
55.9132 55.9001 2202(47) 0.000445 1869. 2197.
55.9170 55.9039 2166(47) 0.000444 1869. 2125.
55.9208 55.9077 2157(47) 0.000445 1869. 2073.
55.9245 55.9114 2131(46) 0.000467 1868. 2039.
55.9283 55.9152 2119(48) 0.000438 1868. 2015.
55.9320 55.9189 2005(45) 0.000485 1868. 1999.
55.9358 55.9227 2048(47) 0.000459 1868. 1986.
55.9396 55.9265 2055(46) 0.000479 1868. 1975.
55.9433 55.9302 2067(46) 0.000468 1868. 1967.
55.9471 55.9340 2033(46) 0.000478 1868. 1958.
55.9509 55.9378 2028(46) 0.000479 1868. 1951.
55.9546 55.9415 1964(45) 0.000492 1868. 1944.
55.9584 55.9453 2004(45) 0.000490 1868. 1939.
55.9621 55.9490 1984(45) 0.000490 1868. 1935.
55.9659 55.9528 1906(44) 0.000524 1868. 1933.
55.9697 55.9566 1844(44) 0.000524 1868. 1932.
55.9734 55.9603 1835(44) 0.000518 1868. 1933.
55.9772 55.9641 1867(44) 0.000508 1868. 1936.
55.9809 55.9678 1921(44) 0.000506 1868. 1940.
55.9847 55.9716 1886(44) 0.000507 1868. 1946.
55.9885 55.9754 2031(46) 0.000474 1868. 1954.
55.9922 55.9791 1858(44) 0.000523 1868. 1962.
55.9960 55.9829 2067(46) 0.000464 1868. 1971.
55.9997 55.9866 1937(45) 0.000486 1868. 1978.
56.0035 55.9904 2034(46) 0.000479 1868. 1985.
56.0073 55.9942 1890(44) 0.000508 1868. 1989.
56.0110 55.9979 1985(46) 0.000483 1868. 1990.
56.0148 56.0017 1939(46) 0.000482 1868. 1989.
56.0185 56.0054 1947(45) 0.000494 1868. 1986.
56.0223 56.0092 1963(46) 0.000478 1868. 1983.
56.0261 56.0130 1975(45) 0.000487 1868. 1980.
56.0298 56.0167 1909(45) 0.000502 1868. 1979.
56.0336 56.0205 2033(46) 0.000468 1868. 1981.
56.0373 56.0242 1984(46) 0.000478 1868. 1985.
56.0411 56.0280 2035(46) 0.000472 1868. 1995.
56.0449 56.0318 2003(45) 0.000491 1868. 2011.
56.0486 56.0355 1996(45) 0.000487 1867. 2033.
56.0524 56.0393 2053(46) 0.000478 1867. 2063.
56.0561 56.0430 2075(47) 0.000459 1867. 2101.
56.0599 56.0468 2182(47) 0.000443 1867. 2149.
56.0637 56.0506 2222(48) 0.000441 1867. 2209.
56.0674 56.0543 2210(48) 0.000441 1867. 2279.
56.0712 56.0581 2426(50) 0.000396 1867. 2365.
56.0749 56.0618 2522(51) 0.000383 1867. 2464.
56.0787 56.0656 2599(52) 0.000375 1867. 2583.
56.0825 56.0694 2561(51) 0.000382 1867. 2722.
56.0862 56.0731 2716(53) 0.000360 1867. 2878.
56.0900 56.0769 2836(55) 0.0003352 1867. 3060.
56.0937 56.0806 3064(56) 0.0003214 1867. 3258.
56.0975 56.0844 3419(58) 0.0002926 1867. 3474.
56.1013 56.0882 3939(64) 0.0002431 1867. 3691.
56.1050 56.0919 4112(66) 0.0002305 1867. 3881.
56.1088 56.0957 4604(73) 0.0001902 1867. 4027.
56.1125 56.0994 4314(66) 0.0002289 1867. 4094.
56.1163 56.1032 4315(70) 0.0002044 1867. 4067.
56.1201 56.1070 3874(62) 0.0002561 1867. 3945.
56.1238 56.1107 3728(61) 0.0002668 1867. 3751.
56.1276 56.1145 3307(58) 0.0002942 1867. 3507.
56.1313 56.1182 3199(58) 0.0003005 1867. 3250.
56.1351 56.1220 2883(55) 0.0003324 1867. 2992.
56.1389 56.1258 2765(54) 0.0003473 1867. 2757.
56.1426 56.1295 2449(50) 0.000394 1867. 2559.
56.1464 56.1333 2319(49) 0.000422 1867. 2393.
56.1501 56.1370 2297(49) 0.000414 1867. 2266.
56.1539 56.1408 2184(48) 0.000432 1867. 2169.
56.1577 56.1446 2045(46) 0.000482 1867. 2099.
56.1614 56.1483 2091(46) 0.000463 1867. 2051.
56.1652 56.1521 1991(45) 0.000487 1867. 2017.
56.1689 56.1558 1999(46) 0.000483 1867. 1995.
56.1727 56.1596 1964(45) 0.000499 1866. 1979.
56.1765 56.1634 2028(46) 0.000473 1866. 1968.
56.1802 56.1671 1900(45) 0.000497 1866. 1961.
56.1840 56.1709 1854(44) 0.000528 1866. 1956.
56.1877 56.1746 1877(44) 0.000507 1866. 1953.
56.1915 56.1784 2002(46) 0.000482 1866. 1951.
56.1953 56.1822 1944(44) 0.000506 1866. 1951.
56.1990 56.1859 1984(45) 0.000493 1866. 1953.
56.2028 56.1897 1900(44) 0.000507 1866. 1956.
56.2065 56.1934 2020(46) 0.000471 1866. 1962.
56.2103 56.1972 1954(45) 0.000489 1866. 1971.
56.2141 56.2010 2008(46) 0.000477 1866. 1981.
56.2178 56.2047 1953(45) 0.000504 1866. 1994.
56.2216 56.2085 1963(45) 0.000490 1866. 2008.
56.2253 56.2122 1978(46) 0.000480 1866. 2021.
56.2291 56.2160 2070(46) 0.000474 1866. 2033.
56.2329 56.2198 1985(45) 0.000494 1866. 2043.
56.2366 56.2235 2123(47) 0.000458 1866. 2048.
56.2404 56.2273 1928(45) 0.000494 1866. 2047.
56.2441 56.2310 2056(45) 0.000484 1866. 2042.
56.2479 56.2348 1947(45) 0.000500 1866. 2033.
56.2517 56.2386 2012(46) 0.000483 1866. 2022.
56.2554 56.2423 1847(44) 0.000516 1866. 2011.
56.2592 56.2461 1975(44) 0.000509 1866. 2001.
56.2629 56.2498 2023(47) 0.000460 1866. 1993.
56.2667 56.2536 2004(45) 0.000484 1866. 1988.
56.2705 56.2574 1924(45) 0.000497 1866. 1986.
56.2742 56.2611 2018(46) 0.000482 1866. 1989.
56.2780 56.2649 2038(46) 0.000465 1866. 1996.
56.2817 56.2686 2053(46) 0.000470 1866. 2011.
56.2855 56.2724 1997(46) 0.000478 1866. 2034.
56.2893 56.2762 2078(46) 0.000467 1866. 2069.
56.2930 56.2799 2069(47) 0.000460 1865. 2120.
56.2968 56.2837 2249(48) 0.000428 1865. 2194.
56.3005 56.2874 2236(48) 0.000431 1865. 2291.
56.3043 56.2912 2374(50) 0.000407 1865. 2424.
56.3081 56.2950 2547(51) 0.000380 1865. 2592.
56.3118 56.2987 2782(54) 0.0003441 1865. 2791.
56.3156 56.3025 2966(56) 0.0003194 1865. 3027.
56.3193 56.3062 3547(61) 0.0002726 1865. 3279.
56.3231 56.3100 3787(63) 0.0002548 1865. 3543.
56.3269 56.3138 4346(66) 0.0002303 1865. 3793.
56.3306 56.3175 4195(65) 0.0002335 1865. 3996.
56.3344 56.3213 4487(69) 0.0002131 1865. 4136.
56.3381 56.3250 4315(67) 0.0002218 1865. 4190.
56.3419 56.3288 4103(66) 0.0002314 1865. 4158.
56.3457 56.3326 3917(64) 0.0002456 1865. 4044.
56.3494 56.3363 3757(62) 0.0002587 1865. 3868.
56.3532 56.3401 3473(60) 0.0002788 1865. 3640.
56.3569 56.3438 3225(58) 0.0002990 1865. 3395.
56.3607 56.3476 2935(55) 0.0003315 1865. 3143.
56.3645 56.3514 2771(54) 0.0003408 1865. 2908.
56.3682 56.3551 2488(51) 0.000388 1865. 2707.
56.3720 56.3589 2454(51) 0.000383 1865. 2536.
56.3757 56.3626 2327(49) 0.000420 1865. 2407.
56.3795 56.3664 2325(49) 0.000413 1865. 2311.
56.3833 56.3702 2258(49) 0.000425 1865. 2249.
56.3870 56.3739 2187(49) 0.000422 1865. 2217.
56.3908 56.3777 2072(46) 0.000481 1865. 2207.
56.3945 56.3814 2297(49) 0.000422 1865. 2214.
56.3983 56.3852 2202(48) 0.000441 1865. 2234.
56.4020 56.3889 2265(48) 0.000427 1865. 2260.
56.4058 56.3927 2129(47) 0.000451 1865. 2286.
56.4096 56.3965 2271(49) 0.000422 1864. 2305.
56.4133 56.4002 2239(48) 0.000427 1864. 2313.
56.4171 56.4040 2241(48) 0.000430 1864. 2307.
56.4208 56.4077 2280(48) 0.000427 1864. 2288.
56.4246 56.4115 2203(47) 0.000445 1864. 2258.
56.4284 56.4153 2117(46) 0.000469 1864. 2223.
56.4321 56.4190 2110(47) 0.000451 1864. 2189.
56.4359 56.4228 2094(46) 0.000465 1864. 2157.
56.4396 56.4265 2118(46) 0.000471 1864. 2132.
56.4434 56.4303 2066(46) 0.000472 1864. 2117.
56.4472 56.4341 2215(48) 0.000441 1864. 2115.
56.4509 56.4378 2193(47) 0.000443 1864. 2129.
56.4547 56.4416 2209(48) 0.000432 1864. 2165.
56.4584 56.4453 2280(48) 0.000426 1864. 2223.
56.4622 56.4491 2285(49) 0.000424 1864. 2314.
56.4660 56.4529 2341(49) 0.000413 1864. 2439.
56.4697 56.4566 2531(51) 0.000386 1864. 2598.
56.4735 56.4604 2651(51) 0.000379 1864. 2799.
56.4772 56.4641 2987(56) 0.0003217 1864. 3028.
56.4810 56.4679 3270(58) 0.0002961 1864. 3287.
56.4848 56.4717 3801(64) 0.0002472 1864. 3551.
56.4885 56.4754 3969(65) 0.0002371 1864. 3791.
56.4923 56.4792 4405(68) 0.0002155 1864. 3992.
56.4960 56.4829 4244(67) 0.0002253 1864. 4113.
56.4998 56.4867 4325(67) 0.0002235 1864. 4140.
56.5036 56.4905 4056(65) 0.0002391 1864. 4066.
56.5073 56.4942 3875(63) 0.0002503 1864. 3912.
56.5111 56.4980 3401(60) 0.0002825 1864. 3703.
56.5148 56.5017 3242(58) 0.0002986 1864. 3481.
56.5186 56.5055 3031(57) 0.0003114 1864. 3263.
56.5224 56.5093 2946(55) 0.0003284 1864. 3079.
56.5261 56.5130 2853(54) 0.0003408 1863. 2946.
56.5299 56.5168 2809(53) 0.000356 1863. 2863.
56.5336 56.5205 2741(54) 0.0003476 1863. 2834.
56.5374 56.5243 2966(55) 0.0003252 1863. 2848.
56.5411 56.5280 3032(56) 0.0003204 1863. 2891.
56.5449 56.5318 3143(57) 0.0003055 1863. 2948.
56.5487 56.5356 3138(57) 0.0003098 1863. 2997.
56.5524 56.5393 3206(58) 0.0003014 1863. 3020.
56.5562 56.5431 3009(56) 0.0003245 1863. 3004.
56.5599 56.5468 2981(55) 0.0003251 1863. 2951.
56.5637 56.5506 2719(53) 0.000351 1863. 2866.
56.5675 56.5544 2715(53) 0.000361 1863. 2767.
56.5712 56.5581 2598(53) 0.000362 1863. 2671.
56.5750 56.5619 2538(53) 0.000361 1863. 2589.
56.5787 56.5656 2408(50) 0.000400 1863. 2535.
56.5825 56.5694 2456(50) 0.000394 1863. 2516.
56.5863 56.5732 2426(50) 0.000397 1863. 2537.
56.5900 56.5769 2549(52) 0.000373 1863. 2595.
56.5938 56.5807 2599(52) 0.000372 1863. 2689.
56.5975 56.5844 2915(54) 0.0003370 1863. 2805.
56.6013 56.5882 3001(56) 0.0003220 1863. 2936.
56.6051 56.5920 3396(60) 0.0002797 1863. 3063.
56.6088 56.5957 3374(60) 0.0002820 1863. 3163.
56.6126 56.5995 3614(61) 0.0002674 1863. 3224.
56.6163 56.6032 3290(59) 0.0002852 1863. 3230.
56.6201 56.6070 3296(59) 0.0002900 1863. 3180.
56.6238 56.6107 2950(55) 0.0003262 1863. 3086.
56.6276 56.6145 2907(56) 0.0003233 1863. 2961.
56.6314 56.6183 2716(53) 0.000354 1863. 2825.
56.6351 56.6220 2695(53) 0.000360 1863. 2699.
56.6389 56.6258 2545(51) 0.000381 1863. 2592.
56.6426 56.6295 2539(52) 0.000372 1862. 2519.
56.6464 56.6333 2393(50) 0.000400 1862. 2488.
56.6502 56.6371 2562(52) 0.000364 1862. 2510.
56.6539 56.6408 2518(51) 0.000381 1862. 2588.
56.6577 56.6446 2635(52) 0.000366 1862. 2730.
56.6614 56.6483 2773(53) 0.000362 1862. 2928.
56.6652 56.6521 3154(57) 0.0003033 1862. 3187.
56.6690 56.6559 3361(60) 0.0002812 1862. 3491.
56.6727 56.6596 4100(65) 0.0002360 1862. 3808.
56.6765 56.6634 4580(69) 0.0002128 1862. 4127.
56.6802 56.6671 5080(73) 0.0001873 1862. 4394.
56.6840 56.6709 5104(73) 0.0001870 1862. 4585.
56.6877 56.6746 5058(73) 0.0001883 1862. 4655.
56.6915 56.6784 4646(70) 0.0002028 1862. 4594.
56.6953 56.6822 4465(69) 0.0002092 1862. 4411.
56.6990 56.6859 3890(65) 0.0002349 1862. 4146.
56.7028 56.6897 3601(62) 0.0002563 1862. 3824.
56.7065 56.6934 3271(59) 0.0002907 1862. 3498.
56.7103 56.6972 3196(59) 0.0002830 1862. 3179.
56.7141 56.7010 2895(57) 0.0003047 1862. 2896.
56.7178 56.7047 2756(56) 0.0003246 1862. 2665.
56.7216 56.7085 2603(54) 0.0003427 1862. 2478.
56.7253 56.7122 2604(54) 0.0003468 1862. 2341.
56.7291 56.7160 2387(52) 0.000365 1862. 2240.
56.7329 56.7198 2401(52) 0.000366 1862. 2172.
56.7366 56.7235 2283(51) 0.000387 1862. 2130.
56.7404 56.7273 2269(50) 0.000396 1862. 2104.
56.7441 56.7310 2226(50) 0.000405 1862. 2090.
56.7479 56.7348 2178(49) 0.000424 1862. 2086.
56.7516 56.7385 2257(50) 0.000402 1862. 2090.
56.7554 56.7423 2182(48) 0.000429 1861. 2102.
56.7592 56.7461 2226(49) 0.000420 1861. 2124.
56.7629 56.7498 2249(48) 0.000426 1861. 2157.
56.7667 56.7536 2268(49) 0.000423 1861. 2208.
56.7704 56.7573 2330(49) 0.000409 1861. 2277.
56.7742 56.7611 2280(49) 0.000415 1861. 2375.
56.7780 56.7649 2490(51) 0.000379 1861. 2504.
56.7817 56.7686 2632(54) 0.0003473 1861. 2664.
56.7855 56.7724 2935(56) 0.0003243 1861. 2863.
56.7892 56.7761 3186(58) 0.0002947 1861. 3089.
56.7930 56.7799 3608(62) 0.0002605 1861. 3348.
56.7968 56.7837 4027(65) 0.0002343 1861. 3624.
56.8005 56.7874 4434(69) 0.0002122 1861. 3898.
56.8043 56.7912 4510(69) 0.0002099 1861. 4171.
56.8080 56.7949 4718(71) 0.0001971 1861. 4420.
56.8118 56.7987 4568(70) 0.0002066 1861. 4657.
56.8155 56.8024 4830(72) 0.0001923 1861. 4884.
56.8193 56.8062 4746(71) 0.0002000 1861. 5136.
56.8231 56.8100 5341(75) 0.0001801 1861. 5427.
56.8268 56.8137 5778(78) 0.0001633 1861. 5753.
56.8306 56.8175 6489(81) 0.0001509 1861. 6118.
56.8343 56.8212 7184(87) 0.0001308 1861. 6475.
56.8381 56.8250 7913(92) 0.0001186 1861. 6793.
56.8419 56.8288 7830(91) 0.0001199 1861. 7009.
56.8456 56.8325 8091(93) 0.0001162 1861. 7082.
56.8494 56.8363 7571(91) 0.0001201 1861. 6992.
56.8531 56.8400 7157(87) 0.0001307 1861. 6748.
56.8569 56.8438 6416(83) 0.0001452 1861. 6364.
56.8606 56.8475 5726(79) 0.0001583 1861. 5905.
56.8644 56.8513 5155(76) 0.0001739 1860. 5409.
56.8682 56.8551 4718(68) 0.0002148 1860. 4942.
56.8719 56.8588 4247(65) 0.0002392 1860. 4560.
56.8757 56.8626 4260(65) 0.0002374 1860. 4269.
56.8794 56.8663 4076(63) 0.0002499 1860. 4093.
56.8832 56.8701 4259(65) 0.0002358 1860. 4016.
56.8870 56.8739 4378(65) 0.0002331 1860. 4023.
56.8907 56.8776 4633(68) 0.0002164 1860. 4078.
56.8945 56.8814 4624(67) 0.0002200 1860. 4145.
56.8982 56.8851 4590(67) 0.0002233 1860. 4180.
56.9020 56.8889 4354(66) 0.0002325 1860. 4153.
56.9057 56.8926 4265(65) 0.0002348 1860. 4051.
56.9095 56.8964 3834(62) 0.0002639 1860. 3876.
56.9133 56.9002 3579(59) 0.0002840 1860. 3651.
56.9170 56.9039 3303(57) 0.0003032 1860. 3409.
56.9208 56.9077 3175(56) 0.0003141 1860. 3161.
56.9245 56.9114 2890(53) 0.0003503 1860. 2939.
56.9283 56.9152 2732(52) 0.000370 1860. 2742.
56.9320 56.9189 2586(50) 0.000393 1860. 2588.
56.9358 56.9227 2565(50) 0.000395 1860. 2469.
56.9396 56.9265 2411(49) 0.000417 1860. 2385.
56.9433 56.9302 2435(49) 0.000416 1860. 2332.
56.9471 56.9340 2251(47) 0.000449 1860. 2298.
56.9508 56.9377 2368(48) 0.000425 1860. 2276.
56.9546 56.9415 2167(46) 0.000465 1860. 2258.
56.9584 56.9453 2226(47) 0.000448 1860. 2238.
56.9621 56.9490 2167(47) 0.000461 1860. 2214.
56.9659 56.9528 2212(47) 0.000454 1860. 2185.
56.9696 56.9565 2045(45) 0.000497 1860. 2154.
56.9734 56.9603 2119(46) 0.000476 1859. 2122.
56.9771 56.9640 2041(45) 0.000492 1859. 2092.
56.9809 56.9678 2069(46) 0.000482 1859. 2065.
56.9847 56.9716 2021(45) 0.000487 1859. 2042.
56.9884 56.9753 2147(46) 0.000465 1859. 2025.
56.9922 56.9791 2040(45) 0.000485 1859. 2011.
56.9959 56.9828 2036(45) 0.000491 1859. 2001.
56.9997 56.9866 1948(44) 0.000512 1859. 1995.
57.0034 56.9903 2028(45) 0.000496 1859. 1992.
57.0072 56.9941 2036(45) 0.000497 1859. 1991.
57.0110 56.9979 2109(45) 0.000502 1859. 1991.
57.0147 57.0016 2024(45) 0.000492 1859. 1993.
57.0185 57.0054 2101(46) 0.000473 1859. 1997.
57.0222 57.0091 2086(45) 0.000490 1859. 2002.
57.0260 57.0129 2038(45) 0.000502 1859. 2009.
57.0298 57.0167 2071(46) 0.000478 1859. 2018.
57.0335 57.0204 2167(46) 0.000463 1859. 2030.
57.0373 57.0242 2103(46) 0.000479 1859. 2047.
57.0410 57.0279 2106(45) 0.000486 1859. 2070.
57.0448 57.0317 2085(45) 0.000490 1859. 2104.
57.0485 57.0354 2227(47) 0.000449 1859. 2152.
57.0523 57.0392 2169(46) 0.000466 1859. 2222.
57.0561 57.0430 2375(48) 0.000428 1859. 2321.
57.0598 57.0467 2242(47) 0.000445 1859. 2452.
57.0636 57.0505 2476(50) 0.000401 1859. 2629.
57.0673 57.0542 2664(51) 0.000381 1859. 2849.
57.0711 57.0580 2941(55) 0.0003334 1859. 3124.
57.0748 57.0617 3257(57) 0.0003037 1859. 3437.
57.0786 57.0655 3836(63) 0.0002558 1858. 3793.
57.0824 57.0693 4274(65) 0.0002352 1858. 4167.
57.0861 57.0730 4958(71) 0.0002009 1858. 4524.
57.0899 57.0768 5419(74) 0.0001816 1858. 4853.
57.0936 57.0805 5940(77) 0.0001672 1858. 5108.
57.0974 57.0843 5683(76) 0.0001752 1858. 5276.
57.1011 57.0880 5534(75) 0.0001774 1858. 5331.
57.1049 57.0918 5270(73) 0.0001892 1858. 5277.
57.1087 57.0956 5014(71) 0.0001980 1858. 5130.
57.1124 57.0993 4721(69) 0.0002092 1858. 4926.
57.1162 57.1031 4681(69) 0.0002119 1858. 4681.
57.1199 57.1068 4437(67) 0.0002209 1858. 4429.
57.1237 57.1106 4313(66) 0.0002327 1858. 4167.
57.1274 57.1143 3965(63) 0.0002483 1858. 3910.
57.1312 57.1181 3664(61) 0.0002701 1858. 3646.
57.1350 57.1219 3354(58) 0.0002972 1858. 3389.
57.1387 57.1256 3156(56) 0.0003151 1858. 3150.
57.1425 57.1294 2825(53) 0.000351 1858. 2923.
57.1462 57.1331 2802(54) 0.0003470 1858. 2728.
57.1500 57.1369 2477(50) 0.000397 1858. 2554.
57.1538 57.1407 2400(49) 0.000416 1858. 2411.
57.1575 57.1444 2292(48) 0.000430 1858. 2297.
57.1613 57.1482 2229(47) 0.000446 1858. 2206.
57.1650 57.1519 2151(46) 0.000472 1858. 2138.
57.1688 57.1557 2167(46) 0.000463 1858. 2086.
57.1725 57.1594 2110(46) 0.000468 1858. 2049.
57.1763 57.1632 2099(46) 0.000480 1858. 2022.
57.1801 57.1670 1994(45) 0.000499 1858. 2002.
57.1838 57.1707 1927(44) 0.000512 1857. 1988.
57.1876 57.1745 1996(45) 0.000500 1857. 1977.
57.1913 57.1782 1972(44) 0.000508 1857. 1969.
57.1951 57.1820 2043(45) 0.000497 1857. 1962.
57.1988 57.1857 2046(45) 0.000499 1857. 1957.
57.2026 57.1895 1939(44) 0.000510 1857. 1952.
57.2064 57.1933 2052(45) 0.000485 1857. 1948.
57.2101 57.1970 1952(44) 0.000509 1857. 1945.
57.2139 57.2008 2023(45) 0.000487 1857. 1942.
57.2176 57.2045 1930(44) 0.000513 1857. 1940.
57.2214 57.2083 1941(44) 0.000506 1857. 1938.
57.2251 57.2120 1975(45) 0.000500 1857. 1936.
57.2289 57.2158 2011(45) 0.000489 1857. 1935.
57.2326 57.2195 1913(44) 0.000525 1857. 1935.
57.2364 57.2233 2035(45) 0.000491 1857. 1935.
57.2402 57.2271 1907(44) 0.000523 1857. 1937.
57.2439 57.2308 1954(45) 0.000502 1857. 1940.
57.2477 57.2346 1925(44) 0.000519 1857. 1947.
57.2514 57.2383 1999(45) 0.000493 1857. 1957.
57.2552 57.2421 1985(45) 0.000504 1857. 1973.
57.2589 57.2458 1985(45) 0.000502 1857. 1995.
57.2627 57.2496 1926(44) 0.000516 1857. 2026.
57.2665 57.2534 2087(46) 0.000478 1857. 2064.
57.2702 57.2571 2052(46) 0.000477 1857. 2110.
57.2740 57.2609 2083(46) 0.000479 1857. 2161.
57.2777 57.2646 2126(47) 0.000462 1857. 2212.
57.2815 57.2684 2180(47) 0.000454 1857. 2261.
57.2852 57.2721 2137(47) 0.000454 1856. 2298.
57.2890 57.2759 2229(47) 0.000444 1856. 2320.
57.2928 57.2797 2203(48) 0.000441 1856. 2322.
57.2965 57.2834 2186(47) 0.000446 1856. 2303.
57.3003 57.2872 2148(47) 0.000455 1856. 2268.
57.3040 57.2909 2089(47) 0.000461 1856. 2223.
57.3078 57.2947 1997(45) 0.000492 1856. 2171.
57.3115 57.2984 2110(46) 0.000467 1856. 2122.
57.3153 57.3022 1986(45) 0.000494 1856. 2076.
57.3191 57.3060 2110(46) 0.000480 1856. 2038.
57.3228 57.3097 2012(45) 0.000493 1856. 2008.
57.3266 57.3135 2089(46) 0.000469 1856. 1986.
57.3303 57.3172 1960(44) 0.000506 1856. 1972.
57.3341 57.3210 2113(46) 0.000474 1856. 1962.
57.3378 57.3247 1900(44) 0.000517 1856. 1958.
57.3416 57.3285 2104(46) 0.000466 1856. 1957.
57.3453 57.3322 1999(45) 0.000488 1856. 1958.
57.3491 57.3360 2059(46) 0.000463 1856. 1961.
57.3529 57.3398 1975(45) 0.000502 1856. 1966.
57.3566 57.3435 2019(45) 0.000486 1856. 1974.
57.3604 57.3473 1933(44) 0.000515 1856. 1984.
57.3641 57.3510 2066(46) 0.000465 1856. 1997.
57.3679 57.3548 2026(45) 0.000490 1856. 2016.
57.3716 57.3585 2070(46) 0.000466 1856. 2040.
57.3754 57.3623 2049(45) 0.000486 1856. 2073.
57.3792 57.3661 2148(47) 0.000456 1856. 2118.
57.3829 57.3698 2124(47) 0.000453 1856. 2174.
57.3867 57.3736 2217(48) 0.000428 1855. 2246.
57.3904 57.3773 2192(48) 0.000427 1855. 2331.
57.3942 57.3811 2445(50) 0.000399 1855. 2433.
57.3979 57.3848 2591(51) 0.000378 1855. 2545.
57.4017 57.3886 2759(54) 0.0003447 1855. 2665.
57.4055 57.3924 2950(55) 0.0003332 1855. 2784.
57.4092 57.3961 2925(54) 0.0003435 1855. 2887.
57.4130 57.3999 3348(62) 0.0002567 1855. 2967.
57.4167 57.4036 3205(59) 0.0002889 1855. 3011.
57.4205 57.4074 3046(55) 0.0003247 1855. 3015.
57.4242 57.4111 2923(55) 0.0003357 1855. 2983.
57.4280 57.4149 2843(54) 0.0003441 1855. 2924.
57.4317 57.4186 2844(55) 0.0003329 1855. 2856.
57.4355 57.4224 2596(50) 0.000396 1855. 2789.
57.4393 57.4262 2618(52) 0.000366 1855. 2740.
57.4430 57.4299 2631(53) 0.000363 1855. 2720.
57.4468 57.4337 2626(53) 0.000359 1855. 2738.
57.4505 57.4374 2568(52) 0.000371 1855. 2801.
57.4543 57.4412 2795(55) 0.0003365 1855. 2919.
57.4580 57.4449 2871(54) 0.0003407 1855. 3091.
57.4618 57.4487 3204(57) 0.0003037 1855. 3325.
57.4655 57.4524 3527(61) 0.0002729 1855. 3607.
57.4693 57.4562 4022(64) 0.0002406 1855. 3941.
57.4731 57.4600 4401(68) 0.0002159 1855. 4302.
57.4768 57.4637 4837(72) 0.0001950 1855. 4657.
57.4806 57.4675 5155(73) 0.0001893 1855. 4993.
57.4843 57.4712 5662(75) 0.0001801 1854. 5265.
57.4881 57.4750 5881(79) 0.0001616 1854. 5467.
57.4918 57.4787 6111(80) 0.0001564 1854. 5571.
57.4956 57.4825 5818(78) 0.0001656 1854. 5570.
57.4993 57.4862 5877(78) 0.0001631 1854. 5458.
57.5031 57.4900 5208(74) 0.0001820 1854. 5233.
57.5069 57.4938 4906(71) 0.0001985 1854. 4920.
57.5106 57.4975 4352(68) 0.0002155 1854. 4567.
57.5144 57.5013 4150(66) 0.0002302 1854. 4193.
57.5181 57.5050 3593(62) 0.0002643 1854. 3852.
57.5219 57.5088 3495(60) 0.0002757 1854. 3550.
57.5256 57.5125 3183(57) 0.0003074 1854. 3321.
57.5294 57.5163 3276(59) 0.0002890 1854. 3167.
57.5332 57.5201 2949(55) 0.0003252 1854. 3100.
57.5369 57.5238 3076(56) 0.0003137 1854. 3119.
57.5407 57.5276 3149(57) 0.0003067 1854. 3221.
57.5444 57.5313 3522(61) 0.0002702 1854. 3391.
57.5482 57.5351 3716(62) 0.0002592 1854. 3626.
57.5519 57.5388 4277(66) 0.0002269 1854. 3897.
57.5557 57.5426 4389(67) 0.0002212 1854. 4197.
57.5594 57.5463 4874(72) 0.0001954 1854. 4491.
57.5632 57.5501 4885(71) 0.0001969 1854. 4775.
57.5669 57.5538 5106(73) 0.0001873 1854. 5025.
57.5707 57.5576 4918(71) 0.0001969 1854. 5258.
57.5745 57.5614 5329(75) 0.0001785 1854. 5484.
57.5782 57.5651 5391(75) 0.0001800 1854. 5713.
57.5820 57.5689 5929(78) 0.0001626 1853. 5968.
57.5857 57.5726 6183(80) 0.0001572 1853. 6230.
57.5895 57.5764 6780(83) 0.0001437 1853. 6495.
57.5932 57.5801 6922(83) 0.0001444 1853. 6723.
57.5970 57.5839 7623(89) 0.0001251 1853. 6895.
57.6007 57.5876 7367(88) 0.0001297 1853. 6977.
57.6045 57.5914 7492(89) 0.0001274 1853. 6949.
57.6083 57.5952 6787(85) 0.0001393 1853. 6794.
57.6120 57.5989 6613(83) 0.0001449 1853. 6523.
57.6158 57.6027 6014(79) 0.0001597 1853. 6142.
57.6195 57.6064 5491(76) 0.0001742 1853. 5705.
57.6233 57.6102 4796(71) 0.0002009 1853. 5230.
57.6270 57.6139 4536(68) 0.0002191 1853. 4781.
57.6308 57.6177 4072(64) 0.0002408 1853. 4366.
57.6345 57.6214 3866(63) 0.0002485 1853. 4027.
57.6383 57.6252 3590(61) 0.0002710 1853. 3756.
57.6421 57.6290 3698(61) 0.0002659 1853. 3563.
57.6458 57.6327 3581(60) 0.0002738 1853. 3441.
57.6496 57.6365 3615(61) 0.0002696 1853. 3368.
57.6533 57.6402 3618(61) 0.0002644 1853. 3328.
57.6571 57.6440 3670(62) 0.0002590 1853. 3299.
57.6608 57.6477 3420(60) 0.0002796 1853. 3264.
57.6646 57.6515 3442(59) 0.0002849 1853. 3210.
57.6683 57.6552 3204(58) 0.0002988 1853. 3143.
57.6721 57.6590 3080(56) 0.0003156 1853. 3067.
57.6758 57.6627 2880(54) 0.0003380 1852. 3002.
57.6796 57.6665 2878(54) 0.0003446 1852. 2959.
57.6834 57.6703 2764(54) 0.0003490 1852. 2953.
57.6871 57.6740 2975(56) 0.0003240 1852. 2992.
57.6909 57.6778 2911(55) 0.0003300 1852. 3080.
57.6946 57.6815 3244(57) 0.0003044 1852. 3211.
57.6984 57.6853 3441(60) 0.0002810 1852. 3381.
57.7021 57.6890 3833(62) 0.0002598 1852. 3565.
57.7059 57.6928 3976(63) 0.0002486 1852. 3748.
57.7096 57.6965 4299(66) 0.0002271 1852. 3893.
57.7134 57.7003 4312(66) 0.0002279 1852. 3982.
57.7172 57.7041 4149(65) 0.0002349 1852. 3987.
57.7209 57.7078 3791(62) 0.0002587 1852. 3907.
57.7247 57.7116 3585(61) 0.0002715 1852. 3751.
57.7284 57.7153 3402(59) 0.0002901 1852. 3549.
57.7322 57.7191 3158(57) 0.0003103 1852. 3317.
57.7359 57.7228 2931(55) 0.0003333 1852. 3087.
57.7397 57.7266 2865(54) 0.0003454 1852. 2865.
57.7434 57.7303 2693(53) 0.000361 1852. 2675.
57.7472 57.7341 2514(51) 0.000388 1852. 2513.
57.7509 57.7378 2426(49) 0.000409 1852. 2388.
57.7547 57.7416 2363(49) 0.000415 1852. 2292.
57.7585 57.7454 2305(48) 0.000427 1852. 2226.
57.7622 57.7491 2383(49) 0.000414 1852. 2186.
57.7660 57.7529 2248(48) 0.000429 1852. 2168.
57.7697 57.7566 2297(49) 0.000421 1851. 2170.
57.7735 57.7604 2347(49) 0.000416 1851. 2194.
57.7772 57.7641 2359(49) 0.000411 1851. 2242.
57.7810 57.7679 2286(47) 0.000447 1851. 2320.
57.7885 57.7754 2457(49) 0.000413 1851. 2594.
57.7922 57.7791 2804(53) 0.000359 1851. 2799.
57.7997 57.7866 3455(59) 0.0002881 1851. 3376.
57.8035 57.7904 3664(61) 0.0002681 1851. 3741.
57.8073 57.7942 4197(65) 0.0002364 1851. 4135.
57.8098 57.7967 4651(68) 0.0002167 1851. 4397.
57.8136 57.8005 5010(71) 0.0001966 1851. 4777.
57.8173 57.8042 5511(75) 0.0001766 1851. 5096.
57.8211 57.8080 5599(75) 0.0001758 1851. 5341.
57.8248 57.8117 6058(78) 0.0001640 1851. 5476.
57.8286 57.8155 5748(77) 0.0001696 1851. 5495.
57.8323 57.8192 5643(76) 0.0001726 1851. 5396.
57.8361 57.8230 5144(73) 0.0001884 1851. 5192.
57.8399 57.8268 4761(71) 0.0001993 1851. 4922.
57.8436 57.8305 4218(65) 0.0002343 1851. 4639.
57.8474 57.8343 4182(65) 0.0002336 1851. 4372.
57.8511 57.8380 3858(62) 0.0002569 1851. 4166.
57.8549 57.8418 3974(64) 0.0002405 1851. 4029.
57.8586 57.8455 3947(63) 0.0002507 1851. 3972.
57.8624 57.8493 4245(66) 0.0002263 1850. 3985.
57.8662 57.8531 4311(66) 0.0002301 1850. 4048.
57.8699 57.8568 4469(68) 0.0002180 1850. 4130.
57.8737 57.8606 4319(67) 0.0002216 1850. 4205.
57.8774 57.8643 4298(67) 0.0002199 1850. 4244.
57.8812 57.8681 4307(68) 0.0002163 1850. 4236.
57.8849 57.8718 4350(67) 0.0002234 1850. 4179.
57.8887 57.8756 4062(65) 0.0002401 1850. 4074.
57.8924 57.8793 3997(65) 0.0002373 1850. 3931.
57.8962 57.8831 3753(62) 0.0002615 1850. 3750.
57.9000 57.8869 3398(58) 0.0002953 1850. 3543.
57.9037 57.8906 3495(64) 0.0002458 1850. 3329.
57.9075 57.8944 3189(59) 0.0002903 1850. 3112.
57.9112 57.8981 2842(54) 0.0003481 1850. 2914.
57.9150 57.9019 2742(53) 0.000358 1850. 2733.
57.9187 57.9056 2686(52) 0.000364 1850. 2581.
57.9225 57.9094 2508(51) 0.000378 1850. 2453.
57.9262 57.9131 2331(48) 0.000442 1850. 2354.
57.9300 57.9169 2379(50) 0.000403 1850. 2277.
57.9338 57.9207 2195(48) 0.000435 1850. 2222.
57.9375 57.9244 2338(50) 0.000404 1850. 2188.
57.9413 57.9282 2244(49) 0.000425 1850. 2170.
57.9450 57.9319 2202(48) 0.000428 1850. 2169.
57.9488 57.9357 2200(47) 0.000445 1850. 2184.
57.9525 57.9394 2275(48) 0.000429 1849. 2214.
57.9563 57.9432 2309(49) 0.000418 1849. 2262.
57.9601 57.9470 2391(50) 0.000406 1849. 2327.
57.9638 57.9507 2340(50) 0.000408 1849. 2409.
57.9676 57.9545 2619(53) 0.000362 1849. 2512.
57.9713 57.9582 2675(52) 0.000367 1849. 2631.
57.9751 57.9620 2954(54) 0.0003473 1849. 2773.
57.9788 57.9657 2932(55) 0.0003262 1849. 2932.
57.9826 57.9695 3078(57) 0.0003124 1849. 3117.
57.9863 57.9732 3132(57) 0.0003093 1849. 3322.
57.9901 57.9770 3375(59) 0.0002855 1849. 3563.
57.9939 57.9808 3476(60) 0.0002736 1849. 3841.
57.9976 57.9845 3892(63) 0.0002507 1849. 4152.
58.0014 57.9883 4372(68) 0.0002145 1849. 4507.
58.0051 57.9920 5237(74) 0.0001820 1849. 4876.
58.0089 57.9958 5603(77) 0.0001688 1849. 5252.
58.0126 57.9995 6393(82) 0.0001498 1849. 5580.
58.0164 58.0033 6480(82) 0.0001500 1849. 5833.
58.0201 58.0070 6953(86) 0.0001351 1849. 5958.
58.0239 58.0108 6323(81) 0.0001506 1849. 5933.
58.0277 58.0146 6024(79) 0.0001592 1849. 5751.
58.0314 58.0183 5410(75) 0.0001777 1849. 5449.
58.0352 58.0221 5035(73) 0.0001884 1849. 5050.
58.0373 58.0242 4666(68) 0.0002195 1849. 4808.
58.0411 58.0280 4315(64) 0.0002430 1848. 4359.
58.0448 58.0317 3801(61) 0.0002685 1848. 3934.
58.0486 58.0355 3487(58) 0.0002961 1848. 3536.
58.0524 58.0393 3253(56) 0.0003154 1848. 3194.
58.0561 58.0430 2989(54) 0.0003433 1848. 2918.
58.0599 58.0468 2733(52) 0.000375 1848. 2695.
58.0636 58.0505 2790(52) 0.000366 1848. 2532.
58.0674 58.0543 2529(50) 0.000405 1848. 2414.
58.0711 58.0580 2508(50) 0.000404 1848. 2337.
58.0749 58.0618 2410(48) 0.000429 1848. 2292.
58.0786 58.0655 2526(50) 0.000405 1848. 2276.
58.0824 58.0693 2365(48) 0.000430 1848. 2286.
58.0861 58.0730 2491(49) 0.000410 1848. 2319.
58.0899 58.0768 2584(51) 0.000389 1848. 2381.
58.0937 58.0806 2505(49) 0.000411 1848. 2473.
58.0974 58.0843 2720(51) 0.000380 1848. 2596.
58.1012 58.0881 2785(52) 0.000367 1848. 2761.
58.1049 58.0918 3015(54) 0.0003411 1848. 2958.
58.1087 58.0956 3328(57) 0.0003098 1848. 3198.
58.1124 58.0993 3669(60) 0.0002790 1848. 3461.
58.1162 58.1031 4292(65) 0.0002357 1848. 3748.
58.1199 58.1068 4702(68) 0.0002177 1848. 4026.
58.1237 58.1106 5132(71) 0.0001990 1848. 4284.
58.1274 58.1143 5338(72) 0.0001910 1847. 4479.
58.1312 58.1181 5413(73) 0.0001897 1847. 4591.
58.1350 58.1219 5123(71) 0.0001960 1847. 4594.
58.1387 58.1256 5037(70) 0.0002017 1847. 4493.
58.1425 58.1294 4448(67) 0.0002255 1847. 4302.
58.1462 58.1331 4151(65) 0.0002372 1847. 4060.
58.1500 58.1369 3880(62) 0.0002600 1847. 3784.
58.1537 58.1406 3514(59) 0.0002872 1847. 3517.
58.1575 58.1444 3168(56) 0.0003222 1847. 3265.
58.1612 58.1481 3140(56) 0.0003229 1847. 3060.
58.1650 58.1519 2940(54) 0.0003451 1847. 2905.
58.1687 58.1556 2858(53) 0.000353 1847. 2816.
58.1725 58.1594 2741(52) 0.000366 1847. 2796.
58.1763 58.1632 2879(53) 0.000354 1847. 2850.
58.1800 58.1669 2828(52) 0.000368 1847. 2973.
58.1838 58.1707 3121(56) 0.0003216 1847. 3167.
58.1875 58.1744 3429(59) 0.0002918 1847. 3410.
58.1913 58.1782 4008(64) 0.0002475 1847. 3696.
58.1950 58.1819 4316(66) 0.0002314 1847. 3987.
58.1988 58.1857 4977(71) 0.0001999 1847. 4266.
58.2025 58.1894 5243(71) 0.0001970 1847. 4484.
58.2063 58.1932 5302(73) 0.0001871 1847. 4616.
58.2101 58.1970 5066(72) 0.0001952 1847. 4629.
58.2138 58.2007 4811(69) 0.0002095 1846. 4523.
58.2176 58.2045 4172(64) 0.0002443 1846. 4312.
58.2213 58.2082 3944(63) 0.0002557 1846. 4037.
58.2251 58.2120 3558(59) 0.0002839 1846. 3718.
58.2288 58.2157 3377(58) 0.0002956 1846. 3403.
58.2326 58.2195 2913(54) 0.0003407 1846. 3098.
58.2363 58.2232 2866(54) 0.0003478 1846. 2834.
58.2401 58.2270 2632(51) 0.000384 1846. 2606.
58.2439 58.2308 2551(50) 0.000398 1846. 2423.
58.2476 58.2345 2293(48) 0.000432 1846. 2286.
58.2514 58.2383 2277(47) 0.000448 1846. 2181.
58.2551 58.2420 2171(47) 0.000460 1846. 2108.
58.2589 58.2458 2190(46) 0.000464 1846. 2056.
58.2626 58.2495 2092(45) 0.000485 1846. 2020.
58.2664 58.2533 2052(45) 0.000497 1846. 1995.
58.2701 58.2570 2040(46) 0.000483 1846. 1979.
58.2739 58.2608 2009(45) 0.000499 1846. 1968.
58.2777 58.2646 1934(44) 0.000523 1846. 1960.
58.2814 58.2683 2030(45) 0.000499 1846. 1955.
58.2852 58.2721 1942(44) 0.000520 1846. 1952.
58.2889 58.2758 2041(45) 0.000493 1846. 1950.
58.2927 58.2796 1906(44) 0.000522 1846. 1949.
58.2964 58.2833 2004(45) 0.000500 1845. 1948.
58.3002 58.2871 1913(44) 0.000523 1845. 1947.
58.3039 58.2908 1924(44) 0.000526 1845. 1946.
58.3077 58.2946 1823(43) 0.000553 1845. 1945.
58.3115 58.2984 1925(43) 0.000534 1845. 1943.
58.3152 58.3021 1899(43) 0.000538 1845. 1939.
58.3190 58.3059 1966(44) 0.000514 1845. 1935.
58.3227 58.3096 1878(43) 0.000541 1845. 1930.
58.3265 58.3134 1976(44) 0.000522 1845. 1924.
58.3302 58.3171 1828(42) 0.000555 1845. 1917.
58.3340 58.3209 1852(43) 0.000533 1845. 1911.
58.3377 58.3246 1894(43) 0.000535 1845. 1906.
58.3415 58.3284 1906(43) 0.000535 1845. 1901.
58.3453 58.3322 1866(43) 0.000530 1845. 1896.
58.3490 58.3359 1907(44) 0.000524 1845. 1893.
58.3528 58.3397 1837(43) 0.000542 1845. 1890.
58.3565 58.3434 1875(43) 0.000537 1845. 1887.
58.3603 58.3472 1907(44) 0.000524 1845. 1885.
58.3640 58.3509 1892(44) 0.000524 1845. 1884.
58.3678 58.3547 1830(43) 0.000549 1845. 1883.
58.3715 58.3584 1830(42) 0.000554 1845. 1882.
58.3753 58.3622 1819(43) 0.000553 1845. 1881.
58.3791 58.3660 1876(44) 0.000528 1844. 1880.
58.3828 58.3697 1834(42) 0.000558 1844. 1879.
58.3866 58.3735 1856(43) 0.000529 1844. 1878.
58.3903 58.3772 1858(43) 0.000540 1844. 1878.
58.3941 58.3810 1906(44) 0.000521 1844. 1877.
58.3978 58.3847 1823(43) 0.000548 1844. 1876.
58.4016 58.3885 1870(43) 0.000538 1844. 1876.
58.4053 58.3922 1746(42) 0.000580 1844. 1876.
58.4091 58.3960 1952(44) 0.000516 1844. 1875.
58.4129 58.3998 1828(42) 0.000566 1844. 1875.
58.4166 58.4035 1857(43) 0.000529 1844. 1875.
58.4204 58.4073 1830(43) 0.000548 1844. 1875.
58.4241 58.4110 1845(43) 0.000540 1844. 1875.
58.4279 58.4148 1827(43) 0.000551 1844. 1875.
58.4316 58.4185 1865(43) 0.000546 1844. 1875.
58.4354 58.4223 1838(43) 0.000542 1844. 1876.
58.4392 58.4261 1899(44) 0.000527 1844. 1877.
58.4429 58.4298 1819(42) 0.000561 1844. 1878.
58.4467 58.4336 1880(44) 0.000519 1844. 1880.
58.4504 58.4373 1857(43) 0.000537 1844. 1883.
58.4542 58.4411 1880(43) 0.000533 1844. 1887.
58.4579 58.4448 1811(42) 0.000558 1844. 1892.
58.4617 58.4486 1928(44) 0.000515 1843. 1897.
58.4654 58.4523 1850(43) 0.000534 1843. 1904.
58.4692 58.4561 1929(44) 0.000521 1843. 1911.
58.4730 58.4599 1859(43) 0.000540 1843. 1919.
58.4767 58.4636 1922(44) 0.000523 1843. 1926.
58.4805 58.4674 1864(44) 0.000528 1843. 1932.
58.4842 58.4711 1876(44) 0.000524 1843. 1937.
58.4880 58.4749 1911(44) 0.000518 1843. 1939.
58.4917 58.4786 1877(44) 0.000525 1843. 1939.
58.4955 58.4824 1832(43) 0.000538 1843. 1936.
58.4993 58.4862 1906(43) 0.000531 1843. 1932.
58.5030 58.4899 1875(43) 0.000542 1843. 1926.
58.5068 58.4937 2014(44) 0.000507 1843. 1920.
58.5105 58.4974 1749(42) 0.000576 1843. 1916.
58.5143 58.5012 1972(44) 0.000518 1843. 1912.
58.5180 58.5049 1890(43) 0.000541 1843. 1910.
58.5218 58.5087 1881(43) 0.000539 1843. 1911.
58.5256 58.5125 1990(44) 0.000521 1843. 1916.
58.5293 58.5162 1981(44) 0.000517 1843. 1924.
58.5331 58.5200 1872(43) 0.000549 1843. 1937.
58.5368 58.5237 1933(44) 0.000516 1843. 1954.
58.5406 58.5275 1898(43) 0.000542 1842. 1976.
58.5443 58.5312 1961(44) 0.000521 1842. 2003.
58.5481 58.5350 1943(44) 0.000510 1842. 2035.
58.5519 58.5388 2101(46) 0.000470 1842. 2070.
58.5556 58.5425 1986(44) 0.000506 1842. 2104.
58.5594 58.5463 2109(45) 0.000485 1842. 2138.
58.5631 58.5500 1964(44) 0.000516 1842. 2166.
58.5669 58.5538 2109(46) 0.000470 1842. 2186.
58.5706 58.5575 2123(46) 0.000474 1842. 2194.
58.5744 58.5613 2114(45) 0.000488 1842. 2191.
58.5781 58.5650 2060(45) 0.000488 1842. 2177.
58.5819 58.5688 2085(45) 0.000496 1842. 2154.
58.5857 58.5726 2029(45) 0.000495 1842. 2127.
58.5894 58.5763 1978(44) 0.000514 1842. 2098.
58.5932 58.5801 1870(43) 0.000531 1842. 2068.
58.5969 58.5838 2003(45) 0.000504 1842. 2040.
58.6007 58.5876 1878(43) 0.000531 1842. 2013.
58.6044 58.5913 1978(45) 0.000503 1842. 1989.
58.6082 58.5951 1942(44) 0.000513 1842. 1969.
58.6120 58.5989 2023(45) 0.000498 1842. 1952.
58.6157 58.6026 1917(43) 0.000532 1842. 1939.
58.6195 58.6064 1876(43) 0.000538 1842. 1929.
58.6232 58.6101 1887(43) 0.000537 1841. 1923.
58.6270 58.6139 1972(45) 0.000502 1841. 1918.
58.6307 58.6176 1938(44) 0.000517 1841. 1916.
58.6345 58.6214 2023(45) 0.000492 1841. 1914.
58.6383 58.6252 1907(44) 0.000527 1841. 1913.
58.6420 58.6289 1943(44) 0.000527 1841. 1913.
58.6458 58.6327 1870(43) 0.000543 1841. 1912.
58.6495 58.6364 2013(45) 0.000496 1841. 1911.
58.6533 58.6402 1798(42) 0.000567 1841. 1910.
58.6570 58.6439 1943(44) 0.000516 1841. 1909.
58.6608 58.6477 1815(43) 0.000548 1841. 1908.
58.6646 58.6515 1984(45) 0.000498 1841. 1906.
58.6683 58.6552 1960(44) 0.000513 1841. 1905.
58.6721 58.6590 1849(43) 0.000550 1841. 1903.
58.6758 58.6627 1900(43) 0.000533 1841. 1902.
58.6796 58.6665 1914(44) 0.000522 1841. 1901.
58.6833 58.6702 1883(43) 0.000530 1841. 1902.
58.6871 58.6740 1976(44) 0.000520 1841. 1904.
58.6909 58.6778 1900(43) 0.000534 1841. 1907.
58.6946 58.6815 1915(44) 0.000522 1841. 1913.
58.6984 58.6853 1846(42) 0.000556 1840. 1920.
58.7021 58.6890 1984(44) 0.000518 1840. 1930.
58.7059 58.6928 1952(44) 0.000512 1840. 1942.
58.7096 58.6965 2067(45) 0.000490 1840. 1955.
58.7134 58.7003 2051(45) 0.000493 1840. 1970.
58.7172 58.7041 2103(46) 0.000479 1840. 1986.
58.7209 58.7078 2089(45) 0.000490 1840. 2000.
58.7247 58.7116 2161(46) 0.000464 1840. 2014.
58.7284 58.7153 2100(45) 0.000486 1840. 2025.
58.7322 58.7191 2111(46) 0.000476 1840. 2034.
58.7360 58.7229 2105(46) 0.000477 1840. 2043.
58.7397 58.7266 2159(46) 0.000470 1840. 2054.
58.7435 58.7304 2128(46) 0.000468 1840. 2071.
58.7472 58.7341 2157(47) 0.000458 1840. 2098.
58.7510 58.7379 2128(46) 0.000470 1840. 2143.
58.7547 58.7416 2283(47) 0.000446 1840. 2210.
58.7585 58.7454 2242(47) 0.000452 1840. 2309.
58.7623 58.7492 2226(47) 0.000456 1840. 2444.
58.7660 58.7529 2460(50) 0.000399 1840. 2614.
58.7698 58.7567 2712(52) 0.000370 1840. 2828.
58.7735 58.7604 2979(54) 0.0003390 1840. 3071.
58.7773 58.7642 3415(58) 0.0002925 1839. 3346.
58.7810 58.7679 3752(61) 0.0002672 1839. 3624.
58.7886 58.7755 4409(66) 0.0002307 1839. 4122.
58.7923 58.7792 4545(67) 0.0002224 1839. 4275.
58.7961 58.7830 4278(65) 0.0002350 1839. 4336.
58.7998 58.7867 4262(65) 0.0002376 1839. 4293.
58.8036 58.7905 3794(61) 0.0002673 1839. 4150.
58.8073 58.7942 3662(60) 0.0002755 1839. 3938.
58.8111 58.7980 3200(56) 0.0003160 1839. 3672.
58.8149 58.8018 3192(56) 0.0003221 1839. 3387.
58.8186 58.8055 2774(53) 0.000357 1839. 3115.
58.8224 58.8093 2697(52) 0.000371 1839. 2858.
58.8261 58.8130 2475(49) 0.000410 1839. 2639.
58.8299 58.8168 2403(49) 0.000418 1839. 2453.
58.8337 58.8206 2262(48) 0.000440 1839. 2307.
58.8374 58.8243 2175(46) 0.000472 1839. 2199.
58.8412 58.8281 2173(46) 0.000465 1839. 2118.
58.8449 58.8318 2146(46) 0.000481 1839. 2063.
58.8487 58.8356 1969(45) 0.000503 1839. 2024.
58.8524 58.8393 2090(46) 0.000482 1838. 1999.
58.8562 58.8431 1899(44) 0.000523 1838. 1983.
58.8600 58.8469 2073(46) 0.000481 1838. 1974.
58.8637 58.8506 1994(45) 0.000503 1838. 1971.
58.8675 58.8544 2023(45) 0.000487 1838. 1971.
58.8712 58.8581 2006(45) 0.000497 1838. 1976.
58.8750 58.8619 1989(45) 0.000500 1838. 1987.
58.8787 58.8656 2040(45) 0.000484 1838. 2006.
58.8825 58.8694 2102(46) 0.000481 1838. 2037.
58.8863 58.8732 2087(46) 0.000474 1838. 2084.
58.8900 58.8769 2111(46) 0.000474 1838. 2151.
58.8938 58.8807 2180(47) 0.000453 1838. 2249.
58.8975 58.8844 2319(48) 0.000432 1838. 2378.
58.9013 58.8882 2373(49) 0.000418 1838. 2550.
58.9051 58.8920 2710(52) 0.000370 1838. 2763.
58.9088 58.8957 2901(53) 0.000355 1838. 3007.
58.9126 58.8995 3353(58) 0.0002928 1838. 3286.
58.9163 58.9032 3847(62) 0.0002588 1838. 3568.
58.9201 58.9070 4432(66) 0.0002269 1838. 3847.
58.9238 58.9107 4537(68) 0.0002191 1838. 4080.
58.9276 58.9145 4871(70) 0.0002063 1838. 4249.
58.9314 58.9183 4644(68) 0.0002154 1837. 4320.
58.9351 58.9220 4299(65) 0.0002342 1837. 4283.
58.9389 58.9258 4003(63) 0.0002511 1837. 4144.
58.9426 58.9295 3753(61) 0.0002724 1837. 3935.
58.9464 58.9333 3429(59) 0.0002875 1837. 3676.
58.9502 58.9371 3275(58) 0.0002983 1837. 3402.
58.9539 58.9408 3006(54) 0.0003396 1837. 3145.
58.9577 58.9446 2868(53) 0.0003507 1837. 2910.
58.9614 58.9483 2642(51) 0.000384 1837. 2717.
58.9652 58.9521 2654(51) 0.000383 1837. 2559.
58.9689 58.9558 2482(50) 0.000403 1837. 2442.
58.9727 58.9596 2413(49) 0.000419 1837. 2351.
58.9765 58.9634 2325(48) 0.000429 1837. 2283.
58.9802 58.9671 2251(48) 0.000443 1837. 2229.
58.9840 58.9709 2111(46) 0.000475 1837. 2181.
58.9877 58.9746 2139(46) 0.000463 1837. 2138.
58.9915 58.9784 2013(45) 0.000497 1837. 2096.
58.9953 58.9822 2060(46) 0.000480 1837. 2057.
58.9990 58.9859 1985(45) 0.000495 1837. 2022.
59.0028 58.9897 2005(45) 0.000504 1836. 1990.
59.0065 58.9934 1951(44) 0.000509 1836. 1964.
59.0103 58.9972 1972(44) 0.000507 1836. 1941.
59.0140 59.0009 2037(45) 0.000486 1836. 1924.
59.0178 59.0047 1911(44) 0.000524 1836. 1911.
59.0216 59.0085 1874(43) 0.000533 1836. 1901.
59.0253 59.0122 1923(44) 0.000509 1836. 1894.
59.0291 59.0160 1820(43) 0.000550 1836. 1888.
59.0328 59.0197 1910(44) 0.000523 1836. 1884.
59.0366 59.0235 1797(42) 0.000563 1836. 1881.
59.0404 59.0273 1916(44) 0.000524 1836. 1878.
59.0441 59.0310 1844(43) 0.000544 1836. 1876.
59.0479 59.0348 1964(45) 0.000499 1836. 1875.
59.0516 59.0385 1861(43) 0.000533 1836. 1873.
59.0554 59.0423 1825(43) 0.000538 1836. 1872.
59.0592 59.0461 1873(43) 0.000532 1836. 1871.
59.0629 59.0498 1929(44) 0.000507 1836. 1870.
59.0667 59.0536 1871(43) 0.000540 1836. 1869.
59.0704 59.0573 1894(44) 0.000524 1836. 1868.
59.0742 59.0611 1815(43) 0.000543 1836. 1868.
59.0779 59.0648 1846(43) 0.000548 1835. 1867.
59.0817 59.0686 1869(44) 0.000526 1835. 1867.
59.0855 59.0724 1902(44) 0.000517 1835. 1867.
59.0892 59.0761 1786(42) 0.000561 1835. 1867.
59.0930 59.0799 1863(43) 0.000532 1835. 1867.
59.0967 59.0836 1876(44) 0.000524 1835. 1867.
59.1005 59.0874 1854(43) 0.000533 1835. 1867.
59.1043 59.0912 1798(43) 0.000550 1835. 1867.
59.1080 59.0949 1901(44) 0.000521 1835. 1867.
59.1118 59.0987 1864(43) 0.000535 1835. 1866.
59.1155 59.1024 1930(44) 0.000506 1835. 1866.
59.1193 59.1062 1802(43) 0.000541 1835. 1865.
59.1230 59.1099 1884(43) 0.000537 1835. 1865.
59.1268 59.1137 1788(43) 0.000547 1835. 1864.
59.1306 59.1175 1905(44) 0.000512 1835. 1864.
59.1343 59.1212 1790(43) 0.000545 1835. 1863.
59.1381 59.1250 1830(43) 0.000533 1835. 1863.
59.1418 59.1287 1881(44) 0.000518 1835. 1863.
59.1456 59.1325 1807(42) 0.000562 1835. 1863.
59.1494 59.1363 1889(44) 0.000510 1834. 1863.
59.1531 59.1400 1795(43) 0.000547 1834. 1863.
59.1569 59.1438 1858(43) 0.000545 1834. 1863.
59.1606 59.1475 1788(43) 0.000545 1834. 1863.
59.1644 59.1513 1873(44) 0.000528 1834. 1864.
59.1682 59.1551 1840(43) 0.000533 1834. 1864.
59.1719 59.1588 1802(43) 0.000542 1834. 1865.
59.1757 59.1626 1912(44) 0.000507 1834. 1865.
59.1794 59.1663 1865(43) 0.000530 1834. 1866.
59.1832 59.1701 1898(44) 0.000510 1834. 1867.
59.1870 59.1739 1856(43) 0.000529 1834. 1868.
59.1907 59.1776 1803(43) 0.000549 1834. 1869.
59.1945 59.1814 1798(42) 0.000554 1834. 1870.
59.1982 59.1851 1845(43) 0.000536 1834. 1871.
59.2020 59.1889 1838(43) 0.000539 1834. 1872.
59.2057 59.1926 1945(45) 0.000504 1834. 1873.
59.2095 59.1964 1845(43) 0.000533 1834. 1875.
59.2133 59.2002 1883(43) 0.000531 1834. 1877.
59.2170 59.2039 1874(44) 0.000526 1834. 1879.
59.2208 59.2077 1936(44) 0.000509 1834. 1882.
59.2245 59.2114 1811(43) 0.000533 1833. 1884.
59.2283 59.2152 1926(44) 0.000510 1833. 1887.
59.2321 59.2190 1846(44) 0.000527 1833. 1891.
59.2358 59.2227 1931(44) 0.000505 1833. 1896.
59.2396 59.2265 1872(44) 0.000523 1833. 1903.
59.2433 59.2302 1949(44) 0.000507 1833. 1911.
59.2471 59.2340 1852(44) 0.000524 1833. 1921.
59.2509 59.2378 1964(45) 0.000497 1833. 1936.
59.2546 59.2415 1960(44) 0.000509 1833. 1954.
59.2584 59.2453 1968(45) 0.000500 1833. 1979.
59.2621 59.2490 1895(44) 0.000509 1833. 2011.
59.2659 59.2528 1986(45) 0.000494 1833. 2052.
59.2697 59.2566 2028(46) 0.000481 1833. 2104.
59.2734 59.2603 2081(46) 0.000471 1833. 2168.
59.2772 59.2641 2126(46) 0.000471 1833. 2248.
59.2809 59.2678 2178(47) 0.000444 1833. 2341.
59.2847 59.2716 2313(48) 0.000429 1833. 2452.
59.2885 59.2754 2453(50) 0.000403 1833. 2579.
59.2922 59.2791 2570(51) 0.000383 1833. 2716.
59.2960 59.2829 2806(54) 0.0003447 1832. 2869.
59.2997 59.2866 3105(56) 0.0003136 1832. 3026.
59.3035 59.2904 3330(58) 0.0002942 1832. 3190.
59.3072 59.2941 3371(59) 0.0002872 1832. 3345.
59.3110 59.2979 3640(62) 0.0002630 1832. 3487.
59.3148 59.3017 3615(61) 0.0002679 1832. 3602.
59.3185 59.3054 3825(63) 0.0002544 1832. 3681.
59.3223 59.3092 3721(63) 0.0002560 1832. 3728.
59.3260 59.3129 4012(65) 0.0002375 1832. 3743.
59.3298 59.3167 3839(63) 0.0002495 1832. 3728.
59.3336 59.3205 4041(64) 0.0002429 1832. 3682.
59.3373 59.3242 3851(63) 0.0002531 1832. 3605.
59.3411 59.3280 3709(62) 0.0002627 1832. 3492.
59.3448 59.3317 3397(60) 0.0002790 1832. 3351.
59.3486 59.3355 3216(58) 0.0002938 1832. 3184.
59.3524 59.3393 2969(56) 0.0003202 1832. 3007.
59.3561 59.3430 2884(55) 0.0003349 1832. 2836.
59.3599 59.3468 2575(52) 0.000370 1832. 2670.
59.3636 59.3505 2516(51) 0.000390 1832. 2524.
59.3674 59.3543 2359(49) 0.000409 1831. 2394.
59.3712 59.3581 2427(49) 0.000410 1831. 2285.
59.3749 59.3618 2151(47) 0.000448 1831. 2199.
59.3787 59.3656 2218(48) 0.000439 1831. 2131.
59.3824 59.3693 2050(46) 0.000475 1831. 2081.
59.3862 59.3731 2092(47) 0.000460 1831. 2046.
59.3900 59.3769 1961(46) 0.000480 1831. 2022.
59.3937 59.3806 2148(47) 0.000447 1831. 2009.
59.3975 59.3844 2098(47) 0.000459 1831. 2002.
59.4012 59.3881 2197(48) 0.000437 1831. 1999.
59.4050 59.3919 2142(47) 0.000456 1831. 1999.
59.4088 59.3957 2132(46) 0.000467 1831. 1999.
59.4125 59.3994 2052(47) 0.000460 1831. 1999.
59.4163 59.4032 2109(47) 0.000448 1831. 1996.
59.4200 59.4069 1925(44) 0.000507 1831. 1992.
59.4238 59.4107 2016(46) 0.000480 1831. 1985.
59.4276 59.4145 2010(45) 0.000485 1831. 1978.
59.4313 59.4182 1998(45) 0.000490 1831. 1972.
59.4351 59.4220 1894(44) 0.000512 1830. 1968.
59.4388 59.4257 2038(46) 0.000464 1830. 1968.
59.4426 59.4295 2031(45) 0.000483 1830. 1973.
59.4464 59.4333 1985(45) 0.000491 1830. 1985.
59.4501 59.4370 1798(43) 0.000533 1830. 2004.
59.4539 59.4408 1983(46) 0.000478 1830. 2034.
59.4576 59.4445 1948(45) 0.000490 1830. 2071.
59.4614 59.4483 2176(46) 0.000471 1830. 2117.
59.4651 59.4520 2020(45) 0.000498 1830. 2168.
59.4689 59.4558 2160(46) 0.000472 1830. 2223.
59.4727 59.4596 2210(47) 0.000454 1830. 2277.
59.4764 59.4633 2329(48) 0.000428 1830. 2323.
59.4802 59.4671 2180(46) 0.000467 1830. 2358.
59.4839 59.4708 2287(48) 0.000435 1830. 2374.
59.4877 59.4746 2175(46) 0.000466 1830. 2369.
59.4915 59.4784 2216(47) 0.000445 1830. 2344.
59.4952 59.4821 2155(46) 0.000473 1830. 2304.
59.4990 59.4859 2125(46) 0.000476 1830. 2252.
59.5027 59.4896 2097(46) 0.000480 1830. 2197.
59.5065 59.4934 2112(45) 0.000485 1829. 2140.
59.5103 59.4972 1976(44) 0.000513 1829. 2087.
59.5140 59.5009 2039(45) 0.000494 1829. 2042.
59.5178 59.5047 1914(44) 0.000517 1829. 2004.
59.5215 59.5084 2045(45) 0.000490 1829. 1974.
59.5253 59.5122 1832(43) 0.000537 1829. 1950.
59.5291 59.5160 1890(44) 0.000518 1829. 1934.
59.5328 59.5197 1877(43) 0.000534 1829. 1924.
59.5366 59.5235 1880(43) 0.000534 1829. 1917.
59.5403 59.5272 1854(43) 0.000538 1829. 1915.
59.5441 59.5310 1981(45) 0.000503 1829. 1915.
59.5479 59.5348 1859(44) 0.000526 1829. 1918.
59.5516 59.5385 2022(45) 0.000499 1829. 1923.
59.5554 59.5423 1896(43) 0.000532 1829. 1930.
59.5591 59.5460 2004(45) 0.000502 1829. 1938.
59.5629 59.5498 1841(43) 0.000546 1829. 1948.
59.5667 59.5536 1968(45) 0.000504 1829. 1958.
59.5704 59.5573 1886(43) 0.000530 1829. 1969.
59.5742 59.5611 2035(45) 0.000494 1828. 1981.
59.5779 59.5648 1956(44) 0.000516 1828. 1991.
59.5817 59.5686 1983(45) 0.000501 1828. 2002.
59.5855 59.5724 1985(45) 0.000504 1828. 2015.
59.5892 59.5761 2036(45) 0.000489 1828. 2030.
59.5930 59.5799 1955(44) 0.000513 1828. 2053.
59.5967 59.5836 2036(45) 0.000492 1828. 2083.
59.6005 59.5874 1973(45) 0.000504 1828. 2128.
59.6043 59.5912 2030(45) 0.000494 1828. 2188.
59.6080 59.5949 2157(47) 0.000455 1828. 2262.
59.6118 59.5987 2232(47) 0.000443 1828. 2353.
59.6155 59.6024 2311(47) 0.000445 1828. 2456.
59.6193 59.6062 2521(50) 0.000402 1828. 2569.
59.6231 59.6100 2647(52) 0.000376 1828. 2682.
59.6268 59.6137 2837(53) 0.0003500 1828. 2784.
59.6306 59.6175 2817(53) 0.000362 1828. 2866.
59.6343 59.6212 2924(55) 0.0003366 1828. 2913.
59.6381 59.6250 2807(53) 0.000358 1828. 2921.
59.6419 59.6288 2872(53) 0.000354 1827. 2885.
59.6456 59.6325 2635(52) 0.000377 1827. 2814.
59.6494 59.6363 2548(51) 0.000388 1827. 2716.
59.6531 59.6400 2466(49) 0.000412 1827. 2607.
59.6569 59.6438 2432(49) 0.000414 1827. 2492.
59.6607 59.6476 2296(48) 0.000440 1827. 2383.
59.6644 59.6513 2244(48) 0.000440 1827. 2287.
59.6682 59.6551 2247(48) 0.000441 1827. 2204.
59.6719 59.6588 2130(46) 0.000469 1827. 2139.
59.6757 59.6626 2069(46) 0.000473 1827. 2091.
59.6795 59.6664 2151(46) 0.000466 1827. 2060.
59.6832 59.6701 2065(46) 0.000473 1827. 2049.
59.6870 59.6739 2152(47) 0.000460 1827. 2058.
59.6907 59.6776 2082(46) 0.000477 1827. 2089.
59.6945 59.6814 2223(47) 0.000444 1827. 2150.
59.6983 59.6852 2184(47) 0.000454 1827. 2247.
59.7020 59.6889 2410(49) 0.000409 1827. 2381.
59.7058 59.6927 2418(49) 0.000410 1827. 2565.
59.7095 59.6964 2795(53) 0.000359 1826. 2791.
59.7133 59.7002 2977(55) 0.0003315 1826. 3067.
59.7171 59.7040 3667(61) 0.0002705 1826. 3375.
59.7208 59.7077 3945(63) 0.0002503 1826. 3685.
59.7246 59.7115 4542(69) 0.0002131 1826. 3987.
59.7283 59.7152 4860(70) 0.0002052 1826. 4231.
59.7321 59.7190 4893(70) 0.0002018 1826. 4398.
59.7359 59.7228 4528(68) 0.0002165 1826. 4453.
59.7396 59.7265 4452(67) 0.0002220 1826. 4390.
59.7434 59.7303 3967(62) 0.0002617 1826. 4217.
59.7472 59.7341 3632(62) 0.0002583 1826. 3965.
59.7509 59.7378 3452(59) 0.0002831 1826. 3677.
59.7547 59.7416 3196(57) 0.0003041 1826. 3372.
59.7584 59.7453 2853(54) 0.0003475 1826. 3092.
59.7622 59.7491 2811(53) 0.000355 1826. 2844.
59.7660 59.7529 2715(53) 0.000360 1826. 2648.
59.7697 59.7566 2593(51) 0.000381 1826. 2512.
59.7735 59.7604 2372(49) 0.000425 1826. 2429.
59.7772 59.7641 2406(50) 0.000405 1825. 2399.
59.7810 59.7679 2397(50) 0.000405 1825. 2416.
59.7848 59.7717 2416(49) 0.000416 1825. 2473.
59.7885 59.7754 2463(50) 0.000407 1825. 2562.
59.7923 59.7792 2692(53) 0.000363 1825. 2680.
59.7960 59.7829 2794(53) 0.000352 1825. 2813.
59.7998 59.7867 3059(56) 0.0003219 1825. 2958.
59.8036 59.7905 3294(58) 0.0003019 1825. 3098.
59.8073 59.7942 3603(60) 0.0002742 1825. 3217.
59.8111 59.7980 3534(59) 0.0002825 1825. 3303.
59.8148 59.8017 3694(61) 0.0002649 1825. 3340.
59.8186 59.8055 3430(58) 0.0002990 1825. 3322.
59.8224 59.8093 3406(58) 0.0002923 1825. 3249.
59.8261 59.8130 3077(55) 0.0003262 1825. 3137.
59.8299 59.8168 2976(54) 0.0003370 1825. 2994.
59.8336 59.8205 2669(52) 0.000374 1825. 2843.
59.8374 59.8243 2638(51) 0.000378 1825. 2688.
59.8412 59.8281 2438(49) 0.000410 1825. 2543.
59.8449 59.8318 2420(49) 0.000415 1824. 2417.
59.8487 59.8356 2148(47) 0.000454 1824. 2308.
59.8524 59.8393 2310(48) 0.000428 1824. 2222.
59.8562 59.8431 2195(48) 0.000443 1824. 2154.
59.8600 59.8469 2198(48) 0.000441 1824. 2105.
59.8637 59.8506 2081(46) 0.000474 1824. 2076.
59.8675 59.8544 2230(48) 0.000441 1824. 2062.
59.8712 59.8581 2039(46) 0.000480 1824. 2064.
59.8750 59.8619 2116(46) 0.000466 1824. 2085.
59.8788 59.8657 2069(46) 0.000482 1824. 2128.
59.8825 59.8694 2211(48) 0.000440 1824. 2194.
59.8863 59.8732 2264(47) 0.000448 1824. 2292.
59.8900 59.8769 2351(49) 0.000417 1824. 2422.
59.8938 59.8807 2467(50) 0.000395 1824. 2593.
59.8976 59.8845 2708(52) 0.000364 1824. 2804.
59.9013 59.8882 2953(54) 0.0003371 1824. 3042.
59.9051 59.8920 3431(59) 0.0002865 1824. 3309.
59.9088 59.8957 3829(63) 0.0002542 1823. 3577.
59.9126 59.8995 4325(66) 0.0002304 1823. 3836.
59.9164 59.9033 4639(69) 0.0002095 1823. 4052.
59.9201 59.9070 4708(69) 0.0002081 1823. 4193.
59.9239 59.9108 4661(69) 0.0002120 1823. 4245.
59.9277 59.9146 4338(67) 0.0002244 1823. 4192.
59.9314 59.9183 4112(65) 0.0002395 1823. 4049.
59.9352 59.9221 3771(62) 0.0002590 1823. 3831.
59.9389 59.9258 3435(60) 0.0002739 1823. 3578.
59.9427 59.9296 3146(57) 0.0003061 1823. 3302.
59.9465 59.9334 2852(54) 0.0003461 1823. 3033.
59.9502 59.9371 2766(53) 0.000359 1823. 2794.
59.9540 59.9409 2550(51) 0.000378 1823. 2582.
59.9577 59.9446 2486(50) 0.000397 1823. 2413.
59.9615 59.9484 2307(49) 0.000422 1823. 2277.
59.9653 59.9522 2232(47) 0.000443 1823. 2176.
59.9690 59.9559 2182(47) 0.000453 1823. 2106.
59.9728 59.9597 2129(46) 0.000466 1823. 2057.
59.9765 59.9634 2023(45) 0.000495 1822. 2027.
59.9803 59.9672 2115(46) 0.000463 1822. 2010.
59.9841 59.9710 2007(45) 0.000495 1822. 2004.
59.9878 59.9747 2103(46) 0.000471 1822. 2006.
59.9916 59.9785 2058(46) 0.000482 1822. 2017.
59.9953 59.9822 2132(47) 0.000462 1822. 2037.
59.9991 59.9860 1994(45) 0.000485 1822. 2069.
60.0029 59.9898 2172(47) 0.000453 1822. 2117.
60.0066 59.9935 2240(48) 0.000441 1822. 2181.
60.0104 59.9973 2351(49) 0.000410 1822. 2270.
60.0141 60.0010 2230(47) 0.000448 1822. 2381.
60.0179 60.0048 2480(51) 0.000390 1822. 2524.
60.0217 60.0086 2575(51) 0.000377 1822. 2697.
60.0254 60.0123 2955(55) 0.0003326 1822. 2889.
60.0292 60.0161 3259(58) 0.0002970 1822. 3106.
60.0329 60.0198 3799(62) 0.0002588 1822. 3325.
60.0367 60.0236 4032(63) 0.0002489 1822. 3544.
60.0405 60.0274 4464(68) 0.0002190 1821. 3736.
60.0442 60.0311 4479(68) 0.0002170 1821. 3879.
60.0480 60.0349 4703(69) 0.0002084 1821. 3960.
60.0517 60.0386 4247(66) 0.0002282 1821. 3967.
60.0555 60.0424 4175(65) 0.0002372 1821. 3902.
60.0593 60.0462 3806(63) 0.0002526 1821. 3785.
60.0630 60.0499 3584(60) 0.0002803 1821. 3641.
60.0668 60.0537 3369(58) 0.0002976 1821. 3487.
60.0706 60.0575 3245(58) 0.0002993 1821. 3347.
60.0743 60.0612 3184(57) 0.0003030 1821. 3237.
60.0781 60.0650 3162(57) 0.0003035 1821. 3156.
60.0818 60.0687 3198(57) 0.0003054 1821. 3109.
60.0856 60.0725 3355(58) 0.0002929 1821. 3088.
60.0894 60.0763 3172(57) 0.0003069 1821. 3082.
60.0931 60.0800 3245(58) 0.0003022 1821. 3077.
60.0969 60.0838 3092(57) 0.0003114 1821. 3059.
60.1006 60.0875 2983(56) 0.0003215 1821. 3016.
60.1044 60.0913 2779(54) 0.0003487 1820. 2943.
60.1082 60.0951 2682(53) 0.000361 1820. 2845.
60.1119 60.0988 2503(50) 0.000399 1820. 2733.
60.1157 60.1026 2552(51) 0.000391 1820. 2611.
60.1194 60.1063 2353(49) 0.000413 1820. 2494.
60.1232 60.1101 2332(49) 0.000412 1820. 2382.
60.1270 60.1139 2212(48) 0.000441 1820. 2283.
60.1307 60.1176 2216(48) 0.000441 1820. 2202.
60.1345 60.1214 2088(46) 0.000473 1820. 2137.
60.1382 60.1251 2007(45) 0.000487 1820. 2088.
60.1420 60.1289 2001(45) 0.000500 1820. 2053.
60.1458 60.1327 2029(45) 0.000484 1820. 2029.
60.1495 60.1364 1950(45) 0.000485 1820. 2013.
60.1533 60.1402 2043(45) 0.000485 1820. 2003.
60.1570 60.1439 1959(45) 0.000502 1820. 1996.
60.1608 60.1477 1856(44) 0.000522 1820. 1989.
60.1646 60.1515 1916(44) 0.000510 1820. 1982.
60.1683 60.1552 1993(45) 0.000496 1820. 1972.
60.1721 60.1590 1885(43) 0.000529 1819. 1961.
60.1759 60.1628 1940(43) 0.000530 1819. 1949.
60.1796 60.1665 1913(44) 0.000508 1819. 1938.
60.1834 60.1703 1963(45) 0.000501 1819. 1926.
60.1871 60.1740 1982(45) 0.000488 1819. 1916.
60.1909 60.1778 1922(45) 0.000504 1819. 1906.
60.1947 60.1816 1854(44) 0.000527 1819. 1898.
60.1984 60.1853 1879(44) 0.000511 1819. 1892.
60.2022 60.1891 1798(42) 0.000561 1819. 1887.
60.2059 60.1928 1910(44) 0.000513 1819. 1883.
60.2097 60.1966 1899(44) 0.000512 1819. 1880.
60.2135 60.2004 1922(45) 0.000501 1819. 1877.
60.2172 60.2041 1844(44) 0.000521 1819. 1876.
60.2210 60.2079 1911(44) 0.000522 1819. 1875.
60.2247 60.2116 1821(43) 0.000543 1819. 1874.
60.2285 60.2154 1883(44) 0.000516 1819. 1874.
60.2323 60.2192 1820(43) 0.000544 1819. 1875.
60.2360 60.2229 1883(44) 0.000515 1818. 1877.
60.2398 60.2267 1783(42) 0.000561 1818. 1880.
60.2435 60.2304 1814(43) 0.000545 1818. 1884.
60.2473 60.2342 1874(45) 0.000503 1818. 1892.
60.2511 60.2380 1867(44) 0.000520 1818. 1902.
60.2548 60.2417 1852(44) 0.000515 1818. 1916.
60.2586 60.2455 2008(45) 0.000489 1818. 1935.
60.2624 60.2493 1943(45) 0.000501 1818. 1960.
60.2661 60.2530 1906(44) 0.000508 1818. 1990.
60.2699 60.2568 1900(45) 0.000500 1818. 2026.
60.2736 60.2605 2020(46) 0.000479 1818. 2067.
60.2774 60.2643 2008(45) 0.000487 1818. 2113.
60.2812 60.2681 2086(47) 0.000458 1818. 2162.
60.2849 60.2718 2113(47) 0.000459 1818. 2211.
60.2887 60.2756 2175(47) 0.000458 1818. 2259.
60.2924 60.2793 2141(47) 0.000454 1818. 2304.
60.2962 60.2831 2172(48) 0.000438 1818. 2348.
60.3000 60.2869 2192(47) 0.000446 1817. 2391.
60.3037 60.2906 2181(47) 0.000447 1817. 2434.
60.3075 60.2944 2246(48) 0.000436 1817. 2484.
60.3112 60.2981 2353(49) 0.000408 1817. 2539.
60.3150 60.3019 2420(50) 0.000403 1817. 2600.
60.3188 60.3057 2682(53) 0.000360 1817. 2662.
60.3225 60.3094 2611(51) 0.000384 1817. 2716.
60.3263 60.3132 2758(53) 0.000352 1817. 2756.
60.3300 60.3169 2729(53) 0.000362 1817. 2772.
60.3338 60.3207 2649(52) 0.000371 1817. 2759.
60.3376 60.3245 2509(51) 0.000387 1817. 2715.
60.3413 60.3282 2497(51) 0.000391 1817. 2645.
60.3451 60.3320 2335(49) 0.000422 1817. 2554.
60.3488 60.3357 2269(48) 0.000432 1817. 2455.
60.3526 60.3395 2178(47) 0.000448 1817. 2353.
60.3564 60.3433 2108(47) 0.000457 1817. 2257.
60.3601 60.3470 2043(46) 0.000483 1817. 2174.
60.3639 60.3508 2102(47) 0.000454 1816. 2104.
60.3677 60.3546 1914(44) 0.000509 1816. 2050.
60.3714 60.3583 2051(46) 0.000472 1816. 2013.
60.3752 60.3621 1947(45) 0.000498 1816. 1992.
60.3789 60.3658 1972(45) 0.000487 1816. 1986.
60.3827 60.3696 1929(44) 0.000511 1816. 1994.
60.3865 60.3734 1979(45) 0.000499 1816. 2015.
60.3902 60.3771 1856(44) 0.000528 1816. 2049.
60.3940 60.3809 2065(46) 0.000480 1816. 2096.
60.3977 60.3846 2093(46) 0.000466 1816. 2152.
60.4015 60.3884 2156(47) 0.000448 1816. 2218.
60.4053 60.3922 2297(49) 0.000421 1816. 2290.
60.4090 60.3959 2508(51) 0.000387 1816. 2359.
60.4128 60.3997 2428(50) 0.000404 1816. 2426.
60.4165 60.4034 2639(52) 0.000372 1816. 2477.
60.4203 60.4072 2475(51) 0.000388 1816. 2510.
60.4241 60.4110 2399(49) 0.000418 1816. 2517.
60.4278 60.4147 2387(49) 0.000415 1815. 2498.
60.4316 60.4185 2299(48) 0.000435 1815. 2454.
60.4353 60.4222 2230(47) 0.000447 1815. 2395.
60.4391 60.4260 2161(46) 0.000470 1815. 2323.
60.4429 60.4298 1973(44) 0.000513 1815. 2249.
60.4466 60.4335 2159(46) 0.000464 1815. 2178.
60.4504 60.4373 2008(45) 0.000485 1815. 2112.
60.4542 60.4411 2093(45) 0.000489 1815. 2054.
60.4579 60.4448 1955(43) 0.000529 1815. 2007.
60.4617 60.4486 1996(44) 0.000507 1815. 1969.
60.4654 60.4523 1847(43) 0.000545 1815. 1941.
60.4692 60.4561 1873(43) 0.000549 1815. 1921.
60.4730 60.4599 1865(43) 0.000542 1815. 1908.
60.4767 60.4636 1905(44) 0.000524 1815. 1901.
60.4805 60.4674 1830(42) 0.000559 1815. 1897.
60.4842 60.4711 1860(43) 0.000545 1815. 1898.
60.4880 60.4749 1822(42) 0.000563 1814. 1900.
60.4918 60.4787 1974(44) 0.000514 1814. 1904.
60.4955 60.4824 1844(43) 0.000545 1814. 1907.
60.4993 60.4862 1956(44) 0.000518 1814. 1910.
60.5030 60.4899 1831(42) 0.000556 1814. 1912.
60.5068 60.4937 1892(43) 0.000544 1814. 1911.
60.5106 60.4975 1813(42) 0.000558 1814. 1909.
60.5143 60.5012 1812(42) 0.000555 1814. 1904.
60.5181 60.5050 1859(43) 0.000542 1814. 1898.
60.5218 60.5087 1931(44) 0.000523 1814. 1891.
60.5256 60.5125 1827(42) 0.000559 1814. 1884.
60.5294 60.5163 1818(43) 0.000548 1814. 1878.
60.5331 60.5200 1804(42) 0.000559 1814. 1872.
60.5369 60.5238 1912(44) 0.000527 1814. 1867.
60.5406 60.5275 1852(43) 0.000537 1814. 1863.
60.5444 60.5313 1852(43) 0.000535 1814. 1860.
60.5482 60.5351 1832(43) 0.000552 1814. 1858.
60.5519 60.5388 1836(43) 0.000536 1813. 1857.
60.5557 60.5426 1838(43) 0.000551 1813. 1856.
60.5595 60.5464 1838(43) 0.000548 1813. 1856.
60.5632 60.5501 1825(43) 0.000546 1813. 1856.
60.5670 60.5539 1782(42) 0.000577 1813. 1857.
60.5707 60.5576 1811(43) 0.000548 1813. 1858.
60.5745 60.5614 1897(44) 0.000528 1813. 1859.
60.5783 60.5652 1863(43) 0.000532 1813. 1860.
60.5820 60.5689 1925(44) 0.000528 1813. 1862.
60.5858 60.5727 1863(43) 0.000540 1813. 1864.
60.5895 60.5764 1838(43) 0.000553 1813. 1866.
60.5933 60.5802 1816(43) 0.000545 1813. 1869.
60.5971 60.5840 1982(44) 0.000508 1813. 1872.
60.6008 60.5877 1856(43) 0.000539 1813. 1876.
60.6046 60.5915 2008(45) 0.000495 1813. 1881.
60.6083 60.5952 1888(44) 0.000525 1813. 1888.
60.6121 60.5990 1900(43) 0.000534 1813. 1897.
60.6159 60.6028 1825(43) 0.000549 1812. 1910.
60.6196 60.6065 1926(44) 0.000522 1812. 1927.
60.6271 60.6140 2000(45) 0.000492 1812. 1983.
60.6309 60.6178 1899(44) 0.000520 1812. 2026.
60.6347 60.6216 2123(46) 0.000470 1812. 2081.
60.6384 60.6253 1981(45) 0.000501 1812. 2149.
60.6422 60.6291 2170(46) 0.000464 1812. 2232.
60.6460 60.6329 2223(47) 0.000461 1812. 2330.
60.6497 60.6366 2358(49) 0.000415 1812. 2435.
60.6535 60.6404 2524(51) 0.000391 1812. 2550.
60.6572 60.6441 2702(52) 0.000364 1812. 2662.
60.6610 60.6479 2821(53) 0.0003504 1812. 2768.
60.6648 60.6517 2920(55) 0.0003366 1812. 2854.
60.6685 60.6554 2966(54) 0.0003373 1812. 2909.
60.6723 60.6592 3034(55) 0.0003292 1812. 2927.
60.6760 60.6629 2811(54) 0.0003492 1811. 2906.
60.6798 60.6667 2763(52) 0.000368 1811. 2848.
60.6836 60.6705 2668(51) 0.000386 1811. 2765.
60.6873 60.6742 2559(50) 0.000394 1811. 2671.
60.6911 60.6780 2487(50) 0.000400 1811. 2573.
60.6948 60.6817 2438(50) 0.000407 1811. 2486.
60.6986 60.6855 2314(48) 0.000428 1811. 2414.
60.7024 60.6893 2367(49) 0.000420 1811. 2367.
60.7061 60.6930 2228(47) 0.000455 1811. 2353.
60.7099 60.6968 2349(48) 0.000426 1811. 2376.
60.7136 60.7005 2355(49) 0.000425 1811. 2438.
60.7174 60.7043 2434(50) 0.000403 1811. 2545.
60.7212 60.7081 2508(51) 0.000389 1811. 2693.
60.7249 60.7118 2882(54) 0.0003418 1811. 2874.
60.7287 60.7156 2999(55) 0.0003267 1811. 3089.
60.7324 60.7193 3649(61) 0.0002715 1811. 3312.
60.7362 60.7231 3779(62) 0.0002581 1811. 3537.
60.7400 60.7269 4235(66) 0.0002271 1810. 3737.
60.7437 60.7306 4095(64) 0.0002430 1810. 3884.
60.7475 60.7344 4159(65) 0.0002403 1810. 3961.
60.7513 60.7382 3988(64) 0.0002431 1810. 3952.
60.7550 60.7419 3832(63) 0.0002535 1810. 3860.
60.7588 60.7457 3508(60) 0.0002824 1810. 3696.
60.7625 60.7494 3329(57) 0.0003060 1810. 3490.
60.7663 60.7532 2978(55) 0.0003353 1810. 3253.
60.7701 60.7570 2841(54) 0.0003464 1810. 3014.
60.7738 60.7607 2614(51) 0.000381 1810. 2793.
60.7776 60.7645 2470(50) 0.000401 1810. 2590.
60.7813 60.7682 2246(48) 0.000442 1810. 2423.
60.7851 60.7720 2309(48) 0.000431 1810. 2283.
60.7889 60.7758 2201(47) 0.000444 1810. 2174.
60.7926 60.7795 2222(48) 0.000430 1810. 2095.
60.7964 60.7833 2074(46) 0.000478 1810. 2037.
60.8001 60.7870 2035(46) 0.000482 1809. 1998.
60.8039 60.7908 1936(44) 0.000515 1809. 1973.
60.8077 60.7946 1987(45) 0.000503 1809. 1960.
60.8114 60.7983 1950(45) 0.000499 1809. 1956.
60.8152 60.8021 1989(45) 0.000497 1809. 1960.
60.8189 60.8058 1903(44) 0.000514 1809. 1974.
60.8227 60.8096 1938(44) 0.000508 1809. 1997.
60.8265 60.8134 1957(45) 0.000504 1809. 2031.
60.8302 60.8171 2058(46) 0.000468 1809. 2075.
60.8340 60.8209 2073(45) 0.000486 1809. 2133.
60.8377 60.8246 2115(46) 0.000465 1809. 2199.
60.8415 60.8284 2259(47) 0.000457 1809. 2275.
60.8453 60.8322 2400(49) 0.000420 1809. 2355.
60.8490 60.8359 2480(51) 0.000390 1809. 2430.
60.8528 60.8397 2699(52) 0.000363 1809. 2498.
60.8565 60.8434 2576(52) 0.000374 1809. 2547.
60.8603 60.8472 2507(50) 0.000393 1809. 2572.
60.8641 60.8510 2468(50) 0.000404 1808. 2568.
60.8678 60.8547 2453(50) 0.000400 1808. 2538.
60.8716 60.8585 2413(49) 0.000416 1808. 2485.
60.8754 60.8623 2290(48) 0.000425 1808. 2417.
60.8791 60.8660 2259(48) 0.000433 1808. 2345.
60.8829 60.8698 2121(47) 0.000460 1808. 2273.
60.8866 60.8735 2067(46) 0.000474 1808. 2210.
60.8904 60.8773 2159(47) 0.000449 1808. 2157.
60.8942 60.8811 2008(45) 0.000487 1808. 2118.
60.8979 60.8848 2152(47) 0.000448 1808. 2095.
60.9017 60.8886 2064(46) 0.000480 1808. 2089.
60.9054 60.8923 2095(46) 0.000472 1808. 2099.
60.9092 60.8961 2059(46) 0.000477 1808. 2128.
60.9130 60.8999 2131(46) 0.000465 1808. 2176.
60.9167 60.9036 2114(46) 0.000477 1808. 2243.
60.9205 60.9074 2259(48) 0.000443 1808. 2333.
60.9242 60.9111 2277(48) 0.000437 1807. 2442.
60.9280 60.9149 2508(50) 0.000399 1807. 2574.
60.9318 60.9187 2701(52) 0.000375 1807. 2722.
60.9355 60.9224 3022(55) 0.0003264 1807. 2874.
60.9393 60.9262 3150(56) 0.0003235 1807. 3030.
60.9430 60.9299 3542(59) 0.0002849 1807. 3166.
60.9468 60.9337 3418(58) 0.0002934 1807. 3275.
60.9506 60.9375 3543(60) 0.0002772 1807. 3337.
60.9543 60.9412 3305(58) 0.0002979 1807. 3344.
60.9581 60.9450 3222(56) 0.0003155 1807. 3294.
60.9618 60.9487 2993(55) 0.0003363 1807. 3200.
60.9656 60.9525 2960(55) 0.0003328 1807. 3073.
60.9694 60.9563 2836(53) 0.000353 1807. 2932.
60.9731 60.9600 2653(52) 0.000375 1807. 2800.
60.9769 60.9638 2570(52) 0.000375 1807. 2684.
60.9806 60.9675 2505(51) 0.000390 1807. 2603.
60.9844 60.9713 2480(51) 0.000391 1807. 2561.
60.9882 60.9751 2451(50) 0.000407 1806. 2569.
60.9919 60.9788 2577(52) 0.000370 1806. 2628.
60.9957 60.9826 2717(52) 0.000368 1806. 2741.
60.9994 60.9863 2846(53) 0.0003505 1806. 2898.
61.0032 60.9901 3272(58) 0.0003000 1806. 3099.
61.0070 60.9939 3554(60) 0.0002755 1806. 3326.
61.0107 60.9976 4164(66) 0.0002321 1806. 3556.
61.0145 61.0014 4471(67) 0.0002240 1806. 3777.
61.0182 61.0051 4893(71) 0.0001977 1806. 3954.
61.0220 61.0089 4718(70) 0.0002067 1806. 4071.
61.0258 61.0127 4607(69) 0.0002106 1806. 4103.
61.0295 61.0164 4320(67) 0.0002255 1806. 4046.
61.0333 61.0202 4074(64) 0.0002452 1806. 3906.
61.0371 61.0240 3603(61) 0.0002646 1806. 3706.
61.0408 61.0277 3400(59) 0.0002856 1806. 3476.
61.0446 61.0315 3138(56) 0.0003161 1806. 3228.
61.0483 61.0352 2982(55) 0.0003308 1805. 2993.
61.0521 61.0390 2848(54) 0.0003406 1805. 2772.
61.0559 61.0428 2762(53) 0.000360 1805. 2582.
61.0596 61.0465 2593(51) 0.000380 1805. 2429.
61.0634 61.0503 2522(50) 0.000402 1805. 2308.
61.0671 61.0540 2218(48) 0.000441 1805. 2221.
61.0709 61.0578 2380(49) 0.000415 1805. 2163.
61.0747 61.0616 2157(47) 0.000447 1805. 2131.
61.0784 61.0653 2276(48) 0.000443 1805. 2123.
61.0822 61.0691 2178(47) 0.000455 1805. 2137.
61.0859 61.0728 2235(47) 0.000453 1805. 2171.
61.0897 61.0766 2211(47) 0.000452 1805. 2228.
61.0935 61.0804 2401(50) 0.000405 1805. 2309.
61.0972 61.0841 2326(49) 0.000422 1805. 2410.
61.1010 61.0879 2618(52) 0.000376 1805. 2539.
61.1047 61.0916 2752(53) 0.000358 1805. 2689.
61.1085 61.0954 2993(55) 0.0003337 1805. 2864.
61.1123 61.0992 3103(56) 0.0003175 1804. 3058.
61.1160 61.1029 3425(59) 0.0002883 1804. 3259.
61.1198 61.1067 3480(60) 0.0002825 1804. 3471.
61.1235 61.1104 3971(64) 0.0002463 1804. 3676.
61.1273 61.1142 4121(64) 0.0002404 1804. 3881.
61.1311 61.1180 4521(68) 0.0002155 1804. 4074.
61.1348 61.1217 4586(68) 0.0002164 1804. 4242.
61.1386 61.1255 4849(69) 0.0002073 1804. 4384.
61.1423 61.1292 4910(71) 0.0001992 1804. 4479.
61.1461 61.1330 4837(70) 0.0002059 1804. 4522.
61.1499 61.1368 4551(68) 0.0002132 1804. 4506.
61.1536 61.1405 4695(70) 0.0002043 1804. 4440.
61.1574 61.1443 4368(67) 0.0002232 1804. 4328.
61.1611 61.1480 4322(67) 0.0002238 1804. 4189.
61.1649 61.1518 3926(63) 0.0002519 1804. 4026.
61.1687 61.1556 3810(62) 0.0002561 1804. 3853.
61.1724 61.1593 3583(61) 0.0002678 1803. 3688.
61.1762 61.1631 3497(60) 0.0002797 1803. 3538.
61.1799 61.1668 3179(57) 0.0003055 1803. 3420.
61.1837 61.1706 3222(58) 0.0003017 1803. 3335.
61.1875 61.1744 3113(56) 0.0003143 1803. 3288.
61.1912 61.1781 3370(59) 0.0002877 1803. 3277.
61.1950 61.1819 3576(60) 0.0002774 1803. 3290.
61.1987 61.1856 3760(62) 0.0002599 1803. 3316.
61.2025 61.1894 3579(61) 0.0002675 1803. 3342.
61.2063 61.1932 3757(62) 0.0002596 1803. 3350.
61.2100 61.1969 3498(60) 0.0002804 1803. 3330.
61.2138 61.2007 3452(60) 0.0002825 1803. 3272.
61.2175 61.2044 3284(58) 0.0002938 1803. 3180.
61.2213 61.2082 3126(57) 0.0003129 1803. 3054.
61.2251 61.2120 2840(54) 0.0003463 1803. 2911.
61.2288 61.2157 2885(54) 0.0003400 1803. 2764.
61.2326 61.2195 2638(52) 0.000365 1803. 2616.
61.2363 61.2232 2469(51) 0.000390 1802. 2482.
61.2401 61.2270 2410(49) 0.000419 1802. 2361.
61.2439 61.2308 2349(49) 0.000413 1802. 2258.
61.2476 61.2345 2262(49) 0.000425 1802. 2178.
61.2514 61.2383 2221(48) 0.000434 1802. 2113.
61.2551 61.2420 2180(47) 0.000445 1802. 2067.
61.2589 61.2458 2145(47) 0.000454 1802. 2035.
61.2627 61.2496 2005(45) 0.000493 1802. 2014.
61.2664 61.2533 2118(46) 0.000463 1802. 2004.
61.2702 61.2571 2007(45) 0.000489 1802. 2003.
61.2739 61.2608 2066(46) 0.000469 1802. 2011.
61.2777 61.2646 2054(46) 0.000480 1802. 2028.
61.2815 61.2684 2089(47) 0.000461 1802. 2056.
61.2852 61.2721 2062(45) 0.000484 1802. 2095.
61.2890 61.2759 2253(48) 0.000434 1802. 2150.
61.2927 61.2796 2160(47) 0.000447 1802. 2220.
61.2965 61.2834 2259(48) 0.000428 1801. 2310.
61.3003 61.2872 2341(49) 0.000408 1801. 2421.
61.3040 61.2909 2401(50) 0.000401 1801. 2549.
61.3078 61.2947 2593(52) 0.000373 1801. 2699.
61.3115 61.2984 2760(53) 0.000359 1801. 2859.
61.3153 61.3022 2949(55) 0.0003257 1801. 3031.
61.3191 61.3060 3400(59) 0.0002865 1801. 3202.
61.3228 61.3097 3467(60) 0.0002822 1801. 3359.
61.3266 61.3135 3937(64) 0.0002478 1801. 3498.
61.3303 61.3172 3811(63) 0.0002523 1801. 3600.
61.3341 61.3210 3963(64) 0.0002439 1801. 3659.
61.3379 61.3248 3725(63) 0.0002538 1801. 3666.
61.3416 61.3285 3604(62) 0.0002612 1801. 3625.
61.3454 61.3323 3453(59) 0.0002851 1801. 3544.
61.3491 61.3360 3426(59) 0.0002858 1801. 3444.
61.3529 61.3398 3162(58) 0.0002990 1801. 3333.
61.3567 61.3436 3099(57) 0.0003092 1800. 3226.
61.3604 61.3473 3089(56) 0.0003157 1800. 3133.
61.3642 61.3511 3107(57) 0.0003094 1800. 3051.
61.3679 61.3548 2984(56) 0.0003216 1800. 2982.
61.3717 61.3586 3079(56) 0.0003198 1800. 2919.
61.3755 61.3624 2919(55) 0.0003262 1800. 2856.
61.3792 61.3661 2935(55) 0.0003309 1800. 2790.
61.3830 61.3699 2609(52) 0.000365 1800. 2716.
61.3867 61.3736 2601(51) 0.000387 1800. 2638.
61.3905 61.3774 2467(50) 0.000400 1800. 2554.
61.3943 61.3812 2480(50) 0.000397 1800. 2470.
61.3980 61.3849 2275(48) 0.000435 1800. 2390.
61.4018 61.3887 2299(49) 0.000421 1800. 2312.
61.4055 61.3924 2115(46) 0.000470 1800. 2241.
61.4093 61.3962 2131(47) 0.000456 1800. 2175.
61.4131 61.4000 2090(46) 0.000466 1800. 2116.
61.4168 61.4037 2006(45) 0.000488 1800. 2066.
61.4206 61.4075 2017(46) 0.000481 1799. 2023.
61.4243 61.4112 1971(45) 0.000498 1799. 1989.
61.4281 61.4150 1882(44) 0.000519 1799. 1960.
61.4319 61.4188 1977(45) 0.000495 1799. 1938.
61.4356 61.4225 1778(42) 0.000562 1799. 1921.
61.4394 61.4263 1864(43) 0.000530 1799. 1908.
61.4431 61.4300 1933(44) 0.000514 1799. 1899.
61.4469 61.4338 1969(44) 0.000505 1799. 1893.
61.4507 61.4376 1835(43) 0.000535 1799. 1889.
61.4544 61.4413 1932(45) 0.000504 1799. 1887.
61.4582 61.4451 1869(44) 0.000516 1799. 1886.
61.4619 61.4488 1868(44) 0.000526 1799. 1886.
61.4657 61.4526 1862(44) 0.000528 1799. 1887.
61.4695 61.4564 1891(44) 0.000522 1799. 1887.
61.4732 61.4601 1857(44) 0.000526 1799. 1886.
61.4770 61.4639 1835(43) 0.000542 1799. 1885.
61.4807 61.4676 1809(43) 0.000549 1798. 1883.
61.4845 61.4714 1901(44) 0.000518 1798. 1881.
61.4882 61.4751 1851(44) 0.000527 1798. 1879.
61.4920 61.4789 1893(44) 0.000520 1798. 1877.
61.4958 61.4827 1884(44) 0.000510 1798. 1875.
61.4995 61.4864 1954(44) 0.000505 1798. 1874.
61.5033 61.4902 1810(43) 0.000536 1798. 1874.
61.5070 61.4939 1889(44) 0.000525 1798. 1874.
61.5108 61.4977 1944(44) 0.000508 1798. 1876.
61.5146 61.5015 1961(45) 0.000502 1798. 1880.
61.5183 61.5052 1911(44) 0.000510 1798. 1886.
61.5221 61.5090 1834(43) 0.000531 1798. 1894.
61.5258 61.5127 1871(43) 0.000529 1798. 1905.
61.5296 61.5165 1816(44) 0.000528 1798. 1921.
61.5334 61.5203 1925(44) 0.000505 1798. 1943.
61.5371 61.5240 1962(45) 0.000494 1798. 1970.
61.5409 61.5278 1914(44) 0.000519 1798. 2004.
61.5446 61.5315 2026(45) 0.000487 1797. 2046.
61.5484 61.5353 1975(45) 0.000498 1797. 2097.
61.5522 61.5391 2120(47) 0.000451 1797. 2157.
61.5559 61.5428 2106(47) 0.000460 1797. 2223.
61.5597 61.5466 2324(49) 0.000424 1797. 2298.
61.5634 61.5503 2256(48) 0.000432 1797. 2378.
61.5672 61.5541 2420(50) 0.000403 1797. 2464.
61.5710 61.5579 2444(50) 0.000400 1797. 2552.
61.5747 61.5616 2593(52) 0.000376 1797. 2639.
61.5785 61.5654 2522(51) 0.000381 1797. 2729.
61.5822 61.5691 2717(53) 0.000358 1797. 2819.
61.5860 61.5729 2882(54) 0.0003428 1797. 2912.
61.5898 61.5767 3038(56) 0.0003147 1797. 3005.
61.5935 61.5804 3212(57) 0.0003089 1797. 3091.
61.5973 61.5842 3384(60) 0.0002803 1797. 3169.
61.6010 61.5879 3326(58) 0.0002963 1797. 3224.
61.6048 61.5917 3389(59) 0.0002839 1796. 3253.
61.6085 61.5954 3202(57) 0.0003119 1796. 3251.
61.6123 61.5992 3148(57) 0.0003100 1796. 3219.
61.6161 61.6030 2974(55) 0.0003284 1796. 3167.
61.6198 61.6067 2796(54) 0.0003478 1796. 3108.
61.6236 61.6105 2894(55) 0.0003360 1796. 3049.
61.6273 61.6142 2921(55) 0.0003334 1796. 2998.
61.6311 61.6180 2792(53) 0.0003500 1796. 2957.
61.6349 61.6218 2937(55) 0.0003357 1796. 2926.
61.6386 61.6255 2895(55) 0.0003320 1796. 2900.
61.6424 61.6293 2948(55) 0.0003356 1796. 2870.
61.6461 61.6330 2818(53) 0.000353 1796. 2831.
61.6499 61.6368 2834(54) 0.0003422 1796. 2774.
61.6537 61.6406 2704(53) 0.000351 1796. 2699.
61.6574 61.6443 2560(51) 0.000384 1796. 2612.
61.6612 61.6481 2366(50) 0.000407 1796. 2515.
61.6649 61.6518 2335(49) 0.000421 1796. 2417.
61.6687 61.6556 2258(48) 0.000428 1795. 2321.
61.6725 61.6594 2221(48) 0.000440 1795. 2233.
61.6762 61.6631 2132(47) 0.000452 1795. 2159.
61.6800 61.6669 2149(46) 0.000464 1795. 2095.
61.6837 61.6706 2076(47) 0.000462 1795. 2046.
61.6875 61.6744 2056(46) 0.000470 1795. 2009.
61.6912 61.6781 1980(45) 0.000492 1795. 1984.
61.6950 61.6819 1982(45) 0.000489 1795. 1969.
61.6988 61.6857 1974(45) 0.000494 1795. 1964.
61.7025 61.6894 1961(45) 0.000495 1795. 1970.
61.7063 61.6932 2000(45) 0.000487 1795. 1987.
61.7100 61.6969 2104(46) 0.000469 1795. 2017.
61.7138 61.7007 2022(46) 0.000479 1795. 2065.
61.7176 61.7045 2163(47) 0.000446 1795. 2134.
61.7213 61.7082 2089(47) 0.000462 1795. 2225.
61.7251 61.7120 2468(51) 0.000383 1795. 2345.
61.7288 61.7157 2494(51) 0.000389 1795. 2488.
61.7326 61.7195 2739(53) 0.000362 1794. 2658.
61.7364 61.7233 3112(56) 0.0003154 1794. 2846.
61.7401 61.7270 3530(60) 0.0002742 1794. 3033.
61.7439 61.7308 3675(61) 0.0002720 1794. 3217.
61.7476 61.7345 4094(65) 0.0002367 1794. 3371.
61.7514 61.7383 4183(67) 0.0002251 1794. 3482.
61.7551 61.7420 4182(65) 0.0002343 1794. 3530.
61.7589 61.7458 3924(64) 0.0002449 1794. 3509.
61.7627 61.7496 3595(61) 0.0002716 1794. 3420.
61.7664 61.7533 3292(59) 0.0002899 1794. 3281.
61.7702 61.7571 3147(57) 0.0003078 1794. 3103.
61.7739 61.7608 2763(54) 0.0003475 1794. 2914.
61.7777 61.7646 2638(52) 0.000367 1794. 2719.
61.7815 61.7684 2357(49) 0.000412 1794. 2536.
61.7852 61.7721 2402(50) 0.000407 1794. 2379.
61.7890 61.7759 2252(48) 0.000431 1794. 2243.
61.7927 61.7796 2188(47) 0.000445 1793. 2136.
61.7965 61.7834 2081(46) 0.000466 1793. 2052.
61.8003 61.7872 2055(46) 0.000470 1793. 1990.
61.8040 61.7909 1915(45) 0.000501 1793. 1946.
61.8078 61.7947 2041(46) 0.000476 1793. 1916.
61.8115 61.7984 1892(44) 0.000511 1793. 1896.
61.8153 61.8022 1890(44) 0.000511 1793. 1882.
61.8190 61.8059 1850(44) 0.000527 1793. 1873.
61.8228 61.8097 1917(44) 0.000505 1793. 1867.
61.8266 61.8135 1827(43) 0.000537 1793. 1863.
61.8303 61.8172 1856(44) 0.000518 1793. 1859.
61.8341 61.8210 1756(42) 0.000555 1793. 1856.
61.8378 61.8247 1919(44) 0.000505 1793. 1853.
61.8416 61.8285 1762(42) 0.000558 1793. 1850.
61.8454 61.8323 1828(43) 0.000529 1793. 1847.
61.8491 61.8360 1882(43) 0.000531 1793. 1844.
61.8529 61.8398 1895(44) 0.000512 1793. 1842.
61.8566 61.8435 1795(44) 0.000525 1792. 1840.
61.8604 61.8473 1733(42) 0.000566 1792. 1838.
61.8641 61.8510 1804(43) 0.000535 1792. 1837.
61.8679 61.8548 1819(43) 0.000538 1792. 1836.
61.8717 61.8586 1812(43) 0.000543 1792. 1835.
61.8754 61.8623 1847(43) 0.000532 1792. 1835.
61.8792 61.8661 1805(43) 0.000534 1792. 1835.
61.8829 61.8698 1773(43) 0.000545 1792. 1836.
61.8867 61.8736 1803(43) 0.000542 1792. 1837.
61.8905 61.8774 1811(43) 0.000552 1792. 1838.
61.8942 61.8811 1869(44) 0.000527 1792. 1839.
61.8980 61.8849 1824(43) 0.000539 1792. 1840.
61.9017 61.8886 1793(42) 0.000557 1792. 1841.
61.9055 61.8924 1840(43) 0.000534 1792. 1842.
61.9092 61.8961 1778(43) 0.000550 1792. 1842.
61.9130 61.8999 1872(44) 0.000522 1792. 1842.
61.9168 61.9037 1833(43) 0.000541 1792. 1843.
61.9205 61.9074 1835(43) 0.000539 1791. 1843.
61.9243 61.9112 1782(42) 0.000554 1791. 1843.
61.9280 61.9149 1874(44) 0.000525 1791. 1843.
61.9318 61.9187 1770(42) 0.000557 1791. 1844.
61.9356 61.9225 1861(44) 0.000523 1791. 1844.
61.9393 61.9262 1828(43) 0.000529 1791. 1846.
61.9431 61.9300 1939(45) 0.000501 1791. 1847.
61.9468 61.9337 1803(43) 0.000552 1791. 1849.
61.9506 61.9375 1810(43) 0.000534 1791. 1853.
61.9543 61.9412 1836(43) 0.000538 1791. 1856.
61.9581 61.9450 1814(42) 0.000560 1791. 1862.
61.9619 61.9488 1792(42) 0.000555 1791. 1869.
61.9656 61.9525 1940(44) 0.000507 1791. 1878.
61.9694 61.9563 1908(44) 0.000511 1791. 1892.
61.9731 61.9600 1901(44) 0.000514 1791. 1910.
61.9769 61.9638 1857(44) 0.000520 1791. 1936.
61.9807 61.9676 2000(45) 0.000488 1791. 1971.
61.9844 61.9713 1955(44) 0.000506 1790. 2016.
61.9882 61.9751 2028(46) 0.000481 1790. 2076.
61.9919 61.9788 2125(47) 0.000458 1790. 2150.
61.9957 61.9826 2148(47) 0.000462 1790. 2242.
61.9994 61.9863 2227(48) 0.000432 1790. 2347.
62.0032 61.9901 2413(50) 0.000401 1790. 2468.
62.0070 61.9939 2540(51) 0.000389 1790. 2599.
62.0107 61.9976 2818(54) 0.0003453 1790. 2729.
62.0145 62.0014 2981(55) 0.0003253 1790. 2856.
62.0182 62.0051 3215(57) 0.0003057 1790. 2963.
62.0220 62.0089 3156(57) 0.0003131 1790. 3044.
62.0257 62.0126 3302(58) 0.0002993 1790. 3084.
62.0295 62.0164 3077(57) 0.0003126 1790. 3079.
62.0333 62.0202 3122(57) 0.0003117 1790. 3029.
62.0370 62.0239 2883(54) 0.0003439 1790. 2946.
62.0408 62.0277 2827(54) 0.0003486 1790. 2838.
62.0445 62.0314 2596(51) 0.000378 1790. 2721.
62.0483 62.0352 2417(50) 0.000405 1789. 2599.
62.0521 62.0390 2325(49) 0.000418 1789. 2486.
62.0558 62.0427 2261(48) 0.000428 1789. 2389.
62.0596 62.0465 2128(46) 0.000463 1789. 2308.
62.0633 62.0502 2329(48) 0.000429 1789. 2248.
62.0671 62.0540 2238(48) 0.000443 1789. 2208.
62.0708 62.0577 2289(48) 0.000438 1789. 2189.
62.0746 62.0615 2227(48) 0.000441 1789. 2190.
62.0784 62.0653 2285(48) 0.000433 1789. 2213.
62.0821 62.0690 2213(46) 0.000469 1789. 2254.
62.0859 62.0728 2275(47) 0.000445 1789. 2319.
62.0896 62.0765 2338(49) 0.000424 1789. 2403.
62.0934 62.0803 2561(51) 0.000389 1789. 2513.
62.0971 62.0840 2640(52) 0.000373 1789. 2640.
62.1009 62.0878 2922(54) 0.0003393 1789. 2790.
62.1047 62.0916 2894(54) 0.0003415 1789. 2954.
62.1084 62.0953 3352(59) 0.0002905 1789. 3120.
62.1122 62.0991 3412(59) 0.0002861 1788. 3285.
62.1159 62.1028 3635(61) 0.0002721 1788. 3430.
62.1197 62.1066 3707(62) 0.0002632 1788. 3550.
62.1234 62.1103 3920(63) 0.0002546 1788. 3630.
62.1272 62.1141 3783(62) 0.0002611 1788. 3669.
62.1310 62.1179 3929(63) 0.0002500 1788. 3659.
62.1347 62.1216 3572(62) 0.0002642 1788. 3603.
62.1385 62.1254 3476(59) 0.0002826 1788. 3499.
62.1422 62.1291 3214(57) 0.0003037 1788. 3362.
62.1460 62.1329 3114(57) 0.0003074 1788. 3197.
62.1498 62.1367 2800(54) 0.0003473 1788. 3020.
62.1535 62.1404 2903(55) 0.0003286 1788. 2849.
62.1573 62.1442 2507(51) 0.000385 1788. 2683.
62.1610 62.1479 2421(50) 0.000397 1788. 2539.
62.1648 62.1517 2303(48) 0.000429 1788. 2410.
62.1685 62.1554 2281(48) 0.000427 1788. 2306.
62.1723 62.1592 2106(46) 0.000477 1788. 2218.
62.1761 62.1630 2102(46) 0.000466 1787. 2148.
62.1798 62.1667 2029(45) 0.000494 1787. 2094.
62.1836 62.1705 1996(45) 0.000498 1787. 2049.
62.1873 62.1742 1936(44) 0.000513 1787. 2014.
62.1911 62.1780 1984(45) 0.000498 1787. 1984.
62.1948 62.1817 1892(44) 0.000525 1787. 1959.
62.1986 62.1855 1921(44) 0.000523 1787. 1938.
62.2024 62.1893 1903(44) 0.000526 1787. 1919.
62.2061 62.1930 1907(44) 0.000518 1787. 1903.
62.2099 62.1968 1789(42) 0.000555 1787. 1889.
62.2136 62.2005 1905(44) 0.000516 1787. 1878.
62.2174 62.2043 1852(43) 0.000536 1787. 1868.
62.2211 62.2080 1941(45) 0.000498 1787. 1861.
62.2249 62.2118 1780(42) 0.000558 1787. 1854.
62.2287 62.2156 1863(44) 0.000524 1787. 1849.
62.2324 62.2193 1831(42) 0.000557 1787. 1845.
62.2362 62.2231 1953(44) 0.000507 1787. 1842.
62.2399 62.2268 1802(43) 0.000538 1787. 1841.
62.2437 62.2306 1799(43) 0.000550 1786. 1839.
62.2474 62.2343 1792(42) 0.000565 1786. 1838.
62.2512 62.2381 1843(44) 0.000526 1786. 1838.
62.2550 62.2419 1774(42) 0.000556 1786. 1838.
62.2587 62.2456 1804(43) 0.000542 1786. 1839.
62.2625 62.2494 1764(42) 0.000556 1786. 1839.
62.2662 62.2531 1825(42) 0.000560 1786. 1839.
62.2700 62.2569 1774(42) 0.000555 1786. 1839.
62.2737 62.2606 1861(43) 0.000534 1786. 1838.
62.2775 62.2644 1769(42) 0.000557 1786. 1836.
62.2813 62.2682 1865(43) 0.000533 1786. 1835.
62.2850 62.2719 1790(42) 0.000570 1786. 1833.
62.2888 62.2757 1775(42) 0.000555 1786. 1831.
62.2925 62.2794 1777(43) 0.000546 1786. 1829.
62.2963 62.2832 1922(44) 0.000510 1786. 1827.
62.3000 62.2869 1756(42) 0.000564 1786. 1825.
62.3038 62.2907 1797(42) 0.000556 1786. 1824.
62.3075 62.2944 1742(42) 0.000555 1785. 1824.
62.3113 62.2982 1889(43) 0.000534 1785. 1824.
62.3151 62.3020 1723(42) 0.000572 1785. 1825.
62.3188 62.3057 1824(43) 0.000541 1785. 1826.
62.3226 62.3095 1853(43) 0.000532 1785. 1828.
62.3263 62.3132 1878(44) 0.000521 1785. 1829.
62.3301 62.3170 1860(43) 0.000549 1785. 1831.
62.3338 62.3207 1942(45) 0.000503 1785. 1833.
62.3376 62.3245 1871(44) 0.000521 1785. 1835.
62.3414 62.3283 1911(44) 0.000511 1785. 1836.
62.3451 62.3320 1902(44) 0.000512 1785. 1837.
62.3489 62.3358 1870(43) 0.000541 1785. 1837.
62.3526 62.3395 1956(44) 0.000524 1785. 1837.
62.3564 62.3433 1862(43) 0.000538 1785. 1836.
62.3601 62.3470 1849(43) 0.000548 1785. 1835.
62.3639 62.3508 1867(42) 0.000556 1785. 1835.
62.3677 62.3546 1840(42) 0.000557 1785. 1835.
62.3714 62.3583 1879(43) 0.000540 1785. 1836.
62.3752 62.3621 1830(42) 0.000554 1784. 1838.
62.3789 62.3658 1830(43) 0.000553 1784. 1841.
62.3827 62.3696 1802(42) 0.000556 1784. 1847.
62.3864 62.3733 1899(43) 0.000534 1784. 1854.
62.3902 62.3771 1808(42) 0.000559 1784. 1863.
62.3939 62.3808 1909(43) 0.000536 1784. 1875.
62.3977 62.3846 1826(42) 0.000565 1784. 1890.
62.4015 62.3884 1924(43) 0.000536 1784. 1909.
62.4052 62.3921 1956(44) 0.000509 1784. 1930.
62.4090 62.3959 1946(43) 0.000540 1784. 1954.
62.4127 62.3996 1938(44) 0.000528 1784. 1980.
62.4165 62.4034 2013(45) 0.000502 1784. 2008.
62.4202 62.4071 1989(44) 0.000511 1784. 2036.
62.4240 62.4109 2018(44) 0.000505 1784. 2066.
62.4278 62.4147 2015(45) 0.000504 1784. 2097.
62.4315 62.4184 2115(46) 0.000475 1784. 2127.
62.4353 62.4222 2111(45) 0.000486 1784. 2160.
62.4390 62.4259 2152(46) 0.000472 1784. 2195.
62.4428 62.4297 2086(45) 0.000497 1783. 2238.
62.4465 62.4334 2304(48) 0.000432 1783. 2288.
62.4503 62.4372 2222(47) 0.000453 1783. 2352.
62.4540 62.4409 2350(48) 0.000428 1783. 2426.
62.4578 62.4447 2444(49) 0.000409 1783. 2515.
62.4616 62.4485 2631(50) 0.000394 1783. 2614.
62.4653 62.4522 2826(52) 0.000377 1783. 2717.
62.4691 62.4560 2865(54) 0.0003479 1783. 2821.
62.4728 62.4597 2979(54) 0.0003442 1783. 2915.
62.4766 62.4635 2945(54) 0.0003451 1783. 2994.
62.4803 62.4672 3096(55) 0.0003325 1783. 3048.
62.4841 62.4710 3081(55) 0.0003306 1783. 3077.
62.4879 62.4748 2935(54) 0.0003464 1783. 3079.
62.4916 62.4785 3027(53) 0.0003503 1783. 3056.
62.4954 62.4823 2816(53) 0.000361 1783. 3008.
62.4991 62.4860 3000(54) 0.0003372 1783. 2940.
62.5029 62.4898 2701(51) 0.000381 1783. 2850.
62.5066 62.4935 2659(51) 0.000380 1783. 2747.
62.5104 62.4973 2463(49) 0.000421 1782. 2632.
62.5141 62.5010 2389(49) 0.000424 1782. 2517.
62.5179 62.5048 2352(48) 0.000437 1782. 2404.
62.5217 62.5086 2234(47) 0.000456 1782. 2299.
62.5254 62.5123 2177(46) 0.000468 1782. 2208.
62.5292 62.5161 2076(45) 0.000498 1782. 2127.
62.5329 62.5198 1989(44) 0.000513 1782. 2061.
62.5367 62.5236 2032(44) 0.000524 1782. 2005.
62.5404 62.5273 1941(43) 0.000534 1782. 1962.
62.5442 62.5311 1963(43) 0.000538 1782. 1928.
62.5479 62.5348 1799(42) 0.000560 1782. 1902.
62.5517 62.5386 1884(42) 0.000560 1782. 1882.
62.5555 62.5424 1823(42) 0.000557 1782. 1868.
62.5592 62.5461 1900(43) 0.000533 1782. 1857.
62.5630 62.5499 1795(42) 0.000571 1782. 1849.
62.5667 62.5536 1840(42) 0.000564 1782. 1844.
62.5705 62.5574 1843(42) 0.000556 1782. 1839.
62.5742 62.5611 1855(42) 0.000556 1782. 1836.
62.5780 62.5649 1793(42) 0.000560 1781. 1834.
62.5817 62.5686 1815(42) 0.000565 1781. 1832.
62.5855 62.5724 1735(41) 0.000591 1781. 1831.
62.5893 62.5762 1834(42) 0.000557 1781. 1831.
62.5930 62.5799 1736(41) 0.000584 1781. 1832.
62.5968 62.5837 1898(43) 0.000535 1781. 1834.
62.6005 62.5874 1729(41) 0.000597 1781. 1838.
62.6043 62.5912 1774(42) 0.000579 1781. 1844.
62.6080 62.5949 1761(42) 0.000571 1781. 1854.
62.6118 62.5987 1797(42) 0.000566 1781. 1867.
62.6155 62.6024 1801(42) 0.000573 1781. 1884.
62.6193 62.6062 1860(43) 0.000548 1781. 1906.
62.6231 62.6100 1886(43) 0.000536 1781. 1933.
62.6268 62.6137 1942(44) 0.000518 1781. 1963.
62.6306 62.6175 1864(42) 0.000559 1781. 1996.
62.6343 62.6212 1952(44) 0.000518 1781. 2029.
62.6381 62.6250 2029(44) 0.000524 1781. 2061.
62.6418 62.6287 2071(45) 0.000493 1781. 2087.
62.6456 62.6325 1910(44) 0.000525 1780. 2105.
62.6493 62.6362 2101(45) 0.000489 1780. 2112.
62.6531 62.6400 1872(43) 0.000545 1780. 2108.
62.6569 62.6438 2042(45) 0.000504 1780. 2091.
62.6606 62.6475 1981(44) 0.000520 1780. 2067.
62.6644 62.6513 2013(44) 0.000518 1780. 2036.
62.6681 62.6550 1877(42) 0.000560 1780. 2003.
62.6719 62.6588 1853(42) 0.000569 1780. 1969.
62.6756 62.6625 1826(42) 0.000565 1780. 1938.
62.6794 62.6663 1919(44) 0.000526 1780. 1910.
62.6831 62.6700 1764(41) 0.000585 1780. 1886.
62.6869 62.6738 1923(43) 0.000534 1780. 1867.
62.6906 62.6775 1826(42) 0.000567 1780. 1853.
62.6944 62.6813 1809(42) 0.000561 1780. 1842.
62.6982 62.6851 1776(42) 0.000564 1780. 1835.
62.7019 62.6888 1861(43) 0.000549 1780. 1830.
62.7057 62.6926 1813(41) 0.000581 1780. 1826.
62.7094 62.6963 1832(43) 0.000552 1780. 1824.
62.7132 62.7001 1800(41) 0.000587 1780. 1823.
62.7169 62.7038 1860(43) 0.000546 1779. 1823.
62.7207 62.7076 1773(42) 0.000568 1779. 1823.
62.7244 62.7113 1809(42) 0.000557 1779. 1824.
62.7282 62.7151 1818(42) 0.000568 1779. 1824.
62.7319 62.7188 1833(43) 0.000545 1779. 1825.
62.7357 62.7226 1826(42) 0.000559 1779. 1827.
62.7395 62.7264 1834(42) 0.000574 1779. 1828.
62.7432 62.7301 1746(41) 0.000585 1779. 1830.
62.7470 62.7339 1813(42) 0.000577 1779. 1831.
62.7507 62.7376 1740(41) 0.000589 1779. 1834.
62.7545 62.7414 1802(42) 0.000560 1779. 1836.
62.7582 62.7451 1797(42) 0.000579 1779. 1839.
62.7620 62.7489 1859(43) 0.000541 1779. 1842.
62.7657 62.7526 1758(41) 0.000583 1779. 1846.
62.7695 62.7564 1913(43) 0.000530 1779. 1851.
62.7732 62.7601 1856(42) 0.000555 1779. 1857.
62.7770 62.7639 1963(44) 0.000508 1779. 1865.
62.7808 62.7677 1879(43) 0.000535 1779. 1875.
62.7845 62.7714 1902(43) 0.000552 1779. 1889.
62.7883 62.7752 1902(43) 0.000536 1778. 1909.
62.7920 62.7789 1961(44) 0.000507 1778. 1936.
62.7958 62.7827 1952(43) 0.000534 1778. 1973.
62.7995 62.7864 2039(44) 0.000506 1778. 2022.
62.8033 62.7902 2003(44) 0.000507 1778. 2087.
62.8070 62.7939 2089(45) 0.000490 1778. 2169.
62.8096 62.7965 2178(47) 0.000453 1778. 2237.
62.8133 62.8002 2253(48) 0.000437 1778. 2351.
62.8171 62.8040 2610(52) 0.000374 1778. 2488.
62.8208 62.8077 2624(51) 0.000388 1778. 2639.
62.8246 62.8115 3054(56) 0.0003193 1778. 2807.
62.8284 62.8153 3220(58) 0.0003017 1778. 2983.
62.8321 62.8190 3620(61) 0.0002686 1778. 3153.
62.8359 62.8228 3617(61) 0.0002682 1778. 3318.
62.8396 62.8265 3722(61) 0.0002706 1778. 3460.
62.8434 62.8303 3696(60) 0.0002764 1778. 3580.
62.8471 62.8340 3728(61) 0.0002679 1778. 3673.
62.8509 62.8378 3685(60) 0.0002740 1778. 3747.
62.8546 62.8415 3755(60) 0.0002753 1778. 3804.
62.8584 62.8453 3800(61) 0.0002688 1777. 3854.
62.8622 62.8491 3926(62) 0.0002575 1777. 3894.
62.8659 62.8528 3993(63) 0.0002528 1777. 3920.
62.8697 62.8566 4129(64) 0.0002440 1777. 3925.
62.8734 62.8603 3991(63) 0.0002498 1777. 3899.
62.8772 62.8641 3827(62) 0.0002641 1777. 3834.
62.8809 62.8678 3662(60) 0.0002750 1777. 3731.
62.8847 62.8716 3475(58) 0.0002937 1777. 3588.
62.8885 62.8754 3187(56) 0.0003229 1777. 3416.
62.8922 62.8791 3031(54) 0.0003391 1777. 3233.
62.8960 62.8829 2688(52) 0.000370 1777. 3040.
62.8997 62.8866 2714(51) 0.000387 1777. 2858.
62.9035 62.8904 2504(50) 0.000408 1777. 2686.
62.9072 62.8941 2456(49) 0.000411 1777. 2538.
62.9110 62.8979 2317(48) 0.000438 1777. 2410.
62.9147 62.9016 2377(48) 0.000429 1777. 2307.
62.9185 62.9054 2176(46) 0.000466 1777. 2225.
62.9223 62.9092 2153(46) 0.000466 1777. 2165.
62.9260 62.9129 2010(44) 0.000511 1777. 2124.
62.9298 62.9167 2101(45) 0.000484 1777. 2101.
62.9335 62.9204 2057(45) 0.000504 1776. 2094.
62.9373 62.9242 2023(45) 0.000492 1776. 2103.
62.9410 62.9279 2069(45) 0.000487 1776. 2125.
62.9448 62.9317 2153(46) 0.000468 1776. 2160.
62.9486 62.9355 2197(47) 0.000455 1776. 2206.
62.9523 62.9392 2261(47) 0.000459 1776. 2258.
62.9561 62.9430 2334(47) 0.000457 1776. 2314.
62.9598 62.9467 2424(49) 0.000411 1776. 2366.
62.9636 62.9505 2487(49) 0.000413 1776. 2412.
62.9673 62.9542 2461(49) 0.000413 1776. 2443.
62.9711 62.9580 2397(48) 0.000430 1776. 2455.
62.9748 62.9617 2346(48) 0.000435 1776. 2447.
62.9786 62.9655 2379(48) 0.000428 1776. 2418.
62.9824 62.9693 2299(47) 0.000462 1776. 2373.
62.9861 62.9730 2193(46) 0.000464 1776. 2319.
62.9899 62.9768 2211(47) 0.000458 1776. 2260.
62.9936 62.9805 2167(46) 0.000476 1776. 2205.
62.9974 62.9843 2107(46) 0.000480 1776. 2154.
63.0011 62.9880 2060(45) 0.000504 1776. 2115.
63.0049 62.9918 2152(46) 0.000471 1775. 2088.
63.0086 62.9955 2116(45) 0.000487 1775. 2078.
63.0124 62.9993 2112(46) 0.000483 1775. 2086.
63.0162 63.0031 2047(45) 0.000497 1775. 2115.
63.0199 63.0068 2132(45) 0.000485 1775. 2164.
63.0237 63.0106 2097(45) 0.000486 1775. 2237.
63.0274 63.0143 2282(46) 0.000466 1775. 2331.
63.0312 63.0181 2467(49) 0.000420 1775. 2447.
63.0349 63.0218 2559(49) 0.000412 1775. 2578.
63.0377 63.0246 2740(53) 0.000355 1775. 2684.
63.0415 63.0284 3022(56) 0.0003156 1775. 2833.
63.0452 63.0321 3243(58) 0.0002981 1775. 2974.
63.0490 63.0359 3617(62) 0.0002633 1775. 3103.
63.0528 63.0397 3626(61) 0.0002660 1775. 3201.
63.0565 63.0434 3632(61) 0.0002681 1775. 3257.
63.0603 63.0472 3537(60) 0.0002764 1775. 3267.
63.0640 63.0509 3266(59) 0.0002864 1775. 3231.
63.0678 63.0547 3150(58) 0.0003018 1775. 3158.
63.0715 63.0584 3032(55) 0.0003294 1775. 3064.
63.0753 63.0622 2864(55) 0.0003333 1775. 2961.
63.0790 63.0659 2767(54) 0.0003449 1774. 2868.
63.0828 63.0697 2632(53) 0.000358 1774. 2792.
63.0865 63.0734 2590(52) 0.000369 1774. 2746.
63.0903 63.0772 2573(52) 0.000369 1774. 2735.
63.0941 63.0810 2680(53) 0.000351 1774. 2762.
63.0978 63.0847 2704(53) 0.000357 1774. 2825.
63.1016 63.0885 2871(55) 0.0003336 1774. 2921.
63.1053 63.0922 2982(56) 0.0003210 1774. 3039.
63.1091 63.0960 3227(57) 0.0003062 1774. 3175.
63.1128 63.0997 3427(60) 0.0002809 1774. 3312.
63.1166 63.1035 3657(62) 0.0002617 1774. 3447.
63.1203 63.1072 3772(63) 0.0002535 1774. 3565.
63.1241 63.1110 3924(64) 0.0002454 1774. 3662.
63.1278 63.1147 3864(64) 0.0002450 1774. 3729.
63.1316 63.1185 3839(64) 0.0002449 1774. 3768.
63.1354 63.1223 3612(62) 0.0002637 1774. 3784.
63.1391 63.1260 3654(62) 0.0002603 1774. 3790.
63.1429 63.1298 3586(61) 0.0002708 1774. 3801.
63.1466 63.1335 3752(63) 0.0002531 1774. 3830.
63.1504 63.1373 3684(61) 0.0002650 1774. 3886.
63.1541 63.1410 4241(67) 0.0002234 1774. 3969.
63.1579 63.1448 4403(68) 0.0002174 1773. 4078.
63.1616 63.1485 4625(68) 0.0002156 1773. 4197.
63.1654 63.1523 4912(72) 0.0001935 1773. 4314.
63.1691 63.1560 5022(72) 0.0001910 1773. 4403.
63.1729 63.1598 4975(72) 0.0001925 1773. 4448.
63.1767 63.1636 4742(71) 0.0002006 1773. 4431.
63.1804 63.1673 4407(68) 0.0002160 1773. 4349.
63.1842 63.1711 4233(66) 0.0002269 1773. 4199.
63.1879 63.1748 3827(63) 0.0002498 1773. 3999.
63.1917 63.1786 3541(61) 0.0002678 1773. 3756.
63.1954 63.1823 3385(60) 0.0002822 1773. 3500.
63.1992 63.1861 3022(56) 0.0003141 1773. 3234.
63.2029 63.1898 2849(55) 0.0003360 1773. 2989.
63.2067 63.1936 2719(53) 0.000355 1773. 2760.
63.2105 63.1974 2521(52) 0.000373 1773. 2561.
63.2142 63.2011 2464(51) 0.000387 1773. 2398.
63.2180 63.2049 2281(48) 0.000425 1773. 2263.
63.2217 63.2086 2270(48) 0.000430 1773. 2160.
63.2255 63.2124 2122(47) 0.000451 1773. 2080.
63.2292 63.2161 2055(46) 0.000467 1773. 2022.
63.2330 63.2199 1974(45) 0.000488 1773. 1980.
63.2367 63.2236 2053(46) 0.000479 1772. 1950.
63.2405 63.2274 1987(46) 0.000480 1772. 1931.
63.2442 63.2311 1995(46) 0.000474 1772. 1919.
63.2480 63.2349 1836(44) 0.000526 1772. 1912.
63.2518 63.2387 1927(45) 0.000492 1772. 1909.
63.2555 63.2424 1998(46) 0.000468 1772. 1909.
63.2593 63.2462 1965(46) 0.000482 1772. 1912.
63.2630 63.2499 1831(44) 0.000516 1772. 1916.
63.2668 63.2537 1932(45) 0.000483 1772. 1920.
63.2705 63.2574 1904(45) 0.000498 1772. 1924.
63.2743 63.2612 1841(44) 0.000519 1772. 1927.
63.2780 63.2649 1918(45) 0.000490 1772. 1928.
63.2818 63.2687 1837(44) 0.000512 1772. 1928.
63.2856 63.2725 1853(44) 0.000513 1772. 1924.
63.2893 63.2762 1884(44) 0.000508 1772. 1919.
63.2931 63.2800 1830(44) 0.000521 1772. 1912.
63.2968 63.2837 1852(45) 0.000504 1772. 1905.
63.3006 63.2875 1812(43) 0.000530 1772. 1897.
63.3043 63.2912 1872(44) 0.000511 1772. 1890.
63.3081 63.2950 1831(44) 0.000524 1772. 1884.
63.3118 63.2987 1840(44) 0.000518 1772. 1881.
63.3156 63.3025 1858(44) 0.000516 1771. 1881.
63.3194 63.3063 1869(44) 0.000520 1771. 1886.
63.3231 63.3100 1965(45) 0.000488 1771. 1895.
63.3269 63.3138 1930(45) 0.000495 1771. 1911.
63.3306 63.3175 1904(45) 0.000490 1771. 1934.
63.3344 63.3213 1994(46) 0.000471 1771. 1967.
63.3381 63.3250 1955(46) 0.000466 1771. 2008.
63.3419 63.3288 2051(47) 0.000461 1771. 2060.
63.3456 63.3325 2106(47) 0.000448 1771. 2120.
63.3494 63.3363 2120(47) 0.000451 1771. 2190.
63.3532 63.3401 2316(49) 0.000409 1771. 2267.
63.3569 63.3438 2421(50) 0.000397 1771. 2344.
63.3607 63.3476 2540(52) 0.000365 1771. 2421.
63.3644 63.3513 2604(53) 0.000363 1771. 2487.
63.3682 63.3551 2659(53) 0.000354 1771. 2541.
63.3719 63.3588 2691(53) 0.000354 1771. 2573.
63.3757 63.3626 2583(53) 0.000361 1771. 2581.
63.3795 63.3664 2484(51) 0.000380 1771. 2564.
63.3832 63.3701 2457(51) 0.000384 1771. 2527.
63.3870 63.3739 2363(50) 0.000405 1771. 2473.
63.3907 63.3776 2266(50) 0.000407 1771. 2413.
63.3945 63.3814 2228(49) 0.000417 1771. 2347.
63.3982 63.3851 2232(48) 0.000427 1770. 2284.
63.4020 63.3889 2031(46) 0.000463 1770. 2222.
63.4057 63.3926 2075(47) 0.000460 1770. 2166.
63.4095 63.3964 2027(47) 0.000448 1770. 2114.
63.4133 63.4002 2004(46) 0.000472 1770. 2067.
63.4170 63.4039 1941(45) 0.000489 1770. 2026.
63.4208 63.4077 1943(45) 0.000490 1770. 1990.
63.4245 63.4114 1896(44) 0.000516 1770. 1959.
63.4283 63.4152 1893(45) 0.000490 1770. 1933.
63.4320 63.4189 1763(43) 0.000539 1770. 1911.
63.4358 63.4227 1881(44) 0.000510 1770. 1893.
63.4395 63.4264 1826(44) 0.000512 1770. 1879.
63.4433 63.4302 1899(45) 0.000502 1770. 1869.
63.4471 63.4340 1956(45) 0.000484 1770. 1861.
63.4546 63.4415 1890(45) 0.000499 1770. 1852.
63.4583 63.4452 1861(45) 0.000498 1770. 1850.
63.4621 63.4490 1891(45) 0.000503 1770. 1850.
63.4658 63.4527 1873(45) 0.000493 1770. 1850.
63.4696 63.4565 2008(47) 0.000452 1770. 1851.
63.4734 63.4603 1843(45) 0.000501 1770. 1854.
63.4771 63.4640 1922(45) 0.000492 1770. 1857.
63.4809 63.4678 1870(45) 0.000488 1769. 1861.
63.4846 63.4715 1915(45) 0.000494 1769. 1866.
63.4884 63.4753 1920(45) 0.000484 1769. 1873.
63.4921 63.4790 1922(46) 0.000480 1769. 1882.
63.4959 63.4828 1864(45) 0.000499 1769. 1895.
63.4997 63.4866 1973(45) 0.000505 1769. 1911.
63.5034 63.4903 1891(43) 0.000540 1769. 1933.
63.5072 63.4941 2037(45) 0.000499 1769. 1964.
63.5109 63.4978 2008(45) 0.000505 1769. 2003.
63.5147 63.5016 2062(44) 0.000509 1769. 2055.
63.5222 63.5091 2226(45) 0.000491 1769. 2204.
63.5297 63.5166 2387(48) 0.000430 1769. 2423.
63.5335 63.5204 2486(49) 0.000410 1769. 2560.
63.5372 63.5241 2790(53) 0.000360 1769. 2708.
63.5410 63.5279 2889(54) 0.0003459 1769. 2867.
63.5447 63.5316 3258(57) 0.0003110 1769. 3024.
63.5485 63.5354 3447(58) 0.0002966 1769. 3176.
63.5522 63.5391 3684(61) 0.0002708 1769. 3304.
63.5560 63.5429 3763(62) 0.0002626 1769. 3404.
63.5598 63.5467 3711(60) 0.0002773 1769. 3461.
63.5635 63.5504 3709(60) 0.0002736 1769. 3472.
63.5673 63.5542 3569(59) 0.0002874 1768. 3443.
63.5710 63.5579 3294(57) 0.0003074 1768. 3385.
63.5748 63.5617 3249(57) 0.0003093 1768. 3311.
63.5785 63.5654 2968(54) 0.0003391 1768. 3238.
63.5823 63.5692 3037(55) 0.0003330 1768. 3175.
63.5861 63.5730 2985(55) 0.0003349 1768. 3132.
63.5898 63.5767 2985(54) 0.0003373 1768. 3117.
63.5936 63.5805 2919(54) 0.0003423 1768. 3130.
63.5973 63.5842 3157(56) 0.0003143 1768. 3170.
63.6011 63.5880 3282(57) 0.0003088 1768. 3237.
63.6048 63.5917 3450(59) 0.0002917 1768. 3321.
63.6086 63.5955 3621(61) 0.0002720 1768. 3419.
63.6124 63.5993 3599(60) 0.0002759 1768. 3518.
63.6161 63.6030 3643(61) 0.0002720 1768. 3610.
63.6199 63.6068 3653(60) 0.0002764 1768. 3696.
63.6236 63.6105 3550(60) 0.0002798 1768. 3774.
63.6274 63.6143 3662(60) 0.0002741 1768. 3852.
63.6311 63.6180 3866(63) 0.0002553 1768. 3934.
63.6349 63.6218 4303(66) 0.0002299 1768. 4028.
63.6387 63.6256 4466(67) 0.0002237 1768. 4131.
63.6424 63.6293 4719(69) 0.0002102 1768. 4235.
63.6462 63.6331 4727(69) 0.0002117 1768. 4336.
63.6499 63.6368 4849(70) 0.0002070 1768. 4415.
63.6537 63.6406 4778(70) 0.0002013 1767. 4467.
63.6574 63.6443 4919(71) 0.0001994 1767. 4483.
63.6612 63.6481 4823(70) 0.0002054 1767. 4463.
63.6650 63.6519 4647(68) 0.0002140 1767. 4407.
63.6687 63.6556 4577(68) 0.0002184 1767. 4320.
63.6725 63.6594 4326(66) 0.0002315 1767. 4196.
63.6762 63.6631 4098(64) 0.0002405 1767. 4041.
63.6800 63.6669 3858(62) 0.0002591 1767. 3848.
63.6837 63.6706 3696(61) 0.0002708 1767. 3633.
63.6875 63.6744 3361(58) 0.0002936 1767. 3396.
63.6913 63.6782 3135(56) 0.0003193 1767. 3157.
63.6950 63.6819 2954(54) 0.0003376 1767. 2931.
63.6988 63.6857 2599(51) 0.000382 1767. 2717.
63.7025 63.6894 2545(51) 0.000387 1767. 2533.
63.7063 63.6932 2343(49) 0.000418 1767. 2370.
63.7100 63.6969 2267(48) 0.000440 1767. 2240.
63.7138 63.7007 2246(48) 0.000441 1767. 2135.
63.7176 63.7045 2139(46) 0.000473 1767. 2054.
63.7213 63.7082 2052(45) 0.000486 1767. 1996.
63.7251 63.7120 2029(45) 0.000503 1767. 1954.
63.7288 63.7157 2000(45) 0.000498 1767. 1925.
63.7326 63.7195 1915(44) 0.000519 1767. 1906.
63.7363 63.7232 1847(43) 0.000536 1767. 1893.
63.7401 63.7270 1923(44) 0.000511 1767. 1884.
63.7439 63.7308 1866(43) 0.000537 1766. 1878.
63.7476 63.7345 1942(44) 0.000522 1766. 1874.
63.7514 63.7383 1885(44) 0.000523 1766. 1870.
63.7551 63.7420 1904(44) 0.000519 1766. 1867.
63.7589 63.7458 1904(44) 0.000519 1766. 1863.
63.7626 63.7495 1909(44) 0.000523 1766. 1861.
63.7664 63.7533 1912(43) 0.000530 1766. 1859.
63.7702 63.7571 1969(45) 0.000503 1766. 1858.
63.7739 63.7608 1809(42) 0.000555 1766. 1859.
63.7777 63.7646 1862(43) 0.000539 1766. 1861.
63.7814 63.7683 1869(44) 0.000527 1766. 1866.
63.7852 63.7721 1964(44) 0.000509 1766. 1874.
63.7889 63.7758 1844(43) 0.000534 1766. 1886.
63.7927 63.7796 1979(45) 0.000504 1766. 1903.
63.7965 63.7834 1905(44) 0.000512 1766. 1925.
63.8002 63.7871 1897(44) 0.000526 1766. 1952.
63.8040 63.7909 2023(45) 0.000496 1766. 1983.
63.8077 63.7946 1961(44) 0.000509 1766. 2017.
63.8115 63.7984 2042(45) 0.000485 1766. 2053.
63.8153 63.8022 2084(46) 0.000470 1766. 2088.
63.8190 63.8059 2012(45) 0.000496 1766. 2118.
63.8228 63.8097 2109(46) 0.000466 1766. 2141.
63.8265 63.8134 2042(45) 0.000484 1766. 2153.
63.8303 63.8172 1970(44) 0.000505 1766. 2153.
63.8340 63.8209 1985(44) 0.000511 1766. 2141.
63.8378 63.8247 1953(44) 0.000509 1765. 2117.
63.8416 63.8285 1952(44) 0.000525 1765. 2085.
63.8453 63.8322 1914(44) 0.000524 1765. 2049.
63.8491 63.8360 1909(44) 0.000520 1765. 2011.
63.8528 63.8397 1949(45) 0.000499 1765. 1974.
63.8566 63.8435 1788(43) 0.000553 1765. 1939.
63.8603 63.8472 1882(44) 0.000526 1765. 1909.
63.8641 63.8510 1829(43) 0.000541 1765. 1883.
63.8679 63.8548 1867(43) 0.000545 1765. 1861.
63.8716 63.8585 1924(44) 0.000527 1765. 1845.
63.8754 63.8623 1871(43) 0.000543 1765. 1832.
63.8791 63.8660 1743(42) 0.000567 1765. 1823.
63.8829 63.8698 1791(43) 0.000551 1765. 1817.
63.8867 63.8736 1769(42) 0.000566 1765. 1812.
63.8904 63.8773 1872(43) 0.000536 1765. 1809.
63.8942 63.8811 1743(42) 0.000570 1765. 1806.
63.8979 63.8848 1863(43) 0.000531 1765. 1805.
63.9017 63.8886 1819(43) 0.000547 1765. 1804.
63.9054 63.8923 1862(43) 0.000537 1765. 1803.
63.9092 63.8961 1871(43) 0.000536 1765. 1803.
63.9130 63.8999 1740(42) 0.000573 1765. 1803.
63.9167 63.9036 1719(41) 0.000586 1765. 1803.
63.9205 63.9074 1809(43) 0.000542 1765. 1803.
63.9242 63.9111 1799(43) 0.000545 1765. 1803.
63.9280 63.9149 1710(41) 0.000581 1765. 1804.
63.9318 63.9187 1687(41) 0.000590 1765. 1804.
63.9355 63.9224 1834(43) 0.000553 1765. 1805.
63.9393 63.9262 1774(42) 0.000556 1764. 1806.
63.9430 63.9299 1815(43) 0.000541 1764. 1806.
63.9468 63.9337 1762(42) 0.000566 1764. 1807.
63.9505 63.9374 1763(42) 0.000579 1764. 1809.
63.9543 63.9412 1802(43) 0.000538 1764. 1810.
63.9581 63.9450 1794(43) 0.000553 1764. 1812.
63.9618 63.9487 1828(43) 0.000549 1764. 1813.
63.9656 63.9525 1806(43) 0.000551 1764. 1815.
63.9693 63.9562 1822(43) 0.000550 1764. 1818.
63.9731 63.9600 1651(41) 0.000593 1764. 1820.
63.9768 63.9637 1815(43) 0.000534 1764. 1824.
63.9806 63.9675 1860(44) 0.000512 1764. 1827.
63.9844 63.9713 1817(44) 0.000527 1764. 1832.
63.9881 63.9750 1864(44) 0.000515 1764. 1838.
63.9919 63.9788 1849(44) 0.000509 1764. 1845.
63.9956 63.9825 1836(44) 0.000518 1764. 1855.
63.9994 63.9863 1820(44) 0.000528 1764. 1868.
64.0032 63.9901 1931(45) 0.000499 1764. 1886.
64.0069 63.9938 1858(44) 0.000509 1764. 1910.
64.0107 63.9976 1883(44) 0.000520 1764. 1943.
64.0144 64.0013 1945(45) 0.000497 1764. 1986.
64.0182 64.0051 1984(45) 0.000485 1764. 2044.
64.0220 64.0089 2033(45) 0.000487 1764. 2118.
64.0257 64.0126 2103(46) 0.000464 1764. 2208.
64.0295 64.0164 2204(48) 0.000427 1764. 2320.
64.0332 64.0201 2340(49) 0.000415 1764. 2447.
64.0370 64.0239 2567(52) 0.000365 1764. 2595.
64.0407 64.0276 2861(55) 0.0003332 1763. 2751.
64.0445 64.0314 3069(57) 0.0003069 1763. 2917.
64.0483 64.0352 3558(60) 0.0002745 1763. 3079.
64.0520 64.0389 3740(62) 0.0002572 1763. 3221.
64.0558 64.0427 3843(64) 0.0002445 1763. 3339.
64.0595 64.0464 3909(65) 0.0002400 1763. 3413.
64.0633 64.0502 3803(62) 0.0002588 1763. 3440.
64.0671 64.0540 3461(60) 0.0002818 1763. 3412.
64.0708 64.0577 3274(58) 0.0002961 1763. 3337.
64.0746 64.0615 3117(56) 0.0003138 1763. 3223.
64.0783 64.0652 2915(55) 0.0003329 1763. 3090.
64.0821 64.0690 2705(53) 0.000355 1763. 2944.
64.0858 64.0727 2725(53) 0.000353 1763. 2806.
64.0896 64.0765 2620(51) 0.000380 1763. 2678.
64.0934 64.0803 2521(51) 0.000381 1763. 2572.
64.0971 64.0840 2387(49) 0.000409 1763. 2493.
64.1009 64.0878 2388(50) 0.000405 1763. 2440.
64.1046 64.0915 2372(50) 0.000402 1763. 2413.
64.1084 64.0953 2503(51) 0.000386 1763. 2409.
64.1122 64.0991 2508(51) 0.000385 1763. 2423.
64.1159 64.1028 2531(51) 0.000389 1763. 2450.
64.1197 64.1066 2560(51) 0.000385 1763. 2485.
64.1234 64.1103 2485(51) 0.000389 1763. 2521.
64.1272 64.1141 2514(51) 0.000384 1763. 2555.
64.1310 64.1179 2471(51) 0.000390 1763. 2585.
64.1347 64.1216 2395(49) 0.000420 1763. 2609.
64.1385 64.1254 2498(51) 0.000384 1763. 2632.
64.1422 64.1291 2434(51) 0.000389 1763. 2654.
64.1460 64.1329 2654(52) 0.000372 1762. 2677.
64.1497 64.1366 2751(53) 0.000358 1762. 2698.
64.1535 64.1404 2848(55) 0.0003268 1762. 2716.
64.1573 64.1442 2760(54) 0.0003469 1762. 2725.
64.1610 64.1479 2799(54) 0.0003484 1762. 2719.
64.1648 64.1517 2693(52) 0.000374 1762. 2695.
64.1685 64.1554 2746(53) 0.000362 1762. 2653.
64.1723 64.1592 2671(53) 0.000359 1762. 2593.
64.1761 64.1630 2399(49) 0.000408 1762. 2522.
64.1798 64.1667 2397(50) 0.000397 1762. 2450.
64.1836 64.1705 2236(48) 0.000439 1762. 2379.
64.1873 64.1742 2210(47) 0.000449 1762. 2319.
64.1911 64.1780 2292(48) 0.000427 1762. 2274.
64.1949 64.1818 2174(47) 0.000447 1762. 2250.
64.1986 64.1855 2265(48) 0.000438 1762. 2249.
64.2024 64.1893 2118(47) 0.000458 1762. 2274.
64.2061 64.1930 2258(48) 0.000432 1762. 2322.
64.2099 64.1968 2356(49) 0.000411 1762. 2395.
64.2136 64.2005 2502(51) 0.000385 1762. 2482.
64.2174 64.2043 2654(52) 0.000369 1762. 2583.
64.2212 64.2081 2814(54) 0.0003443 1762. 2687.
64.2249 64.2118 3001(56) 0.0003232 1762. 2780.
64.2287 64.2156 3091(57) 0.0003116 1762. 2855.
64.2324 64.2193 2959(55) 0.0003280 1762. 2900.
64.2362 64.2231 3073(57) 0.0003110 1762. 2908.
64.2400 64.2269 2810(54) 0.0003466 1762. 2876.
64.2437 64.2306 2810(53) 0.000362 1762. 2810.
64.2475 64.2344 2599(51) 0.000385 1762. 2715.
64.2512 64.2381 2560(51) 0.000381 1762. 2606.
64.2550 64.2419 2360(49) 0.000408 1762. 2486.
64.2588 64.2457 2312(47) 0.000444 1762. 2368.
64.2625 64.2494 2209(47) 0.000445 1761. 2260.
64.2663 64.2532 2192(47) 0.000451 1761. 2162.
64.2700 64.2569 2150(47) 0.000461 1761. 2080.
64.2738 64.2607 2022(46) 0.000475 1761. 2012.
64.2776 64.2645 1950(45) 0.000504 1761. 1958.
64.2813 64.2682 1932(45) 0.000502 1761. 1918.
64.2851 64.2720 1856(44) 0.000527 1761. 1888.
64.2888 64.2757 1830(43) 0.000544 1761. 1867.
64.2926 64.2795 1817(43) 0.000530 1761. 1853.
64.2964 64.2833 1832(43) 0.000541 1761. 1843.
64.3001 64.2870 1855(43) 0.000531 1761. 1837.
64.3039 64.2908 1812(43) 0.000534 1761. 1834.
64.3076 64.2945 1788(43) 0.000551 1761. 1833.
64.3114 64.2983 1814(43) 0.000544 1761. 1834.
64.3151 64.3020 1795(42) 0.000559 1761. 1836.
64.3189 64.3058 1909(44) 0.000511 1761. 1838.
64.3227 64.3096 1774(42) 0.000557 1761. 1841.
64.3264 64.3133 1807(43) 0.000544 1761. 1845.
64.3302 64.3171 1768(43) 0.000554 1761. 1848.
64.3339 64.3208 1775(42) 0.000569 1761. 1851.
64.3377 64.3246 1820(43) 0.000547 1761. 1854.
64.3415 64.3284 1865(43) 0.000549 1761. 1856.
64.3452 64.3321 1766(42) 0.000555 1761. 1858.
64.3490 64.3359 1787(42) 0.000565 1761. 1860.
64.3527 64.3396 1833(44) 0.000518 1761. 1864.
64.3565 64.3434 1843(44) 0.000519 1761. 1869.
64.3603 64.3472 1812(43) 0.000545 1761. 1878.
64.3640 64.3509 1908(44) 0.000510 1761. 1891.
64.3678 64.3547 1894(44) 0.000518 1761. 1911.
64.3715 64.3584 1797(42) 0.000559 1761. 1937.
64.3753 64.3622 1833(43) 0.000547 1761. 1973.
64.3791 64.3660 1971(45) 0.000498 1761. 2018.
64.3828 64.3697 1908(44) 0.000513 1760. 2072.
64.3866 64.3735 2118(47) 0.000456 1760. 2136.
64.3903 64.3772 2243(48) 0.000440 1760. 2207.
64.3941 64.3810 2361(49) 0.000414 1760. 2284.
64.3979 64.3848 2453(50) 0.000402 1760. 2364.
64.4016 64.3885 2669(53) 0.000360 1760. 2437.
64.4054 64.3923 2610(52) 0.000369 1760. 2504.
64.4091 64.3960 2656(52) 0.000367 1760. 2555.
64.4129 64.3998 2558(51) 0.000384 1760. 2588.
64.4167 64.4036 2503(50) 0.000401 1760. 2598.
64.4204 64.4073 2499(51) 0.000390 1760. 2588.
64.4242 64.4111 2478(51) 0.000385 1760. 2559.
64.4279 64.4148 2402(50) 0.000407 1760. 2516.
64.4317 64.4186 2366(49) 0.000412 1760. 2459.
64.4355 64.4224 2258(48) 0.000434 1760. 2395.
64.4392 64.4261 2212(47) 0.000461 1760. 2327.
64.4430 64.4299 2180(47) 0.000451 1760. 2257.
64.4467 64.4336 2077(47) 0.000461 1760. 2191.
64.4505 64.4374 1952(44) 0.000515 1760. 2128.
64.4542 64.4411 2015(46) 0.000472 1760. 2074.
64.4580 64.4449 1996(46) 0.000466 1760. 2027.
64.4618 64.4487 1943(44) 0.000518 1760. 1990.
64.4655 64.4524 1883(43) 0.000536 1760. 1963.
64.4693 64.4562 1974(44) 0.000505 1760. 1945.
64.4730 64.4599 1859(43) 0.000542 1760. 1937.
64.4768 64.4637 2021(44) 0.000506 1760. 1939.
64.4806 64.4675 1919(43) 0.000534 1760. 1951.
64.4843 64.4712 1969(44) 0.000505 1760. 1972.
64.4881 64.4750 1861(43) 0.000545 1760. 2004.
64.4918 64.4787 1997(45) 0.000501 1760. 2044.
64.4956 64.4825 2064(45) 0.000492 1760. 2094.
64.4994 64.4863 2203(47) 0.000457 1760. 2151.
64.5031 64.4900 2212(47) 0.000459 1760. 2211.
64.5069 64.4938 2397(49) 0.000414 1760. 2274.
64.5106 64.4975 2420(49) 0.000419 1759. 2333.
64.5144 64.5013 2473(49) 0.000414 1759. 2385.
64.5182 64.5051 2566(51) 0.000390 1759. 2424.
64.5219 64.5088 2445(49) 0.000409 1759. 2445.
64.5257 64.5126 2375(49) 0.000420 1759. 2446.
64.5294 64.5163 2398(49) 0.000418 1759. 2428.
64.5332 64.5201 2279(48) 0.000437 1759. 2392.
64.5370 64.5239 2325(48) 0.000438 1759. 2344.
64.5407 64.5276 2247(48) 0.000442 1759. 2289.
64.5445 64.5314 2201(47) 0.000450 1759. 2230.
64.5482 64.5351 2067(45) 0.000495 1759. 2171.
64.5520 64.5389 2185(47) 0.000456 1759. 2114.
64.5558 64.5427 2067(46) 0.000473 1759. 2061.
64.5595 64.5464 2064(45) 0.000488 1759. 2014.
64.5633 64.5502 1941(44) 0.000520 1759. 1973.
64.5670 64.5539 1895(44) 0.000527 1759. 1939.
64.5708 64.5577 1977(44) 0.000515 1759. 1911.
64.5746 64.5615 1966(44) 0.000508 1759. 1888.
64.5783 64.5652 1889(44) 0.000523 1759. 1871.
64.5821 64.5690 1949(44) 0.000517 1759. 1857.
64.5858 64.5727 1878(43) 0.000535 1759. 1847.
64.5896 64.5765 1877(43) 0.000529 1759. 1839.
64.5934 64.5803 1916(43) 0.000537 1759. 1834.
64.5971 64.5840 1887(43) 0.000536 1759. 1830.
64.6009 64.5878 1807(42) 0.000554 1759. 1828.
64.6046 64.5915 1761(42) 0.000564 1759. 1827.
64.6084 64.5953 1779(42) 0.000557 1759. 1827.
64.6122 64.5991 1831(43) 0.000538 1759. 1828.
64.6159 64.6028 1796(42) 0.000554 1759. 1831.
64.6197 64.6066 1786(43) 0.000551 1759. 1835.
64.6234 64.6103 1828(43) 0.000552 1759. 1842.
64.6272 64.6141 1829(43) 0.000550 1759. 1851.
64.6310 64.6179 1810(42) 0.000556 1759. 1865.
64.6347 64.6216 1902(44) 0.000528 1759. 1884.
64.6385 64.6254 1787(42) 0.000555 1759. 1910.
64.6422 64.6291 1899(43) 0.000535 1759. 1944.
64.6460 64.6329 1883(43) 0.000535 1759. 1988.
64.6498 64.6367 1979(44) 0.000506 1759. 2042.
64.6535 64.6404 2062(45) 0.000486 1758. 2106.
64.6573 64.6442 2114(46) 0.000467 1758. 2182.
64.6610 64.6479 2157(46) 0.000463 1758. 2264.
64.6648 64.6517 2372(48) 0.000431 1758. 2355.
64.6686 64.6555 2476(50) 0.000401 1758. 2447.
64.6723 64.6592 2725(52) 0.000367 1758. 2533.
64.6761 64.6630 2632(52) 0.000372 1758. 2610.
64.6798 64.6667 2874(53) 0.000357 1758. 2667.
64.6836 64.6705 2735(52) 0.000364 1758. 2701.
64.6874 64.6743 2758(53) 0.000360 1758. 2706.
64.6911 64.6780 2647(51) 0.000378 1758. 2683.
64.6949 64.6818 2522(51) 0.000391 1758. 2635.
64.6986 64.6855 2456(50) 0.000407 1758. 2572.
64.7024 64.6893 2396(49) 0.000418 1758. 2498.
64.7062 64.6931 2269(48) 0.000432 1758. 2423.
64.7099 64.6968 2281(48) 0.000432 1758. 2356.
64.7137 64.7006 2154(47) 0.000451 1758. 2298.
64.7174 64.7043 2265(48) 0.000439 1758. 2258.
64.7212 64.7081 2110(46) 0.000475 1758. 2237.
64.7250 64.7119 2109(46) 0.000470 1758. 2241.
64.7287 64.7156 2163(47) 0.000457 1758. 2269.
64.7325 64.7194 2200(47) 0.000448 1758. 2324.
64.7362 64.7231 2336(48) 0.000434 1758. 2403.
64.7400 64.7269 2497(50) 0.000400 1758. 2507.
64.7438 64.7307 2681(52) 0.000366 1758. 2631.
64.7475 64.7344 2925(54) 0.0003389 1758. 2764.
64.7513 64.7382 3172(56) 0.0003144 1758. 2905.
64.7550 64.7419 3421(60) 0.0002799 1758. 3036.
64.7588 64.7457 3545(60) 0.0002735 1758. 3151.
64.7626 64.7495 3746(61) 0.0002684 1758. 3233.
64.7663 64.7532 3454(59) 0.0002868 1758. 3269.
64.7701 64.7570 3484(59) 0.0002834 1758. 3256.
64.7738 64.7607 3248(58) 0.0002983 1758. 3195.
64.7776 64.7645 3123(56) 0.0003143 1758. 3090.
64.7814 64.7683 2824(53) 0.000351 1758. 2955.
64.7851 64.7720 2707(52) 0.000367 1758. 2808.
64.7889 64.7758 2476(50) 0.000405 1758. 2652.
64.7927 64.7796 2429(50) 0.000400 1758. 2501.
64.7964 64.7833 2270(48) 0.000428 1758. 2366.
64.8002 64.7871 2140(47) 0.000459 1758. 2244.
64.8039 64.7908 2187(47) 0.000448 1758. 2145.
64.8077 64.7946 2162(47) 0.000462 1758. 2063.
64.8115 64.7984 2039(46) 0.000483 1757. 1999.
64.8152 64.8021 2029(45) 0.000485 1757. 1953.
64.8190 64.8059 1922(44) 0.000517 1757. 1919.
64.8227 64.8096 1962(45) 0.000501 1757. 1896.
64.8265 64.8134 1911(44) 0.000518 1757. 1882.
64.8303 64.8172 1859(43) 0.000534 1757. 1874.
64.8340 64.8209 1862(44) 0.000525 1757. 1873.
64.8378 64.8247 1921(44) 0.000526 1757. 1876.
64.8415 64.8284 1857(44) 0.000523 1757. 1885.
64.8453 64.8322 1924(44) 0.000507 1757. 1901.
64.8491 64.8360 1885(44) 0.000521 1757. 1922.
64.8528 64.8397 1997(45) 0.000501 1757. 1951.
64.8566 64.8435 1965(45) 0.000486 1757. 1988.
64.8603 64.8472 2079(46) 0.000474 1757. 2032.
64.8641 64.8510 2023(45) 0.000486 1757. 2087.
64.8679 64.8548 2200(47) 0.000446 1757. 2150.
64.8716 64.8585 2228(48) 0.000434 1757. 2219.
64.8754 64.8623 2395(49) 0.000413 1757. 2296.
64.8791 64.8660 2395(49) 0.000410 1757. 2375.
64.8829 64.8698 2521(51) 0.000385 1757. 2459.
64.8867 64.8736 2497(50) 0.000395 1757. 2542.
64.8904 64.8773 2616(52) 0.000376 1757. 2620.
64.8942 64.8811 2654(53) 0.000360 1757. 2698.
64.8979 64.8848 2748(53) 0.000352 1757. 2769.
64.9017 64.8886 2851(54) 0.0003405 1757. 2839.
64.9055 64.8924 2994(55) 0.0003347 1757. 2902.
64.9092 64.8961 3179(57) 0.0003108 1757. 2955.
64.9130 64.8999 3275(57) 0.0003050 1757. 2995.
64.9167 64.9036 3184(57) 0.0003114 1757. 3013.
64.9205 64.9074 3112(56) 0.0003188 1757. 3005.
64.9243 64.9112 2992(56) 0.0003189 1757. 2967.
64.9280 64.9149 2960(55) 0.0003331 1757. 2905.
64.9318 64.9187 2674(52) 0.000366 1757. 2821.
64.9355 64.9224 2626(52) 0.000369 1757. 2730.
64.9393 64.9262 2486(51) 0.000388 1757. 2635.
64.9431 64.9300 2374(50) 0.000407 1757. 2550.
64.9468 64.9337 2334(48) 0.000431 1757. 2482.
64.9506 64.9375 2394(49) 0.000413 1757. 2433.
64.9543 64.9412 2410(49) 0.000408 1757. 2407.
64.9581 64.9450 2468(50) 0.000402 1757. 2404.
64.9619 64.9488 2426(50) 0.000401 1757. 2421.
64.9656 64.9525 2575(50) 0.000396 1757. 2451.
64.9694 64.9563 2653(52) 0.000371 1757. 2491.
64.9732 64.9601 2712(53) 0.000359 1757. 2531.
64.9769 64.9638 2560(50) 0.000396 1757. 2561.
64.9807 64.9676 2720(52) 0.000363 1757. 2576.
64.9844 64.9713 2668(52) 0.000370 1757. 2570.
64.9882 64.9751 2587(51) 0.000390 1757. 2542.
64.9920 64.9789 2387(49) 0.000415 1756. 2496.
64.9957 64.9826 2390(49) 0.000417 1756. 2437.
64.9995 64.9864 2253(48) 0.000437 1756. 2368.
65.0032 64.9901 2222(47) 0.000445 1756. 2298.
65.0070 64.9939 2237(47) 0.000454 1756. 2227.
65.0108 64.9977 2217(47) 0.000450 1756. 2160.
65.0145 65.0014 2049(45) 0.000495 1756. 2101.
65.0183 65.0052 2076(46) 0.000472 1756. 2047.
65.0220 65.0089 1927(44) 0.000516 1756. 2002.
65.0258 65.0127 2001(45) 0.000493 1756. 1964.
65.0296 65.0165 1952(44) 0.000518 1756. 1932.
65.0333 65.0202 1893(44) 0.000526 1756. 1907.
65.0371 65.0240 1843(43) 0.000532 1756. 1886.
65.0408 65.0277 1884(44) 0.000520 1756. 1871.
65.0446 65.0315 1842(43) 0.000540 1756. 1858.
65.0484 65.0353 1843(43) 0.000551 1756. 1849.
65.0521 65.0390 1868(44) 0.000527 1756. 1842.
65.0559 65.0428 1920(44) 0.000515 1756. 1838.
65.0596 65.0465 1863(43) 0.000544 1756. 1835.
65.0634 65.0503 1924(44) 0.000525 1756. 1833.
65.0672 65.0541 1848(43) 0.000538 1756. 1831.
65.0709 65.0578 1860(44) 0.000526 1756. 1831.
65.0747 65.0616 1860(43) 0.000541 1756. 1830.
65.0784 65.0653 1891(44) 0.000517 1756. 1829.
65.0822 65.0691 1855(43) 0.000531 1756. 1828.
65.0860 65.0729 1837(43) 0.000543 1756. 1827.
65.0897 65.0766 1797(43) 0.000544 1756. 1826.
65.0935 65.0804 1856(43) 0.000540 1756. 1825.
65.0972 65.0841 1818(43) 0.000538 1756. 1825.
65.1010 65.0879 1922(44) 0.000515 1756. 1825.
65.1048 65.0917 1865(44) 0.000522 1756. 1826.
65.1085 65.0954 1871(43) 0.000530 1756. 1829.
65.1123 65.0992 1752(42) 0.000569 1756. 1833.
65.1161 65.1030 1767(42) 0.000569 1756. 1841.
65.1198 65.1067 1917(44) 0.000522 1756. 1851.
65.1236 65.1105 1944(44) 0.000511 1756. 1866.
65.1273 65.1142 1797(43) 0.000552 1756. 1886.
65.1311 65.1180 1857(43) 0.000549 1756. 1913.
65.1349 65.1218 1864(44) 0.000524 1756. 1946.
65.1386 65.1255 1943(44) 0.000509 1756. 1986.
65.1424 65.1293 1859(44) 0.000515 1756. 2035.
65.1461 65.1330 1965(45) 0.000498 1756. 2089.
65.1499 65.1368 2053(46) 0.000481 1756. 2150.
65.1537 65.1406 2185(47) 0.000448 1756. 2214.
65.1574 65.1443 2222(48) 0.000439 1756. 2276.
65.1612 65.1481 2435(50) 0.000399 1756. 2336.
65.1649 65.1518 2383(49) 0.000412 1756. 2387.
65.1687 65.1556 2493(50) 0.000395 1756. 2427.
65.1725 65.1594 2345(49) 0.000415 1756. 2451.
65.1762 65.1631 2396(50) 0.000401 1756. 2458.
65.1800 65.1669 2175(47) 0.000447 1756. 2449.
65.1837 65.1706 2298(48) 0.000425 1756. 2428.
65.1875 65.1744 2235(47) 0.000445 1756. 2399.
65.1913 65.1782 2192(47) 0.000450 1756. 2370.
65.1950 65.1819 2162(47) 0.000455 1756. 2347.
65.1988 65.1857 2208(48) 0.000441 1756. 2333.
65.2025 65.1894 2168(47) 0.000450 1756. 2334.
65.2063 65.1932 2327(49) 0.000420 1756. 2349.
65.2101 65.1970 2236(48) 0.000440 1756. 2380.
65.2138 65.2007 2435(50) 0.000406 1755. 2421.
65.2176 65.2045 2524(50) 0.000395 1755. 2471.
65.2214 65.2083 2677(52) 0.000366 1755. 2522.
65.2251 65.2120 2615(52) 0.000375 1755. 2567.
65.2289 65.2158 2751(53) 0.000357 1755. 2600.
65.2326 65.2195 2696(52) 0.000374 1755. 2614.
65.2364 65.2233 2783(54) 0.0003451 1755. 2605.
65.2402 65.2271 2566(51) 0.000380 1755. 2573.
65.2439 65.2308 2521(51) 0.000386 1755. 2523.
65.2477 65.2346 2469(50) 0.000404 1755. 2460.
65.2514 65.2383 2456(50) 0.000397 1755. 2392.
65.2552 65.2421 2259(49) 0.000425 1755. 2322.
65.2590 65.2459 2354(50) 0.000408 1755. 2257.
65.2627 65.2496 2188(47) 0.000452 1755. 2204.
65.2665 65.2534 2193(48) 0.000434 1755. 2164.
65.2702 65.2571 2138(46) 0.000466 1755. 2141.
65.2740 65.2609 2202(47) 0.000445 1755. 2138.
65.2778 65.2647 2109(46) 0.000463 1755. 2156.
65.2815 65.2684 2208(47) 0.000457 1755. 2197.
65.2853 65.2722 2167(47) 0.000459 1755. 2264.
65.2890 65.2759 2396(49) 0.000411 1755. 2354.
65.2928 65.2797 2462(51) 0.000391 1755. 2470.
65.2966 65.2835 2733(53) 0.000357 1755. 2609.
65.3003 65.2872 2946(55) 0.0003343 1755. 2763.
65.3041 65.2910 3247(58) 0.0003021 1755. 2933.
65.3078 65.2947 3505(59) 0.0002864 1755. 3102.
65.3116 65.2985 3824(63) 0.0002492 1755. 3269.
65.3154 65.3023 4009(65) 0.0002403 1755. 3415.
65.3191 65.3060 4143(65) 0.0002336 1755. 3525.
65.3229 65.3098 3856(63) 0.0002521 1755. 3592.
65.3267 65.3136 3814(63) 0.0002519 1755. 3605.
65.3304 65.3173 3572(61) 0.0002687 1755. 3566.
65.3342 65.3211 3459(60) 0.0002756 1755. 3479.
65.3379 65.3248 3252(58) 0.0003014 1755. 3360.
65.3417 65.3286 3286(58) 0.0002933 1755. 3217.
65.3455 65.3324 2827(54) 0.0003477 1755. 3067.
65.3492 65.3361 2975(55) 0.0003351 1755. 2926.
65.3530 65.3399 2559(52) 0.000374 1755. 2798.
65.3567 65.3436 2633(52) 0.000375 1755. 2698.
65.3605 65.3474 2656(52) 0.000375 1755. 2626.
65.3643 65.3512 2476(50) 0.000406 1755. 2589.
65.3680 65.3549 2531(51) 0.000388 1755. 2589.
65.3718 65.3587 2618(52) 0.000363 1755. 2623.
65.3755 65.3624 2698(53) 0.000351 1755. 2687.
65.3793 65.3662 2841(54) 0.0003456 1755. 2779.
65.3831 65.3700 3003(56) 0.0003223 1755. 2889.
65.3868 65.3737 3277(59) 0.0002876 1755. 3006.
65.3906 65.3775 3410(59) 0.0002903 1755. 3124.
65.3943 65.3812 3544(61) 0.0002713 1755. 3225.
65.3981 65.3850 3562(60) 0.0002790 1755. 3301.
65.4019 65.3888 3614(62) 0.0002643 1755. 3340.
65.4056 65.3925 3426(60) 0.0002823 1755. 3336.
65.4094 65.3963 3389(59) 0.0002867 1755. 3288.
65.4131 65.4000 3251(57) 0.0003036 1755. 3206.
65.4169 65.4038 3004(56) 0.0003152 1755. 3095.
65.4207 65.4076 2920(55) 0.0003259 1755. 2971.
65.4244 65.4113 2748(54) 0.0003491 1755. 2849.
65.4282 65.4151 2544(51) 0.000379 1755. 2734.
65.4320 65.4189 2645(53) 0.000363 1755. 2639.
65.4357 65.4226 2515(51) 0.000382 1755. 2572.
65.4395 65.4264 2555(52) 0.000372 1755. 2533.
65.4432 65.4301 2490(51) 0.000384 1755. 2527.
65.4470 65.4339 2555(52) 0.000367 1755. 2552.
65.4508 65.4377 2566(51) 0.000378 1755. 2605.
65.4545 65.4414 2742(53) 0.000351 1755. 2679.
65.4583 65.4452 2888(56) 0.0003210 1755. 2771.
65.4620 65.4489 3162(58) 0.0002957 1755. 2870.
65.4658 65.4527 3118(57) 0.0003036 1755. 2972.
65.4696 65.4565 3351(59) 0.0002825 1755. 3067.
65.4733 65.4602 3195(57) 0.0003064 1755. 3149.
65.4771 65.4640 3303(59) 0.0002854 1755. 3219.
65.4808 65.4677 3379(59) 0.0002871 1755. 3277.
65.4846 65.4715 3375(59) 0.0002855 1755. 3334.
65.4884 65.4753 3365(59) 0.0002839 1755. 3397.
65.4921 65.4790 3579(62) 0.0002644 1755. 3472.
65.4959 65.4828 3642(61) 0.0002654 1755. 3568.
65.4996 65.4865 4065(65) 0.0002350 1755. 3679.
65.5034 65.4903 4181(66) 0.0002276 1755. 3809.
65.5072 65.4941 4545(69) 0.0002071 1755. 3945.
65.5109 65.4978 4698(69) 0.0002099 1755. 4072.
65.5147 65.5016 4950(72) 0.0001919 1755. 4185.
65.5184 65.5053 5154(74) 0.0001836 1755. 4266.
65.5222 65.5091 5227(74) 0.0001807 1755. 4310.
65.5260 65.5129 5051(73) 0.0001862 1754. 4304.
65.5297 65.5166 5003(72) 0.0001914 1754. 4247.
65.5335 65.5204 4472(69) 0.0002131 1754. 4136.
65.5373 65.5242 4249(65) 0.0002343 1754. 3975.
65.5410 65.5279 3820(63) 0.0002536 1754. 3783.
65.5448 65.5317 3617(62) 0.0002585 1754. 3560.
65.5485 65.5354 3247(58) 0.0002995 1754. 3331.
65.5523 65.5392 3065(56) 0.0003154 1754. 3097.
65.5561 65.5430 2913(56) 0.0003222 1754. 2875.
65.5598 65.5467 2700(52) 0.000372 1754. 2679.
65.5636 65.5505 2490(51) 0.000386 1754. 2501.
65.5673 65.5542 2469(51) 0.000383 1754. 2355.
65.5711 65.5580 2334(50) 0.000407 1754. 2231.
65.5749 65.5618 2155(48) 0.000440 1754. 2132.
65.5786 65.5655 2125(46) 0.000464 1754. 2057.
65.5824 65.5693 2128(47) 0.000458 1754. 1998.
65.5861 65.5730 1984(45) 0.000485 1754. 1955.
65.5899 65.5768 2059(45) 0.000487 1754. 1922.
65.5937 65.5806 1911(45) 0.000501 1754. 1898.
65.5974 65.5843 1922(44) 0.000506 1754. 1881.
65.6012 65.5881 1921(44) 0.000506 1754. 1868.
65.6049 65.5918 2020(45) 0.000484 1754. 1858.
65.6087 65.5956 1931(45) 0.000491 1754. 1851.
65.6125 65.5994 1895(44) 0.000521 1754. 1846.
65.6162 65.6031 1977(46) 0.000477 1754. 1842.
65.6200 65.6069 1842(44) 0.000520 1754. 1840.
65.6238 65.6107 1861(44) 0.000521 1754. 1838.
65.6275 65.6144 1890(44) 0.000522 1754. 1838.
65.6313 65.6182 1839(43) 0.000538 1754. 1839.
65.6350 65.6219 1902(45) 0.000497 1754. 1842.
65.6388 65.6257 1894(44) 0.000510 1754. 1846.
65.6426 65.6295 1927(45) 0.000489 1754. 1853.
65.6463 65.6332 1850(44) 0.000528 1754. 1863.
65.6501 65.6370 1861(44) 0.000520 1754. 1876.
65.6538 65.6407 1857(44) 0.000522 1754. 1891.
65.6576 65.6445 1903(45) 0.000489 1754. 1911.
65.6614 65.6483 1862(44) 0.000512 1754. 1934.
65.6651 65.6520 1891(44) 0.000510 1754. 1960.
65.6689 65.6558 1993(46) 0.000463 1754. 1990.
65.6726 65.6595 2002(46) 0.000472 1754. 2020.
65.6764 65.6633 2008(46) 0.000479 1754. 2050.
65.6802 65.6671 2063(46) 0.000472 1754. 2080.
65.6839 65.6708 2058(47) 0.000452 1754. 2104.
65.6877 65.6746 2128(47) 0.000455 1754. 2123.
65.6914 65.6783 2027(47) 0.000458 1754. 2133.
65.6952 65.6821 2101(46) 0.000463 1754. 2135.
65.6990 65.6859 2175(47) 0.000456 1754. 2127.
65.7027 65.6896 2094(47) 0.000454 1754. 2114.
65.7065 65.6934 2013(46) 0.000465 1754. 2095.
65.7102 65.6971 2019(46) 0.000467 1754. 2074.
65.7140 65.7009 1971(46) 0.000482 1754. 2053.
65.7178 65.7047 1992(46) 0.000473 1754. 2035.
65.7215 65.7084 1915(45) 0.000485 1754. 2022.
65.7253 65.7122 1873(44) 0.000515 1754. 2015.
65.7290 65.7159 1941(45) 0.000496 1754. 2017.
65.7328 65.7197 1939(45) 0.000497 1754. 2029.
65.7366 65.7235 1964(45) 0.000484 1754. 2052.
65.7403 65.7272 2046(46) 0.000483 1754. 2084.
65.7441 65.7310 2051(46) 0.000473 1754. 2127.
65.7479 65.7348 2162(47) 0.000448 1754. 2178.
65.7516 65.7385 2259(48) 0.000442 1754. 2232.
65.7554 65.7423 2294(49) 0.000413 1754. 2289.
65.7591 65.7460 2268(49) 0.000416 1754. 2340.
65.7629 65.7498 2423(49) 0.000409 1754. 2384.
65.7667 65.7536 2365(50) 0.000408 1754. 2413.
65.7704 65.7573 2391(50) 0.000398 1754. 2424.
65.7742 65.7611 2381(50) 0.000401 1754. 2415.
65.7779 65.7648 2287(49) 0.000423 1754. 2388.
65.7817 65.7686 2219(49) 0.000420 1754. 2345.
65.7855 65.7724 2170(48) 0.000442 1754. 2292.
65.7892 65.7761 2090(48) 0.000441 1754. 2236.
65.7930 65.7799 2116(48) 0.000443 1754. 2178.
65.7967 65.7836 2007(46) 0.000474 1754. 2125.
65.8005 65.7874 2112(47) 0.000457 1754. 2077.
65.8043 65.7912 2080(47) 0.000453 1754. 2038.
65.8080 65.7949 2052(47) 0.000459 1754. 2011.
65.8118 65.7987 2020(46) 0.000479 1754. 1996.
65.8155 65.8024 2090(47) 0.000453 1754. 1995.
65.8193 65.8062 1989(46) 0.000480 1754. 2011.
65.8231 65.8100 2107(46) 0.000464 1754. 2045.
65.8268 65.8137 2024(46) 0.000464 1754. 2100.
65.8306 65.8175 2233(48) 0.000426 1754. 2180.
65.8343 65.8212 2303(49) 0.000416 1754. 2284.
65.8381 65.8250 2367(50) 0.000402 1754. 2419.
65.8419 65.8288 2612(52) 0.000375 1754. 2583.
65.8456 65.8325 2820(55) 0.0003262 1754. 2771.
65.8494 65.8363 3031(56) 0.0003159 1754. 2987.
65.8531 65.8400 3371(59) 0.0002903 1754. 3216.
65.8569 65.8438 3730(63) 0.0002492 1754. 3458.
65.8607 65.8476 4153(66) 0.0002308 1754. 3696.
65.8644 65.8513 4250(67) 0.0002226 1754. 3912.
65.8682 65.8551 4648(70) 0.0002041 1754. 4105.
65.8720 65.8589 4759(71) 0.0001964 1754. 4258.
65.8757 65.8626 4948(72) 0.0001944 1754. 4358.
65.8795 65.8664 4772(71) 0.0001958 1754. 4404.
65.8832 65.8701 4946(72) 0.0001935 1754. 4390.
65.8870 65.8739 4657(71) 0.0001994 1754. 4316.
65.8908 65.8777 4442(68) 0.0002154 1754. 4187.
65.8945 65.8814 4044(66) 0.0002312 1754. 4017.
65.8983 65.8852 3995(64) 0.0002424 1754. 3809.
65.9020 65.8889 3448(61) 0.0002676 1754. 3585.
65.9058 65.8927 3350(59) 0.0002828 1754. 3348.
65.9096 65.8965 3021(56) 0.0003163 1754. 3115.
65.9133 65.9002 2823(55) 0.0003345 1754. 2902.
65.9171 65.9040 2705(54) 0.0003428 1754. 2706.
65.9208 65.9077 2590(52) 0.000371 1754. 2540.
65.9246 65.9115 2444(51) 0.000381 1754. 2396.
65.9284 65.9153 2477(51) 0.000389 1754. 2280.
65.9321 65.9190 2216(49) 0.000422 1754. 2191.
65.9359 65.9228 2260(49) 0.000423 1754. 2123.
65.9396 65.9265 2078(47) 0.000454 1754. 2077.
65.9434 65.9303 2113(47) 0.000452 1754. 2048.
65.9472 65.9341 2147(48) 0.000432 1754. 2036.
65.9509 65.9378 2215(49) 0.000421 1754. 2039.
65.9547 65.9416 2194(49) 0.000417 1754. 2056.
65.9584 65.9453 2186(48) 0.000432 1754. 2087.
65.9622 65.9491 2111(47) 0.000451 1754. 2132.
65.9660 65.9529 2322(50) 0.000401 1754. 2192.
65.9697 65.9566 2127(47) 0.000452 1754. 2264.
65.9735 65.9604 2380(50) 0.000395 1754. 2351.
65.9772 65.9641 2517(52) 0.000375 1754. 2446.
65.9810 65.9679 2695(53) 0.000356 1754. 2551.
65.9848 65.9717 2841(55) 0.0003273 1754. 2657.
65.9885 65.9754 3214(58) 0.0002965 1754. 2755.
65.9923 65.9792 3231(59) 0.0002881 1754. 2843.
65.9960 65.9829 3389(60) 0.0002748 1754. 2907.
65.9998 65.9867 3215(59) 0.0002845 1754. 2942.
66.0036 65.9905 3150(58) 0.0003020 1754. 2941.
66.0073 65.9942 3063(57) 0.0003094 1754. 2906.
66.0111 65.9980 2973(55) 0.0003267 1754. 2839.
66.0148 66.0017 2695(53) 0.000352 1754. 2751.
66.0186 66.0055 2670(53) 0.000354 1754. 2646.
66.0224 66.0093 2514(52) 0.000371 1754. 2536.
66.0261 66.0130 2418(51) 0.000383 1754. 2430.
66.0299 66.0168 2281(49) 0.000410 1754. 2328.
66.0336 66.0205 2239(49) 0.000412 1754. 2238.
66.0374 66.0243 2155(48) 0.000431 1754. 2160.
66.0412 66.0281 2112(47) 0.000448 1754. 2095.
66.0449 66.0318 2064(47) 0.000451 1754. 2046.
66.0487 66.0356 2094(47) 0.000450 1754. 2008.
66.0525 66.0394 1982(46) 0.000475 1754. 1980.
66.0562 66.0431 2065(47) 0.000448 1754. 1963.
66.0600 66.0469 1999(46) 0.000468 1754. 1952.
66.0637 66.0506 2031(46) 0.000473 1754. 1948.
66.0675 66.0544 1992(45) 0.000485 1754. 1949.
66.0713 66.0582 1987(46) 0.000467 1754. 1954.
66.0750 66.0619 1946(45) 0.000498 1754. 1962.
66.0788 66.0657 1991(47) 0.000462 1754. 1976.
66.0825 66.0694 1997(46) 0.000464 1754. 1993.
66.0863 66.0732 1997(45) 0.000484 1754. 2015.
66.0901 66.0770 2003(47) 0.000462 1754. 2040.
66.0938 66.0807 2075(46) 0.000472 1754. 2067.
66.0976 66.0845 2145(48) 0.000439 1754. 2096.
66.1013 66.0882 2048(46) 0.000463 1754. 2124.
66.1051 66.0920 2119(48) 0.000436 1754. 2151.
66.1089 66.0958 2088(47) 0.000448 1754. 2175.
66.1126 66.0995 2119(48) 0.000441 1754. 2195.
66.1164 66.1033 2083(47) 0.000457 1754. 2213.
66.1201 66.1070 2112(47) 0.000453 1754. 2230.
66.1239 66.1108 2239(50) 0.000405 1754. 2249.
66.1277 66.1146 2097(47) 0.000451 1754. 2271.
66.1314 66.1183 2308(48) 0.000434 1754. 2297.
66.1352 66.1221 2318(50) 0.000404 1754. 2328.
66.1389 66.1258 2411(50) 0.000399 1754. 2361.
66.1427 66.1296 2439(51) 0.000388 1754. 2395.
66.1465 66.1334 2546(52) 0.000370 1754. 2426.
66.1502 66.1371 2603(53) 0.000361 1754. 2448.
66.1540 66.1409 2526(51) 0.000380 1754. 2457.
66.1577 66.1446 2420(52) 0.000377 1754. 2450.
66.1615 66.1484 2480(51) 0.000390 1754. 2426.
66.1653 66.1522 2310(50) 0.000406 1754. 2386.
66.1690 66.1559 2258(48) 0.000427 1754. 2336.
66.1728 66.1597 2168(48) 0.000442 1754. 2277.
66.1765 66.1634 2145(47) 0.000451 1754. 2216.
66.1803 66.1672 2055(46) 0.000464 1754. 2155.
66.1841 66.1710 2049(46) 0.000468 1754. 2096.
66.1878 66.1747 1987(45) 0.000485 1754. 2045.
66.1916 66.1785 2020(46) 0.000473 1754. 1999.
66.1953 66.1822 1907(45) 0.000500 1754. 1961.
66.1991 66.1860 2033(47) 0.000461 1754. 1929.
66.2029 66.1898 1887(44) 0.000506 1754. 1904.
66.2066 66.1935 1970(45) 0.000484 1754. 1886.
66.2104 66.1973 1873(44) 0.000512 1754. 1872.
66.2141 66.2010 1887(44) 0.000514 1754. 1863.
66.2179 66.2048 1866(45) 0.000501 1754. 1856.
66.2217 66.2086 1813(43) 0.000537 1754. 1853.
66.2254 66.2123 1831(44) 0.000517 1754. 1852.
66.2292 66.2161 1880(45) 0.000504 1754. 1852.
66.2329 66.2198 1949(45) 0.000489 1754. 1855.
66.2367 66.2236 1864(44) 0.000523 1754. 1859.
66.2405 66.2274 1813(44) 0.000510 1754. 1865.
66.2442 66.2311 1939(45) 0.000483 1754. 1873.
66.2480 66.2349 1914(46) 0.000482 1754. 1885.
66.2517 66.2386 1917(44) 0.000513 1754. 1901.
66.2555 66.2424 1925(46) 0.000468 1754. 1925.
66.2593 66.2462 1997(46) 0.000481 1754. 1957.
66.2630 66.2499 2001(45) 0.000498 1754. 1999.
66.2668 66.2537 2054(47) 0.000462 1754. 2058.
66.2705 66.2574 2029(46) 0.000464 1754. 2132.
66.2743 66.2612 2270(48) 0.000432 1754. 2230.
66.2781 66.2650 2186(48) 0.000436 1754. 2352.
66.2818 66.2687 2552(52) 0.000372 1754. 2497.
66.2856 66.2725 2457(51) 0.000381 1754. 2671.
66.2893 66.2762 2878(56) 0.0003242 1754. 2863.
66.2931 66.2800 3148(58) 0.0002945 1754. 3079.
66.2969 66.2838 3688(64) 0.0002446 1754. 3307.
66.3006 66.2875 3937(64) 0.0002427 1754. 3528.
66.3044 66.2913 4427(67) 0.0002229 1754. 3741.
66.3081 66.2950 4479(69) 0.0002083 1754. 3920.
66.3119 66.2988 4839(72) 0.0001903 1754. 4060.
66.3157 66.3026 4609(71) 0.0001991 1754. 4142.
66.3194 66.3063 4668(70) 0.0002068 1754. 4161.
66.3232 66.3101 4306(69) 0.0002116 1754. 4119.
66.3269 66.3138 4069(66) 0.0002310 1754. 4024.
66.3307 66.3176 3762(63) 0.0002549 1754. 3886.
66.3345 66.3214 3566(62) 0.0002620 1754. 3726.
66.3382 66.3251 3216(58) 0.0002970 1754. 3565.
66.3420 66.3289 3329(60) 0.0002802 1754. 3408.
66.3457 66.3326 3126(57) 0.0003113 1754. 3273.
66.3495 66.3364 3133(58) 0.0002992 1754. 3159.
66.3533 66.3402 2917(56) 0.0003242 1754. 3072.
66.3570 66.3439 3091(58) 0.0002968 1754. 3012.
66.3608 66.3477 2920(55) 0.0003260 1754. 2971.
66.3645 66.3514 2918(55) 0.0003319 1754. 2943.
66.3683 66.3552 2786(54) 0.0003409 1754. 2920.
66.3721 66.3590 2926(56) 0.0003179 1754. 2896.
66.3758 66.3627 2819(54) 0.0003411 1754. 2867.
66.3796 66.3665 2713(54) 0.0003399 1754. 2829.
66.3833 66.3702 2737(55) 0.0003318 1754. 2780.
66.3871 66.3740 2643(51) 0.000380 1754. 2718.
66.3909 66.3778 2494(49) 0.000411 1754. 2643.
66.3946 66.3815 2418(49) 0.000416 1754. 2561.
66.3984 66.3853 2263(47) 0.000455 1754. 2471.
66.4021 66.3890 2332(48) 0.000437 1754. 2382.
66.4059 66.3928 2229(47) 0.000456 1754. 2294.
66.4097 66.3966 2203(46) 0.000468 1754. 2211.
66.4134 66.4003 2059(45) 0.000487 1754. 2139.
66.4172 66.4041 2016(45) 0.000496 1754. 2074.
66.4209 66.4078 1982(44) 0.000510 1754. 2021.
66.4247 66.4116 1932(43) 0.000532 1754. 1975.
66.4284 66.4153 1906(43) 0.000539 1754. 1940.
66.4322 66.4191 1868(43) 0.000550 1754. 1911.
66.4360 66.4229 1991(44) 0.000510 1754. 1889.
66.4397 66.4266 1904(43) 0.000537 1754. 1873.
66.4435 66.4304 1938(44) 0.000528 1754. 1860.
66.4472 66.4341 1897(43) 0.000532 1754. 1851.
66.4510 66.4379 1874(43) 0.000541 1754. 1844.
66.4548 66.4417 1926(43) 0.000539 1754. 1838.
66.4585 66.4454 1832(43) 0.000547 1754. 1833.
66.4623 66.4492 1884(43) 0.000542 1754. 1828.
66.4660 66.4529 1909(43) 0.000529 1754. 1825.
66.4698 66.4567 1850(42) 0.000554 1754. 1821.
66.4736 66.4605 1754(41) 0.000591 1754. 1818.
66.4773 66.4642 1775(42) 0.000566 1754. 1815.
66.4811 66.4680 1790(42) 0.000566 1754. 1813.
66.4848 66.4717 1873(43) 0.000552 1754. 1811.
66.4886 66.4755 1838(42) 0.000566 1754. 1809.
66.4924 66.4793 1801(42) 0.000565 1754. 1808.
66.4961 66.4830 1767(42) 0.000578 1754. 1807.
66.4999 66.4868 1754(42) 0.000581 1754. 1807.
66.5036 66.4905 1818(42) 0.000557 1754. 1807.
66.5074 66.4943 1818(41) 0.000582 1754. 1808.
66.5112 66.4981 1794(42) 0.000578 1754. 1810.
66.5149 66.5018 1897(42) 0.000565 1754. 1813.
66.5187 66.5056 1878(43) 0.000538 1754. 1817.
66.5224 66.5093 1791(42) 0.000567 1754. 1822.
66.5262 66.5131 1757(42) 0.000575 1754. 1829.
66.5300 66.5169 1922(44) 0.000528 1754. 1836.
66.5337 66.5206 1811(42) 0.000564 1754. 1845.
66.5375 66.5244 1750(41) 0.000583 1754. 1856.
66.5412 66.5281 1808(42) 0.000577 1754. 1866.
66.5450 66.5319 1806(42) 0.000560 1754. 1878.
66.5488 66.5357 1851(43) 0.000549 1754. 1888.
66.5525 66.5394 1889(43) 0.000535 1754. 1898.
66.5563 66.5432 1839(43) 0.000554 1754. 1906.
66.5600 66.5469 1968(44) 0.000521 1754. 1912.
66.5638 66.5507 1822(42) 0.000558 1754. 1914.
66.5675 66.5544 1826(43) 0.000549 1754. 1913.
66.5713 66.5582 1849(42) 0.000556 1754. 1909.
66.5751 66.5620 1903(43) 0.000549 1754. 1904.
66.5788 66.5657 1834(42) 0.000558 1754. 1898.
66.5826 66.5695 1846(43) 0.000546 1754. 1892.
66.5863 66.5732 1773(41) 0.000581 1754. 1888.
66.5901 66.5770 1901(43) 0.000542 1754. 1886.
66.5939 66.5808 1837(42) 0.000561 1754. 1889.
66.5976 66.5845 1873(43) 0.000533 1754. 1898.
66.6014 66.5883 1881(43) 0.000548 1754. 1914.
66.6051 66.5920 1806(42) 0.000571 1754. 1939.
66.6089 66.5958 1889(43) 0.000543 1754. 1974.
66.6127 66.5996 2016(45) 0.000503 1755. 2020.
66.6164 66.6033 2044(45) 0.000494 1755. 2077.
66.6202 66.6071 2067(45) 0.000500 1755. 2145.
66.6239 66.6108 2189(46) 0.000470 1755. 2221.
66.6277 66.6146 2349(48) 0.000431 1755. 2305.
66.6315 66.6184 2389(48) 0.000426 1755. 2392.
66.6352 66.6221 2593(50) 0.000397 1755. 2472.
66.6390 66.6259 2725(52) 0.000374 1755. 2545.
66.6427 66.6296 2765(51) 0.000378 1755. 2600.
66.6465 66.6334 2798(53) 0.000354 1755. 2634.
66.6502 66.6371 2804(52) 0.000365 1755. 2642.
66.6540 66.6409 2559(50) 0.000394 1755. 2625.
66.6578 66.6447 2647(51) 0.000383 1755. 2585.
66.6615 66.6484 2490(50) 0.000406 1755. 2532.
66.6653 66.6522 2347(48) 0.000429 1755. 2471.
66.6690 66.6559 2211(47) 0.000460 1755. 2411.
66.6728 66.6597 2374(48) 0.000425 1755. 2358.
66.6766 66.6635 2158(46) 0.000466 1755. 2320.
66.6803 66.6672 2229(48) 0.000443 1755. 2301.
66.6841 66.6710 2263(47) 0.000451 1755. 2304.
66.6878 66.6747 2291(47) 0.000445 1755. 2331.
66.6916 66.6785 2309(47) 0.000447 1755. 2383.
66.6954 66.6823 2555(51) 0.000391 1755. 2460.
66.6991 66.6860 2622(51) 0.000382 1755. 2555.
66.7029 66.6898 2905(54) 0.0003462 1755. 2668.
66.7066 66.6935 2944(54) 0.0003420 1755. 2789.
66.7104 66.6973 3251(57) 0.0003122 1755. 2915.
66.7142 66.7011 3389(59) 0.0002904 1755. 3035.
66.7179 66.7048 3462(59) 0.0002916 1755. 3136.
66.7217 66.7086 3490(59) 0.0002898 1755. 3215.
66.7254 66.7123 3460(58) 0.0002936 1755. 3263.
66.7292 66.7161 3381(58) 0.0002950 1755. 3279.
66.7329 66.7198 3410(58) 0.0002939 1755. 3263.
66.7367 66.7236 3198(56) 0.0003162 1755. 3218.
66.7405 66.7274 3164(56) 0.0003188 1755. 3149.
66.7442 66.7311 2966(55) 0.0003338 1755. 3067.
66.7480 66.7349 2870(54) 0.0003442 1755. 2977.
66.7517 66.7386 2698(52) 0.000371 1755. 2894.
66.7555 66.7424 2665(53) 0.000361 1755. 2823.
66.7593 66.7462 2627(52) 0.000364 1755. 2775.
66.7630 66.7499 2681(53) 0.000361 1755. 2756.
66.7668 66.7537 2629(53) 0.000362 1755. 2767.
66.7705 66.7574 2674(49) 0.000412 1755. 2807.
66.7743 66.7612 2918(53) 0.000352 1755. 2873.
66.7780 66.7649 3235(57) 0.0003103 1755. 2956.
66.7818 66.7687 3309(57) 0.0003030 1755. 3050.
66.7856 66.7725 3527(60) 0.0002813 1755. 3140.
66.7893 66.7762 3641(60) 0.0002772 1755. 3212.
66.7931 66.7800 3531(60) 0.0002766 1755. 3257.
66.7968 66.7837 3401(58) 0.0002925 1755. 3263.
66.8006 66.7875 3397(58) 0.0002993 1755. 3228.
66.8044 66.7913 3207(57) 0.0003057 1755. 3152.
66.8081 66.7950 3093(56) 0.0003153 1755. 3048.
66.8119 66.7988 2806(53) 0.000357 1755. 2920.
66.8156 66.8025 2751(53) 0.000360 1755. 2787.
66.8194 66.8063 2546(51) 0.000386 1755. 2651.
66.8232 66.8101 2530(51) 0.000388 1755. 2525.
66.8269 66.8138 2456(50) 0.000397 1755. 2420.
66.8307 66.8176 2370(49) 0.000412 1755. 2335.
66.8344 66.8213 2264(48) 0.000434 1755. 2278.
66.8382 66.8251 2369(49) 0.000413 1755. 2250.
66.8419 66.8288 2146(46) 0.000472 1755. 2253.
66.8457 66.8326 2388(49) 0.000411 1755. 2288.
66.8495 66.8364 2254(48) 0.000432 1755. 2352.
66.8532 66.8401 2487(51) 0.000391 1755. 2441.
66.8570 66.8439 2604(52) 0.000373 1755. 2556.
66.8607 66.8476 3044(57) 0.0003126 1755. 2685.
66.8645 66.8514 3148(57) 0.0003111 1755. 2826.
66.8683 66.8552 3461(60) 0.0002785 1755. 2967.
66.8720 66.8589 3562(61) 0.0002732 1755. 3093.
66.8758 66.8627 3816(62) 0.0002591 1755. 3201.
66.8795 66.8664 3674(61) 0.0002659 1755. 3273.
66.8833 66.8702 3658(60) 0.0002733 1755. 3306.
66.8870 66.8739 3393(59) 0.0002866 1755. 3296.
66.8908 66.8777 3420(59) 0.0002888 1755. 3247.
66.8946 66.8815 3090(56) 0.0003193 1755. 3166.
66.8983 66.8852 2986(55) 0.0003288 1755. 3065.
66.9021 66.8890 2926(54) 0.0003444 1755. 2948.
66.9058 66.8927 2844(53) 0.000354 1755. 2829.
66.9096 66.8965 2626(52) 0.000376 1755. 2706.
66.9134 66.9003 2650(52) 0.000375 1755. 2587.
66.9171 66.9040 2493(51) 0.000388 1755. 2477.
66.9209 66.9078 2388(49) 0.000417 1755. 2374.
66.9246 66.9115 2326(49) 0.000425 1755. 2284.
66.9284 66.9153 2239(48) 0.000440 1755. 2202.
66.9321 66.9190 2145(46) 0.000470 1755. 2134.
66.9359 66.9228 2128(46) 0.000467 1755. 2075.
66.9397 66.9266 2034(45) 0.000484 1755. 2025.
66.9434 66.9303 2064(45) 0.000490 1755. 1986.
66.9472 66.9341 1952(44) 0.000512 1755. 1954.
66.9509 66.9378 1969(45) 0.000501 1755. 1930.
66.9547 66.9416 1894(43) 0.000540 1755. 1911.
66.9585 66.9454 1939(44) 0.000519 1755. 1897.
66.9622 66.9491 1862(44) 0.000519 1755. 1888.
66.9660 66.9529 1987(45) 0.000504 1756. 1882.
66.9697 66.9566 1870(44) 0.000527 1756. 1879.
66.9735 66.9604 1972(45) 0.000493 1756. 1877.
66.9772 66.9641 1853(44) 0.000523 1756. 1876.
66.9810 66.9679 1996(45) 0.000500 1756. 1876.
66.9848 66.9717 1768(42) 0.000563 1756. 1875.
66.9885 66.9754 1871(44) 0.000517 1756. 1874.
66.9923 66.9792 1862(44) 0.000527 1756. 1872.
66.9960 66.9829 1959(45) 0.000497 1756. 1870.
66.9998 66.9867 1862(44) 0.000528 1756. 1867.
67.0035 66.9904 1931(45) 0.000499 1756. 1864.
67.0073 66.9942 1936(45) 0.000502 1756. 1861.
67.0111 66.9980 1977(45) 0.000494 1756. 1858.
67.0148 67.0017 1869(44) 0.000522 1756. 1856.
67.0186 67.0055 1953(45) 0.000498 1756. 1854.
67.0223 67.0092 1890(45) 0.000505 1756. 1853.
67.0261 67.0130 1911(44) 0.000514 1756. 1854.
67.0299 67.0168 1907(44) 0.000516 1756. 1855.
67.0336 67.0205 1908(44) 0.000511 1756. 1857.
67.0374 67.0243 1892(44) 0.000523 1756. 1861.
67.0411 67.0280 2023(45) 0.000484 1756. 1866.
67.0449 67.0318 1916(45) 0.000504 1756. 1874.
67.0486 67.0355 2050(47) 0.000459 1756. 1885.
67.0524 67.0393 1948(45) 0.000502 1756. 1901.
67.0562 67.0431 1956(44) 0.000508 1756. 1922.
67.0599 67.0468 1985(46) 0.000477 1756. 1951.
67.0637 67.0506 2109(47) 0.000460 1756. 1991.
67.0674 67.0543 2048(46) 0.000478 1756. 2042.
67.0712 67.0581 2269(48) 0.000433 1756. 2111.
67.0749 67.0618 2133(47) 0.000457 1756. 2196.
67.0787 67.0656 2273(48) 0.000428 1756. 2305.
67.0825 67.0694 2286(49) 0.000420 1756. 2436.
67.0862 67.0731 2539(50) 0.000395 1756. 2587.
67.0900 67.0769 2656(52) 0.000363 1756. 2763.
67.0937 67.0806 3042(56) 0.0003183 1756. 2954.
67.0975 67.0844 3133(57) 0.0003079 1756. 3161.
67.1012 67.0881 3433(60) 0.0002811 1756. 3369.
67.1050 67.0919 3710(61) 0.0002651 1756. 3577.
67.1088 67.0957 4113(65) 0.0002347 1756. 3767.
67.1125 67.0994 4186(65) 0.0002336 1756. 3922.
67.1163 67.1032 4476(68) 0.0002143 1756. 4041.
67.1200 67.1069 4470(69) 0.0002125 1756. 4111.
67.1238 67.1107 4654(68) 0.0002136 1756. 4130.
67.1275 67.1144 4331(68) 0.0002188 1756. 4098.
67.1313 67.1182 4195(66) 0.0002297 1756. 4018.
67.1351 67.1220 4008(64) 0.0002439 1756. 3899.
67.1388 67.1257 3663(62) 0.0002626 1756. 3760.
67.1426 67.1295 3437(61) 0.0002729 1756. 3608.
67.1463 67.1332 3405(60) 0.0002823 1756. 3464.
67.1501 67.1370 3141(57) 0.0003080 1756. 3333.
67.1539 67.1408 3318(58) 0.0002931 1756. 3225.
67.1576 67.1445 3014(56) 0.0003237 1756. 3148.
67.1614 67.1483 3286(59) 0.0002863 1756. 3098.
67.1651 67.1520 3337(59) 0.0002884 1756. 3072.
67.1689 67.1558 3490(60) 0.0002749 1756. 3064.
67.1726 67.1595 3507(60) 0.0002767 1756. 3065.
67.1764 67.1633 3585(61) 0.0002700 1756. 3065.
67.1802 67.1671 3356(60) 0.0002824 1756. 3054.
67.1839 67.1708 3287(59) 0.0002845 1756. 3025.
67.1877 67.1746 3137(56) 0.0003144 1756. 2974.
67.1914 67.1783 3035(57) 0.0003126 1756. 2907.
67.1952 67.1821 2810(54) 0.0003472 1756. 2824.
67.1989 67.1858 2825(55) 0.0003357 1756. 2737.
67.2027 67.1896 2572(51) 0.000381 1756. 2649.
67.2065 67.1934 2570(52) 0.000375 1756. 2567.
67.2102 67.1971 2448(50) 0.000400 1756. 2499.
67.2140 67.2009 2447(50) 0.000396 1756. 2442.
67.2177 67.2046 2405(50) 0.000404 1756. 2402.
67.2215 67.2084 2457(51) 0.000387 1756. 2375.
67.2252 67.2121 2419(51) 0.000383 1756. 2360.
67.2290 67.2159 2481(50) 0.000400 1757. 2353.
67.2328 67.2197 2364(49) 0.000412 1757. 2351.
67.2365 67.2234 2484(51) 0.000388 1757. 2349.
67.2403 67.2272 2209(48) 0.000432 1757. 2345.
67.2440 67.2309 2381(50) 0.000399 1757. 2338.
67.2478 67.2347 2240(49) 0.000423 1757. 2327.
67.2515 67.2384 2295(49) 0.000425 1757. 2314.
67.2553 67.2422 2199(47) 0.000447 1757. 2302.
67.2591 67.2460 2304(49) 0.000409 1757. 2292.
67.2628 67.2497 2219(48) 0.000428 1757. 2287.
67.2666 67.2535 2208(48) 0.000442 1757. 2287.
67.2703 67.2572 2218(48) 0.000439 1757. 2293.
67.2741 67.2610 2298(48) 0.000426 1757. 2305.
67.2778 67.2647 2200(48) 0.000431 1757. 2320.
67.2816 67.2685 2224(48) 0.000434 1757. 2337.
67.2853 67.2722 2232(48) 0.000434 1757. 2353.
67.2891 67.2760 2328(49) 0.000409 1757. 2367.
67.2929 67.2798 2310(49) 0.000424 1757. 2376.
67.2966 67.2835 2373(49) 0.000411 1757. 2381.
67.3004 67.2873 2244(48) 0.000427 1757. 2381.
67.3041 67.2910 2269(49) 0.000420 1757. 2376.
67.3079 67.2948 2112(47) 0.000457 1757. 2369.
67.3116 67.2985 2291(49) 0.000418 1757. 2361.
67.3154 67.3023 2134(47) 0.000456 1757. 2355.
67.3192 67.3061 2253(48) 0.000435 1757. 2357.
67.3229 67.3098 2249(48) 0.000432 1757. 2370.
67.3267 67.3136 2338(49) 0.000420 1757. 2400.
67.3304 67.3173 2316(49) 0.000410 1757. 2446.
67.3342 67.3211 2430(50) 0.000406 1757. 2514.
67.3379 67.3248 2442(50) 0.000406 1757. 2600.
67.3417 67.3286 2695(53) 0.000357 1757. 2705.
67.3455 67.3324 2681(53) 0.000353 1757. 2825.
67.3492 67.3361 3007(56) 0.0003218 1757. 2948.
67.3530 67.3399 3106(56) 0.0003154 1757. 3074.
67.3567 67.3436 3303(58) 0.0002950 1757. 3188.
67.3605 67.3474 3394(59) 0.0002828 1757. 3287.
67.3642 67.3511 3492(59) 0.0002830 1757. 3357.
67.3680 67.3549 3399(59) 0.0002898 1757. 3398.
67.3718 67.3587 3570(60) 0.0002761 1757. 3403.
67.3755 67.3624 3264(57) 0.0003058 1757. 3371.
67.3793 67.3662 3290(58) 0.0002970 1757. 3305.
67.3830 67.3699 3095(56) 0.0003179 1757. 3211.
67.3868 67.3737 2953(55) 0.0003281 1757. 3092.
67.3905 67.3774 2783(53) 0.000353 1757. 2963.
67.3943 67.3812 2687(53) 0.000357 1757. 2824.
67.3980 67.3849 2500(50) 0.000393 1757. 2688.
67.4018 67.3887 2530(51) 0.000387 1757. 2556.
67.4056 67.3925 2286(48) 0.000427 1757. 2433.
67.4093 67.3962 2278(48) 0.000439 1757. 2326.
67.4131 67.4000 2107(46) 0.000471 1757. 2231.
67.4168 67.4037 2120(46) 0.000472 1757. 2152.
67.4206 67.4075 1984(45) 0.000503 1757. 2085.
67.4243 67.4112 1943(43) 0.000541 1757. 2033.
67.4281 67.4150 1938(44) 0.000515 1757. 1991.
67.4319 67.4188 2061(46) 0.000472 1757. 1960.
67.4356 67.4225 1937(45) 0.000504 1757. 1939.
67.4394 67.4263 1934(44) 0.000513 1757. 1926.
67.4431 67.4300 1883(44) 0.000517 1757. 1920.
67.4469 67.4338 1965(44) 0.000506 1757. 1923.
67.4506 67.4375 1842(43) 0.000540 1757. 1933.
67.4544 67.4413 1923(43) 0.000535 1758. 1951.
67.4581 67.4450 1954(45) 0.000502 1758. 1977.
67.4619 67.4488 2012(45) 0.000484 1758. 2013.
67.4657 67.4526 1818(43) 0.000553 1758. 2058.
67.4694 67.4563 1993(45) 0.000503 1758. 2110.
67.4732 67.4601 2090(46) 0.000467 1758. 2170.
67.4769 67.4638 2108(46) 0.000475 1758. 2233.
67.4807 67.4676 2266(48) 0.000441 1758. 2301.
67.4844 67.4713 2323(48) 0.000428 1758. 2366.
67.4882 67.4751 2363(49) 0.000412 1758. 2426.
67.4919 67.4788 2493(50) 0.000396 1758. 2473.
67.4957 67.4826 2369(49) 0.000423 1758. 2506.
67.4995 67.4864 2328(48) 0.000434 1758. 2519.
67.5032 67.4901 2369(49) 0.000413 1758. 2510.
67.5070 67.4939 2279(48) 0.000441 1758. 2481.
67.5107 67.4976 2176(47) 0.000457 1758. 2436.
67.5145 67.5014 2223(47) 0.000448 1758. 2378.
67.5182 67.5051 2083(46) 0.000482 1758. 2315.
67.5220 67.5089 2056(44) 0.000506 1758. 2248.
67.5257 67.5126 1999(45) 0.000505 1758. 2185.
67.5295 67.5164 2069(46) 0.000475 1758. 2125.
67.5333 67.5202 1967(44) 0.000510 1758. 2074.
67.5370 67.5239 2002(45) 0.000492 1758. 2033.
67.5408 67.5277 1942(45) 0.000501 1758. 2002.
67.5445 67.5314 1926(44) 0.000514 1758. 1983.
67.5483 67.5352 1865(44) 0.000526 1758. 1975.
67.5520 67.5389 1951(44) 0.000511 1758. 1977.
67.5558 67.5427 1830(43) 0.000544 1758. 1991.
67.5595 67.5464 1888(44) 0.000517 1758. 2013.
67.5633 67.5502 1973(44) 0.000514 1758. 2046.
67.5671 67.5540 2138(46) 0.000467 1758. 2087.
67.5708 67.5577 2105(46) 0.000476 1758. 2134.
67.5746 67.5615 2287(48) 0.000429 1758. 2186.
67.5783 67.5652 2363(49) 0.000414 1758. 2238.
67.5821 67.5690 2478(50) 0.000396 1758. 2290.
67.5858 67.5727 2596(51) 0.000379 1758. 2336.
67.5896 67.5765 2562(51) 0.000383 1758. 2375.
67.5933 67.5802 2599(52) 0.000375 1758. 2400.
67.5971 67.5840 2536(51) 0.000389 1758. 2409.
67.6009 67.5878 2428(50) 0.000396 1758. 2401.
67.6046 67.5915 2360(48) 0.000430 1758. 2377.
67.6084 67.5953 2308(48) 0.000427 1758. 2338.
67.6121 67.5990 2319(49) 0.000425 1758. 2291.
67.6159 67.6028 2124(46) 0.000463 1758. 2236.
67.6196 67.6065 2217(47) 0.000449 1758. 2181.
67.6234 67.6103 2082(46) 0.000468 1758. 2125.
67.6271 67.6140 2176(47) 0.000454 1758. 2074.
67.6309 67.6178 2005(45) 0.000492 1758. 2027.
67.6347 67.6216 2044(45) 0.000484 1758. 1987.
67.6384 67.6253 1975(45) 0.000501 1758. 1954.
67.6422 67.6291 2037(45) 0.000486 1758. 1927.
67.6459 67.6328 1892(43) 0.000529 1758. 1907.
67.6497 67.6366 1855(44) 0.000528 1758. 1893.
67.6534 67.6403 1857(43) 0.000538 1758. 1883.
67.6572 67.6441 1910(44) 0.000519 1758. 1877.
67.6609 67.6478 1840(44) 0.000528 1759. 1874.
67.6647 67.6516 1799(43) 0.000545 1759. 1873.
67.6685 67.6554 1872(43) 0.000534 1759. 1874.
67.6722 67.6591 1845(43) 0.000538 1759. 1876.
67.6760 67.6629 1861(43) 0.000533 1759. 1880.
67.6797 67.6666 2025(46) 0.000478 1759. 1883.
67.6835 67.6704 1891(44) 0.000522 1759. 1888.
67.6872 67.6741 1851(44) 0.000522 1759. 1895.
67.6910 67.6779 1941(45) 0.000502 1759. 1903.
67.6947 67.6816 1948(44) 0.000511 1759. 1914.
67.6985 67.6854 1887(44) 0.000516 1759. 1929.
67.7022 67.6891 1917(44) 0.000513 1759. 1951.
67.7060 67.6929 1847(43) 0.000531 1759. 1982.
67.7098 67.6967 1947(45) 0.000495 1759. 2025.
67.7135 67.7004 1982(44) 0.000505 1759. 2080.
67.7173 67.7042 2058(46) 0.000471 1759. 2151.
67.7210 67.7079 2174(47) 0.000455 1759. 2235.
67.7248 67.7117 2306(49) 0.000417 1759. 2336.
67.7285 67.7154 2441(50) 0.000400 1759. 2444.
67.7323 67.7192 2864(54) 0.0003426 1759. 2562.
67.7360 67.7229 2918(55) 0.0003318 1759. 2676.
67.7398 67.7267 3197(56) 0.0003174 1759. 2784.
67.7435 67.7304 3286(58) 0.0002949 1759. 2871.
67.7473 67.7342 3252(58) 0.0002987 1759. 2933.
67.7511 67.7380 3216(58) 0.0003016 1759. 2959.
67.7548 67.7417 3119(56) 0.0003183 1759. 2948.
67.7586 67.7455 2925(55) 0.0003361 1759. 2900.
67.7623 67.7492 2776(53) 0.000359 1759. 2824.
67.7661 67.7530 2607(51) 0.000381 1759. 2725.
67.7698 67.7567 2513(51) 0.000389 1759. 2617.
67.7736 67.7605 2351(49) 0.000414 1759. 2504.
67.7773 67.7642 2445(50) 0.000405 1759. 2399.
67.7811 67.7680 2118(47) 0.000451 1759. 2301.
67.7848 67.7717 2152(47) 0.000449 1759. 2219.
67.7886 67.7755 2033(45) 0.000486 1759. 2151.
67.7924 67.7793 2116(46) 0.000467 1759. 2098.
67.7961 67.7830 2026(45) 0.000483 1759. 2059.
67.7999 67.7868 1986(45) 0.000486 1759. 2029.
67.8036 67.7905 1977(45) 0.000495 1759. 2007.
67.8074 67.7943 2070(46) 0.000469 1759. 1988.
67.8099 67.7968 1949(45) 0.000503 1759. 1977.
67.8137 67.8006 1881(44) 0.000517 1759. 1960.
67.8174 67.8043 1935(44) 0.000508 1759. 1943.
67.8212 67.8081 1908(45) 0.000499 1759. 1925.
67.8249 67.8118 1895(44) 0.000521 1759. 1906.
67.8287 67.8156 1758(42) 0.000564 1759. 1888.
67.8324 67.8193 1903(44) 0.000506 1759. 1871.
67.8362 67.8231 1725(43) 0.000549 1759. 1856.
67.8400 67.8269 1831(43) 0.000530 1759. 1842.
67.8437 67.8306 1803(43) 0.000545 1759. 1830.
67.8475 67.8344 1795(43) 0.000545 1759. 1821.
67.8512 67.8381 1869(44) 0.000515 1759. 1813.
67.8550 67.8419 1886(44) 0.000526 1760. 1808.
67.8587 67.8456 1706(42) 0.000580 1760. 1804.
67.8625 67.8494 1956(44) 0.000506 1760. 1801.
67.8663 67.8532 1861(43) 0.000538 1760. 1799.
67.8700 67.8569 1822(43) 0.000538 1760. 1798.
67.8738 67.8607 1754(42) 0.000562 1760. 1797.
67.8775 67.8644 1854(44) 0.000524 1760. 1796.
67.8813 67.8682 1840(43) 0.000535 1760. 1796.
67.8850 67.8719 1888(44) 0.000509 1760. 1796.
67.8888 67.8757 1826(43) 0.000538 1760. 1796.
67.8926 67.8795 1829(43) 0.000536 1760. 1795.
67.8963 67.8832 1848(43) 0.000529 1760. 1795.
67.9001 67.8870 1812(43) 0.000552 1760. 1795.
67.9038 67.8907 1814(43) 0.000547 1760. 1795.
67.9076 67.8945 1761(42) 0.000569 1760. 1795.
67.9113 67.8982 1748(42) 0.000571 1760. 1795.
67.9151 67.9020 1833(42) 0.000574 1760. 1796.
67.9188 67.9057 1820(43) 0.000549 1760. 1796.
67.9226 67.9095 1805(43) 0.000539 1760. 1797.
67.9264 67.9133 1773(43) 0.000551 1760. 1797.
67.9301 67.9170 1866(43) 0.000532 1760. 1798.
67.9339 67.9208 1793(43) 0.000543 1760. 1800.
67.9376 67.9245 1799(43) 0.000554 1760. 1801.
67.9414 67.9283 1718(42) 0.000579 1760. 1804.
67.9451 67.9320 1862(43) 0.000553 1760. 1806.
67.9489 67.9358 1773(43) 0.000553 1760. 1810.
67.9526 67.9395 1874(44) 0.000519 1760. 1814.
67.9564 67.9433 1734(42) 0.000580 1760. 1820.
67.9602 67.9471 1808(42) 0.000555 1760. 1826.
67.9639 67.9508 1793(43) 0.000545 1760. 1834.
67.9677 67.9546 1928(44) 0.000519 1760. 1845.
67.9714 67.9583 1791(42) 0.000559 1760. 1857.
67.9752 67.9621 1907(44) 0.000521 1760. 1873.
67.9789 67.9658 1726(42) 0.000565 1760. 1892.
67.9827 67.9696 1873(44) 0.000527 1760. 1916.
67.9865 67.9734 1902(44) 0.000527 1760. 1945.
67.9902 67.9771 1924(44) 0.000525 1760. 1979.
67.9940 67.9809 1925(44) 0.000509 1760. 2022.
67.9977 67.9846 2016(45) 0.000498 1760. 2071.
68.0015 67.9884 2017(45) 0.000493 1760. 2129.
68.0052 67.9921 2122(46) 0.000469 1760. 2192.
68.0090 67.9959 2207(47) 0.000455 1760. 2264.
68.0127 67.9996 2338(47) 0.000445 1760. 2337.
68.0165 68.0034 2491(50) 0.000404 1760. 2414.
68.0203 68.0072 2506(51) 0.000391 1760. 2486.
68.0240 68.0109 2618(51) 0.000383 1760. 2548.
68.0278 68.0147 2797(53) 0.000352 1760. 2597.
68.0315 68.0184 2695(53) 0.000360 1760. 2625.
68.0327 68.0196 2737(53) 0.000362 1760. 2629.
68.0365 68.0234 2626(52) 0.000372 1760. 2626.
68.0403 68.0272 2453(51) 0.000389 1761. 2599.
68.0440 68.0309 2597(52) 0.000364 1761. 2553.
68.0478 68.0347 2336(50) 0.000402 1761. 2492.
68.0515 68.0384 2452(51) 0.000388 1761. 2425.
68.0553 68.0422 2272(49) 0.000411 1761. 2355.
68.0590 68.0459 2171(48) 0.000430 1761. 2290.
68.0628 68.0497 2257(49) 0.000416 1761. 2234.
68.0665 68.0534 2181(48) 0.000430 1761. 2191.
68.0703 68.0572 2072(48) 0.000441 1761. 2164.
68.0741 68.0610 2086(47) 0.000455 1761. 2157.
68.0778 68.0647 2111(48) 0.000443 1761. 2169.
68.0816 68.0685 2195(49) 0.000422 1761. 2204.
68.0853 68.0722 2125(48) 0.000443 1761. 2258.
68.0891 68.0760 2408(51) 0.000391 1761. 2332.
68.0928 68.0797 2464(51) 0.000388 1761. 2420.
68.0966 68.0835 2743(54) 0.0003372 1761. 2522.
68.1003 68.0872 2732(54) 0.0003421 1761. 2625.
68.1041 68.0910 2982(55) 0.0003264 1761. 2730.
68.1079 68.0948 3133(59) 0.0002899 1761. 2825.
68.1116 68.0985 3270(60) 0.0002818 1761. 2899.
68.1154 68.1023 3153(58) 0.0003013 1761. 2948.
68.1191 68.1060 3181(59) 0.0002905 1761. 2966.
68.1229 68.1098 2992(57) 0.0003099 1761. 2952.
68.1266 68.1135 2863(56) 0.0003209 1761. 2911.
68.1304 68.1173 2735(54) 0.0003381 1761. 2849.
68.1342 68.1211 2678(54) 0.0003431 1761. 2777.
68.1379 68.1248 2594(53) 0.000363 1761. 2706.
68.1417 68.1286 2491(52) 0.000371 1761. 2643.
68.1454 68.1323 2410(51) 0.000378 1761. 2599.
68.1492 68.1361 2581(53) 0.000357 1761. 2578.
68.1529 68.1398 2472(51) 0.000383 1761. 2588.
68.1567 68.1436 2593(53) 0.000354 1761. 2630.
68.1604 68.1473 2608(52) 0.000367 1761. 2705.
68.1642 68.1511 2909(56) 0.0003145 1761. 2814.
68.1680 68.1549 2933(56) 0.0003149 1761. 2954.
68.1717 68.1586 3268(59) 0.0002858 1761. 3115.
68.1755 68.1624 3345(61) 0.0002699 1761. 3299.
68.1792 68.1661 3677(64) 0.0002447 1761. 3488.
68.1830 68.1699 3784(64) 0.0002461 1761. 3684.
68.1867 68.1736 4024(67) 0.0002242 1761. 3867.
68.1905 68.1774 4026(66) 0.0002317 1761. 4039.
68.1943 68.1812 4330(68) 0.0002134 1761. 4189.
68.1980 68.1849 4576(70) 0.0002023 1761. 4310.
68.2018 68.1887 4524(70) 0.0002028 1761. 4402.
68.2055 68.1924 4694(72) 0.0001944 1761. 4458.
68.2093 68.1962 4659(72) 0.0001933 1761. 4475.
68.2130 68.1999 4654(72) 0.0001949 1761. 4448.
68.2168 68.2037 4511(70) 0.0002041 1761. 4375.
68.2205 68.2074 4197(68) 0.0002179 1762. 4265.
68.2243 68.2112 4090(66) 0.0002268 1762. 4115.
68.2281 68.2150 3707(63) 0.0002514 1762. 3939.
68.2318 68.2187 3617(63) 0.0002549 1762. 3754.
68.2356 68.2225 3270(60) 0.0002783 1762. 3562.
68.2393 68.2262 3229(59) 0.0002883 1762. 3385.
68.2431 68.2300 3041(57) 0.0003053 1762. 3223.
68.2468 68.2337 2931(57) 0.0003105 1762. 3091.
68.2506 68.2375 2753(55) 0.0003287 1762. 2987.
68.2544 68.2413 2894(57) 0.0003124 1762. 2915.
68.2581 68.2450 2895(57) 0.0003112 1762. 2874.
68.2619 68.2488 2990(56) 0.0003180 1762. 2856.
68.2656 68.2525 2897(56) 0.0003198 1762. 2855.
68.2694 68.2563 3132(59) 0.0002920 1762. 2863.
68.2731 68.2600 2971(57) 0.0003046 1762. 2870.
68.2769 68.2638 2998(56) 0.0003158 1762. 2868.
68.2807 68.2676 3018(57) 0.0003042 1762. 2848.
68.2844 68.2713 2833(56) 0.0003238 1762. 2809.
68.2882 68.2751 2737(54) 0.0003397 1762. 2750.
68.2919 68.2788 2717(55) 0.0003351 1762. 2677.
68.2957 68.2826 2393(51) 0.000377 1762. 2591.
68.2994 68.2863 2503(52) 0.000375 1762. 2502.
68.3032 68.2901 2289(50) 0.000402 1762. 2411.
68.3070 68.2939 2297(50) 0.000396 1762. 2324.
68.3107 68.2976 2109(48) 0.000432 1762. 2247.
68.3145 68.3014 2158(49) 0.000420 1762. 2176.
68.3182 68.3051 2035(47) 0.000458 1762. 2116.
68.3220 68.3089 2003(47) 0.000455 1762. 2065.
68.3257 68.3126 1963(46) 0.000475 1762. 2024.
68.3295 68.3164 1926(46) 0.000480 1762. 1990.
68.3333 68.3202 1853(45) 0.000502 1762. 1962.
68.3370 68.3239 1868(45) 0.000490 1762. 1942.
68.3408 68.3277 1789(44) 0.000506 1762. 1926.
68.3445 68.3314 1895(45) 0.000493 1762. 1914.
68.3483 68.3352 1878(45) 0.000484 1762. 1907.
68.3520 68.3389 1870(45) 0.000494 1762. 1904.
68.3558 68.3427 1758(44) 0.000511 1762. 1904.
68.3596 68.3465 1918(46) 0.000474 1762. 1909.
68.3633 68.3502 1850(45) 0.000500 1762. 1918.
68.3671 68.3540 1944(46) 0.000476 1762. 1932.
68.3708 68.3577 1858(45) 0.000488 1762. 1950.
68.3746 68.3615 1917(45) 0.000489 1762. 1973.
68.3783 68.3652 1914(45) 0.000496 1762. 2000.
68.3821 68.3690 2026(47) 0.000460 1762. 2032.
68.3859 68.3728 1981(46) 0.000466 1762. 2067.
68.3896 68.3765 2110(48) 0.000437 1762. 2105.
68.3934 68.3803 2093(48) 0.000442 1762. 2145.
68.3971 68.3840 2132(48) 0.000431 1762. 2184.
68.4009 68.3878 2085(48) 0.000437 1763. 2225.
68.4046 68.3915 2103(48) 0.000438 1763. 2263.
68.4084 68.3953 2078(47) 0.000445 1763. 2301.
68.4122 68.3991 2261(50) 0.000396 1763. 2339.
68.4159 68.4028 2254(50) 0.000403 1763. 2374.
68.4197 68.4066 2418(52) 0.000372 1763. 2408.
68.4234 68.4103 2426(51) 0.000383 1763. 2437.
68.4272 68.4141 2376(50) 0.000393 1763. 2461.
68.4309 68.4178 2395(50) 0.000396 1763. 2476.
68.4347 68.4216 2421(51) 0.000388 1763. 2479.
68.4385 68.4254 2368(51) 0.000388 1763. 2466.
68.4422 68.4291 2407(51) 0.000380 1763. 2439.
68.4460 68.4329 2238(50) 0.000407 1763. 2397.
68.4497 68.4366 2290(50) 0.000403 1763. 2346.
68.4535 68.4404 2140(48) 0.000429 1763. 2286.
68.4572 68.4441 2194(49) 0.000414 1763. 2225.
68.4610 68.4479 2081(48) 0.000434 1763. 2162.
68.4648 68.4517 2009(47) 0.000452 1763. 2102.
68.4685 68.4554 1957(46) 0.000475 1763. 2050.
68.4723 68.4592 1908(46) 0.000479 1763. 2002.
68.4760 68.4629 1860(45) 0.000488 1763. 1964.
68.4798 68.4667 1932(46) 0.000480 1763. 1932.
68.4836 68.4705 1893(45) 0.000486 1763. 1908.
68.4873 68.4742 1914(45) 0.000492 1763. 1892.
68.4911 68.4780 1775(44) 0.000526 1763. 1883.
68.4948 68.4817 1917(45) 0.000493 1763. 1882.
68.4986 68.4855 1912(44) 0.000506 1763. 1887.
68.5023 68.4892 1929(45) 0.000494 1763. 1898.
68.5061 68.4930 1834(44) 0.000525 1763. 1917.
68.5099 68.4968 1917(45) 0.000501 1763. 1942.
68.5136 68.5005 1871(44) 0.000513 1763. 1973.
68.5174 68.5043 1933(45) 0.000500 1763. 2010.
68.5211 68.5080 1981(45) 0.000492 1763. 2051.
68.5249 68.5118 1955(45) 0.000487 1763. 2096.
68.5286 68.5155 2090(47) 0.000460 1763. 2141.
68.5324 68.5193 2212(48) 0.000438 1763. 2185.
68.5362 68.5231 2222(48) 0.000430 1763. 2224.
68.5399 68.5268 2176(47) 0.000446 1763. 2254.
68.5437 68.5306 2269(49) 0.000419 1763. 2272.
68.5474 68.5343 2215(48) 0.000438 1763. 2276.
68.5512 68.5381 2184(48) 0.000434 1763. 2266.
68.5550 68.5419 2187(48) 0.000439 1763. 2243.
68.5587 68.5456 2045(46) 0.000469 1763. 2211.
68.5625 68.5494 2085(47) 0.000457 1763. 2171.
68.5662 68.5531 1997(46) 0.000477 1763. 2130.
68.5700 68.5569 1944(44) 0.000519 1763. 2087.
68.5737 68.5606 1958(45) 0.000488 1763. 2049.
68.5775 68.5644 2014(46) 0.000479 1763. 2014.
68.5813 68.5682 1887(44) 0.000507 1764. 1987.
68.5850 68.5719 1908(44) 0.000508 1764. 1970.
68.5888 68.5757 1906(45) 0.000503 1764. 1961.
68.5925 68.5794 2011(46) 0.000480 1764. 1961.
68.5963 68.5832 1908(44) 0.000506 1764. 1972.
68.6001 68.5870 2035(46) 0.000471 1764. 1992.
68.6038 68.5907 1993(46) 0.000479 1764. 2021.
68.6076 68.5945 2072(47) 0.000453 1764. 2060.
68.6113 68.5982 1999(46) 0.000479 1764. 2104.
68.6151 68.6020 2148(47) 0.000452 1764. 2155.
68.6188 68.6057 2143(47) 0.000444 1764. 2208.
68.6226 68.6095 2443(50) 0.000393 1764. 2263.
68.6264 68.6133 2358(50) 0.000405 1764. 2316.
68.6301 68.6170 2643(52) 0.000368 1764. 2363.
68.6339 68.6208 2534(51) 0.000383 1764. 2402.
68.6376 68.6245 2571(51) 0.000383 1764. 2428.
68.6414 68.6283 2457(50) 0.000393 1764. 2441.
68.6452 68.6321 2662(53) 0.000358 1764. 2437.
68.6489 68.6358 2482(51) 0.000389 1764. 2417.
68.6527 68.6396 2422(50) 0.000401 1764. 2382.
68.6564 68.6433 2290(49) 0.000422 1764. 2337.
68.6602 68.6471 2416(50) 0.000401 1764. 2284.
68.6639 68.6508 2240(48) 0.000437 1764. 2228.
68.6677 68.6546 2116(47) 0.000449 1764. 2171.
68.6715 68.6584 2103(47) 0.000458 1764. 2116.
68.6752 68.6621 2059(46) 0.000465 1764. 2067.
68.6790 68.6659 1956(45) 0.000488 1764. 2022.
68.6827 68.6696 1897(45) 0.000499 1764. 1984.
68.6865 68.6734 1940(45) 0.000494 1764. 1953.
68.6903 68.6772 1987(46) 0.000482 1764. 1929.
68.6940 68.6809 1880(44) 0.000523 1764. 1914.
68.6978 68.6847 1876(43) 0.000534 1764. 1905.
68.7015 68.6884 1861(44) 0.000518 1764. 1904.
68.7053 68.6922 1898(44) 0.000517 1764. 1909.
68.7091 68.6960 1855(44) 0.000511 1764. 1921.
68.7128 68.6997 1939(45) 0.000499 1764. 1938.
68.7166 68.7035 1757(43) 0.000540 1764. 1961.
68.7203 68.7072 1959(45) 0.000492 1764. 1986.
68.7241 68.7110 1908(44) 0.000507 1764. 2014.
68.7278 68.7147 2100(47) 0.000461 1764. 2041.
68.7316 68.7185 1968(45) 0.000489 1764. 2066.
68.7354 68.7223 2008(46) 0.000478 1764. 2087.
68.7391 68.7260 1909(45) 0.000502 1764. 2101.
68.7429 68.7298 1957(45) 0.000489 1764. 2108.
68.7466 68.7335 1922(44) 0.000512 1764. 2108.
68.7504 68.7373 2002(45) 0.000483 1764. 2101.
68.7542 68.7411 1940(45) 0.000498 1764. 2090.
68.7579 68.7448 1982(46) 0.000477 1764. 2080.
68.7617 68.7486 1960(45) 0.000489 1764. 2071.
68.7654 68.7523 2007(46) 0.000482 1764. 2067.
68.7692 68.7561 2007(45) 0.000484 1765. 2071.
68.7730 68.7599 1953(45) 0.000484 1765. 2083.
68.7767 68.7636 1993(46) 0.000481 1765. 2105.
68.7805 68.7674 2132(47) 0.000453 1765. 2138.
68.7842 68.7711 2044(47) 0.000461 1765. 2177.
68.7880 68.7749 2300(49) 0.000410 1765. 2225.
68.7917 68.7786 2265(49) 0.000419 1765. 2276.
68.7955 68.7824 2361(49) 0.000411 1765. 2328.
68.7993 68.7862 2411(51) 0.000392 1765. 2377.
68.8030 68.7899 2576(52) 0.000368 1765. 2419.
68.8068 68.7937 2448(51) 0.000382 1765. 2451.
68.8105 68.7974 2552(52) 0.000369 1765. 2472.
68.8143 68.8012 2427(50) 0.000395 1765. 2482.
68.8181 68.8050 2407(50) 0.000404 1765. 2484.
68.8218 68.8087 2337(49) 0.000412 1765. 2483.
68.8256 68.8125 2305(50) 0.000408 1765. 2484.
68.8293 68.8162 2174(48) 0.000434 1765. 2491.
68.8331 68.8200 2378(51) 0.000388 1765. 2509.
68.8369 68.8238 2323(49) 0.000412 1765. 2540.
68.8406 68.8275 2411(50) 0.000395 1765. 2583.
68.8444 68.8313 2649(53) 0.000360 1765. 2639.
68.8481 68.8350 2794(54) 0.0003448 1765. 2700.
68.8519 68.8388 2791(54) 0.0003417 1765. 2766.
68.8557 68.8426 2970(56) 0.0003175 1765. 2827.
68.8594 68.8463 2943(56) 0.0003222 1765. 2876.
68.8632 68.8501 3092(57) 0.0003068 1765. 2908.
68.8669 68.8538 2936(55) 0.0003280 1765. 2917.
68.8707 68.8576 2974(56) 0.0003189 1765. 2900.
68.8745 68.8614 2838(55) 0.0003307 1765. 2857.
68.8782 68.8651 2790(54) 0.0003429 1765. 2790.
68.8820 68.8689 2517(51) 0.000380 1765. 2704.
68.8857 68.8726 2540(52) 0.000373 1765. 2607.
68.8895 68.8764 2383(50) 0.000401 1765. 2502.
68.8932 68.8801 2345(49) 0.000409 1765. 2401.
68.8970 68.8839 2154(48) 0.000440 1765. 2301.
68.9008 68.8877 2129(47) 0.000453 1765. 2210.
68.9045 68.8914 2072(47) 0.000457 1765. 2132.
68.9083 68.8952 2064(46) 0.000465 1765. 2064.
68.9120 68.8989 1934(45) 0.000494 1765. 2009.
68.9158 68.9027 1909(44) 0.000505 1765. 1963.
68.9196 68.9065 1848(44) 0.000519 1765. 1928.
68.9233 68.9102 1923(45) 0.000497 1765. 1903.
68.9271 68.9140 1894(45) 0.000504 1765. 1883.
68.9308 68.9177 1883(45) 0.000503 1765. 1869.
68.9346 68.9215 1763(43) 0.000540 1765. 1859.
68.9384 68.9253 1818(44) 0.000519 1765. 1852.
68.9421 68.9290 1833(44) 0.000522 1765. 1847.
68.9459 68.9328 1820(43) 0.000535 1765. 1843.
68.9496 68.9365 1737(42) 0.000558 1765. 1839.
68.9534 68.9403 1814(43) 0.000532 1765. 1837.
68.9572 68.9441 1813(44) 0.000526 1765. 1834.
68.9609 68.9478 1864(44) 0.000509 1766. 1832.
68.9647 68.9516 1702(43) 0.000551 1766. 1831.
68.9684 68.9553 1776(43) 0.000535 1766. 1829.
68.9722 68.9591 1803(44) 0.000509 1766. 1828.
68.9760 68.9629 1857(45) 0.000505 1766. 1828.
68.9797 68.9666 1698(43) 0.000552 1766. 1828.
68.9835 68.9704 1819(43) 0.000531 1766. 1829.
68.9872 68.9741 1710(43) 0.000552 1766. 1831.
68.9910 68.9779 1892(44) 0.000510 1766. 1834.
68.9948 68.9817 1798(44) 0.000528 1766. 1838.
68.9985 68.9854 1904(44) 0.000509 1766. 1844.
69.0023 68.9892 1755(43) 0.000546 1766. 1853.
69.0060 68.9929 1878(44) 0.000507 1766. 1865.
69.0098 68.9967 1879(45) 0.000501 1766. 1881.
69.0136 69.0005 1918(45) 0.000491 1766. 1903.
69.0173 69.0042 1884(45) 0.000504 1766. 1930.
69.0211 69.0080 2004(46) 0.000480 1766. 1967.
69.0248 69.0117 1891(44) 0.000511 1766. 2011.
69.0286 69.0155 2089(47) 0.000450 1766. 2067.
69.0324 69.0193 2068(47) 0.000451 1766. 2134.
69.0361 69.0230 2244(49) 0.000425 1766. 2211.
69.0399 69.0268 2268(48) 0.000429 1766. 2301.
69.0436 69.0305 2522(51) 0.000387 1766. 2397.
69.0474 69.0343 2540(52) 0.000374 1766. 2504.
69.0512 69.0381 2810(55) 0.0003323 1766. 2615.
69.0549 69.0418 2829(55) 0.0003322 1766. 2722.
69.0587 69.0456 3125(58) 0.0003022 1766. 2826.
69.0624 69.0493 3126(57) 0.0003106 1766. 2915.
69.0662 69.0531 3271(59) 0.0002878 1766. 2992.
69.0700 69.0569 3348(60) 0.0002814 1766. 3048.
69.0737 69.0606 3353(60) 0.0002810 1766. 3082.
69.0775 69.0644 3376(60) 0.0002809 1766. 3094.
69.0812 69.0681 3442(61) 0.0002698 1766. 3084.
69.0850 69.0719 3205(58) 0.0002927 1766. 3049.
69.0888 69.0757 3172(58) 0.0003004 1766. 2991.
69.0925 69.0794 2912(55) 0.0003252 1766. 2914.
69.0963 69.0832 2818(54) 0.0003389 1766. 2817.
69.1000 69.0869 2670(53) 0.000351 1766. 2713.
69.1038 69.0907 2563(51) 0.000378 1766. 2601.
69.1076 69.0945 2380(50) 0.000398 1766. 2490.
69.1113 69.0982 2338(50) 0.000396 1766. 2386.
69.1151 69.1020 2219(48) 0.000426 1766. 2288.
69.1188 69.1057 2148(48) 0.000436 1766. 2202.
69.1226 69.1095 2100(48) 0.000435 1766. 2125.
69.1264 69.1133 1990(46) 0.000473 1766. 2059.
69.1301 69.1170 1957(46) 0.000472 1766. 2006.
69.1339 69.1208 1934(46) 0.000480 1766. 1961.
69.1376 69.1245 1935(45) 0.000487 1766. 1927.
69.1414 69.1283 1952(45) 0.000493 1766. 1899.
69.1452 69.1321 1886(45) 0.000484 1766. 1877.
69.1489 69.1358 1863(44) 0.000507 1766. 1862.
69.1527 69.1396 1846(44) 0.000526 1766. 1849.
69.1564 69.1433 1851(44) 0.000511 1766. 1840.
69.1602 69.1471 1762(43) 0.000529 1766. 1833.
69.1640 69.1509 1886(45) 0.000494 1766. 1828.
69.1677 69.1546 1796(44) 0.000522 1767. 1824.
69.1715 69.1584 1855(45) 0.000497 1767. 1821.
69.1752 69.1621 1742(43) 0.000537 1767. 1819.
69.1790 69.1659 1853(44) 0.000511 1767. 1818.
69.1828 69.1697 1780(43) 0.000529 1767. 1817.
69.1865 69.1734 1863(44) 0.000506 1767. 1816.
69.1903 69.1772 1799(44) 0.000526 1767. 1816.
69.1940 69.1809 1871(44) 0.000510 1767. 1816.
69.1978 69.1847 1762(43) 0.000532 1767. 1816.
69.2016 69.1885 1802(44) 0.000525 1767. 1817.
69.2053 69.1922 1851(44) 0.000516 1767. 1817.
69.2091 69.1960 1868(44) 0.000506 1767. 1818.
69.2128 69.1997 1843(44) 0.000505 1767. 1819.
69.2166 69.2035 1815(43) 0.000532 1767. 1820.
69.2204 69.2073 1877(44) 0.000508 1767. 1821.
69.2241 69.2110 1899(45) 0.000484 1767. 1822.
69.2279 69.2148 1807(44) 0.000516 1767. 1823.
69.2316 69.2185 1850(44) 0.000511 1767. 1823.
69.2354 69.2223 1763(43) 0.000535 1767. 1824.
69.2392 69.2261 1775(44) 0.000526 1767. 1825.
69.2429 69.2298 1768(43) 0.000529 1767. 1825.
69.2467 69.2336 1837(44) 0.000510 1767. 1826.
69.2505 69.2374 1741(43) 0.000542 1767. 1828.
69.2542 69.2411 1796(44) 0.000521 1767. 1829.
69.2580 69.2449 1785(44) 0.000528 1767. 1831.
69.2617 69.2486 1838(44) 0.000506 1767. 1833.
69.2655 69.2524 1878(45) 0.000499 1767. 1836.
69.2693 69.2562 1861(45) 0.000499 1767. 1840.
69.2730 69.2599 1757(43) 0.000536 1767. 1844.
69.2768 69.2637 1842(44) 0.000506 1767. 1848.
69.2805 69.2674 1807(44) 0.000506 1767. 1852.
69.2843 69.2712 1823(44) 0.000523 1767. 1857.
69.2881 69.2750 1779(44) 0.000516 1767. 1861.
69.2918 69.2787 1839(44) 0.000509 1767. 1864.
69.2956 69.2825 1853(44) 0.000511 1767. 1866.
69.2993 69.2862 1801(44) 0.000515 1767. 1867.
69.3031 69.2900 1750(43) 0.000529 1767. 1867.
69.3069 69.2938 1857(45) 0.000503 1767. 1866.
69.3106 69.2975 1777(44) 0.000518 1767. 1864.
69.3144 69.3013 1842(45) 0.000493 1767. 1862.
69.3181 69.3050 1741(43) 0.000532 1767. 1861.
69.3219 69.3088 1875(46) 0.000481 1767. 1861.
69.3257 69.3126 1759(44) 0.000521 1767. 1862.
69.3294 69.3163 1835(45) 0.000498 1767. 1864.
69.3332 69.3201 1864(45) 0.000492 1767. 1869.
69.3369 69.3238 1872(45) 0.000489 1767. 1875.
69.3407 69.3276 1806(44) 0.000507 1767. 1885.
69.3445 69.3314 1906(46) 0.000472 1767. 1897.
69.3482 69.3351 1899(46) 0.000482 1767. 1912.
69.3520 69.3389 1996(47) 0.000462 1767. 1932.
69.3558 69.3427 1869(45) 0.000498 1767. 1955.
69.3595 69.3464 2007(47) 0.000460 1767. 1982.
69.3633 69.3502 1994(47) 0.000460 1767. 2015.
69.3670 69.3539 2054(48) 0.000441 1767. 2053.
69.3708 69.3577 2059(47) 0.000456 1767. 2099.
69.3746 69.3615 2152(49) 0.000422 1767. 2153.
69.3783 69.3652 2225(49) 0.000419 1767. 2215.
69.3821 69.3690 2321(51) 0.000385 1767. 2290.
69.3858 69.3727 2312(50) 0.000398 1767. 2376.
69.3896 69.3765 2514(53) 0.000362 1768. 2477.
69.3934 69.3803 2634(53) 0.000356 1768. 2592.
69.3971 69.3840 2888(56) 0.0003197 1768. 2716.
69.4009 69.3878 3038(57) 0.0003028 1768. 2854.
69.4046 69.3915 3548(63) 0.0002538 1768. 2995.
69.4084 69.3953 3621(63) 0.0002544 1768. 3140.
69.4122 69.3991 3824(65) 0.0002364 1768. 3279.
69.4159 69.4028 3822(64) 0.0002404 1768. 3400.
69.4197 69.4066 3953(66) 0.0002265 1768. 3501.
69.4234 69.4103 3894(65) 0.0002372 1768. 3573.
69.4272 69.4141 3785(64) 0.0002428 1768. 3615.
69.4310 69.4179 3599(62) 0.0002619 1768. 3627.
69.4347 69.4216 3747(64) 0.0002478 1768. 3614.
69.4385 69.4254 3572(62) 0.0002572 1768. 3583.
69.4423 69.4292 3673(64) 0.0002420 1768. 3541.
69.4460 69.4329 3583(62) 0.0002582 1768. 3494.
69.4498 69.4367 3748(63) 0.0002499 1768. 3442.
69.4535 69.4404 3549(63) 0.0002506 1768. 3391.
69.4573 69.4442 3677(63) 0.0002537 1768. 3336.
69.4611 69.4480 3544(62) 0.0002627 1768. 3277.
69.4648 69.4517 3422(61) 0.0002709 1768. 3215.
69.4686 69.4555 3080(58) 0.0003012 1768. 3149.
69.4723 69.4592 3115(59) 0.0002906 1768. 3084.
69.4761 69.4630 2939(57) 0.0003126 1768. 3022.
69.4799 69.4668 2880(55) 0.0003274 1768. 2969.
69.4836 69.4705 2815(55) 0.0003282 1768. 2929.
69.4874 69.4743 2849(56) 0.0003243 1768. 2902.
69.4911 69.4780 2846(55) 0.0003280 1768. 2890.
69.4949 69.4818 2972(56) 0.0003172 1768. 2892.
69.4987 69.4856 2805(55) 0.0003293 1768. 2906.
69.5024 69.4893 2969(57) 0.0003102 1768. 2929.
69.5062 69.4931 3008(57) 0.0003078 1768. 2959.
69.5100 69.4969 3013(57) 0.0003040 1768. 2991.
69.5137 69.5006 3037(58) 0.0002995 1768. 3023.
69.5175 69.5044 3080(58) 0.0002981 1768. 3054.
69.5212 69.5081 2963(56) 0.0003140 1768. 3083.
69.5250 69.5119 3037(58) 0.0003016 1768. 3110.
69.5288 69.5157 3021(57) 0.0003083 1768. 3136.
69.5325 69.5194 3132(57) 0.0003045 1768. 3161.
69.5363 69.5232 3075(58) 0.0003016 1768. 3188.
69.5400 69.5269 3246(59) 0.0002870 1768. 3216.
69.5438 69.5307 3304(60) 0.0002752 1768. 3245.
69.5476 69.5345 3513(62) 0.0002630 1768. 3270.
69.5513 69.5382 3431(61) 0.0002682 1768. 3287.
69.5551 69.5420 3400(61) 0.0002732 1768. 3291.
69.5588 69.5457 3194(59) 0.0002895 1768. 3278.
69.5626 69.5495 3339(60) 0.0002777 1768. 3243.
69.5664 69.5533 3201(59) 0.0002833 1768. 3188.
69.5701 69.5570 3111(58) 0.0002985 1768. 3118.
69.5739 69.5608 2816(55) 0.0003267 1768. 3032.
69.5777 69.5646 2873(55) 0.0003261 1768. 2936.
69.5814 69.5683 2616(53) 0.000353 1768. 2839.
69.5852 69.5721 2667(54) 0.0003374 1768. 2740.
69.5889 69.5758 2444(51) 0.000380 1768. 2649.
69.5927 69.5796 2439(51) 0.000378 1768. 2566.
69.5965 69.5834 2433(51) 0.000380 1768. 2499.
69.6002 69.5871 2406(51) 0.000385 1768. 2449.
69.6040 69.5909 2340(50) 0.000399 1768. 2417.
69.6077 69.5946 2455(52) 0.000375 1768. 2404.
69.6115 69.5984 2427(51) 0.000383 1768. 2409.
69.6153 69.6022 2584(53) 0.000358 1768. 2430.
69.6190 69.6059 2551(53) 0.000359 1768. 2464.
69.6228 69.6097 2755(54) 0.0003379 1768. 2508.
69.6266 69.6135 2659(54) 0.0003382 1768. 2559.
69.6303 69.6172 2804(56) 0.0003187 1768. 2610.
69.6341 69.6210 2689(54) 0.0003404 1768. 2662.
69.6378 69.6247 2939(56) 0.0003182 1768. 2709.
69.6416 69.6285 2745(55) 0.0003364 1768. 2753.
69.6454 69.6323 2884(56) 0.0003158 1768. 2794.
69.6491 69.6360 2707(54) 0.0003458 1769. 2833.
69.6529 69.6398 2918(56) 0.0003186 1769. 2876.
69.6566 69.6435 2912(57) 0.0003079 1769. 2925.
69.6604 69.6473 2975(57) 0.0003044 1769. 2981.
69.6642 69.6511 3109(58) 0.0002931 1769. 3045.
69.6679 69.6548 3455(61) 0.0002725 1769. 3111.
69.6717 69.6586 3484(62) 0.0002609 1769. 3179.
69.6755 69.6624 3664(64) 0.0002474 1769. 3242.
69.6792 69.6661 3633(63) 0.0002513 1769. 3293.
69.6830 69.6699 3528(62) 0.0002570 1769. 3331.
69.6867 69.6736 3289(60) 0.0002766 1769. 3353.
69.6905 69.6774 3315(61) 0.0002688 1769. 3362.
69.6943 69.6812 3269(60) 0.0002801 1769. 3363.
69.6980 69.6849 3287(60) 0.0002789 1769. 3362.
69.7018 69.6887 3366(61) 0.0002702 1769. 3367.
69.7055 69.6924 3312(60) 0.0002736 1769. 3381.
69.7093 69.6962 3447(61) 0.0002657 1769. 3409.
69.7131 69.7000 3791(66) 0.0002312 1769. 3450.
69.7168 69.7037 3651(63) 0.0002489 1769. 3500.
69.7206 69.7075 3836(65) 0.0002335 1769. 3558.
69.7244 69.7113 3963(66) 0.0002267 1769. 3615.
69.7281 69.7150 3972(66) 0.0002300 1769. 3663.
69.7319 69.7188 3914(65) 0.0002345 1769. 3700.
69.7356 69.7225 4090(66) 0.0002269 1769. 3719.
69.7394 69.7263 3706(64) 0.0002450 1769. 3717.
69.7432 69.7301 3960(66) 0.0002320 1769. 3690.
69.7469 69.7338 3874(66) 0.0002306 1769. 3639.
69.7507 69.7376 3756(63) 0.0002518 1769. 3560.
69.7544 69.7413 3491(62) 0.0002613 1769. 3460.
69.7582 69.7451 3451(62) 0.0002617 1769. 3336.
69.7620 69.7489 3241(60) 0.0002781 1769. 3196.
69.7657 69.7526 3048(58) 0.0002982 1769. 3051.
69.7695 69.7564 2833(55) 0.0003252 1769. 2899.
69.7733 69.7602 2760(55) 0.0003307 1769. 2750.
69.7770 69.7639 2580(53) 0.000352 1769. 2612.
69.7808 69.7677 2472(52) 0.000374 1769. 2482.
69.7845 69.7714 2371(51) 0.000381 1769. 2369.
69.7883 69.7752 2182(49) 0.000415 1769. 2267.
69.7921 69.7790 2094(48) 0.000433 1769. 2180.
69.7958 69.7827 2074(47) 0.000444 1769. 2109.
69.7996 69.7865 1986(46) 0.000474 1769. 2049.
69.8033 69.7902 1923(46) 0.000474 1769. 2002.
69.8071 69.7940 1988(47) 0.000459 1769. 1964.
69.8109 69.7978 1955(47) 0.000459 1769. 1934.
69.8146 69.8015 1886(46) 0.000480 1769. 1911.
69.8184 69.8053 1903(46) 0.000478 1769. 1893.
69.8222 69.8091 1867(46) 0.000481 1769. 1879.
69.8259 69.8128 1870(45) 0.000490 1769. 1868.
69.8297 69.8166 1765(44) 0.000526 1769. 1859.
69.8334 69.8203 1866(45) 0.000497 1769. 1853.
69.8372 69.8241 1849(45) 0.000500 1769. 1847.
69.8410 69.8279 1908(45) 0.000491 1769. 1842.
69.8447 69.8316 1834(45) 0.000499 1769. 1839.
69.8485 69.8354 1918(46) 0.000479 1769. 1835.
69.8522 69.8391 1838(44) 0.000520 1769. 1833.
69.8560 69.8429 1868(45) 0.000492 1769. 1830.
69.8598 69.8467 1802(44) 0.000522 1769. 1828.
69.8635 69.8504 1773(44) 0.000518 1769. 1826.
69.8673 69.8542 1761(44) 0.000511 1769. 1825.
69.8711 69.8580 1846(45) 0.000494 1769. 1823.
69.8748 69.8617 1760(44) 0.000506 1769. 1822.
69.8786 69.8655 1726(42) 0.000559 1769. 1821.
69.8823 69.8692 1706(44) 0.000528 1769. 1820.
69.8861 69.8730 1844(45) 0.000489 1769. 1819.
69.8899 69.8768 1759(44) 0.000522 1769. 1819.
69.8936 69.8805 1775(44) 0.000516 1769. 1818.
69.8974 69.8843 1785(44) 0.000520 1769. 1817.
69.9012 69.8881 1827(45) 0.000497 1769. 1816.
69.9049 69.8918 1793(44) 0.000508 1769. 1816.
69.9087 69.8956 1841(45) 0.000491 1769. 1815.
69.9124 69.8993 1765(44) 0.000509 1769. 1814.
69.9162 69.9031 1818(44) 0.000506 1769. 1813.
69.9200 69.9069 1758(43) 0.000534 1769. 1812.
69.9237 69.9106 1747(44) 0.000523 1769. 1811.
69.9275 69.9144 1704(44) 0.000527 1769. 1811.
69.9312 69.9181 1779(44) 0.000513 1769. 1811.
69.9350 69.9219 1745(45) 0.000501 1769. 1811.
69.9388 69.9257 1891(45) 0.000490 1769. 1811.
69.9425 69.9294 1741(44) 0.000518 1769. 1812.
69.9463 69.9332 1824(44) 0.000508 1769. 1813.
69.9501 69.9370 1783(44) 0.000526 1769. 1815.
69.9538 69.9407 1866(46) 0.000478 1769. 1818.
69.9576 69.9445 1719(43) 0.000531 1769. 1821.
69.9613 69.9482 1846(45) 0.000491 1769. 1826.
69.9651 69.9520 1768(44) 0.000528 1769. 1831.
69.9689 69.9558 1819(45) 0.000505 1769. 1837.
69.9726 69.9595 1716(43) 0.000539 1769. 1844.
69.9764 69.9633 1770(44) 0.000513 1769. 1852.
69.9802 69.9671 1812(45) 0.000497 1770. 1860.
69.9839 69.9708 1854(45) 0.000499 1770. 1868.
69.9877 69.9746 1817(45) 0.000505 1770. 1875.
69.9914 69.9783 1860(45) 0.000491 1770. 1880.
69.9952 69.9821 1735(44) 0.000526 1770. 1885.
69.9990 69.9859 1756(44) 0.000526 1770. 1887.
70.0027 69.9896 1831(45) 0.000503 1770. 1887.
70.0065 69.9934 1797(44) 0.000512 1770. 1885.
70.0102 69.9971 1788(44) 0.000511 1770. 1881.
70.0140 70.0009 1853(45) 0.000504 1770. 1876.
70.0178 70.0047 1685(43) 0.000530 1770. 1870.
70.0215 70.0084 1794(45) 0.000500 1770. 1864.
70.0253 70.0122 1841(45) 0.000494 1770. 1858.
70.0291 70.0160 1875(45) 0.000492 1770. 1853.
70.0328 70.0197 1819(45) 0.000500 1770. 1849.
70.0366 70.0235 1813(45) 0.000502 1770. 1846.
70.0403 70.0272 1821(45) 0.000503 1770. 1844.
70.0441 70.0310 1838(45) 0.000493 1770. 1844.
70.0479 70.0348 1856(46) 0.000478 1770. 1845.
70.0516 70.0385 1863(45) 0.000502 1770. 1848.
70.0554 70.0423 1863(46) 0.000477 1770. 1853.
70.0592 70.0461 1943(46) 0.000472 1770. 1859.
70.0629 70.0498 1852(45) 0.000500 1770. 1868.
70.0667 70.0536 1921(46) 0.000474 1770. 1880.
70.0704 70.0573 1917(46) 0.000477 1770. 1895.
70.0742 70.0611 1971(47) 0.000453 1770. 1916.
70.0780 70.0649 1941(46) 0.000464 1770. 1942.
70.0817 70.0686 2020(47) 0.000444 1770. 1974.
70.0855 70.0724 2037(48) 0.000442 1770. 2016.
70.0892 70.0761 2095(48) 0.000432 1770. 2066.
70.0930 70.0799 2049(47) 0.000449 1770. 2128.
70.0968 70.0837 2221(49) 0.000412 1770. 2201.
70.1005 70.0874 2316(51) 0.000391 1770. 2282.
70.1043 70.0912 2476(53) 0.000358 1770. 2376.
70.1081 70.0950 2634(54) 0.0003398 1770. 2477.
70.1118 70.0987 2857(57) 0.0003127 1770. 2581.
70.1156 70.1025 2918(57) 0.0003130 1770. 2689.
70.1193 70.1062 3282(61) 0.0002732 1770. 2793.
70.1231 70.1100 3278(60) 0.0002792 1770. 2891.
70.1269 70.1138 3415(63) 0.0002553 1770. 2977.
70.1306 70.1175 3372(60) 0.0002743 1770. 3046.
70.1344 70.1213 3343(61) 0.0002693 1770. 3100.
70.1382 70.1251 3083(58) 0.0003005 1770. 3138.
70.1419 70.1288 3080(59) 0.0002918 1770. 3164.
70.1457 70.1326 3115(59) 0.0002896 1770. 3186.
70.1494 70.1363 3239(60) 0.0002743 1770. 3205.
70.1532 70.1401 3189(59) 0.0002830 1770. 3227.
70.1570 70.1439 3461(62) 0.0002564 1770. 3252.
70.1607 70.1476 3451(61) 0.0002668 1770. 3277.
70.1645 70.1514 3711(64) 0.0002418 1770. 3302.
70.1683 70.1552 3638(63) 0.0002487 1770. 3318.
70.1720 70.1589 3677(64) 0.0002463 1770. 3321.
70.1758 70.1627 3492(62) 0.0002593 1770. 3304.
70.1795 70.1664 3466(62) 0.0002604 1770. 3266.
70.1833 70.1702 3166(60) 0.0002820 1770. 3205.
70.1871 70.1740 3143(59) 0.0002848 1770. 3123.
70.1908 70.1777 2968(57) 0.0003025 1770. 3032.
70.1946 70.1815 2886(57) 0.0003102 1770. 2931.
70.1983 70.1852 2636(54) 0.0003395 1770. 2833.
70.2021 70.1890 2707(55) 0.0003351 1770. 2736.
70.2059 70.1928 2498(52) 0.000363 1770. 2647.
70.2096 70.1965 2577(54) 0.0003441 1770. 2570.
70.2134 70.2003 2364(51) 0.000381 1770. 2500.
70.2172 70.2041 2489(51) 0.000382 1770. 2440.
70.2209 70.2078 2268(50) 0.000398 1770. 2388.
70.2247 70.2116 2397(51) 0.000389 1770. 2340.
70.2284 70.2153 2179(49) 0.000418 1770. 2295.
70.2322 70.2191 2296(50) 0.000397 1770. 2251.
70.2360 70.2229 2163(49) 0.000419 1770. 2207.
70.2397 70.2266 2067(47) 0.000458 1770. 2164.
70.2435 70.2304 2005(48) 0.000441 1770. 2121.
70.2473 70.2342 1984(47) 0.000449 1770. 2081.
70.2510 70.2379 1888(46) 0.000472 1770. 2043.
70.2548 70.2417 1943(46) 0.000463 1770. 2009.
70.2585 70.2454 1862(46) 0.000477 1770. 1979.
70.2623 70.2492 1907(46) 0.000479 1770. 1952.
70.2661 70.2530 1877(47) 0.000460 1770. 1929.
70.2698 70.2567 1877(45) 0.000485 1770. 1911.
70.2736 70.2605 1772(44) 0.000526 1770. 1896.
70.2774 70.2643 1911(47) 0.000462 1770. 1885.
70.2811 70.2680 1839(45) 0.000487 1770. 1876.
70.2849 70.2718 1900(46) 0.000467 1770. 1870.
70.2886 70.2755 1883(46) 0.000479 1770. 1866.
70.2924 70.2793 1915(46) 0.000471 1770. 1863.
70.2962 70.2831 1659(43) 0.000542 1770. 1862.
70.2999 70.2868 1866(45) 0.000490 1770. 1863.
70.3037 70.2906 1754(44) 0.000517 1770. 1865.
70.3074 70.2943 1813(45) 0.000496 1770. 1868.
70.3112 70.2981 1812(46) 0.000482 1770. 1874.
70.3150 70.3019 1865(45) 0.000488 1770. 1882.
70.3187 70.3056 1840(45) 0.000493 1770. 1892.
70.3225 70.3094 1872(45) 0.000485 1770. 1904.
70.3263 70.3132 1759(44) 0.000515 1770. 1921.
70.3300 70.3169 1901(45) 0.000489 1770. 1940.
70.3338 70.3207 1907(46) 0.000472 1770. 1963.
70.3375 70.3244 1985(48) 0.000443 1770. 1989.
70.3413 70.3282 1961(47) 0.000460 1770. 2018.
70.3451 70.3320 2024(48) 0.000430 1770. 2050.
70.3488 70.3357 2026(46) 0.000465 1770. 2083.
70.3526 70.3395 2110(49) 0.000420 1770. 2117.
70.3564 70.3433 2088(49) 0.000422 1770. 2150.
70.3601 70.3470 2235(49) 0.000413 1770. 2178.
70.3639 70.3508 2199(50) 0.000407 1770. 2201.
70.3676 70.3545 2272(51) 0.000389 1770. 2216.
70.3714 70.3583 2214(49) 0.000409 1770. 2222.
70.3752 70.3621 2257(50) 0.000395 1770. 2219.
70.3789 70.3658 2104(48) 0.000431 1770. 2208.
70.3827 70.3696 2216(49) 0.000414 1770. 2190.
70.3865 70.3734 2092(48) 0.000436 1770. 2167.
70.3902 70.3771 2106(48) 0.000434 1770. 2143.
70.3940 70.3809 2067(48) 0.000433 1770. 2116.
70.3977 70.3846 2057(47) 0.000461 1770. 2091.
70.4015 70.3884 1989(48) 0.000442 1770. 2066.
70.4053 70.3922 2003(48) 0.000443 1770. 2043.
70.4090 70.3959 2104(48) 0.000430 1770. 2022.
70.4128 70.3997 2014(47) 0.000453 1770. 2004.
70.4165 70.4034 1951(47) 0.000448 1770. 1989.
70.4203 70.4072 2026(46) 0.000465 1770. 1978.
70.4241 70.4110 1955(45) 0.000499 1770. 1973.
70.4278 70.4147 1997(46) 0.000481 1770. 1973.
70.4316 70.4185 1926(45) 0.000487 1770. 1982.
70.4354 70.4223 1973(46) 0.000483 1770. 2000.
70.4391 70.4260 2005(46) 0.000471 1770. 2027.
70.4429 70.4298 2111(47) 0.000461 1770. 2068.
70.4466 70.4335 2038(46) 0.000474 1770. 2121.
70.4504 70.4373 2217(48) 0.000433 1770. 2190.
70.4542 70.4411 2166(47) 0.000448 1770. 2274.
70.4579 70.4448 2445(50) 0.000393 1770. 2370.
70.4617 70.4486 2459(50) 0.000393 1770. 2482.
70.4655 70.4524 2595(52) 0.000369 1770. 2605.
70.4692 70.4561 2797(54) 0.0003452 1770. 2732.
70.4730 70.4599 2934(56) 0.0003218 1770. 2865.
70.4767 70.4636 3025(57) 0.0003131 1770. 2992.
70.4805 70.4674 3351(59) 0.0002869 1770. 3116.
70.4843 70.4712 3332(59) 0.0002862 1770. 3226.
70.4880 70.4749 3556(61) 0.0002676 1770. 3317.
70.4918 70.4787 3513(61) 0.0002683 1770. 3389.
70.4956 70.4825 3612(62) 0.0002626 1770. 3438.
70.4993 70.4862 3511(61) 0.0002668 1770. 3463.
70.5031 70.4900 3662(62) 0.0002605 1770. 3467.
70.5068 70.4937 3582(62) 0.0002627 1770. 3452.
70.5106 70.4975 3581(61) 0.0002681 1770. 3419.
70.5144 70.5013 3420(60) 0.0002821 1770. 3369.
70.5181 70.5050 3462(61) 0.0002726 1770. 3305.
70.5219 70.5088 3250(58) 0.0002940 1770. 3223.
70.5257 70.5126 3186(58) 0.0003016 1770. 3127.
70.5294 70.5163 2953(56) 0.0003226 1770. 3022.
70.5332 70.5201 2889(55) 0.0003355 1770. 2906.
70.5369 70.5238 2771(53) 0.000354 1770. 2790.
70.5407 70.5276 2732(53) 0.0003500 1770. 2673.
70.5445 70.5314 2442(51) 0.000388 1770. 2562.
70.5482 70.5351 2461(51) 0.000387 1770. 2463.
70.5520 70.5389 2313(50) 0.000408 1770. 2374.
70.5557 70.5426 2393(50) 0.000398 1770. 2302.
70.5595 70.5464 2208(49) 0.000424 1770. 2244.
70.5633 70.5502 2225(48) 0.000430 1770. 2205.
70.5670 70.5539 2183(48) 0.000428 1770. 2184.
70.5708 70.5577 2155(48) 0.000436 1770. 2181.
70.5746 70.5615 2200(48) 0.000437 1770. 2196.
70.5783 70.5652 2255(49) 0.000413 1770. 2225.
70.5821 70.5690 2414(50) 0.000396 1770. 2269.
70.5858 70.5727 2501(51) 0.000383 1770. 2324.
70.5896 70.5765 2573(52) 0.000370 1770. 2388.
70.5934 70.5803 2727(54) 0.0003466 1770. 2457.
70.5971 70.5840 2755(54) 0.0003421 1770. 2526.
70.6009 70.5878 2915(55) 0.0003313 1770. 2592.
70.6047 70.5916 2905(55) 0.0003253 1770. 2649.
70.6084 70.5953 2922(55) 0.0003322 1770. 2692.
70.6122 70.5991 2935(56) 0.0003203 1770. 2721.
70.6159 70.6028 2913(55) 0.0003263 1770. 2733.
70.6197 70.6066 2897(55) 0.0003282 1770. 2729.
70.6235 70.6104 2821(55) 0.0003304 1770. 2714.
70.6272 70.6141 2802(54) 0.0003426 1770. 2693.
70.6310 70.6179 2655(52) 0.000364 1770. 2668.
70.6348 70.6217 2692(53) 0.000353 1770. 2646.
70.6385 70.6254 2819(55) 0.0003303 1770. 2628.
70.6423 70.6292 2749(54) 0.0003462 1770. 2618.
70.6460 70.6329 2824(54) 0.0003415 1770. 2616.
70.6498 70.6367 2787(54) 0.0003388 1770. 2623.
70.6536 70.6405 2772(54) 0.0003410 1770. 2639.
70.6573 70.6442 2679(53) 0.000354 1770. 2663.
70.6611 70.6480 2813(55) 0.0003321 1770. 2697.
70.6648 70.6517 2673(54) 0.0003410 1770. 2739.
70.6686 70.6555 2785(55) 0.0003332 1770. 2793.
70.6724 70.6593 2757(54) 0.0003382 1770. 2859.
70.6761 70.6630 2857(55) 0.0003291 1770. 2934.
70.6799 70.6668 2948(56) 0.0003151 1770. 3020.
70.6837 70.6706 3297(59) 0.0002874 1770. 3113.
70.6874 70.6743 3397(60) 0.0002788 1770. 3205.
70.6912 70.6781 3683(62) 0.0002574 1770. 3296.
70.6949 70.6818 3761(63) 0.0002512 1770. 3372.
70.6987 70.6856 3810(64) 0.0002431 1770. 3428.
70.7025 70.6894 3762(63) 0.0002528 1770. 3456.
70.7062 70.6931 3727(63) 0.0002516 1770. 3448.
70.7100 70.6969 3403(60) 0.0002772 1770. 3403.
70.7138 70.7007 3368(60) 0.0002768 1770. 3323.
70.7175 70.7044 3128(58) 0.0002981 1770. 3219.
70.7213 70.7082 3114(58) 0.0002987 1770. 3094.
70.7250 70.7119 2847(54) 0.0003369 1770. 2964.
70.7288 70.7157 2767(54) 0.0003406 1770. 2831.
70.7326 70.7195 2566(52) 0.000366 1770. 2707.
70.7363 70.7232 2634(53) 0.000357 1770. 2598.
70.7401 70.7270 2439(51) 0.000380 1770. 2505.
70.7439 70.7308 2394(51) 0.000390 1770. 2431.
70.7476 70.7345 2333(50) 0.000394 1770. 2378.
70.7514 70.7383 2331(50) 0.000402 1770. 2343.
70.7551 70.7420 2357(51) 0.000392 1770. 2324.
70.7589 70.7458 2433(51) 0.000391 1770. 2318.
70.7627 70.7496 2375(51) 0.000392 1770. 2319.
70.7664 70.7533 2393(51) 0.000392 1770. 2323.
70.7702 70.7571 2367(50) 0.000397 1770. 2326.
70.7739 70.7608 2384(51) 0.000390 1770. 2324.
70.7777 70.7646 2265(49) 0.000417 1770. 2314.
70.7815 70.7684 2293(49) 0.000411 1770. 2295.
70.7852 70.7721 2058(47) 0.000462 1770. 2269.
70.7890 70.7759 2148(48) 0.000436 1770. 2235.
70.7928 70.7797 2118(48) 0.000440 1770. 2198.
70.7965 70.7834 2135(48) 0.000433 1770. 2159.
70.8003 70.7872 1976(46) 0.000469 1770. 2118.
70.8040 70.7909 2058(47) 0.000450 1770. 2080.
70.8078 70.7947 1999(46) 0.000479 1770. 2044.
70.8116 70.7985 1990(46) 0.000475 1770. 2010.
70.8153 70.8022 1856(45) 0.000499 1770. 1980.
70.8191 70.8060 1963(46) 0.000483 1770. 1953.
70.8229 70.8098 1988(46) 0.000475 1770. 1930.
70.8266 70.8135 1856(44) 0.000506 1770. 1910.
70.8304 70.8173 1834(45) 0.000505 1770. 1894.
70.8341 70.8210 1954(46) 0.000477 1770. 1881.
70.8379 70.8248 1825(44) 0.000524 1770. 1870.
70.8417 70.8286 1844(45) 0.000502 1770. 1861.
70.8454 70.8323 1792(44) 0.000525 1770. 1855.
70.8492 70.8361 1912(46) 0.000476 1770. 1850.
70.8529 70.8398 1867(45) 0.000501 1770. 1848.
70.8567 70.8436 1939(46) 0.000480 1770. 1847.
70.8605 70.8474 1732(44) 0.000528 1770. 1849.
70.8642 70.8511 1905(45) 0.000491 1770. 1852.
70.8680 70.8549 1832(44) 0.000506 1770. 1858.
70.8718 70.8587 1829(45) 0.000502 1770. 1868.
70.8755 70.8624 1811(44) 0.000524 1770. 1880.
70.8793 70.8662 1848(45) 0.000492 1770. 1896.
70.8830 70.8699 1911(45) 0.000487 1770. 1916.
70.8868 70.8737 1929(45) 0.000483 1770. 1941.
70.8906 70.8775 1858(45) 0.000502 1770. 1971.
70.8943 70.8812 1948(46) 0.000473 1770. 2005.
70.8981 70.8850 1978(47) 0.000456 1770. 2044.
70.9019 70.8888 2080(47) 0.000448 1770. 2086.
70.9056 70.8925 2127(48) 0.000438 1770. 2130.
70.9094 70.8963 2212(48) 0.000430 1770. 2176.
70.9131 70.9000 2096(47) 0.000446 1770. 2220.
70.9169 70.9038 2202(48) 0.000441 1770. 2262.
70.9207 70.9076 2258(48) 0.000426 1770. 2300.
70.9244 70.9113 2311(49) 0.000415 1770. 2333.
70.9282 70.9151 2287(49) 0.000416 1770. 2361.
70.9319 70.9188 2428(50) 0.000401 1770. 2383.
70.9357 70.9226 2224(49) 0.000418 1770. 2400.
70.9395 70.9264 2280(49) 0.000424 1770. 2412.
70.9432 70.9301 2267(49) 0.000423 1770. 2421.
70.9470 70.9339 2296(49) 0.000411 1770. 2426.
70.9508 70.9377 2319(49) 0.000412 1770. 2430.
70.9545 70.9414 2380(50) 0.000404 1770. 2432.
70.9583 70.9452 2410(50) 0.000404 1770. 2435.
70.9620 70.9489 2484(51) 0.000380 1770. 2436.
70.9658 70.9527 2491(51) 0.000391 1770. 2436.
70.9696 70.9565 2469(51) 0.000385 1770. 2431.
70.9733 70.9602 2349(49) 0.000409 1770. 2421.
70.9771 70.9640 2423(50) 0.000400 1770. 2402.
70.9809 70.9678 2310(50) 0.000407 1770. 2375.
70.9846 70.9715 2291(49) 0.000412 1770. 2340.
70.9884 70.9753 2158(48) 0.000433 1770. 2297.
70.9921 70.9790 2144(48) 0.000427 1770. 2251.
70.9959 70.9828 2070(46) 0.000464 1770. 2201.
70.9997 70.9866 2084(46) 0.000465 1770. 2151.
71.0034 70.9903 1975(45) 0.000491 1770. 2104.
71.0072 70.9941 2053(47) 0.000460 1770. 2059.
71.0109 70.9978 1850(44) 0.000506 1770. 2021.
71.0147 71.0016 2101(47) 0.000462 1770. 1987.
71.0185 71.0054 1894(45) 0.000488 1770. 1960.
71.0222 71.0091 1880(44) 0.000507 1770. 1940.
71.0260 71.0129 1903(45) 0.000502 1770. 1926.
71.0298 71.0167 1998(45) 0.000492 1770. 1919.
71.0335 71.0204 1910(44) 0.000506 1770. 1919.
71.0373 71.0242 1948(45) 0.000490 1770. 1927.
71.0410 71.0279 1907(45) 0.000499 1770. 1941.
71.0448 71.0317 1968(45) 0.000490 1770. 1964.
71.0486 71.0355 1898(45) 0.000503 1770. 1995.
71.0523 71.0392 1931(45) 0.000488 1770. 2033.
71.0561 71.0430 1986(46) 0.000479 1770. 2080.
71.0598 71.0467 2098(47) 0.000451 1770. 2133.
71.0636 71.0505 2085(47) 0.000458 1770. 2193.
71.0674 71.0543 2256(49) 0.000425 1770. 2257.
71.0711 71.0580 2243(48) 0.000431 1770. 2322.
71.0749 71.0618 2423(51) 0.000390 1770. 2387.
71.0787 71.0656 2386(50) 0.000405 1770. 2449.
71.0824 71.0693 2523(52) 0.000369 1770. 2500.
71.0862 71.0731 2536(52) 0.000370 1770. 2542.
71.0899 71.0768 2672(53) 0.000361 1770. 2568.
71.0937 71.0806 2520(52) 0.000363 1770. 2580.
71.0975 71.0844 2508(52) 0.000371 1770. 2576.
71.1012 71.0881 2428(51) 0.000384 1770. 2559.
71.1050 71.0919 2455(51) 0.000383 1770. 2528.
71.1087 71.0956 2458(51) 0.000379 1770. 2487.
71.1125 71.0994 2409(51) 0.000387 1770. 2436.
71.1163 71.1032 2178(48) 0.000432 1770. 2379.
71.1200 71.1069 2277(49) 0.000413 1770. 2321.
71.1238 71.1107 2217(48) 0.000425 1770. 2261.
71.1276 71.1145 2097(47) 0.000443 1770. 2203.
71.1313 71.1182 2094(47) 0.000450 1770. 2152.
71.1351 71.1220 2000(46) 0.000466 1770. 2106.
71.1388 71.1257 1920(45) 0.000492 1770. 2070.
71.1426 71.1295 2032(47) 0.000454 1770. 2042.
71.1464 71.1333 1923(45) 0.000497 1770. 2024.
71.1501 71.1370 2053(46) 0.000467 1770. 2017.
71.1539 71.1408 1985(45) 0.000486 1770. 2021.
71.1576 71.1445 1994(46) 0.000463 1770. 2037.
71.1614 71.1483 1947(46) 0.000481 1770. 2064.
71.1652 71.1521 2117(48) 0.000443 1770. 2101.
71.1689 71.1558 2056(47) 0.000460 1770. 2146.
71.1727 71.1596 2339(50) 0.000398 1770. 2200.
71.1765 71.1634 2295(50) 0.000405 1770. 2258.
71.1802 71.1671 2511(51) 0.000380 1770. 2316.
71.1840 71.1709 2497(50) 0.000398 1770. 2374.
71.1877 71.1746 2564(53) 0.000359 1770. 2424.
71.1915 71.1784 2618(54) 0.0003487 1770. 2466.
71.1953 71.1822 2714(54) 0.0003477 1770. 2494.
71.1990 71.1859 2466(51) 0.000378 1770. 2508.
71.2028 71.1897 2528(52) 0.000367 1770. 2508.
71.2065 71.1934 2408(51) 0.000387 1770. 2498.
71.2103 71.1972 2546(52) 0.000372 1770. 2481.
71.2141 71.2010 2368(50) 0.000398 1770. 2462.
71.2178 71.2047 2448(50) 0.000394 1770. 2447.
71.2216 71.2085 2292(49) 0.000409 1770. 2439.
71.2254 71.2123 2363(50) 0.000394 1770. 2441.
71.2291 71.2160 2386(51) 0.000384 1770. 2456.
71.2329 71.2198 2464(51) 0.000378 1770. 2483.
71.2366 71.2235 2590(53) 0.000354 1770. 2520.
71.2404 71.2273 2832(55) 0.0003333 1770. 2565.
71.2442 71.2311 2832(55) 0.0003256 1770. 2615.
71.2479 71.2348 2894(56) 0.0003195 1770. 2661.
71.2517 71.2386 2948(56) 0.0003215 1770. 2701.
71.2554 71.2423 3030(56) 0.0003139 1770. 2726.
71.2592 71.2461 2857(55) 0.0003299 1770. 2734.
71.2630 71.2499 2890(56) 0.0003235 1770. 2723.
71.2667 71.2536 2805(56) 0.0003231 1770. 2693.
71.2705 71.2574 2715(54) 0.0003397 1770. 2648.
71.2743 71.2612 2586(53) 0.000355 1770. 2593.
71.2780 71.2649 2501(51) 0.000378 1770. 2534.
71.2818 71.2687 2416(50) 0.000394 1770. 2475.
71.2855 71.2724 2379(51) 0.000390 1770. 2423.
71.2893 71.2762 2326(50) 0.000399 1769. 2380.
71.2931 71.2800 2449(51) 0.000377 1769. 2351.
71.2968 71.2837 2361(50) 0.000397 1769. 2339.
71.3006 71.2875 2436(51) 0.000380 1769. 2346.
71.3043 71.2912 2259(49) 0.000413 1769. 2373.
71.3081 71.2950 2445(51) 0.000380 1769. 2421.
71.3119 71.2988 2376(51) 0.000390 1769. 2491.
71.3156 71.3025 2614(53) 0.000352 1769. 2579.
71.3194 71.3063 2615(53) 0.000354 1769. 2686.
71.3231 71.3100 2974(57) 0.0003071 1769. 2806.
71.3269 71.3138 3042(57) 0.0003064 1769. 2939.
71.3307 71.3176 3287(60) 0.0002778 1769. 3078.
71.3344 71.3213 3544(62) 0.0002608 1769. 3212.
71.3382 71.3251 3919(64) 0.0002441 1769. 3339.
71.3420 71.3289 3889(65) 0.0002351 1769. 3449.
71.3457 71.3326 3916(65) 0.0002359 1769. 3530.
71.3495 71.3364 3895(65) 0.0002351 1769. 3582.
71.3532 71.3401 3985(66) 0.0002299 1769. 3598.
71.3570 71.3439 3677(63) 0.0002521 1769. 3580.
71.3608 71.3477 3715(62) 0.0002568 1769. 3528.
71.3645 71.3514 3474(61) 0.0002687 1769. 3450.
71.3683 71.3552 3253(59) 0.0002863 1769. 3348.
71.3720 71.3589 3160(57) 0.0003031 1769. 3235.
71.3758 71.3627 3018(57) 0.0003113 1769. 3114.
71.3796 71.3665 2907(57) 0.0003025 1769. 2994.
71.3833 71.3702 2879(56) 0.0003203 1769. 2883.
71.3871 71.3740 2749(55) 0.0003346 1769. 2779.
71.3908 71.3777 2740(54) 0.0003388 1769. 2690.
71.3946 71.3815 2573(53) 0.000362 1769. 2611.
71.3984 71.3853 2571(53) 0.000362 1769. 2546.
71.4021 71.3890 2441(52) 0.000376 1769. 2496.
71.4059 71.3928 2395(51) 0.000390 1769. 2460.
71.4097 71.3966 2278(49) 0.000414 1769. 2438.
71.4134 71.4003 2324(50) 0.000407 1769. 2432.
71.4172 71.4041 2346(51) 0.000387 1769. 2441.
71.4209 71.4078 2507(52) 0.000370 1769. 2463.
71.4247 71.4116 2434(51) 0.000380 1769. 2498.
71.4285 71.4154 2689(53) 0.000354 1769. 2541.
71.4322 71.4191 2746(55) 0.0003321 1769. 2588.
71.4360 71.4229 2981(57) 0.0003070 1769. 2636.
71.4397 71.4266 2952(56) 0.0003142 1769. 2678.
71.4435 71.4304 3081(58) 0.0002988 1769. 2711.
71.4473 71.4342 2953(57) 0.0003129 1769. 2728.
71.4510 71.4379 2960(57) 0.0003061 1769. 2727.
71.4548 71.4417 2808(55) 0.0003280 1769. 2706.
71.4585 71.4454 2797(55) 0.0003289 1769. 2667.
71.4623 71.4492 2544(53) 0.000359 1769. 2611.
71.4661 71.4530 2617(53) 0.000362 1769. 2542.
71.4698 71.4567 2392(51) 0.000381 1769. 2468.
71.4736 71.4605 2431(52) 0.000371 1769. 2387.
71.4773 71.4642 2232(50) 0.000406 1769. 2309.
71.4811 71.4680 2191(49) 0.000413 1769. 2232.
71.4849 71.4718 2031(46) 0.000470 1769. 2161.
71.4886 71.4755 2154(48) 0.000426 1769. 2099.
71.4924 71.4793 1875(45) 0.000483 1769. 2043.
71.4962 71.4831 2000(47) 0.000459 1769. 1996.
71.4999 71.4868 1911(45) 0.000494 1769. 1958.
71.5037 71.4906 1895(46) 0.000483 1769. 1927.
71.5074 71.4943 1899(46) 0.000479 1769. 1902.
71.5112 71.4981 1896(46) 0.000482 1769. 1883.
71.5150 71.5019 1844(45) 0.000498 1769. 1868.
71.5187 71.5056 1878(45) 0.000491 1769. 1857.
71.5225 71.5094 1773(44) 0.000509 1769. 1849.
71.5262 71.5131 1957(46) 0.000471 1769. 1844.
71.5300 71.5169 1796(45) 0.000500 1769. 1841.
71.5338 71.5207 1863(45) 0.000494 1769. 1839.
71.5375 71.5244 1748(44) 0.000528 1769. 1839.
71.5413 71.5282 1802(44) 0.000520 1769. 1840.
71.5450 71.5319 1823(45) 0.000496 1769. 1843.
71.5488 71.5357 1806(45) 0.000494 1769. 1847.
71.5526 71.5395 1730(44) 0.000521 1769. 1852.
71.5563 71.5432 1857(45) 0.000494 1769. 1859.
71.5601 71.5470 1795(45) 0.000500 1769. 1868.
71.5638 71.5507 1883(45) 0.000493 1769. 1878.
71.5676 71.5545 1831(45) 0.000498 1769. 1889.
71.5714 71.5583 1808(45) 0.000505 1769. 1901.
71.5751 71.5620 1934(46) 0.000474 1769. 1913.
71.5789 71.5658 1909(45) 0.000484 1769. 1925.
71.5826 71.5695 1892(45) 0.000486 1769. 1937.
71.5864 71.5733 1924(46) 0.000476 1769. 1949.
71.5902 71.5771 1816(44) 0.000506 1769. 1959.
71.5939 71.5808 1958(47) 0.000461 1769. 1969.
71.5977 71.5846 1915(46) 0.000474 1768. 1979.
71.6015 71.5884 1873(45) 0.000485 1768. 1990.
71.6052 71.5921 1906(45) 0.000498 1768. 2004.
71.6090 71.5959 2031(47) 0.000455 1768. 2023.
71.6127 71.5996 1927(46) 0.000472 1768. 2049.
71.6165 71.6034 2087(47) 0.000461 1768. 2085.
71.6203 71.6072 2100(47) 0.000453 1768. 2130.
71.6240 71.6109 2101(48) 0.000441 1768. 2186.
71.6278 71.6147 2158(48) 0.000435 1768. 2253.
71.6315 71.6184 2378(50) 0.000400 1768. 2326.
71.6353 71.6222 2523(51) 0.000381 1768. 2408.
71.6391 71.6260 2738(55) 0.0003296 1768. 2493.
71.6428 71.6297 2804(55) 0.0003288 1768. 2572.
71.6466 71.6335 3164(59) 0.0002878 1768. 2645.
71.6503 71.6372 2954(56) 0.0003154 1768. 2702.
71.6541 71.6410 3003(57) 0.0003050 1768. 2739.
71.6579 71.6448 2879(56) 0.0003202 1768. 2752.
71.6616 71.6485 2750(54) 0.0003424 1768. 2738.
71.6654 71.6523 2627(54) 0.0003475 1768. 2698.
71.6691 71.6560 2625(54) 0.0003409 1768. 2639.
71.6729 71.6598 2504(52) 0.000366 1768. 2562.
71.6767 71.6636 2579(53) 0.000361 1768. 2475.
71.6804 71.6673 2247(50) 0.000398 1768. 2387.
71.6842 71.6711 2281(50) 0.000403 1768. 2296.
71.6879 71.6748 2058(47) 0.000453 1768. 2213.
71.6917 71.6786 2135(48) 0.000432 1768. 2136.
71.6955 71.6824 2070(47) 0.000447 1768. 2068.
71.6992 71.6861 2028(46) 0.000469 1768. 2013.
71.7030 71.6899 1976(47) 0.000455 1768. 1966.
71.7067 71.6936 1981(47) 0.000459 1768. 1930.
71.7105 71.6974 1890(45) 0.000486 1768. 1903.
71.7143 71.7012 1949(46) 0.000469 1768. 1882.
71.7180 71.7049 1737(44) 0.000518 1768. 1868.
71.7218 71.7087 1839(45) 0.000504 1768. 1859.
71.7255 71.7124 1895(45) 0.000489 1768. 1853.
71.7293 71.7162 1837(45) 0.000494 1768. 1850.
71.7331 71.7200 1912(46) 0.000469 1768. 1848.
71.7368 71.7237 1904(46) 0.000478 1768. 1848.
71.7406 71.7275 1818(45) 0.000504 1768. 1848.
71.7443 71.7312 1845(44) 0.000506 1768. 1848.
71.7481 71.7350 1787(45) 0.000500 1768. 1848.
71.7519 71.7388 1857(45) 0.000501 1768. 1849.
71.7556 71.7425 1778(44) 0.000517 1768. 1849.
71.7594 71.7463 1825(44) 0.000506 1768. 1849.
71.7631 71.7500 1785(44) 0.000507 1768. 1850.
71.7669 71.7538 1873(46) 0.000469 1768. 1851.
71.7707 71.7576 1843(44) 0.000506 1768. 1852.
71.7744 71.7613 1903(46) 0.000472 1768. 1854.
71.7782 71.7651 1873(45) 0.000500 1768. 1857.
71.7819 71.7688 1845(45) 0.000497 1768. 1860.
71.7857 71.7726 1804(44) 0.000508 1768. 1864.
71.7895 71.7764 1863(45) 0.000491 1768. 1870.
71.7932 71.7801 1808(44) 0.000510 1768. 1876.
71.7970 71.7839 1853(45) 0.000496 1768. 1884.
71.8007 71.7876 1785(45) 0.000503 1768. 1894.
71.8045 71.7914 1930(46) 0.000466 1768. 1907.
71.8083 71.7952 1834(45) 0.000497 1768. 1925.
71.8120 71.7989 1965(46) 0.000465 1768. 1947.
71.8158 71.8027 1877(46) 0.000478 1768. 1976.
71.8195 71.8064 1955(46) 0.000476 1768. 2012.
71.8233 71.8102 2023(47) 0.000454 1768. 2056.
71.8271 71.8140 2043(47) 0.000457 1768. 2109.
71.8308 71.8177 2131(48) 0.000434 1767. 2169.
71.8346 71.8215 2340(51) 0.000383 1767. 2237.
71.8383 71.8252 2381(51) 0.000383 1767. 2309.
71.8421 71.8290 2585(52) 0.000371 1767. 2386.
71.8459 71.8328 2517(54) 0.0003482 1767. 2464.
71.8496 71.8365 2778(55) 0.0003302 1767. 2538.
71.8534 71.8403 2692(54) 0.0003482 1767. 2607.
71.8571 71.8440 2818(56) 0.0003204 1767. 2667.
71.8609 71.8478 2679(55) 0.0003277 1767. 2717.
71.8647 71.8516 2847(54) 0.0003468 1767. 2757.
71.8684 71.8553 2757(55) 0.0003278 1767. 2786.
71.8722 71.8591 2894(56) 0.0003176 1767. 2807.
71.8759 71.8628 2926(56) 0.0003140 1767. 2821.
71.8797 71.8666 3013(57) 0.0003056 1767. 2827.
71.8835 71.8704 2988(58) 0.0003021 1767. 2826.
71.8872 71.8741 3087(58) 0.0003015 1767. 2815.
71.8910 71.8779 2850(55) 0.0003275 1767. 2793.
71.8947 71.8816 2874(56) 0.0003199 1767. 2758.
71.8985 71.8854 2669(54) 0.0003417 1767. 2710.
71.9023 71.8892 2549(52) 0.000367 1767. 2650.
71.9060 71.8929 2367(52) 0.000370 1767. 2582.
71.9098 71.8967 2387(51) 0.000387 1767. 2505.
71.9135 71.9004 2333(51) 0.000384 1767. 2428.
71.9173 71.9042 2199(49) 0.000417 1767. 2350.
71.9211 71.9080 2261(50) 0.000398 1767. 2275.
71.9248 71.9117 2215(49) 0.000417 1767. 2207.
71.9286 71.9155 2154(49) 0.000423 1767. 2145.
71.9323 71.9192 2233(50) 0.000408 1767. 2092.
71.9361 71.9230 2064(48) 0.000437 1767. 2046.
71.9399 71.9268 2101(48) 0.000427 1767. 2010.
71.9436 71.9305 1950(46) 0.000468 1767. 1983.
71.9474 71.9343 1977(46) 0.000470 1767. 1965.
71.9511 71.9380 1943(46) 0.000479 1767. 1955.
71.9549 71.9418 2051(47) 0.000455 1767. 1955.
71.9587 71.9456 2018(47) 0.000453 1767. 1964.
71.9624 71.9493 1967(47) 0.000454 1767. 1984.
71.9662 71.9531 2033(47) 0.000452 1767. 2016.
71.9699 71.9568 2042(48) 0.000442 1767. 2061.
71.9737 71.9606 2033(47) 0.000445 1767. 2122.
71.9774 71.9643 2254(50) 0.000398 1767. 2200.
71.9812 71.9681 2178(49) 0.000416 1767. 2299.
71.9850 71.9719 2482(50) 0.000395 1767. 2420.
71.9887 71.9756 2513(52) 0.000367 1767. 2558.
71.9925 71.9794 2690(54) 0.0003398 1767. 2719.
71.9962 71.9831 2924(58) 0.0003015 1767. 2894.
72.0000 71.9869 3271(60) 0.0002794 1767. 3086.
72.0038 71.9907 3560(62) 0.0002580 1767. 3284.
72.0075 71.9944 3897(66) 0.0002262 1767. 3475.
72.0113 71.9982 4248(69) 0.0002100 1767. 3661.
72.0150 72.0019 4409(69) 0.0002079 1767. 3821.
72.0188 72.0057 4478(71) 0.0002006 1767. 3955.
72.0226 72.0095 4829(74) 0.0001844 1766. 4048.
72.0263 72.0132 4494(70) 0.0002021 1766. 4096.
72.0301 72.0170 4424(70) 0.0002045 1766. 4101.
72.0338 72.0207 4267(69) 0.0002128 1766. 4065.
72.0376 72.0245 4316(68) 0.0002132 1766. 3992.
72.0414 72.0283 4007(67) 0.0002260 1766. 3892.
72.0451 72.0320 3991(66) 0.0002278 1766. 3774.
72.0489 72.0358 3779(65) 0.0002357 1766. 3640.
72.0526 72.0395 3591(63) 0.0002518 1766. 3501.
72.0564 72.0433 3359(61) 0.0002658 1766. 3355.
72.0602 72.0471 3364(61) 0.0002697 1766. 3208.
72.0639 72.0508 3090(59) 0.0002897 1766. 3068.
72.0677 72.0546 2972(57) 0.0003074 1766. 2930.
72.0714 72.0583 2726(55) 0.0003341 1766. 2806.
72.0752 72.0621 2674(54) 0.0003426 1766. 2690.
72.0789 72.0658 2415(52) 0.000373 1766. 2591.
72.0827 72.0696 2530(53) 0.000357 1766. 2503.
72.0865 72.0734 2343(51) 0.000382 1766. 2431.
72.0902 72.0771 2361(52) 0.000374 1766. 2375.
72.0940 72.0809 2288(51) 0.000383 1766. 2331.
72.0977 72.0846 2357(50) 0.000403 1766. 2301.
72.1015 72.0884 2219(50) 0.000408 1766. 2282.
72.1053 72.0922 2350(51) 0.000388 1766. 2272.
72.1090 72.0959 2215(49) 0.000411 1766. 2270.
72.1128 72.0997 2420(52) 0.000376 1766. 2272.
72.1165 72.1034 2291(50) 0.000393 1766. 2276.
72.1203 72.1072 2434(52) 0.000363 1766. 2278.
72.1241 72.1110 2326(51) 0.000379 1766. 2276.
72.1278 72.1147 2463(52) 0.000366 1766. 2268.
72.1316 72.1185 2292(50) 0.000400 1766. 2252.
72.1353 72.1222 2312(51) 0.000389 1766. 2229.
72.1391 72.1260 2193(50) 0.000404 1766. 2199.
72.1428 72.1297 2188(49) 0.000417 1766. 2165.
72.1466 72.1335 2013(47) 0.000452 1766. 2128.
72.1504 72.1373 2064(48) 0.000440 1766. 2090.
72.1541 72.1410 2048(48) 0.000437 1766. 2054.
72.1579 72.1448 1985(47) 0.000452 1766. 2019.
72.1616 72.1485 1952(47) 0.000455 1766. 1988.
72.1654 72.1523 1950(48) 0.000441 1766. 1960.
72.1692 72.1561 1889(46) 0.000477 1766. 1936.
72.1729 72.1598 1947(46) 0.000471 1766. 1918.
72.1767 72.1636 1977(47) 0.000459 1766. 1904.
72.1804 72.1673 1916(46) 0.000467 1766. 1894.
72.1842 72.1711 1794(45) 0.000498 1766. 1889.
72.1879 72.1748 1896(46) 0.000478 1766. 1887.
72.1917 72.1786 1868(45) 0.000484 1766. 1890.
72.1955 72.1824 1886(46) 0.000479 1765. 1895.
72.1992 72.1861 1850(45) 0.000505 1765. 1904.
72.2030 72.1899 1897(46) 0.000471 1765. 1917.
72.2067 72.1936 1920(47) 0.000459 1765. 1931.
72.2105 72.1974 1907(46) 0.000469 1765. 1949.
72.2143 72.2012 1976(47) 0.000457 1765. 1970.
72.2180 72.2049 2103(48) 0.000427 1765. 1993.
72.2218 72.2087 1969(47) 0.000460 1765. 2019.
72.2255 72.2124 2011(47) 0.000444 1765. 2048.
72.2293 72.2162 1990(46) 0.000467 1765. 2080.
72.2331 72.2200 2124(48) 0.000428 1765. 2115.
72.2368 72.2237 2075(47) 0.000444 1765. 2152.
72.2406 72.2275 2234(50) 0.000400 1765. 2193.
72.2443 72.2312 2124(48) 0.000429 1765. 2237.
72.2481 72.2350 2258(49) 0.000423 1765. 2284.
72.2518 72.2387 2428(52) 0.000372 1765. 2333.
72.2556 72.2425 2427(52) 0.000369 1765. 2384.
72.2594 72.2463 2480(52) 0.000363 1765. 2435.
72.2631 72.2500 2666(54) 0.0003409 1765. 2483.
72.2669 72.2538 2394(51) 0.000384 1765. 2530.
72.2706 72.2575 2542(53) 0.000355 1765. 2573.
72.2744 72.2613 2475(52) 0.000369 1765. 2616.
72.2782 72.2651 2493(53) 0.000358 1765. 2657.
72.2819 72.2688 2529(54) 0.0003385 1765. 2699.
72.2857 72.2726 2689(54) 0.0003483 1765. 2744.
72.2894 72.2763 2893(56) 0.0003144 1765. 2790.
72.2932 72.2801 2960(58) 0.0002992 1765. 2838.
72.2969 72.2838 2952(57) 0.0003036 1765. 2884.
72.3007 72.2876 3184(60) 0.0002818 1765. 2924.
72.3045 72.2914 3208(60) 0.0002815 1765. 2954.
72.3082 72.2951 3263(60) 0.0002755 1765. 2967.
72.3120 72.2989 3027(56) 0.0003156 1765. 2961.
72.3157 72.3026 2972(57) 0.0003059 1765. 2933.
72.3195 72.3064 2817(56) 0.0003216 1765. 2885.
72.3232 72.3101 2808(55) 0.0003298 1765. 2822.
72.3270 72.3139 2664(53) 0.000355 1765. 2747.
72.3308 72.3177 2593(53) 0.000353 1765. 2668.
72.3345 72.3214 2423(51) 0.000388 1765. 2593.
72.3383 72.3252 2490(53) 0.000355 1765. 2523.
72.3420 72.3289 2271(51) 0.000383 1765. 2467.
72.3458 72.3327 2382(50) 0.000395 1765. 2425.
72.3496 72.3365 2427(51) 0.000382 1765. 2398.
72.3533 72.3402 2538(54) 0.0003409 1764. 2387.
72.3571 72.3440 2539(52) 0.000364 1764. 2390.
72.3608 72.3477 2666(53) 0.000351 1764. 2403.
72.3646 72.3515 2619(53) 0.000358 1764. 2422.
72.3683 72.3552 2694(53) 0.000353 1764. 2444.
72.3721 72.3590 2530(52) 0.000367 1764. 2463.
72.3759 72.3628 2680(53) 0.0003495 1764. 2477.
72.3796 72.3665 2631(52) 0.000364 1764. 2483.
72.3834 72.3703 2593(53) 0.000354 1764. 2481.
72.3871 72.3740 2524(52) 0.000374 1764. 2473.
72.3909 72.3778 2444(51) 0.000378 1764. 2461.
72.3946 72.3815 2430(51) 0.000380 1764. 2449.
72.3984 72.3853 2359(50) 0.000401 1764. 2441.
72.4022 72.3891 2345(50) 0.000400 1764. 2439.
72.4059 72.3928 2479(51) 0.000378 1764. 2445.
72.4097 72.3966 2397(50) 0.000399 1764. 2460.
72.4134 72.4003 2657(53) 0.000362 1764. 2483.
72.4172 72.4041 2688(53) 0.0003495 1764. 2515.
72.4209 72.4078 2887(56) 0.0003231 1764. 2550.
72.4247 72.4116 2803(55) 0.0003295 1764. 2590.
72.4285 72.4154 2731(56) 0.0003167 1764. 2629.
72.4322 72.4191 2715(54) 0.0003412 1764. 2663.
72.4360 72.4229 2699(54) 0.0003493 1764. 2693.
72.4397 72.4266 2687(53) 0.000351 1764. 2716.
72.4435 72.4304 2768(54) 0.0003452 1764. 2735.
72.4473 72.4342 2535(52) 0.000373 1764. 2752.
72.4510 72.4379 2664(52) 0.000363 1764. 2770.
72.4548 72.4417 2723(54) 0.0003439 1764. 2791.
72.4585 72.4454 2690(54) 0.0003478 1764. 2817.
72.4623 72.4492 2764(55) 0.0003349 1764. 2850.
72.4660 72.4529 3032(57) 0.0003099 1764. 2885.
72.4698 72.4567 3013(57) 0.0003109 1764. 2924.
72.4736 72.4605 3132(58) 0.0002943 1764. 2961.
72.4773 72.4642 3024(57) 0.0003049 1764. 2992.
72.4811 72.4680 3137(58) 0.0002938 1764. 3012.
72.4848 72.4717 2965(56) 0.0003195 1764. 3016.
72.4886 72.4755 3120(58) 0.0002945 1764. 3003.
72.4923 72.4792 2862(56) 0.0003202 1764. 2973.
72.4961 72.4830 2844(55) 0.0003325 1764. 2925.
72.4999 72.4868 2749(54) 0.0003370 1763. 2862.
72.5036 72.4905 2703(55) 0.0003335 1763. 2791.
72.5074 72.4943 2563(53) 0.000357 1763. 2709.
72.5111 72.4980 2474(51) 0.000386 1763. 2624.
72.5149 72.5018 2260(49) 0.000408 1763. 2535.
72.5186 72.5055 2249(50) 0.000407 1763. 2448.
72.5224 72.5093 2159(48) 0.000435 1763. 2362.
72.5262 72.5131 2240(49) 0.000414 1763. 2280.
72.5299 72.5168 2086(47) 0.000449 1763. 2207.
72.5337 72.5206 2094(48) 0.000439 1763. 2139.
72.5374 72.5243 1955(46) 0.000474 1763. 2082.
72.5412 72.5281 1959(46) 0.000476 1763. 2030.
72.5449 72.5318 1934(46) 0.000476 1763. 1988.
72.5487 72.5356 1914(46) 0.000478 1763. 1952.
72.5525 72.5394 1820(45) 0.000499 1763. 1923.
72.5562 72.5431 1915(45) 0.000488 1763. 1900.
72.5600 72.5469 1880(45) 0.000492 1763. 1881.
72.5675 72.5544 1835(43) 0.000547 1763. 1857.
72.5712 72.5581 1872(45) 0.000491 1763. 1849.
72.5750 72.5619 1789(44) 0.000505 1763. 1842.
72.5788 72.5657 1879(45) 0.000491 1763. 1838.
72.5825 72.5694 1757(44) 0.000513 1763. 1835.
72.5863 72.5732 1813(44) 0.000519 1763. 1833.
72.5900 72.5769 1769(44) 0.000518 1763. 1832.
72.5938 72.5807 1844(45) 0.000499 1763. 1832.
72.5975 72.5844 1779(45) 0.000503 1763. 1833.
72.6013 72.5882 1893(46) 0.000473 1763. 1835.
72.6050 72.5919 1834(45) 0.000502 1763. 1838.
72.6088 72.5957 1780(44) 0.000512 1763. 1843.
72.6126 72.5995 1764(43) 0.000529 1763. 1850.
72.6163 72.6032 1796(44) 0.000511 1763. 1860.
72.6201 72.6070 1776(44) 0.000525 1763. 1873.
72.6238 72.6107 1874(45) 0.000488 1763. 1890.
72.6276 72.6145 1845(45) 0.000487 1763. 1911.
72.6313 72.6182 1816(46) 0.000475 1763. 1937.
72.6351 72.6220 1889(45) 0.000486 1762. 1969.
72.6389 72.6258 2027(47) 0.000454 1762. 2006.
72.6426 72.6295 1998(47) 0.000453 1762. 2047.
72.6464 72.6333 2093(48) 0.000429 1762. 2094.
72.6501 72.6370 1942(51) 0.000392 1762. 2142.
72.6539 72.6408 2325(51) 0.000384 1762. 2192.
72.6576 72.6445 2312(51) 0.000390 1762. 2240.
72.6614 72.6483 2397(51) 0.000380 1762. 2286.
72.6652 72.6521 2247(54) 0.0003423 1762. 2324.
72.6689 72.6558 2497(53) 0.000359 1762. 2352.
72.6727 72.6596 2411(51) 0.000383 1762. 2369.
72.6764 72.6633 2453(51) 0.000377 1762. 2371.
72.6802 72.6671 2341(51) 0.000389 1762. 2360.
72.6839 72.6708 2358(51) 0.000386 1762. 2337.
72.6877 72.6746 2176(49) 0.000416 1762. 2304.
72.6914 72.6783 2165(49) 0.000417 1762. 2265.
72.6937 72.6806 2215(50) 0.000403 1762. 2240.
72.6975 72.6844 2101(49) 0.000419 1762. 2197.
72.7013 72.6882 2091(48) 0.000428 1762. 2155.
72.7050 72.6919 1968(47) 0.000458 1762. 2119.
72.7088 72.6957 2020(47) 0.000445 1762. 2088.
72.7125 72.6994 1937(46) 0.000467 1762. 2065.
72.7163 72.7032 1976(47) 0.000452 1762. 2049.
72.7200 72.7069 2024(47) 0.000459 1762. 2044.
72.7238 72.7107 2061(48) 0.000441 1762. 2048.
72.7276 72.7145 1963(46) 0.000470 1762. 2062.
72.7313 72.7182 2024(48) 0.000441 1762. 2086.
72.7351 72.7220 2004(47) 0.000455 1762. 2121.
72.7388 72.7257 2083(47) 0.000459 1762. 2164.
72.7426 72.7295 2067(48) 0.000437 1762. 2217.
72.7464 72.7333 2284(51) 0.000392 1762. 2279.
72.7501 72.7370 2244(50) 0.000402 1762. 2346.
72.7539 72.7408 2528(53) 0.000360 1762. 2421.
72.7576 72.7445 2506(52) 0.000367 1762. 2498.
72.7614 72.7483 2828(56) 0.0003190 1762. 2580.
72.7651 72.7520 2815(56) 0.0003241 1761. 2658.
72.7689 72.7558 2865(57) 0.0003114 1761. 2734.
72.7727 72.7596 2829(57) 0.0003025 1761. 2802.
72.7764 72.7633 2985(56) 0.0003136 1761. 2860.
72.7802 72.7671 2872(56) 0.0003167 1761. 2907.
72.7839 72.7708 3012(58) 0.0002940 1761. 2943.
72.7877 72.7746 2940(57) 0.0003050 1761. 2970.
72.7914 72.7783 3003(58) 0.0002988 1761. 2986.
72.7952 72.7821 2970(57) 0.0003042 1761. 2994.
72.7990 72.7859 3140(59) 0.0002863 1761. 2992.
72.8027 72.7896 3053(57) 0.0003129 1761. 2979.
72.8065 72.7934 2921(57) 0.0003113 1761. 2953.
72.8102 72.7971 2925(57) 0.0003096 1761. 2914.
72.8140 72.8009 2920(56) 0.0003170 1761. 2859.
72.8178 72.8047 2720(54) 0.0003479 1761. 2790.
72.8215 72.8084 2667(54) 0.0003437 1761. 2713.
72.8253 72.8122 2495(52) 0.000376 1761. 2627.
72.8290 72.8159 2468(53) 0.000358 1761. 2540.
72.8328 72.8197 2246(51) 0.000387 1761. 2451.
72.8365 72.8234 2277(49) 0.000413 1761. 2367.
72.8403 72.8272 2266(49) 0.000409 1761. 2287.
72.8441 72.8310 2136(50) 0.000405 1761. 2215.
72.8478 72.8347 2019(47) 0.000458 1761. 2153.
72.8516 72.8385 2030(47) 0.000462 1761. 2098.
72.8553 72.8422 1921(45) 0.000488 1761. 2053.
72.8591 72.8460 2030(46) 0.000469 1761. 2016.
72.8628 72.8497 1960(46) 0.000474 1761. 1988.
72.8666 72.8535 2013(46) 0.000466 1761. 1966.
72.8704 72.8573 1924(45) 0.000498 1761. 1950.
72.8741 72.8610 1844(45) 0.000498 1761. 1939.
72.8779 72.8648 1832(44) 0.000516 1761. 1932.
72.8816 72.8685 1804(44) 0.000513 1761. 1928.
72.8854 72.8723 1802(44) 0.000513 1761. 1926.
72.8892 72.8761 1906(45) 0.000497 1761. 1925.
72.8929 72.8798 1882(45) 0.000498 1760. 1926.
72.8967 72.8836 1914(45) 0.000490 1760. 1926.
72.9004 72.8873 1809(43) 0.000529 1760. 1927.
72.9042 72.8911 1864(44) 0.000517 1760. 1929.
72.9079 72.8948 1944(45) 0.000484 1760. 1930.
72.9117 72.8986 1891(45) 0.000494 1760. 1931.
72.9155 72.9024 1842(45) 0.000502 1760. 1932.
72.9192 72.9061 1862(46) 0.000465 1760. 1935.
72.9230 72.9099 1904(45) 0.000487 1760. 1938.
72.9267 72.9136 1985(46) 0.000476 1760. 1943.
72.9305 72.9174 1825(44) 0.000518 1760. 1950.
72.9342 72.9211 1858(44) 0.000515 1760. 1960.
72.9380 72.9249 1872(44) 0.000505 1760. 1975.
72.9418 72.9287 1853(44) 0.000523 1760. 1996.
72.9455 72.9324 1846(44) 0.000508 1760. 2022.
72.9493 72.9362 1882(45) 0.000498 1760. 2056.
72.9530 72.9399 1956(46) 0.000474 1760. 2098.
72.9568 72.9437 2134(48) 0.000441 1760. 2148.
72.9605 72.9474 2023(46) 0.000464 1760. 2205.
72.9643 72.9512 2279(50) 0.000405 1760. 2270.
72.9681 72.9550 2302(50) 0.000401 1760. 2341.
72.9718 72.9587 2478(52) 0.000373 1760. 2413.
72.9756 72.9625 2487(51) 0.000381 1760. 2488.
72.9793 72.9662 2842(56) 0.0003234 1760. 2558.
72.9831 72.9700 2751(55) 0.0003332 1760. 2623.
72.9868 72.9737 2905(55) 0.0003254 1760. 2677.
72.9906 72.9775 2957(57) 0.0003132 1760. 2720.
72.9944 72.9813 3040(58) 0.0002963 1760. 2747.
72.9981 72.9850 2813(55) 0.0003252 1760. 2758.
73.0019 72.9888 2763(54) 0.0003449 1760. 2753.
73.0056 72.9925 2810(55) 0.0003279 1760. 2735.
73.0094 72.9963 2636(54) 0.0003473 1760. 2707.
73.0131 73.0000 2686(54) 0.0003488 1759. 2674.
73.0169 73.0038 2587(53) 0.000358 1759. 2638.
73.0207 73.0076 2547(52) 0.000367 1759. 2602.
73.0244 73.0113 2614(53) 0.000351 1759. 2570.
73.0282 73.0151 2593(53) 0.000356 1759. 2540.
73.0319 73.0188 2747(54) 0.0003389 1759. 2514.
73.0357 73.0226 2581(53) 0.000356 1759. 2488.
73.0394 73.0263 2639(54) 0.0003465 1759. 2462.
73.0432 73.0301 2508(53) 0.000362 1759. 2432.
73.0470 73.0339 2473(52) 0.000377 1759. 2398.
73.0496 73.0365 2576(52) 0.000366 1759. 2371.
73.0533 73.0402 2445(51) 0.000383 1759. 2329.
73.0571 73.0440 2314(49) 0.000409 1759. 2280.
73.0608 73.0477 2160(47) 0.000447 1759. 2231.
73.0646 73.0515 2265(49) 0.000420 1759. 2178.
73.0683 73.0552 2121(47) 0.000447 1759. 2128.
73.0721 73.0590 2158(48) 0.000442 1759. 2078.
73.0759 73.0628 2113(47) 0.000447 1759. 2032.
73.0796 73.0665 2052(46) 0.000472 1759. 1991.
73.0834 73.0703 1959(46) 0.000483 1759. 1954.
73.0871 73.0740 1983(46) 0.000468 1759. 1923.
73.0909 73.0778 1882(44) 0.000509 1759. 1895.
73.0946 73.0815 1840(44) 0.000510 1759. 1874.
73.0984 73.0853 1820(44) 0.000509 1759. 1855.
73.1021 73.0890 1879(45) 0.000497 1759. 1841.
73.1059 73.0928 1736(43) 0.000534 1759. 1830.
73.1096 73.0965 1880(45) 0.000501 1759. 1822.
73.1134 73.1003 1694(42) 0.000559 1759. 1815.
73.1171 73.1040 1862(45) 0.000484 1759. 1810.
73.1209 73.1078 1748(43) 0.000542 1759. 1806.
73.1247 73.1116 1871(45) 0.000494 1759. 1803.
73.1284 73.1153 1771(44) 0.000520 1758. 1801.
73.1322 73.1191 1830(44) 0.000517 1758. 1799.
73.1359 73.1228 1722(43) 0.000538 1758. 1798.
73.1397 73.1266 1738(43) 0.000548 1758. 1796.
73.1434 73.1303 1723(43) 0.000542 1758. 1796.
73.1472 73.1341 1766(43) 0.000532 1758. 1795.
73.1509 73.1378 1663(42) 0.000573 1758. 1794.
73.1547 73.1416 1835(44) 0.000520 1758. 1794.
73.1584 73.1453 1785(43) 0.000539 1758. 1793.
73.1622 73.1491 1840(44) 0.000511 1758. 1793.
73.1659 73.1528 1745(43) 0.000541 1758. 1793.
73.1697 73.1566 1791(44) 0.000525 1758. 1793.
73.1735 73.1604 1742(43) 0.000539 1758. 1793.
73.1772 73.1641 1828(44) 0.000512 1758. 1794.
73.1810 73.1679 1763(44) 0.000514 1758. 1794.
73.1847 73.1716 1829(44) 0.000520 1758. 1795.
73.1885 73.1754 1666(42) 0.000554 1758. 1796.
73.1922 73.1791 1832(44) 0.000509 1758. 1797.
73.1960 73.1829 1727(43) 0.000535 1758. 1799.
73.1997 73.1866 1790(44) 0.000523 1758. 1802.
73.2035 73.1904 1778(44) 0.000514 1758. 1806.
73.2072 73.1941 1791(43) 0.000536 1758. 1811.
73.2110 73.1979 1707(42) 0.000554 1758. 1818.
73.2147 73.2016 1851(45) 0.000499 1758. 1828.
73.2185 73.2054 1793(45) 0.000504 1758. 1841.
73.2223 73.2092 1852(45) 0.000502 1758. 1858.
73.2260 73.2129 1801(44) 0.000508 1758. 1880.
73.2298 73.2167 1849(45) 0.000503 1758. 1908.
73.2335 73.2204 1810(44) 0.000524 1758. 1942.
73.2373 73.2242 1987(46) 0.000475 1758. 1983.
73.2410 73.2279 1918(46) 0.000467 1757. 2030.
73.2448 73.2317 2015(46) 0.000465 1757. 2084.
73.2485 73.2354 2060(47) 0.000450 1757. 2141.
73.2523 73.2392 2326(50) 0.000397 1757. 2203.
73.2560 73.2429 2304(50) 0.000403 1757. 2264.
73.2598 73.2467 2549(52) 0.000364 1757. 2324.
73.2635 73.2504 2567(53) 0.000361 1757. 2377.
73.2673 73.2542 2576(53) 0.000354 1757. 2423.
73.2711 73.2580 2526(52) 0.000374 1757. 2456.
73.2748 73.2617 2544(52) 0.000367 1757. 2473.
73.2786 73.2655 2453(51) 0.000385 1757. 2477.
73.2823 73.2692 2394(50) 0.000396 1757. 2466.
73.2861 73.2730 2259(50) 0.000401 1757. 2444.
73.2898 73.2767 2295(51) 0.000386 1757. 2416.
73.2936 73.2805 2081(48) 0.000440 1757. 2383.
73.2973 73.2842 2233(50) 0.000403 1757. 2352.
73.3011 73.2880 2084(48) 0.000432 1757. 2323.
73.3048 73.2917 2226(49) 0.000417 1757. 2299.
73.3086 73.2955 2191(49) 0.000418 1757. 2282.
73.3124 73.2993 2292(50) 0.000408 1757. 2272.
73.3161 73.3030 2232(49) 0.000414 1757. 2269.
73.3199 73.3068 2262(49) 0.000415 1757. 2271.
73.3236 73.3105 2172(48) 0.000431 1757. 2277.
73.3274 73.3143 2168(49) 0.000425 1757. 2286.
73.3311 73.3180 2186(49) 0.000417 1757. 2295.
73.3349 73.3218 2307(50) 0.000397 1757. 2306.
73.3386 73.3255 2224(49) 0.000421 1757. 2316.
73.3424 73.3293 2193(49) 0.000421 1757. 2327.
73.3461 73.3330 2260(50) 0.000399 1757. 2337.
73.3499 73.3368 2370(51) 0.000384 1757. 2349.
73.3537 73.3406 2357(50) 0.000392 1756. 2361.
73.3574 73.3443 2531(53) 0.000362 1756. 2371.
73.3612 73.3481 2431(52) 0.000365 1756. 2379.
73.3649 73.3518 2411(52) 0.000373 1756. 2383.
73.3687 73.3556 2357(51) 0.000382 1756. 2380.
73.3724 73.3593 2524(52) 0.000367 1756. 2369.
73.3762 73.3631 2385(51) 0.000384 1756. 2349.
73.3799 73.3668 2341(51) 0.000389 1756. 2321.
73.3837 73.3706 2228(48) 0.000425 1756. 2285.
73.3875 73.3744 2207(50) 0.000397 1756. 2245.
73.3912 73.3781 2064(48) 0.000440 1756. 2202.
73.3950 73.3819 2090(48) 0.000433 1756. 2158.
73.3987 73.3856 2051(47) 0.000455 1756. 2115.
73.4025 73.3894 2046(47) 0.000448 1756. 2073.
73.4062 73.3931 1853(45) 0.000492 1756. 2035.
73.4100 73.3969 2006(47) 0.000446 1756. 1999.
73.4137 73.4006 1934(46) 0.000472 1756. 1968.
73.4175 73.4044 1922(46) 0.000465 1756. 1940.
73.4212 73.4081 1919(47) 0.000462 1756. 1916.
73.4250 73.4119 1902(46) 0.000470 1756. 1895.
73.4288 73.4157 1761(45) 0.000502 1756. 1878.
73.4325 73.4194 1879(46) 0.000478 1756. 1864.
73.4363 73.4232 1841(45) 0.000492 1756. 1852.
73.4400 73.4269 1819(44) 0.000510 1756. 1843.
73.4438 73.4307 1809(45) 0.000491 1756. 1837.
73.4513 73.4382 1866(45) 0.000495 1756. 1830.
73.4550 73.4419 1932(46) 0.000468 1756. 1830.
73.4588 73.4457 1840(45) 0.000490 1756. 1832.
73.4626 73.4495 1916(46) 0.000468 1755. 1838.
73.4663 73.4532 1897(46) 0.000475 1755. 1846.
73.4701 73.4570 1947(47) 0.000457 1755. 1858.
73.4738 73.4607 1865(46) 0.000475 1755. 1873.
73.4776 73.4645 1915(46) 0.000463 1755. 1895.
73.4813 73.4682 1952(47) 0.000462 1755. 1920.
73.4851 73.4720 1964(47) 0.000458 1755. 1953.
73.4888 73.4757 1982(47) 0.000456 1755. 1990.
73.4926 73.4795 2133(48) 0.000429 1755. 2034.
73.4964 73.4833 2172(49) 0.000421 1755. 2082.
73.5001 73.4870 2284(51) 0.000389 1755. 2133.
73.5039 73.4908 2320(52) 0.000368 1755. 2187.
73.5076 73.4945 2543(52) 0.000365 1755. 2240.
73.5114 73.4983 2467(51) 0.000379 1755. 2290.
73.5151 73.5020 2676(53) 0.000361 1755. 2333.
73.5189 73.5058 2569(52) 0.000369 1755. 2368.
73.5226 73.5095 2593(53) 0.000353 1755. 2389.
73.5264 73.5133 2418(50) 0.000396 1755. 2396.
73.5302 73.5171 2437(51) 0.000389 1755. 2387.
73.5339 73.5208 2361(50) 0.000407 1755. 2364.
73.5377 73.5246 2297(49) 0.000422 1755. 2329.
73.5414 73.5283 2243(48) 0.000431 1755. 2286.
73.5452 73.5321 2241(49) 0.000420 1755. 2236.
73.5489 73.5358 2137(47) 0.000448 1755. 2185.
73.5527 73.5396 2061(47) 0.000462 1755. 2132.
73.5564 73.5433 1964(46) 0.000481 1755. 2083.
73.5602 73.5471 2004(46) 0.000480 1755. 2037.
73.5640 73.5509 1963(46) 0.000471 1755. 1996.
73.5677 73.5546 2040(46) 0.000462 1754. 1963.
73.5715 73.5584 1911(45) 0.000505 1754. 1936.
73.5752 73.5621 1871(44) 0.000507 1754. 1917.
73.5790 73.5659 1762(43) 0.000529 1754. 1905.
73.5827 73.5696 1884(45) 0.000500 1754. 1901.
73.5865 73.5734 1917(45) 0.000487 1754. 1904.
73.5902 73.5771 1926(45) 0.000492 1754. 1914.
73.5940 73.5809 1931(45) 0.000494 1754. 1932.
73.5978 73.5847 1902(45) 0.000485 1754. 1958.
73.6015 73.5884 1930(45) 0.000484 1754. 1991.
73.6053 73.5922 1949(46) 0.000471 1754. 2032.
73.6090 73.5959 2054(47) 0.000447 1754. 2079.
73.6128 73.5997 2261(49) 0.000423 1754. 2132.
73.6165 73.6034 2211(48) 0.000427 1754. 2188.
73.6203 73.6072 2366(50) 0.000398 1754. 2248.
73.6240 73.6109 2357(50) 0.000394 1754. 2306.
73.6278 73.6147 2514(52) 0.000372 1754. 2362.
73.6316 73.6185 2484(51) 0.000382 1754. 2411.
73.6353 73.6222 2705(54) 0.0003373 1754. 2448.
73.6391 73.6260 2466(51) 0.000388 1754. 2473.
73.6428 73.6297 2548(53) 0.000360 1754. 2482.
73.6466 73.6335 2440(50) 0.000392 1754. 2475.
73.6503 73.6372 2450(51) 0.000380 1754. 2453.
73.6541 73.6410 2383(50) 0.000393 1754. 2418.
73.6579 73.6448 2298(50) 0.000406 1754. 2374.
73.6616 73.6485 2212(48) 0.000435 1754. 2326.
73.6654 73.6523 2214(49) 0.000425 1754. 2275.
73.6691 73.6560 2209(49) 0.000416 1754. 2229.
73.6729 73.6598 2141(48) 0.000438 1754. 2186.
73.6766 73.6635 2095(48) 0.000442 1753. 2151.
73.6804 73.6673 2115(47) 0.000453 1753. 2125.
73.6841 73.6710 2128(48) 0.000434 1753. 2108.
73.6879 73.6748 2165(48) 0.000431 1753. 2101.
73.6917 73.6786 2095(48) 0.000433 1753. 2104.
73.6954 73.6823 2173(48) 0.000441 1753. 2116.
73.6992 73.6861 2132(48) 0.000430 1753. 2135.
73.7029 73.6898 2249(50) 0.000405 1753. 2159.
73.7067 73.6936 2337(50) 0.000408 1753. 2188.
73.7104 73.6973 2316(50) 0.000404 1753. 2219.
73.7142 73.7011 2475(51) 0.000389 1753. 2250.
73.7180 73.7049 2510(52) 0.000366 1753. 2280.
73.7217 73.7086 2465(52) 0.000374 1753. 2306.
73.7255 73.7124 2437(52) 0.000375 1753. 2328.
73.7292 73.7161 2476(52) 0.000370 1753. 2345.
73.7330 73.7199 2457(51) 0.000380 1753. 2357.
73.7367 73.7236 2335(49) 0.000412 1753. 2365.
73.7405 73.7274 2410(51) 0.000386 1753. 2371.
73.7442 73.7311 2246(50) 0.000406 1753. 2377.
73.7480 73.7349 2362(51) 0.000385 1753. 2385.
73.7518 73.7387 2314(50) 0.000403 1753. 2396.
73.7555 73.7424 2467(51) 0.000378 1753. 2410.
73.7593 73.7462 2515(52) 0.000368 1753. 2429.
73.7630 73.7499 2553(52) 0.000368 1753. 2449.
73.7668 73.7537 2626(53) 0.000357 1753. 2469.
73.7705 73.7574 2781(54) 0.0003397 1753. 2486.
73.7743 73.7612 2613(53) 0.000362 1753. 2498.
73.7781 73.7650 2647(53) 0.000357 1753. 2500.
73.7818 73.7687 2571(52) 0.000364 1752. 2491.
73.7856 73.7725 2505(51) 0.000378 1752. 2468.
73.7893 73.7762 2455(51) 0.000379 1752. 2434.
73.7931 73.7800 2343(51) 0.000384 1752. 2388.
73.7968 73.7837 2230(48) 0.000436 1752. 2336.
73.8006 73.7875 2171(48) 0.000429 1752. 2279.
73.8044 73.7913 2246(50) 0.000405 1752. 2219.
73.8081 73.7950 2145(48) 0.000443 1752. 2162.
73.8119 73.7988 2076(48) 0.000433 1752. 2107.
73.8156 73.8025 2097(47) 0.000455 1752. 2058.
73.8194 73.8063 1963(46) 0.000472 1752. 2013.
73.8231 73.8100 1948(45) 0.000486 1752. 1976.
73.8269 73.8138 2021(46) 0.000463 1752. 1945.
73.8307 73.8176 2039(48) 0.000443 1752. 1920.
73.8344 73.8213 1959(46) 0.000464 1752. 1902.
73.8382 73.8251 1926(45) 0.000502 1752. 1888.
73.8419 73.8288 1879(45) 0.000501 1752. 1879.
73.8457 73.8326 1952(46) 0.000463 1752. 1872.
73.8494 73.8363 1847(44) 0.000505 1752. 1868.
73.8532 73.8401 1956(45) 0.000489 1752. 1864.
73.8569 73.8438 1859(45) 0.000499 1752. 1861.
73.8607 73.8476 1928(46) 0.000482 1752. 1858.
73.8645 73.8514 1823(44) 0.000508 1752. 1853.
73.8682 73.8551 1800(45) 0.000505 1752. 1849.
73.8720 73.8589 1802(44) 0.000522 1752. 1843.
73.8757 73.8626 1901(46) 0.000480 1752. 1836.
73.8795 73.8664 1735(43) 0.000554 1752. 1829.
73.8832 73.8701 1773(43) 0.000529 1752. 1823.
73.8870 73.8739 1805(44) 0.000507 1751. 1816.
73.8908 73.8777 1888(45) 0.000487 1751. 1810.
73.8945 73.8814 1720(43) 0.000529 1751. 1804.
73.8983 73.8852 1833(44) 0.000519 1751. 1799.
73.9020 73.8889 1727(43) 0.000530 1751. 1795.
73.9058 73.8927 1822(44) 0.000506 1751. 1791.
73.9095 73.8964 1650(42) 0.000559 1751. 1788.
73.9133 73.9002 1881(46) 0.000473 1751. 1786.
73.9171 73.9040 1728(43) 0.000535 1751. 1785.
73.9208 73.9077 1878(45) 0.000487 1751. 1784.
73.9246 73.9115 1736(44) 0.000527 1751. 1783.
73.9283 73.9152 1812(44) 0.000509 1751. 1783.
73.9321 73.9190 1725(43) 0.000539 1751. 1783.
73.9358 73.9227 1804(45) 0.000505 1751. 1783.
73.9396 73.9265 1717(43) 0.000533 1751. 1784.
73.9434 73.9303 1776(44) 0.000508 1751. 1785.
73.9471 73.9340 1764(43) 0.000541 1751. 1786.
73.9509 73.9378 1848(45) 0.000493 1751. 1788.
73.9546 73.9415 1758(44) 0.000512 1751. 1791.
73.9584 73.9453 1806(45) 0.000503 1751. 1794.
73.9621 73.9490 1751(44) 0.000524 1751. 1799.
73.9659 73.9528 1792(44) 0.000512 1751. 1806.
73.9697 73.9566 1762(44) 0.000512 1751. 1815.
73.9734 73.9603 1839(45) 0.000492 1751. 1828.
73.9772 73.9641 1765(44) 0.000513 1751. 1846.
73.9809 73.9678 1874(46) 0.000481 1751. 1868.
73.9847 73.9716 1875(46) 0.000475 1751. 1898.
73.9884 73.9753 1957(45) 0.000487 1750. 1935.
73.9922 73.9791 1928(45) 0.000499 1750. 1983.
73.9960 73.9829 1987(45) 0.000487 1750. 2040.
73.9997 73.9866 1944(45) 0.000495 1750. 2106.
74.0035 73.9904 2180(48) 0.000434 1750. 2185.
74.0072 73.9941 2272(49) 0.000413 1750. 2269.
74.0110 73.9979 2457(51) 0.000387 1750. 2361.
74.0148 74.0017 2578(53) 0.000361 1750. 2457.
74.0185 74.0054 2949(56) 0.0003137 1750. 2549.
74.0223 74.0092 2840(55) 0.0003361 1750. 2637.
74.0260 74.0129 3175(58) 0.0002955 1750. 2711.
74.0298 74.0167 3112(57) 0.0003026 1750. 2769.
74.0335 74.0204 3153(59) 0.0002906 1750. 2804.
74.0373 74.0242 3001(56) 0.0003175 1750. 2814.
74.0411 74.0280 2918(56) 0.0003161 1750. 2796.
74.0448 74.0317 2734(54) 0.0003387 1750. 2755.
74.0486 74.0355 2755(55) 0.0003354 1750. 2690.
74.0523 74.0392 2584(53) 0.000357 1750. 2612.
74.0561 74.0430 2435(51) 0.000391 1750. 2521.
74.0598 74.0467 2364(50) 0.000399 1750. 2428.
74.0636 74.0505 2388(50) 0.000397 1750. 2332.
74.0674 74.0543 2100(47) 0.000446 1750. 2242.
74.0711 74.0580 2194(49) 0.000417 1750. 2160.
74.0749 74.0618 2101(47) 0.000444 1750. 2086.
74.0786 74.0655 2020(47) 0.000456 1750. 2024.
74.0824 74.0693 1946(45) 0.000485 1750. 1971.
74.0861 74.0730 1966(46) 0.000477 1750. 1929.
74.0899 74.0768 1936(45) 0.000495 1750. 1896.
74.0937 74.0806 1933(45) 0.000484 1749. 1870.
74.0974 74.0843 1807(44) 0.000508 1749. 1852.
74.1012 74.0881 1868(45) 0.000505 1749. 1838.
74.1049 74.0918 1788(45) 0.000503 1749. 1829.
74.1087 74.0956 1859(45) 0.000504 1749. 1823.
74.1124 74.0993 1681(42) 0.000556 1749. 1818.
74.1162 74.1031 1843(44) 0.000511 1749. 1816.
74.1200 74.1069 1866(44) 0.000508 1749. 1813.
74.1237 74.1106 1836(43) 0.000530 1749. 1812.
74.1275 74.1144 1691(43) 0.000547 1749. 1810.
74.1312 74.1181 1842(45) 0.000498 1749. 1808.
74.1350 74.1219 1755(44) 0.000528 1749. 1806.
74.1388 74.1257 1838(44) 0.000528 1749. 1804.
74.1425 74.1294 1746(43) 0.000540 1749. 1801.
74.1463 74.1332 1848(45) 0.000492 1749. 1799.
74.1500 74.1369 1803(43) 0.000542 1749. 1798.
74.1538 74.1407 1744(44) 0.000528 1749. 1796.
74.1575 74.1444 1837(44) 0.000512 1749. 1796.
74.1613 74.1482 1796(43) 0.000535 1749. 1796.
74.1651 74.1520 1750(43) 0.000539 1749. 1796.
74.1688 74.1557 1775(43) 0.000537 1749. 1797.
74.1726 74.1595 1806(44) 0.000526 1749. 1798.
74.1763 74.1632 1851(44) 0.000505 1749. 1800.
74.1801 74.1670 1732(43) 0.000533 1749. 1802.
74.1838 74.1707 1825(44) 0.000505 1749. 1803.
74.1876 74.1745 1782(43) 0.000530 1749. 1804.
74.1914 74.1783 1868(44) 0.000515 1749. 1805.
74.1951 74.1820 1816(44) 0.000510 1749. 1804.
74.1989 74.1858 1861(44) 0.000510 1749. 1803.
74.2026 74.1895 1789(44) 0.000523 1748. 1801.
74.2064 74.1933 1712(42) 0.000557 1748. 1799.
74.2102 74.1971 1754(43) 0.000531 1748. 1796.
74.2139 74.2008 1811(43) 0.000532 1748. 1793.
74.2177 74.2046 1776(43) 0.000535 1748. 1790.
74.2214 74.2083 1740(43) 0.000548 1748. 1787.
74.2252 74.2121 1748(43) 0.000546 1748. 1784.
74.2289 74.2158 1822(44) 0.000519 1748. 1782.
74.2327 74.2196 1643(41) 0.000582 1748. 1780.
74.2365 74.2234 1739(42) 0.000563 1748. 1778.
74.2402 74.2271 1719(42) 0.000561 1748. 1777.
74.2440 74.2309 1754(44) 0.000528 1748. 1777.
74.2477 74.2346 1690(42) 0.000559 1748. 1777.
74.2515 74.2384 1669(41) 0.000583 1748. 1778.
74.2552 74.2421 1735(43) 0.000544 1748. 1780.
74.2590 74.2459 1769(43) 0.000535 1748. 1782.
74.2628 74.2497 1811(44) 0.000514 1748. 1785.
74.2665 74.2534 1786(43) 0.000530 1748. 1789.
74.2703 74.2572 1759(43) 0.000537 1748. 1794.
74.2740 74.2609 1764(44) 0.000525 1748. 1799.
74.2778 74.2647 1775(44) 0.000527 1748. 1805.
74.2816 74.2685 1862(45) 0.000501 1748. 1812.
74.2853 74.2722 1808(44) 0.000526 1748. 1818.
74.2891 74.2760 1787(44) 0.000527 1748. 1826.
74.2928 74.2797 1714(42) 0.000561 1748. 1833.
74.2966 74.2835 1724(43) 0.000549 1748. 1841.
74.3003 74.2872 1744(43) 0.000549 1748. 1849.
74.3041 74.2910 1765(44) 0.000524 1748. 1858.
74.3079 74.2948 1780(43) 0.000541 1747. 1868.
74.3116 74.2985 1886(45) 0.000498 1747. 1880.
74.3154 74.3023 1805(44) 0.000518 1747. 1895.
74.3191 74.3060 1874(45) 0.000504 1747. 1913.
74.3229 74.3098 1932(46) 0.000482 1747. 1937.
74.3267 74.3136 1955(46) 0.000474 1747. 1967.
74.3304 74.3173 1905(45) 0.000493 1747. 2003.
74.3342 74.3211 2020(47) 0.000455 1747. 2046.
74.3379 74.3248 2050(47) 0.000457 1747. 2094.
74.3417 74.3286 2179(48) 0.000439 1747. 2148.
74.3454 74.3323 2309(50) 0.000403 1747. 2205.
74.3492 74.3361 2426(51) 0.000388 1747. 2264.
74.3530 74.3399 2395(50) 0.000397 1747. 2321.
74.3567 74.3436 2619(53) 0.000360 1747. 2371.
74.3605 74.3474 2721(54) 0.0003482 1747. 2414.
74.3642 74.3511 2735(54) 0.0003407 1747. 2443.
74.3680 74.3549 2563(52) 0.000364 1747. 2457.
74.3718 74.3587 2629(53) 0.000352 1747. 2455.
74.3755 74.3624 2422(51) 0.000390 1747. 2437.
74.3793 74.3662 2469(52) 0.000370 1747. 2405.
74.3830 74.3699 2282(49) 0.000409 1747. 2363.
74.3868 74.3737 2212(48) 0.000428 1747. 2314.
74.3905 74.3774 2127(48) 0.000431 1747. 2263.
74.3943 74.3812 2254(49) 0.000418 1747. 2211.
74.3981 74.3850 2092(47) 0.000448 1747. 2164.
74.4018 74.3887 1956(46) 0.000474 1747. 2125.
74.4056 74.3925 1976(46) 0.000474 1747. 2093.
74.4093 74.3962 2043(47) 0.000462 1747. 2072.
74.4131 74.4000 2007(45) 0.000491 1747. 2061.
74.4169 74.4038 1949(46) 0.000482 1747. 2061.
74.4206 74.4075 2039(47) 0.000454 1746. 2071.
74.4244 74.4113 2078(47) 0.000458 1746. 2091.
74.4281 74.4150 2124(47) 0.000447 1746. 2118.
74.4319 74.4188 2253(49) 0.000420 1746. 2151.
74.4357 74.4226 2307(49) 0.000413 1746. 2187.
74.4394 74.4263 2423(51) 0.000387 1746. 2222.
74.4432 74.4301 2403(51) 0.000390 1746. 2257.
74.4469 74.4338 2524(52) 0.000371 1746. 2284.
74.4507 74.4376 2419(51) 0.000382 1746. 2304.
74.4544 74.4413 2455(52) 0.000377 1746. 2313.
74.4582 74.4451 2358(50) 0.000398 1746. 2310.
74.4620 74.4489 2325(50) 0.000407 1746. 2294.
74.4657 74.4526 2191(49) 0.000425 1746. 2268.
74.4695 74.4564 2214(48) 0.000429 1746. 2233.
74.4732 74.4601 2198(48) 0.000429 1746. 2192.
74.4770 74.4639 2225(48) 0.000435 1746. 2146.
74.4808 74.4677 1973(45) 0.000487 1746. 2100.
74.4845 74.4714 2072(47) 0.000462 1746. 2055.
74.4883 74.4752 2032(46) 0.000477 1746. 2011.
74.4920 74.4789 1872(44) 0.000516 1746. 1973.
74.4958 74.4827 1982(45) 0.000486 1746. 1937.
74.4995 74.4864 1896(45) 0.000502 1746. 1908.
74.5033 74.4902 1872(44) 0.000509 1746. 1882.
74.5071 74.4940 1845(44) 0.000517 1746. 1861.
74.5108 74.4977 1762(43) 0.000551 1746. 1845.
74.5146 74.5015 1854(44) 0.000522 1746. 1832.
74.5183 74.5052 1797(43) 0.000537 1746. 1823.
74.5221 74.5090 1789(43) 0.000536 1746. 1816.
74.5259 74.5128 1832(43) 0.000538 1746. 1812.
74.5296 74.5165 1758(43) 0.000536 1746. 1809.
74.5334 74.5203 1734(43) 0.000538 1745. 1808.
74.5371 74.5240 1815(44) 0.000526 1745. 1807.
74.5409 74.5278 1760(42) 0.000563 1745. 1808.
74.5447 74.5316 1786(44) 0.000527 1745. 1809.
74.5484 74.5353 1822(43) 0.000529 1745. 1811.
74.5522 74.5391 1898(44) 0.000505 1745. 1814.
74.5559 74.5428 1799(43) 0.000552 1745. 1818.
74.5597 74.5466 1750(43) 0.000543 1745. 1823.
74.5634 74.5503 1834(44) 0.000522 1745. 1829.
74.5672 74.5541 1805(44) 0.000517 1745. 1837.
74.5710 74.5579 1749(43) 0.000546 1745. 1847.
74.5747 74.5616 1852(44) 0.000518 1745. 1859.
74.5785 74.5654 1806(44) 0.000521 1745. 1872.
74.5822 74.5691 1931(46) 0.000479 1745. 1887.
74.5860 74.5729 1863(44) 0.000516 1745. 1903.
74.5898 74.5767 1924(45) 0.000494 1745. 1919.
74.5935 74.5804 1842(44) 0.000516 1745. 1935.
74.5973 74.5842 1847(44) 0.000524 1745. 1950.
74.6010 74.5879 1916(45) 0.000496 1745. 1963.
74.6048 74.5917 1948(46) 0.000482 1745. 1973.
74.6086 74.5955 1874(44) 0.000510 1745. 1980.
74.6123 74.5992 1942(45) 0.000484 1745. 1982.
74.6161 74.6030 1899(44) 0.000512 1745. 1980.
74.6198 74.6067 1964(45) 0.000487 1745. 1975.
74.6236 74.6105 1912(45) 0.000486 1745. 1966.
74.6274 74.6143 1928(45) 0.000490 1745. 1955.
74.6311 74.6180 1811(43) 0.000532 1745. 1942.
74.6349 74.6218 1935(45) 0.000492 1745. 1929.
74.6386 74.6255 1829(44) 0.000519 1745. 1916.
74.6424 74.6293 1876(44) 0.000509 1745. 1904.
74.6461 74.6330 1867(45) 0.000494 1745. 1894.
74.6499 74.6368 1924(45) 0.000497 1745. 1886.
74.6537 74.6406 1831(44) 0.000521 1744. 1882.
74.6574 74.6443 1872(44) 0.000510 1744. 1881.
74.6612 74.6481 1820(44) 0.000508 1744. 1885.
74.6649 74.6518 1980(46) 0.000479 1744. 1893.
74.6687 74.6556 1843(44) 0.000516 1744. 1907.
74.6725 74.6594 1930(46) 0.000481 1744. 1926.
74.6762 74.6631 1883(45) 0.000497 1744. 1951.
74.6800 74.6669 2010(46) 0.000472 1744. 1983.
74.6837 74.6706 2030(47) 0.000458 1744. 2019.
74.6875 74.6744 2062(47) 0.000455 1744. 2062.
74.6913 74.6782 2112(47) 0.000450 1744. 2111.
74.6950 74.6819 2188(48) 0.000437 1744. 2163.
74.6988 74.6857 2287(49) 0.000416 1744. 2219.
74.7025 74.6894 2379(50) 0.000394 1744. 2276.
74.7063 74.6932 2406(51) 0.000390 1744. 2335.
74.7101 74.6970 2526(52) 0.000376 1744. 2391.
74.7138 74.7007 2585(52) 0.000363 1744. 2441.
74.7176 74.7045 2637(52) 0.000376 1744. 2486.
74.7213 74.7082 2581(53) 0.000360 1744. 2521.
74.7251 74.7120 2627(53) 0.000355 1744. 2549.
74.7288 74.7157 2573(51) 0.000378 1744. 2566.
74.7326 74.7195 2608(52) 0.000365 1744. 2574.
74.7364 74.7233 2538(51) 0.000379 1744. 2573.
74.7401 74.7270 2588(52) 0.000372 1744. 2563.
74.7439 74.7308 2417(51) 0.000386 1744. 2545.
74.7476 74.7345 2558(53) 0.000360 1744. 2521.
74.7514 74.7383 2413(50) 0.000395 1744. 2490.
74.7552 74.7421 2470(51) 0.000386 1744. 2454.
74.7589 74.7458 2327(49) 0.000410 1744. 2415.
74.7627 74.7496 2264(49) 0.000421 1744. 2372.
74.7664 74.7533 2105(47) 0.000448 1744. 2330.
74.7702 74.7571 2162(48) 0.000439 1744. 2288.
74.7740 74.7609 2152(48) 0.000436 1744. 2248.
74.7777 74.7646 2193(48) 0.000432 1744. 2216.
74.7815 74.7684 2084(47) 0.000449 1743. 2190.
74.7852 74.7721 2103(48) 0.000440 1743. 2175.
74.7890 74.7759 2098(47) 0.000446 1743. 2172.
74.7928 74.7797 2118(48) 0.000441 1743. 2184.
74.7965 74.7834 2130(48) 0.000433 1743. 2210.
74.8003 74.7872 2146(47) 0.000448 1743. 2254.
74.8040 74.7909 2260(49) 0.000411 1743. 2312.
74.8078 74.7947 2344(49) 0.000409 1743. 2389.
74.8115 74.7984 2468(51) 0.000378 1743. 2478.
74.8153 74.8022 2664(53) 0.000351 1743. 2580.
74.8191 74.8060 2744(55) 0.0003342 1743. 2692.
74.8228 74.8097 3145(57) 0.0003040 1743. 2803.
74.8266 74.8135 3279(59) 0.0002869 1743. 2915.
74.8303 74.8172 3448(61) 0.0002662 1743. 3016.
74.8341 74.8210 3543(61) 0.0002701 1743. 3103.
74.8379 74.8248 3632(62) 0.0002609 1743. 3168.
74.8416 74.8285 3577(62) 0.0002643 1743. 3205.
74.8454 74.8323 3654(64) 0.0002436 1743. 3213.
74.8491 74.8360 3346(60) 0.0002821 1743. 3191.
74.8529 74.8398 3303(60) 0.0002808 1743. 3139.
74.8567 74.8436 2913(55) 0.0003260 1743. 3063.
74.8604 74.8473 3101(58) 0.0002983 1743. 2971.
74.8642 74.8511 2782(55) 0.0003350 1743. 2865.
74.8679 74.8548 2723(53) 0.000353 1743. 2756.
74.8717 74.8586 2523(51) 0.000378 1743. 2646.
74.8755 74.8624 2506(51) 0.000379 1743. 2543.
74.8792 74.8661 2378(50) 0.000392 1743. 2452.
74.8830 74.8699 2318(50) 0.000408 1743. 2373.
74.8867 74.8736 2280(49) 0.000417 1743. 2312.
74.8905 74.8774 2335(49) 0.000412 1743. 2265.
74.8943 74.8812 2208(49) 0.000422 1743. 2235.
74.8980 74.8849 2361(49) 0.000410 1743. 2221.
74.9018 74.8887 2185(49) 0.000421 1743. 2221.
74.9055 74.8924 2288(49) 0.000412 1743. 2232.
74.9093 74.8962 2361(50) 0.000399 1743. 2252.
74.9131 74.9000 2438(50) 0.000395 1743. 2279.
74.9168 74.9037 2472(51) 0.000380 1743. 2309.
74.9206 74.9075 2553(52) 0.000366 1742. 2340.
74.9243 74.9112 2549(52) 0.000368 1742. 2368.
74.9281 74.9150 2490(52) 0.000371 1742. 2392.
74.9318 74.9187 2426(51) 0.000380 1742. 2410.
74.9356 74.9225 2382(50) 0.000400 1742. 2422.
74.9394 74.9263 2350(50) 0.000404 1742. 2430.
74.9431 74.9300 2367(50) 0.000403 1742. 2434.
74.9469 74.9338 2269(50) 0.000400 1742. 2438.
74.9506 74.9375 2260(49) 0.000409 1742. 2444.
74.9544 74.9413 2459(51) 0.000391 1742. 2454.
74.9582 74.9451 2500(51) 0.000382 1742. 2470.
74.9619 74.9488 2497(51) 0.000378 1742. 2491.
74.9657 74.9526 2663(54) 0.0003462 1742. 2519.
74.9694 74.9563 2583(52) 0.000365 1742. 2551.
74.9732 74.9601 2791(54) 0.0003404 1742. 2588.
74.9770 74.9639 2769(54) 0.0003449 1742. 2627.
74.9807 74.9676 2967(56) 0.0003189 1742. 2664.
74.9845 74.9714 2902(56) 0.0003206 1742. 2698.
74.9882 74.9751 2901(56) 0.0003236 1742. 2727.
74.9920 74.9789 2788(55) 0.0003297 1742. 2751.
74.9958 74.9827 2860(55) 0.0003358 1742. 2768.
74.9995 74.9864 2978(56) 0.0003146 1742. 2779.
75.0033 74.9902 3141(58) 0.0002944 1742. 2785.
75.0070 74.9939 3000(56) 0.0003137 1742. 2785.
75.0108 74.9977 3114(58) 0.0003011 1742. 2779.
75.0146 75.0015 3018(57) 0.0003112 1742. 2764.
75.0183 75.0052 3004(56) 0.0003162 1742. 2741.
75.0221 75.0090 3019(56) 0.0003144 1742. 2707.
75.0258 75.0127 2891(56) 0.0003246 1742. 2662.
75.0296 75.0165 2769(55) 0.0003325 1742. 2605.
75.0334 75.0203 2662(53) 0.000359 1742. 2541.
75.0371 75.0240 2511(51) 0.000381 1742. 2473.
75.0409 75.0278 2397(50) 0.000403 1742. 2401.
75.0446 75.0315 2248(50) 0.000399 1742. 2332.
75.0484 75.0353 2272(49) 0.000410 1742. 2266.
75.0522 75.0391 2219(48) 0.000431 1742. 2207.
75.0559 75.0428 2194(48) 0.000430 1742. 2157.
75.0597 75.0466 2097(47) 0.000455 1742. 2116.
75.0634 75.0503 2108(47) 0.000448 1742. 2087.
75.0672 75.0541 2140(48) 0.000437 1742. 2067.
75.0710 75.0579 2053(46) 0.000464 1742. 2058.
75.0747 75.0616 2131(48) 0.000433 1742. 2059.
75.0785 75.0654 2104(47) 0.000461 1742. 2068.
75.0822 75.0691 2071(47) 0.000452 1742. 2083.
75.0860 75.0729 2088(47) 0.000454 1742. 2102.
75.0898 75.0767 2220(49) 0.000424 1742. 2124.
75.0935 75.0804 2260(49) 0.000421 1741. 2145.
75.0973 75.0842 2135(48) 0.000441 1741. 2164.
75.1010 75.0879 2278(49) 0.000414 1741. 2177.
75.1048 75.0917 2142(47) 0.000443 1741. 2184.
75.1085 75.0954 2193(48) 0.000428 1741. 2183.
75.1123 75.0992 2085(47) 0.000453 1741. 2173.
75.1161 75.1030 2162(48) 0.000435 1741. 2156.
75.1198 75.1067 1980(46) 0.000472 1741. 2133.
75.1236 75.1105 2047(46) 0.000472 1741. 2104.
75.1273 75.1142 1952(46) 0.000480 1741. 2074.
75.1311 75.1180 1986(47) 0.000462 1741. 2043.
75.1349 75.1218 1937(45) 0.000502 1741. 2012.
75.1386 75.1255 1853(44) 0.000507 1741. 1984.
75.1424 75.1293 1927(45) 0.000492 1741. 1959.
75.1461 75.1330 1985(47) 0.000455 1741. 1939.
75.1499 75.1368 1879(44) 0.000506 1741. 1924.
75.1537 75.1406 1880(45) 0.000496 1741. 1914.
75.1574 75.1443 1888(45) 0.000502 1741. 1910.
75.1612 75.1481 1900(45) 0.000489 1741. 1911.
75.1649 75.1518 1834(44) 0.000511 1741. 1918.
75.1687 75.1556 1866(45) 0.000502 1741. 1930.
75.1725 75.1594 1829(44) 0.000523 1741. 1946.
75.1762 75.1631 1946(45) 0.000485 1741. 1965.
75.1800 75.1669 1989(45) 0.000487 1741. 1988.
75.1837 75.1706 2003(46) 0.000466 1741. 2010.
75.1875 75.1744 2076(47) 0.000457 1741. 2034.
75.1913 75.1782 2080(48) 0.000437 1741. 2056.
75.1950 75.1819 1988(46) 0.000479 1741. 2076.
75.1988 75.1857 2012(47) 0.000456 1741. 2093.
75.2025 75.1894 1981(46) 0.000467 1741. 2108.
75.2063 75.1932 2059(47) 0.000459 1741. 2120.
75.2101 75.1970 1963(45) 0.000486 1741. 2131.
75.2138 75.2007 2067(47) 0.000446 1741. 2143.
75.2176 75.2045 2041(46) 0.000472 1741. 2159.
75.2213 75.2082 2036(46) 0.000466 1741. 2181.
75.2251 75.2120 2123(48) 0.000433 1741. 2212.
75.2289 75.2158 2271(49) 0.000411 1741. 2253.
75.2326 75.2195 2210(48) 0.000436 1741. 2304.
75.2364 75.2233 2319(51) 0.000391 1741. 2369.
75.2401 75.2270 2475(51) 0.000383 1741. 2444.
75.2439 75.2308 2738(55) 0.0003283 1741. 2531.
75.2477 75.2346 2800(56) 0.0003245 1741. 2624.
75.2514 75.2383 2979(56) 0.0003179 1741. 2717.
75.2552 75.2421 3260(59) 0.0002886 1741. 2811.
75.2589 75.2458 3334(60) 0.0002738 1741. 2893.
75.2627 75.2496 3263(60) 0.0002796 1741. 2963.
75.2665 75.2534 3431(61) 0.0002667 1741. 3012.
75.2702 75.2571 3404(60) 0.0002765 1741. 3036.
75.2740 75.2609 3311(60) 0.0002787 1741. 3033.
75.2777 75.2646 3140(58) 0.0002988 1741. 3003.
75.2815 75.2684 2989(57) 0.0003122 1741. 2947.
75.2853 75.2722 2878(56) 0.0003228 1741. 2869.
75.2890 75.2759 2772(55) 0.0003319 1741. 2777.
75.2928 75.2797 2609(53) 0.000358 1741. 2672.
75.2965 75.2834 2485(52) 0.000370 1741. 2565.
75.3003 75.2872 2333(50) 0.000393 1741. 2455.
75.3041 75.2910 2242(49) 0.000419 1741. 2350.
75.3078 75.2947 2098(48) 0.000432 1741. 2255.
75.3116 75.2985 2212(49) 0.000422 1741. 2167.
75.3153 75.3022 2139(48) 0.000439 1741. 2092.
75.3191 75.3060 2017(46) 0.000483 1741. 2026.
75.3228 75.3097 1948(46) 0.000467 1741. 1972.
75.3266 75.3135 1921(46) 0.000471 1741. 1927.
75.3304 75.3173 1902(45) 0.000484 1741. 1892.
75.3341 75.3210 1860(44) 0.000509 1741. 1865.
75.3379 75.3248 1845(44) 0.000513 1741. 1844.
75.3416 75.3285 1817(43) 0.000530 1741. 1828.
75.3454 75.3323 1847(45) 0.000490 1741. 1817.
75.3492 75.3361 1856(44) 0.000508 1741. 1809.
75.3529 75.3398 1834(44) 0.000517 1741. 1803.
75.3567 75.3436 1896(45) 0.000492 1741. 1799.
75.3604 75.3473 1807(44) 0.000517 1741. 1797.
75.3642 75.3511 1819(45) 0.000505 1741. 1795.
75.3680 75.3549 1765(43) 0.000532 1741. 1795.
75.3717 75.3586 1863(45) 0.000488 1741. 1795.
75.3755 75.3624 1791(43) 0.000531 1741. 1796.
75.3792 75.3661 1805(44) 0.000514 1741. 1798.
75.3830 75.3699 1781(44) 0.000523 1740. 1800.
75.3868 75.3737 1832(44) 0.000513 1740. 1803.
75.3905 75.3774 1736(43) 0.000532 1740. 1807.
75.3943 75.3812 1769(44) 0.000518 1740. 1813.
75.3980 75.3849 1680(43) 0.000549 1740. 1819.
75.4018 75.3887 1827(45) 0.000499 1740. 1828.
75.4056 75.3925 1750(44) 0.000520 1740. 1838.
75.4093 75.3962 1777(44) 0.000518 1740. 1850.
75.4131 75.4000 1617(42) 0.000560 1740. 1865.
75.4168 75.4037 1850(45) 0.000497 1740. 1882.
75.4206 75.4075 1846(45) 0.000492 1740. 1901.
75.4244 75.4113 1949(46) 0.000481 1740. 1921.
75.4281 75.4150 1891(45) 0.000490 1740. 1942.
75.4319 75.4188 2051(48) 0.000433 1740. 1964.
75.4356 75.4225 2024(46) 0.000464 1740. 1985.
75.4394 75.4263 2046(47) 0.000446 1740. 2004.
75.4432 75.4301 1969(46) 0.000471 1740. 2020.
75.4469 75.4338 2090(48) 0.000429 1740. 2031.
75.4507 75.4376 2091(48) 0.000432 1740. 2037.
75.4544 75.4413 2075(47) 0.000458 1740. 2037.
75.4582 75.4451 1940(45) 0.000486 1740. 2032.
75.4620 75.4489 1916(46) 0.000471 1740. 2021.
75.4657 75.4526 2004(47) 0.000460 1740. 2007.
75.4695 75.4564 1954(46) 0.000467 1740. 1990.
75.4732 75.4601 1877(45) 0.000488 1740. 1971.
75.4770 75.4639 1903(45) 0.000502 1740. 1952.
75.4808 75.4677 1944(46) 0.000475 1740. 1932.
75.4845 75.4714 1907(46) 0.000471 1740. 1914.
75.4883 75.4752 1799(44) 0.000507 1740. 1896.
75.4920 75.4789 1833(46) 0.000475 1740. 1880.
75.4958 75.4827 1832(45) 0.000503 1740. 1865.
75.4996 75.4865 1896(45) 0.000485 1740. 1851.
75.5033 75.4902 1903(47) 0.000454 1740. 1839.
75.5071 75.4940 1831(44) 0.000523 1740. 1828.
75.5108 75.4977 1710(44) 0.000528 1740. 1819.
75.5146 75.5015 1704(43) 0.000552 1740. 1810.
75.5184 75.5053 1675(44) 0.000526 1740. 1802.
75.5221 75.5090 1804(45) 0.000495 1740. 1796.
75.5259 75.5128 1866(46) 0.000479 1740. 1790.
75.5296 75.5165 1824(45) 0.000486 1740. 1786.
75.5334 75.5203 1791(43) 0.000533 1740. 1782.
75.5372 75.5241 1780(45) 0.000499 1740. 1778.
75.5409 75.5278 1791(45) 0.000502 1740. 1776.
75.5447 75.5316 1792(45) 0.000503 1740. 1774.
75.5484 75.5353 1679(44) 0.000526 1740. 1772.
75.5522 75.5391 1790(44) 0.000506 1740. 1771.
75.5560 75.5429 1794(45) 0.000505 1740. 1770.
75.5597 75.5466 1786(44) 0.000515 1741. 1770.
75.5635 75.5504 1844(45) 0.000484 1741. 1770.
75.5672 75.5541 1829(45) 0.000490 1741. 1770.
75.5710 75.5579 1722(44) 0.000522 1741. 1771.
75.5748 75.5617 1782(44) 0.000507 1741. 1772.
75.5785 75.5654 1698(43) 0.000544 1741. 1773.
75.5823 75.5692 1793(45) 0.000483 1741. 1774.
75.5860 75.5729 1730(45) 0.000504 1741. 1777.
75.5898 75.5767 1693(43) 0.000538 1741. 1780.
75.5936 75.5805 1777(43) 0.000529 1741. 1784.
75.5973 75.5842 1785(44) 0.000505 1741. 1789.
75.6011 75.5880 1787(44) 0.000506 1741. 1797.
75.6048 75.5917 1788(45) 0.000498 1741. 1806.
75.6086 75.5955 1820(45) 0.000493 1741. 1819.
75.6123 75.5992 1812(45) 0.000502 1741. 1835.
75.6161 75.6030 1753(44) 0.000514 1741. 1856.
75.6199 75.6068 1769(45) 0.000499 1741. 1882.
75.6236 75.6105 1869(46) 0.000481 1741. 1912.
75.6274 75.6143 1975(47) 0.000453 1741. 1949.
75.6311 75.6180 1924(46) 0.000470 1741. 1990.
75.6349 75.6218 1988(46) 0.000471 1741. 2037.
75.6387 75.6256 2028(47) 0.000447 1741. 2089.
75.6424 75.6293 2163(49) 0.000416 1741. 2142.
75.6462 75.6331 2242(51) 0.000390 1741. 2198.
75.6499 75.6368 2386(52) 0.000365 1741. 2251.
75.6537 75.6406 2446(52) 0.000373 1741. 2301.
75.6575 75.6444 2469(52) 0.000369 1741. 2344.
75.6612 75.6481 2449(52) 0.000369 1741. 2377.
75.6650 75.6519 2525(53) 0.000354 1741. 2397.
75.6687 75.6556 2327(51) 0.000384 1741. 2404.
75.6725 75.6594 2454(52) 0.000366 1741. 2395.
75.6763 75.6632 2284(50) 0.000394 1741. 2373.
75.6800 75.6669 2281(51) 0.000383 1741. 2341.
75.6838 75.6707 2220(50) 0.000394 1741. 2298.
75.6875 75.6744 2158(48) 0.000426 1741. 2251.
75.6913 75.6782 2032(47) 0.000455 1741. 2200.
75.6951 75.6820 2005(48) 0.000442 1741. 2147.
75.6988 75.6857 1900(46) 0.000482 1741. 2097.
75.7026 75.6895 1978(46) 0.000469 1741. 2048.
75.7063 75.6932 1951(46) 0.000472 1741. 2005.
75.7101 75.6970 1887(46) 0.000479 1741. 1965.
75.7139 75.7008 1959(47) 0.000458 1741. 1930.
75.7176 75.7045 1853(45) 0.000496 1741. 1902.
75.7214 75.7083 1824(45) 0.000493 1741. 1878.
75.7251 75.7120 1909(46) 0.000475 1741. 1859.
75.7289 75.7158 1905(46) 0.000483 1741. 1844.
75.7327 75.7196 1764(45) 0.000492 1741. 1832.
75.7364 75.7233 1698(44) 0.000524 1741. 1823.
75.7402 75.7271 1821(46) 0.000481 1741. 1817.
75.7439 75.7308 1788(45) 0.000493 1741. 1813.
75.7477 75.7346 1869(46) 0.000471 1741. 1810.
75.7515 75.7384 1773(44) 0.000509 1741. 1809.
75.7552 75.7421 1776(44) 0.000512 1741. 1809.
75.7590 75.7459 1850(45) 0.000504 1741. 1810.
75.7627 75.7496 1835(45) 0.000504 1741. 1812.
75.7665 75.7534 1811(45) 0.000493 1741. 1816.
75.7703 75.7572 1842(46) 0.000475 1741. 1821.
75.7740 75.7609 1738(45) 0.000504 1741. 1828.
75.7778 75.7647 1894(46) 0.000467 1741. 1837.
75.7815 75.7684 1700(44) 0.000527 1741. 1848.
75.7853 75.7722 1833(45) 0.000495 1741. 1861.
75.7891 75.7760 1819(45) 0.000499 1741. 1878.
75.7928 75.7797 1853(45) 0.000488 1742. 1897.
75.7966 75.7835 1865(46) 0.000475 1742. 1920.
75.8003 75.7872 1934(46) 0.000479 1742. 1946.
75.8041 75.7910 1952(46) 0.000472 1742. 1977.
75.8079 75.7948 2007(47) 0.000448 1742. 2011.
75.8116 75.7985 1965(47) 0.000449 1742. 2046.
75.8154 75.8023 2033(47) 0.000444 1742. 2085.
75.8191 75.8060 2172(49) 0.000421 1742. 2125.
75.8229 75.8098 2292(50) 0.000397 1742. 2165.
75.8266 75.8135 2261(50) 0.000394 1742. 2202.
75.8304 75.8173 2344(52) 0.000377 1742. 2238.
75.8342 75.8211 2184(50) 0.000394 1742. 2270.
75.8379 75.8248 2449(52) 0.000369 1742. 2296.
75.8417 75.8286 2146(49) 0.000423 1742. 2318.
75.8454 75.8323 2377(52) 0.000370 1742. 2335.
75.8492 75.8361 2301(51) 0.000382 1742. 2349.
75.8530 75.8399 2191(49) 0.000413 1742. 2363.
75.8567 75.8436 2284(51) 0.000391 1742. 2377.
75.8605 75.8474 2447(53) 0.000360 1742. 2394.
75.8642 75.8511 2459(51) 0.000379 1742. 2414.
75.8680 75.8549 2600(54) 0.0003410 1742. 2439.
75.8718 75.8587 2634(54) 0.0003432 1742. 2467.
75.8755 75.8624 2712(55) 0.0003271 1742. 2496.
75.8793 75.8662 2665(53) 0.0003500 1742. 2527.
75.8830 75.8699 2945(57) 0.0003110 1742. 2554.
75.8868 75.8737 2761(55) 0.0003279 1742. 2578.
75.8906 75.8775 2706(55) 0.0003329 1742. 2596.
75.8943 75.8812 2680(55) 0.0003315 1742. 2605.
75.8981 75.8850 2685(56) 0.0003230 1742. 2608.
75.9018 75.8887 2577(53) 0.000353 1742. 2604.
75.9056 75.8925 2516(53) 0.000355 1742. 2596.
75.9094 75.8963 2565(54) 0.0003377 1743. 2584.
75.9131 75.9000 2623(55) 0.0003295 1743. 2573.
75.9169 75.9038 2649(54) 0.0003466 1743. 2560.
75.9206 75.9075 2615(53) 0.000351 1743. 2549.
75.9244 75.9113 2545(54) 0.0003426 1743. 2537.
75.9282 75.9151 2708(55) 0.0003265 1743. 2524.
75.9319 75.9188 2628(54) 0.0003443 1743. 2509.
75.9357 75.9226 2542(54) 0.0003449 1743. 2491.
75.9394 75.9263 2527(52) 0.000364 1743. 2471.
75.9432 75.9301 2511(54) 0.0003441 1743. 2446.
75.9470 75.9339 2455(52) 0.000365 1743. 2419.
75.9507 75.9376 2397(52) 0.000372 1743. 2390.
75.9545 75.9414 2333(51) 0.000386 1743. 2361.
75.9582 75.9451 2409(51) 0.000381 1743. 2331.
75.9620 75.9489 2238(49) 0.000415 1743. 2302.
75.9657 75.9526 2320(51) 0.000392 1743. 2273.
75.9695 75.9564 2212(50) 0.000399 1743. 2245.
75.9733 75.9602 2227(50) 0.000403 1743. 2216.
75.9770 75.9639 2173(49) 0.000422 1743. 2188.
75.9808 75.9677 2171(50) 0.000403 1743. 2158.
75.9845 75.9714 2089(48) 0.000429 1743. 2129.
75.9883 75.9752 2032(48) 0.000439 1743. 2098.
75.9921 75.9790 1963(47) 0.000459 1744. 2067.
75.9958 75.9827 1952(47) 0.000456 1744. 2038.
75.9996 75.9865 1914(46) 0.000467 1744. 2010.
76.0033 75.9902 1894(46) 0.000482 1744. 1984.
76.0071 75.9940 1883(46) 0.000463 1744. 1960.
76.0109 75.9978 1850(45) 0.000503 1744. 1938.
76.0146 76.0015 1863(45) 0.000491 1744. 1920.
76.0184 76.0053 1945(45) 0.000484 1744. 1903.
76.0221 76.0090 1753(44) 0.000506 1744. 1889.
76.0259 76.0128 1900(46) 0.000478 1744. 1877.
76.0297 76.0166 1798(44) 0.000512 1744. 1868.
76.0334 76.0203 1801(45) 0.000492 1744. 1861.
76.0372 76.0241 1827(45) 0.000490 1744. 1856.
76.0409 76.0278 1747(44) 0.000517 1744. 1854.
76.0447 76.0316 1793(45) 0.000500 1744. 1853.
76.0485 76.0354 1824(46) 0.000480 1744. 1856.
76.0522 76.0391 1787(44) 0.000516 1744. 1862.
76.0560 76.0429 1776(44) 0.000523 1744. 1870.
76.0597 76.0466 1683(43) 0.000538 1745. 1882.
76.0635 76.0504 1847(45) 0.000497 1745. 1898.
76.0673 76.0542 1779(44) 0.000514 1745. 1917.
76.0710 76.0579 1779(45) 0.000503 1745. 1939.
76.0748 76.0617 1885(46) 0.000476 1745. 1964.
76.0785 76.0654 1926(46) 0.000474 1745. 1990.
76.0823 76.0692 1850(45) 0.000492 1745. 2019.
76.0860 76.0729 1951(47) 0.000453 1745. 2047.
76.0898 76.0767 2135(48) 0.000427 1745. 2075.
76.0936 76.0805 2139(48) 0.000430 1745. 2100.
76.0973 76.0842 2153(49) 0.000423 1745. 2121.
76.1011 76.0880 2125(49) 0.000425 1745. 2137.
76.1048 76.0917 2211(49) 0.000420 1745. 2147.
76.1086 76.0955 2121(48) 0.000432 1745. 2149.
76.1124 76.0993 2098(48) 0.000431 1745. 2144.
76.1161 76.1030 2053(48) 0.000438 1746. 2132.
76.1199 76.1068 1968(46) 0.000464 1746. 2112.
76.1236 76.1105 1964(47) 0.000453 1746. 2089.
76.1274 76.1143 2026(47) 0.000444 1746. 2061.
76.1312 76.1181 1997(46) 0.000481 1746. 2031.
76.1349 76.1218 1906(45) 0.000485 1746. 2001.
76.1387 76.1256 1947(46) 0.000475 1746. 1972.
76.1424 76.1293 1840(45) 0.000497 1746. 1945.
76.1462 76.1331 1971(48) 0.000427 1746. 1919.
76.1500 76.1369 1889(46) 0.000463 1746. 1896.
76.1537 76.1406 1892(44) 0.000514 1746. 1877.
76.1575 76.1444 1884(47) 0.000459 1746. 1861.
76.1612 76.1481 1878(45) 0.000488 1746. 1847.
76.1650 76.1519 1847(45) 0.000492 1746. 1836.
76.1688 76.1557 1852(45) 0.000488 1747. 1828.
76.1725 76.1594 1828(44) 0.000513 1747. 1822.
76.1763 76.1632 1840(44) 0.000506 1747. 1817.
76.1800 76.1669 1840(45) 0.000497 1747. 1815.
76.1838 76.1707 1869(46) 0.000478 1747. 1814.
76.1875 76.1744 1821(45) 0.000492 1747. 1814.
76.1913 76.1782 1879(46) 0.000471 1747. 1816.
76.1951 76.1820 1827(44) 0.000505 1747. 1819.
76.1988 76.1857 1811(44) 0.000505 1747. 1824.
76.2026 76.1895 1825(45) 0.000490 1747. 1831.
76.2063 76.1932 1893(45) 0.000485 1747. 1839.
76.2101 76.1970 1827(44) 0.000508 1747. 1850.
76.2139 76.2008 1848(45) 0.000503 1748. 1864.
76.2176 76.2045 1862(45) 0.000489 1748. 1879.
76.2214 76.2083 1852(44) 0.000507 1748. 1899.
76.2251 76.2120 1978(47) 0.000454 1748. 1920.
76.2289 76.2158 1976(46) 0.000472 1748. 1946.
76.2327 76.2196 1937(46) 0.000473 1748. 1974.
76.2364 76.2233 2036(48) 0.000435 1748. 2003.
76.2402 76.2271 2047(47) 0.000454 1748. 2035.
76.2439 76.2308 2029(47) 0.000461 1748. 2067.
76.2477 76.2346 2262(50) 0.000405 1748. 2099.
76.2514 76.2383 2247(50) 0.000397 1748. 2129.
76.2552 76.2421 2335(51) 0.000391 1749. 2158.
76.2590 76.2459 2302(50) 0.000397 1749. 2183.
76.2627 76.2496 2277(51) 0.000390 1749. 2203.
76.2665 76.2534 2199(49) 0.000411 1749. 2218.
76.2702 76.2571 2291(50) 0.000395 1749. 2229.
76.2740 76.2609 2278(49) 0.000420 1749. 2237.
76.2778 76.2647 2185(49) 0.000421 1749. 2243.
76.2815 76.2684 2223(50) 0.000403 1749. 2250.
76.2853 76.2722 2228(50) 0.000401 1749. 2259.
76.2890 76.2759 2251(50) 0.000394 1749. 2273.
76.2928 76.2797 2189(49) 0.000412 1749. 2292.
76.2966 76.2835 2315(51) 0.000378 1750. 2319.
76.3003 76.2872 2365(51) 0.000379 1750. 2353.
76.3041 76.2910 2545(54) 0.0003425 1750. 2395.
76.3078 76.2947 2519(52) 0.000363 1750. 2443.
76.3116 76.2985 2633(54) 0.0003397 1750. 2498.
76.3154 76.3023 2733(56) 0.0003238 1750. 2557.
76.3191 76.3060 2878(56) 0.0003211 1750. 2618.
76.3229 76.3098 2791(55) 0.0003293 1750. 2681.
76.3266 76.3135 2881(56) 0.0003235 1750. 2741.
76.3304 76.3173 2901(56) 0.0003198 1751. 2801.
76.3341 76.3210 2956(57) 0.0003105 1751. 2857.
76.3379 76.3248 2943(57) 0.0003056 1751. 2912.
76.3417 76.3286 3085(58) 0.0002984 1751. 2965.
76.3454 76.3323 3002(57) 0.0003026 1751. 3015.
76.3492 76.3361 3238(61) 0.0002722 1751. 3066.
76.3529 76.3398 3239(59) 0.0002858 1751. 3114.
76.3567 76.3436 3426(61) 0.0002728 1751. 3159.
76.3605 76.3474 3315(61) 0.0002696 1751. 3200.
76.3642 76.3511 3389(61) 0.0002652 1752. 3232.
76.3680 76.3549 3492(62) 0.0002610 1752. 3256.
76.3717 76.3586 3597(63) 0.0002543 1752. 3269.
76.3755 76.3624 3399(62) 0.0002641 1752. 3270.
76.3792 76.3661 3578(63) 0.0002499 1752. 3258.
76.3830 76.3699 3398(61) 0.0002715 1752. 3233.
76.3868 76.3737 3401(61) 0.0002688 1752. 3194.
76.3905 76.3774 3276(61) 0.0002700 1752. 3145.
76.3943 76.3812 3161(59) 0.0002892 1753. 3084.
76.3980 76.3849 3051(57) 0.0003081 1753. 3016.
76.4018 76.3887 3057(58) 0.0002955 1753. 2939.
76.4056 76.3925 2782(56) 0.0003198 1753. 2858.
76.4093 76.3962 2821(55) 0.0003247 1753. 2779.
76.4131 76.4000 2608(53) 0.000361 1753. 2698.
76.4168 76.4037 2573(52) 0.000373 1753. 2623.
76.4206 76.4075 2443(52) 0.000375 1753. 2551.
76.4244 76.4113 2487(51) 0.000384 1754. 2484.
76.4281 76.4150 2377(51) 0.000379 1754. 2424.
76.4319 76.4188 2410(52) 0.000374 1754. 2368.
76.4356 76.4225 2283(50) 0.000396 1754. 2317.
76.4394 76.4263 2210(49) 0.000412 1754. 2270.
76.4431 76.4300 2175(48) 0.000426 1754. 2227.
76.4469 76.4338 2196(49) 0.000412 1754. 2186.
76.4507 76.4376 2079(47) 0.000443 1754. 2149.
76.4544 76.4413 2046(47) 0.000448 1755. 2117.
76.4582 76.4451 2074(48) 0.000441 1755. 2088.
76.4619 76.4488 1992(46) 0.000467 1755. 2066.
76.4657 76.4526 2031(47) 0.000450 1755. 2048.
76.4695 76.4564 2040(47) 0.000444 1755. 2037.
76.4732 76.4601 2012(47) 0.000455 1755. 2033.
76.4770 76.4639 2063(48) 0.000437 1755. 2035.
76.4807 76.4676 2037(47) 0.000457 1756. 2045.
76.4845 76.4714 2092(48) 0.000429 1756. 2062.
76.4882 76.4751 2084(48) 0.000439 1756. 2085.
76.4920 76.4789 2168(50) 0.000408 1756. 2116.
76.4958 76.4827 2154(49) 0.000422 1756. 2153.
76.4995 76.4864 2276(49) 0.000409 1756. 2193.
76.5033 76.4902 2254(50) 0.000406 1756. 2238.
76.5070 76.4939 2363(52) 0.000376 1757. 2284.
76.5108 76.4977 2497(52) 0.000365 1757. 2331.
76.5146 76.5015 2572(54) 0.0003400 1757. 2376.
76.5183 76.5052 2529(52) 0.000367 1757. 2416.
76.5221 76.5090 2627(54) 0.0003377 1757. 2451.
76.5258 76.5127 2603(54) 0.0003485 1757. 2477.
76.5296 76.5165 2603(54) 0.0003411 1758. 2497.
76.5333 76.5202 2547(54) 0.0003446 1758. 2509.
76.5371 76.5240 2503(53) 0.000352 1758. 2516.
76.5409 76.5278 2352(51) 0.000389 1758. 2517.
76.5446 76.5315 2428(51) 0.000379 1758. 2517.
76.5484 76.5353 2278(51) 0.000378 1758. 2516.
76.5521 76.5390 2486(52) 0.000372 1758. 2518.
76.5559 76.5428 2431(52) 0.000367 1759. 2523.
76.5597 76.5466 2404(52) 0.000368 1759. 2533.
76.5634 76.5503 2507(52) 0.000366 1759. 2548.
76.5672 76.5541 2610(54) 0.0003457 1759. 2568.
76.5709 76.5578 2632(54) 0.0003409 1759. 2591.
76.5747 76.5616 2751(55) 0.0003264 1759. 2615.
76.5784 76.5653 2787(53) 0.0003499 1760. 2638.
76.5822 76.5691 2827(55) 0.0003344 1760. 2657.
76.5860 76.5729 2724(55) 0.0003309 1760. 2669.
76.5897 76.5766 2781(56) 0.0003229 1760. 2673.
76.5935 76.5804 2778(55) 0.0003310 1760. 2667.
76.5972 76.5841 2710(55) 0.0003272 1760. 2651.
76.6010 76.5879 2542(54) 0.0003420 1761. 2627.
76.6048 76.5917 2412(53) 0.000357 1761. 2597.
76.6085 76.5954 2428(52) 0.000370 1761. 2565.
76.6123 76.5992 2392(52) 0.000376 1761. 2533.
76.6160 76.6029 2311(50) 0.000395 1761. 2506.
76.6198 76.6067 2377(52) 0.000369 1762. 2483.
76.6235 76.6104 2350(51) 0.000381 1762. 2469.
76.6273 76.6142 2519(52) 0.000367 1762. 2462.
76.6311 76.6180 2509(52) 0.000368 1762. 2464.
76.6348 76.6217 2659(54) 0.0003404 1762. 2472.
76.6386 76.6255 2722(56) 0.0003134 1762. 2486.
76.6423 76.6292 2812(57) 0.0003130 1763. 2501.
76.6461 76.6330 2717(55) 0.0003257 1763. 2516.
76.6499 76.6368 2883(58) 0.0002941 1763. 2528.
76.6536 76.6405 2788(56) 0.0003217 1763. 2531.
76.6574 76.6443 2778(55) 0.0003267 1763. 2525.
76.6611 76.6480 2566(54) 0.0003429 1764. 2507.
76.6649 76.6518 2578(54) 0.0003428 1764. 2478.
76.6686 76.6555 2348(52) 0.000373 1764. 2440.
76.6724 76.6593 2366(51) 0.000383 1764. 2392.
76.6762 76.6631 2280(50) 0.000394 1764. 2339.
76.6799 76.6668 2186(50) 0.000402 1765. 2285.
76.6837 76.6706 2112(48) 0.000428 1765. 2229.
76.6874 76.6743 2103(49) 0.000415 1765. 2176.
76.6912 76.6781 2040(48) 0.000429 1765. 2125.
76.6949 76.6818 2160(49) 0.000410 1765. 2080.
76.6987 76.6856 2078(47) 0.000460 1766. 2038.
76.7025 76.6894 2010(48) 0.000441 1766. 2003.
76.7062 76.6931 2005(48) 0.000443 1766. 1973.
76.7100 76.6969 1974(48) 0.000441 1766. 1949.
76.7137 76.7006 1900(47) 0.000458 1766. 1929.
76.7175 76.7044 1962(46) 0.000463 1767. 1913.
76.7213 76.7082 1921(46) 0.000475 1767. 1899.
76.7250 76.7119 1905(47) 0.000452 1767. 1889.
76.7288 76.7157 1869(46) 0.000477 1767. 1880.
76.7325 76.7194 1784(45) 0.000497 1768. 1873.
76.7363 76.7232 1738(44) 0.000509 1768. 1866.
76.7400 76.7269 1780(45) 0.000497 1768. 1860.
76.7438 76.7307 1868(46) 0.000480 1768. 1854.
76.7476 76.7345 1813(44) 0.000507 1768. 1848.
76.7513 76.7382 1800(45) 0.000504 1769. 1843.
76.7551 76.7420 1764(45) 0.000502 1769. 1839.
76.7588 76.7457 1839(45) 0.000490 1769. 1835.
76.7626 76.7495 1814(45) 0.000492 1769. 1832.
76.7663 76.7532 1722(44) 0.000510 1770. 1829.
76.7701 76.7570 1764(44) 0.000515 1770. 1827.
76.7739 76.7608 1679(43) 0.000529 1770. 1826.
76.7776 76.7645 1782(45) 0.000486 1770. 1825.
76.7814 76.7683 1805(45) 0.000500 1771. 1825.
76.7851 76.7720 1720(45) 0.000489 1771. 1825.
76.7889 76.7758 1703(44) 0.000513 1771. 1826.
76.7927 76.7796 1779(45) 0.000494 1771. 1828.
76.7964 76.7833 1760(45) 0.000487 1771. 1829.
76.8002 76.7871 1792(45) 0.000492 1772. 1831.
76.8039 76.7908 1845(46) 0.000477 1772. 1833.
76.8077 76.7946 1789(45) 0.000493 1772. 1835.
76.8114 76.7983 1715(44) 0.000514 1772. 1837.
76.8152 76.8021 1693(44) 0.000516 1773. 1839.
76.8190 76.8059 1840(44) 0.000509 1773. 1841.
76.8227 76.8096 1752(45) 0.000483 1773. 1843.
76.8265 76.8134 1754(44) 0.000511 1773. 1845.
76.8302 76.8171 1780(45) 0.000495 1774. 1847.
76.8340 76.8209 1696(44) 0.000517 1774. 1850.
76.8377 76.8246 1762(45) 0.000504 1774. 1853.
76.8415 76.8284 1813(46) 0.000480 1774. 1857.
76.8453 76.8322 1861(45) 0.000496 1775. 1861.
76.8490 76.8359 1784(46) 0.000469 1775. 1865.
76.8528 76.8397 1806(45) 0.000487 1775. 1869.
76.8565 76.8434 1720(44) 0.000508 1775. 1874.
76.8603 76.8472 1735(44) 0.000505 1776. 1880.
76.8640 76.8509 1799(45) 0.000495 1776. 1886.
76.8678 76.8547 1863(45) 0.000497 1776. 1893.
76.8716 76.8585 1861(46) 0.000471 1777. 1902.
76.8753 76.8622 1874(45) 0.000502 1777. 1912.
76.8791 76.8660 1922(45) 0.000500 1777. 1925.
76.8828 76.8697 1955(46) 0.000480 1777. 1941.
76.8866 76.8735 1973(46) 0.000482 1778. 1962.
76.8903 76.8772 1977(46) 0.000480 1778. 1986.
76.8941 76.8810 1984(46) 0.000467 1778. 2017.
76.8979 76.8848 2103(47) 0.000451 1778. 2054.
76.9016 76.8885 2082(47) 0.000458 1779. 2095.
76.9054 76.8923 2083(47) 0.000456 1779. 2143.
76.9091 76.8960 2260(49) 0.000424 1779. 2194.
76.9129 76.8998 2292(50) 0.000404 1780. 2249.
76.9166 76.9035 2491(51) 0.000382 1780. 2305.
76.9204 76.9073 2564(53) 0.000360 1780. 2361.
76.9242 76.9111 2597(52) 0.000375 1780. 2413.
76.9279 76.9148 2808(55) 0.0003364 1781. 2459.
76.9317 76.9186 2769(54) 0.0003395 1781. 2497.
76.9354 76.9223 2698(54) 0.0003464 1781. 2524.
76.9392 76.9261 2664(53) 0.000356 1782. 2539.
76.9429 76.9298 2683(54) 0.0003454 1782. 2542.
76.9467 76.9336 2620(53) 0.000358 1782. 2534.
76.9505 76.9374 2604(54) 0.0003488 1783. 2517.
76.9542 76.9411 2360(50) 0.000406 1783. 2495.
76.9580 76.9449 2456(51) 0.000379 1783. 2471.
76.9617 76.9486 2398(51) 0.000389 1783. 2448.
76.9655 76.9524 2338(50) 0.000404 1784. 2429.
76.9692 76.9561 2277(49) 0.000419 1784. 2416.
76.9730 76.9599 2355(51) 0.000390 1784. 2409.
76.9768 76.9637 2413(50) 0.000393 1785. 2410.
76.9805 76.9674 2421(51) 0.000380 1785. 2418.
76.9843 76.9712 2454(51) 0.000380 1785. 2432.
76.9880 76.9749 2468(51) 0.000377 1786. 2449.
76.9918 76.9787 2623(53) 0.000356 1786. 2467.
76.9955 76.9824 2594(51) 0.000383 1786. 2484.
76.9993 76.9862 2630(52) 0.000369 1787. 2497.
77.0031 76.9900 2514(52) 0.000373 1787. 2503.
77.0068 76.9937 2495(51) 0.000379 1787. 2501.
77.0106 76.9975 2451(51) 0.000382 1788. 2491.
77.0143 77.0012 2458(51) 0.000383 1788. 2474.
77.0181 77.0050 2366(50) 0.000399 1788. 2451.
77.0218 77.0087 2257(49) 0.000413 1789. 2424.
77.0256 77.0125 2293(48) 0.000428 1789. 2394.
77.0294 77.0163 2273(49) 0.000415 1789. 2364.
77.0331 77.0200 2245(48) 0.000427 1790. 2336.
77.0369 77.0238 2272(50) 0.000408 1790. 2309.
77.0406 77.0275 2334(49) 0.000415 1790. 2286.
77.0444 77.0313 2234(49) 0.000418 1791. 2264.
77.0481 77.0350 2230(49) 0.000425 1791. 2245.
77.0519 77.0388 2138(48) 0.000429 1791. 2228.
77.0557 77.0426 2203(48) 0.000432 1792. 2212.
77.0594 77.0463 2086(48) 0.000440 1792. 2196.
77.0632 77.0501 2109(47) 0.000444 1792. 2180.
77.0669 77.0538 2101(48) 0.000442 1793. 2164.
77.0707 77.0576 2097(48) 0.000433 1793. 2146.
77.0744 77.0613 2085(47) 0.000451 1794. 2128.
77.0782 77.0651 2000(47) 0.000460 1794. 2110.
77.0820 77.0689 2103(48) 0.000434 1794. 2094.
77.0857 77.0726 2070(47) 0.000461 1795. 2080.
77.0895 77.0764 2082(47) 0.000451 1795. 2070.
77.0932 77.0801 2149(48) 0.000435 1795. 2066.
77.0970 77.0839 2039(48) 0.000441 1796. 2067.
77.1007 77.0876 1957(46) 0.000472 1796. 2077.
77.1045 77.0914 2057(47) 0.000452 1796. 2095.
77.1082 77.0951 2066(47) 0.000458 1797. 2122.
77.1120 77.0989 2136(48) 0.000425 1797. 2160.
77.1158 77.1027 2184(48) 0.000429 1798. 2209.
77.1195 77.1064 2286(50) 0.000403 1798. 2266.
77.1233 77.1102 2343(50) 0.000401 1798. 2335.
77.1270 77.1139 2558(53) 0.000362 1799. 2411.
77.1308 77.1177 2759(53) 0.0003507 1799. 2496.
77.1345 77.1214 2836(55) 0.0003251 1800. 2584.
77.1383 77.1252 2870(56) 0.0003164 1800. 2678.
77.1421 77.1290 3024(58) 0.0003022 1800. 2771.
77.1458 77.1327 3236(59) 0.0002885 1801. 2859.
77.1496 77.1365 3094(59) 0.0002867 1801. 2943.
77.1533 77.1402 3274(60) 0.0002748 1802. 3015.
77.1571 77.1440 3444(61) 0.0002654 1802. 3079.
77.1608 77.1477 3539(62) 0.0002643 1802. 3127.
77.1646 77.1515 3605(63) 0.0002505 1803. 3160.
77.1683 77.1552 3467(61) 0.0002674 1803. 3176.
77.1721 77.1590 3334(59) 0.0002890 1804. 3172.
77.1759 77.1628 3368(61) 0.0002646 1804. 3147.
77.1796 77.1665 3217(58) 0.0002935 1804. 3102.
77.1834 77.1703 3264(60) 0.0002773 1805. 3035.
77.1871 77.1740 2901(56) 0.0003216 1805. 2954.
77.1909 77.1778 2805(55) 0.0003349 1806. 2858.
77.1946 77.1815 2672(54) 0.0003388 1806. 2757.
77.1984 77.1853 2615(53) 0.000357 1807. 2650.
77.2022 77.1891 2423(51) 0.000380 1807. 2543.
77.2059 77.1928 2384(50) 0.000401 1807. 2444.
77.2097 77.1966 2346(50) 0.000403 1808. 2350.
77.2134 77.2003 2240(50) 0.000398 1808. 2267.
77.2172 77.2041 2088(48) 0.000436 1809. 2192.
77.2209 77.2078 2102(48) 0.000430 1809. 2131.
77.2247 77.2116 2065(48) 0.000442 1810. 2078.
77.2284 77.2153 2075(47) 0.000448 1810. 2037.
77.2322 77.2191 1917(46) 0.000480 1811. 2005.
77.2360 77.2229 1952(46) 0.000476 1811. 1981.
77.2397 77.2266 1895(46) 0.000481 1811. 1966.
77.2435 77.2304 1976(45) 0.000493 1812. 1957.
77.2472 77.2341 2013(47) 0.000449 1812. 1954.
77.2510 77.2379 1940(46) 0.000468 1813. 1956.
77.2547 77.2416 1945(45) 0.000484 1813. 1963.
77.2585 77.2454 1865(46) 0.000477 1814. 1974.
77.2623 77.2492 1923(47) 0.000457 1814. 1991.
77.2660 77.2529 2007(46) 0.000465 1815. 2012.
77.2698 77.2567 1962(46) 0.000470 1815. 2037.
77.2735 77.2604 1908(45) 0.000496 1816. 2067.
77.2773 77.2642 2016(47) 0.000458 1816. 2103.
77.2810 77.2679 1983(47) 0.000451 1817. 2142.
77.2848 77.2717 2068(47) 0.000449 1817. 2187.
77.2885 77.2754 2254(50) 0.000401 1818. 2236.
77.2923 77.2792 2180(49) 0.000418 1818. 2289.
77.2961 77.2830 2328(51) 0.000391 1819. 2345.
77.2998 77.2867 2287(51) 0.000391 1819. 2400.
77.3036 77.2905 2505(53) 0.000358 1819. 2457.
77.3073 77.2942 2657(54) 0.0003427 1820. 2510.
77.3111 77.2980 2671(54) 0.0003435 1820. 2562.
77.3148 77.3017 2771(54) 0.0003389 1821. 2606.
77.3186 77.3055 2804(55) 0.0003350 1821. 2645.
77.3223 77.3092 2833(55) 0.0003269 1822. 2673.
77.3261 77.3130 2964(57) 0.0003041 1822. 2692.
77.3299 77.3168 2913(56) 0.0003217 1823. 2700.
77.3336 77.3205 2870(57) 0.0003122 1824. 2695.
77.3374 77.3243 2751(56) 0.0003148 1824. 2677.
77.3411 77.3280 2622(53) 0.000351 1825. 2648.
77.3449 77.3318 2525(52) 0.000363 1825. 2609.
77.3486 77.3355 2466(53) 0.000359 1826. 2564.
77.3524 77.3393 2459(53) 0.000361 1826. 2514.
77.3561 77.3430 2299(49) 0.000413 1827. 2464.
77.3599 77.3468 2251(48) 0.000425 1827. 2414.
77.3637 77.3506 2220(48) 0.000430 1828. 2368.
77.3674 77.3543 2241(48) 0.000427 1828. 2329.
77.3712 77.3581 2227(48) 0.000432 1829. 2294.
77.3749 77.3618 2176(47) 0.000448 1829. 2267.
77.3787 77.3656 2084(47) 0.000455 1830. 2246.
77.3824 77.3693 2170(48) 0.000439 1830. 2232.
77.3862 77.3731 2252(49) 0.000424 1831. 2222.
77.3899 77.3768 2077(47) 0.000449 1832. 2217.
77.3937 77.3806 2305(49) 0.000422 1832. 2216.
77.3975 77.3844 2038(46) 0.000471 1833. 2217.
77.4012 77.3881 2117(47) 0.000453 1833. 2220.
77.4050 77.3919 2056(46) 0.000465 1834. 2226.
77.4087 77.3956 2036(46) 0.000470 1834. 2234.
77.4125 77.3994 2048(46) 0.000467 1835. 2244.
77.4162 77.4031 2100(47) 0.000456 1835. 2258.
77.4200 77.4069 2141(47) 0.000450 1836. 2277.
77.4237 77.4106 2141(47) 0.000448 1837. 2300.
77.4275 77.4144 2213(49) 0.000422 1837. 2329.
77.4313 77.4182 2290(49) 0.000410 1838. 2364.
77.4350 77.4219 2297(50) 0.000406 1838. 2403.
77.4388 77.4257 2420(50) 0.000403 1839. 2448.
77.4425 77.4294 2507(51) 0.000383 1840. 2494.
77.4463 77.4332 2634(52) 0.000364 1840. 2543.
77.4500 77.4369 2747(55) 0.0003337 1841. 2589.
77.4538 77.4407 2739(54) 0.0003459 1841. 2633.
77.4575 77.4444 2774(54) 0.0003443 1842. 2671.
77.4613 77.4482 2903(55) 0.0003260 1843. 2702.
77.4650 77.4519 2891(55) 0.0003336 1843. 2724.
77.4688 77.4557 2933(56) 0.0003217 1844. 2735.
77.4726 77.4595 2714(53) 0.0003503 1844. 2734.
77.4763 77.4632 2726(53) 0.0003503 1845. 2723.
77.4801 77.4670 2666(53) 0.000353 1846. 2703.
77.4838 77.4707 2604(52) 0.000364 1846. 2677.
77.4876 77.4745 2519(52) 0.000371 1847. 2649.
77.4913 77.4782 2594(52) 0.000363 1847. 2622.
77.4951 77.4820 2503(52) 0.000375 1848. 2599.
77.4988 77.4857 2549(52) 0.000375 1849. 2584.
77.5026 77.4895 2381(50) 0.000408 1849. 2577.
77.5064 77.4933 2559(52) 0.000373 1850. 2579.
77.5101 77.4970 2748(54) 0.0003409 1851. 2590.
77.5139 77.5008 2777(54) 0.0003420 1851. 2609.
77.5176 77.5045 2987(56) 0.0003179 1852. 2631.
77.5214 77.5083 2931(56) 0.0003181 1853. 2656.
77.5251 77.5120 3102(56) 0.0003145 1853. 2679.
77.5289 77.5158 3047(57) 0.0003079 1854. 2696.
77.5326 77.5195 3019(57) 0.0003114 1855. 2703.
77.5364 77.5233 2998(57) 0.0003114 1855. 2699.
77.5401 77.5270 2747(54) 0.0003391 1856. 2683.
77.5439 77.5308 2675(53) 0.0003498 1857. 2654.
77.5477 77.5346 2520(50) 0.000394 1857. 2614.
77.5514 77.5383 2510(52) 0.000367 1858. 2568.
77.5552 77.5421 2402(51) . . .
77.5589 77.5458 2381(50) . . .
77.5627 77.5496 2194(48) . . .
77.5664 77.5533 2212(48) . . .
77.5702 77.5571 2187(49) . . .
77.5739 77.5608 2205(49) . . .
77.5777 77.5646 2054(47) . . .
77.5814 77.5683 2124(47) . . .
77.5852 77.5721 2171(47) . . .
77.5890 77.5759 2281(49) . . .
77.5927 77.5796 2321(51) . . .
77.5965 77.5834 2363(51) . . .
77.6002 77.5871 2449(51) . . .
77.6040 77.5909 2523(52) . . .
77.6077 77.5946 2533(52) . . .
77.6115 77.5984 2590(52) . . .
77.6152 77.6021 2616(53) . . .
77.6190 77.6059 2719(54) . . .
77.6227 77.6096 2722(54) . . .
77.6265 77.6134 2629(54) . . .
77.6302 77.6171 2493(52) . . .
77.6340 77.6209 2690(54) . . .
77.6378 77.6247 2515(52) . . .
77.6415 77.6284 2591(52) . . .
77.6453 77.6322 2426(51) . . .
77.6490 77.6359 2333(49) . . .
77.6528 77.6397 2409(50) . . .
77.6565 77.6434 2305(49) . . .
77.6603 77.6472 2479(52) . . .
77.6640 77.6509 2529(52) . . .
77.6678 77.6547 2644(54) . . .
77.6715 77.6584 2770(55) . . .
77.6753 77.6622 2878(56) . . .
77.6791 77.6660 2998(56) . . .
77.6828 77.6697 3142(58) . . .
77.6866 77.6735 3234(58) . . .
77.6903 77.6772 3361(59) . . .
77.6941 77.6810 3324(60) . . .
77.6978 77.6847 3211(59) . . .
77.7016 77.6885 3292(60) . . .
77.7053 77.6922 3018(57) . . .
77.7091 77.6960 2996(57) . . .
77.7128 77.6997 2901(57) . . .
77.7166 77.7035 2957(57) . . .
77.7203 77.7072 2813(55) . . .
77.7241 77.7110 2778(54) . . .
77.7279 77.7148 2710(54) . . .
77.7316 77.7185 2762(54) . . .
77.7354 77.7223 2680(54) . . .
77.7391 77.7260 2435(51) . . .
77.7429 77.7298 2450(51) . . .
77.7466 77.7335 2394(51) . . .
77.7504 77.7373 2351(50) . . .
77.7541 77.7410 2289(50) . . .
77.7579 77.7448 2231(48) . . .
77.7616 77.7485 2215(49) . . .
77.7654 77.7523 2089(47) . . .
77.7691 77.7560 2094(47) . . .
77.7729 77.7598 2037(47) . . .
77.7766 77.7635 2006(47) . . .
77.7804 77.7673 2022(46) . . .
77.7842 77.7711 1998(47) . . .
77.7879 77.7748 1892(46) . . .
77.7917 77.7786 1964(46) . . .
77.7954 77.7823 1844(45) . . .
77.7992 77.7861 1927(46) . . .
77.8029 77.7898 1963(45) . . .
77.8067 77.7936 1973(46) . . .
77.8104 77.7973 1969(46) . . .
77.8142 77.8011 2007(46) . . .
77.8179 77.8048 1987(46) . . .
77.8217 77.8086 1954(45) . . .
77.8254 77.8123 2062(46) . . .
77.8292 77.8161 2057(45) . . .
77.8329 77.8198 2133(45) . . .
77.8366 77.8235 2133(45) . . .
77.8403 77.8272 2133(45) . . .
77.8440 77.8309 2133(45) . . .
loop_
_refln_index_h
_refln_index_k
_refln_index_l
_refln_observed_status
_refln_F_squared_meas
_refln_F_squared_calc
_refln_phase_calc
_refln_d_spacing
_gsas_i100_meas
0 2 0 o 1646.045 816.161 180.00 5.58772 2.17
1 1 0 o 1554.496 1003.601 180.00 4.86402 3.11
0 1 1 o 5832.246 5422.988 0.00 4.64187 10.64
1 2 -1 o 116333.97 115144.34 180.00 3.18181 100.00
1 3 0 o 9635.865 8187.617 180.00 3.06679 7.70
1 2 1 o 112345.84 109766.38 180.00 3.00681 86.30
0 3 1 o 79.050 76.137 180.00 3.00874 0.06
0 4 0 o 75610.42 65817.55 180.00 2.79386 25.10
2 0 0 o 70965.06 67830.82 180.00 2.70129 22.03
0 0 2 o 54078.14 55250.45 0.00 2.55144 14.99
2 2 0 o 2.790 42.582 180.00 2.43201 0.00
2 1 -1 o 988.295 1094.211 180.00 2.41388 0.49
0 2 2 o 488.763 651.964 180.00 2.32093 0.22
1 1 -2 o 5322.177 5332.076 180.00 2.33096 2.47
1 4 -1 o 621.649 623.512 180.00 2.26537 0.27
2 1 1 o 13080.109 12368.967 180.00 2.26290 5.72
1 4 1 o 9379.493 10224.940 0.00 2.19957 3.88
1 1 2 o 798.126 657.843 180.00 2.19416 0.33
1 5 0 o 923.497 623.707 0.00 2.06532 0.34
2 3 -1 o 3081.241 2597.168 0.00 2.05988 1.12
0 5 1 o 22336.369 21281.625 180.00 2.04731 8.01
1 3 -2 o 9813.979 9328.939 180.00 2.00762 3.39
2 3 1 o 7.765 6.766 180.00 1.96365 0.00
2 4 0 o 92691.09 94825.71 0.00 1.94200 29.96
2 0 -2 o 115179.20 113947.64 180.00 1.93532 18.49
1 3 2 o 17958.527 16826.135 180.00 1.91822 5.67
0 4 2 o 94009.42 96010.73 180.00 1.88403 28.62
0 6 0 o 1268.691 1293.827 0.00 1.86257 0.19
2 2 -2 o 870.471 964.341 0.00 1.82873 0.25
2 0 2 o 97577.94 104809.72 180.00 1.78366 13.34
3 1 0 o 2930.430 2681.126 0.00 1.77793 0.80
2 2 2 o 1484.871 1198.590 0.00 1.69919 0.37
0 1 3 o 5394.525 4996.220 0.00 1.68159 1.31
1 6 -1 o 61827.57 59541.14 0.00 1.67836 15.00
3 2 -1 o 77443.77 81592.95 0.00 1.66429 18.48
2 5 -1 o 14754.100 14225.465 0.00 1.65796 3.50
1 6 1 o 58188.39 56118.13 0.00 1.65107 13.67
1 5 -2 o 414.203 424.599 180.00 1.63035 0.09
3 3 0 o 12077.632 12145.403 0.00 1.62134 2.74
2 5 1 o 12786.589 12656.488 0.00 1.60653 2.85
1 2 -3 o 62854.54 66582.49 180.00 1.59279 13.77
2 4 -2 o 54700.94 54527.49 0.00 1.59091 11.95
3 2 1 o 61411.04 61432.11 0.00 1.58805 13.37
1 5 2 o 49.271 43.076 180.00 1.58137 0.01
0 3 3 o 907.143 859.763 180.00 1.54729 0.19
1 2 3 o 66723.60 68708.13 180.00 1.52558 13.43
2 6 0 o 2562.828 2663.347 180.00 1.53340 0.52
1 7 0 o 27556.498 27403.207 0.00 1.53104 5.59
3 1 -2 o 164.667 133.833 0.00 1.51712 0.03
0 7 1 o 36.876 34.839 0.00 1.52366 0.01
2 4 2 o 48203.80 51305.16 0.00 1.50340 9.43
0 6 2 o 2371.400 2637.511 0.00 1.50437 0.46
2 1 -3 o 6057.666 6305.242 180.00 1.48220 1.15
3 4 -1 o 1694.267 1913.648 180.00 1.47907 0.32
1 4 -3 o 3409.309 3730.380 0.00 1.42820 0.60
3 3 -2 o 6057.110 6579.817 0.00 1.41630 1.06
3 4 1 o 166.584 297.752 180.00 1.42478 0.03
3 1 2 o 1375.659 1605.630 0.00 1.40655 0.24
3 5 0 o 293.882 397.612 0.00 1.40231 0.05
0 8 0 o 36173.09 32117.172 0.00 1.39693 3.07
1 4 3 o 0.001 0.002 0.00 1.37914 0.00
2 1 3 o 692.697 1087.267 180.00 1.37859 0.11
2 3 -3 o 77.858 77.705 180.00 1.38777 0.01
0 5 3 o 8803.899 9317.587 180.00 1.35357 1.40
4 0 0 o 58686.61 61692.61 0.00 1.35065 4.66
2 6 -2 o 943.312 1100.698 180.00 1.34202 0.15
2 7 -1 o 0.495 0.532 0.00 1.34115 0.00
3 3 2 o 3703.264 3560.658 0.00 1.32509 0.57
4 1 -1 o 5157.869 5039.289 0.00 1.32347 0.79
1 7 -2 o 15780.345 16573.820 0.00 1.32641 2.42
2 7 1 o 159.976 144.422 0.00 1.31349 0.02
1 8 -1 o 6953.465 6296.869 180.00 1.31397 1.05
4 2 0 o 2697.190 2374.556 180.00 1.31284 0.41
2 3 3 o 546.043 560.857 0.00 1.30163 0.08
1 7 2 o 14008.895 15492.753 0.00 1.29963 2.07
1 8 1 o 60.396 69.802 180.00 1.30075 0.01
2 6 2 o 931.746 1002.135 180.00 1.28823 0.14
0 0 4 o 67907.91 69865.71 0.00 1.27572 4.83
3 6 -1 o 34938.125 33840.184 180.00 1.27282 4.95
4 1 1 o 2146.000 1877.115 0.00 1.27180 0.30
3 5 -2 o 1280.952 1181.053 180.00 1.26326 0.18
3 2 -3 o 51027.25 49688.74 0.00 1.25713 7.06
4 3 -1 o 13.579 11.142 180.00 1.25494 0.00
1 1 -4 o 201.796 195.184 180.00 1.25684 0.03
0 2 4 o 10.072 10.191 180.00 1.24372 0.00
3 6 1 o 50355.52 51800.81 180.00 1.23773 6.76
4 0 -2 o 54959.11 53101.00 0.00 1.23612 3.68
2 5 -3 o 13723.339 14131.661 0.00 1.24288 1.86
2 8 0 o 35917.79 36911.46 180.00 1.24083 4.85
1 6 -3 o 44999.14 43995.61 0.00 1.23997 6.06
0 8 2 o 39396.19 39207.43 0.00 1.22530 5.19
4 4 0 o 43813.68 43825.09 180.00 1.21601 5.69
1 1 4 o 2595.680 2422.029 180.00 1.21233 0.33
4 3 1 o 853.471 712.424 180.00 1.21063 0.11
1 6 3 o 39764.98 38616.66 0.00 1.20746 5.09
4 2 -2 o 122.667 120.604 0.00 1.20694 0.02
1 9 0 o 31.817 26.096 0.00 1.21016 0.00
0 9 1 o 23430.234 22951.330 0.00 1.20651 3.00
3 5 2 o 538.882 521.274 180.00 1.19725 0.07
3 7 0 o 12402.355 12770.864 180.00 1.19464 1.56
1 3 -4 o 7410.338 7530.256 180.00 1.19770 0.93
2 0 -4 o 41028.55 44022.09 180.00 1.19169 2.56
2 5 3 o 14053.882 14207.041 0.00 1.17987 1.72
3 4 -3 o 497.481 426.335 180.00 1.17134 0.06
0 7 3 o 141.478 143.867 180.00 1.16407 0.02
3 2 3 o 48122.36 50986.05 0.00 1.16306 5.74
0 4 4 o 36260.54 38162.78 180.00 1.16047 4.30
1 3 4 o 3029.412 3161.158 180.00 1.15900 0.36
2 2 -4 o 276.741 241.011 0.00 1.16548 0.03
4 0 2 o 44062.23 47114.08 0.00 1.15538 2.59
4 5 -1 o 10367.919 11535.967 180.00 1.14476 1.20
2 8 -2 o 28646.863 27778.289 180.00 1.13268 3.25
4 2 2 o 201.915 193.009 0.00 1.13145 0.02
4 4 -2 o 41643.43 42599.70 180.00 1.13042 4.70
2 0 4 o 39397.00 40456.89 180.00 1.11885 2.18
0 10 0 o 2109.857 1961.092 180.00 1.11754 0.12
4 5 1 o 10408.336 10821.528 180.00 1.11083 1.14
2 9 -1 o 27766.021 27821.400 180.00 1.10962 3.03
3 7 -2 o 18163.781 19497.535 180.00 1.10512 1.96
2 2 4 o 84.006 85.150 0.00 1.09708 0.01
1 9 -2 o 25.106 24.083 180.00 1.10122 0.00
1 5 -4 o 618.975 631.483 0.00 1.10081 0.07
2 8 2 o 26953.881 26900.180 180.00 1.09978 2.89
4 1 -3 o 2027.950 2050.517 0.00 1.09711 0.22
3 4 3 o 768.836 762.644 180.00 1.09413 0.08
2 9 1 o 18792.701 18488.439 180.00 1.09380 1.99
4 6 0 o 827.950 802.759 0.00 1.09342 0.09
2 7 -3 o 116.973 139.482 180.00 1.09140 0.01
2 4 -4 o 42963.94 42431.36 0.00 1.09614 4.57
3 8 -1 o 490.826 580.804 0.00 1.09015 0.05
1 9 2 o 123.042 160.638 180.00 1.08575 0.01
3 1 -4 o 2568.739 3018.870 0.00 1.07845 0.27
5 1 0 o 886.316 943.315 180.00 1.07550 0.09
1 5 4 o 192.089 186.763 0.00 1.07054 0.02
1 8 -3 o 214.199 202.533 180.00 1.06929 0.02
1 10 -1 o 19867.748 19480.469 180.00 1.07369 2.03
3 8 1 o 2179.216 2206.780 0.00 1.06786 0.22
4 4 2 o 39409.43 39711.30 180.00 1.06769 3.99
1 10 1 o 24915.617 23850.965 180.00 1.06644 2.52
3 6 -3 o 36237.91 37017.22 180.00 1.06060 3.63
3 7 2 o 18044.830 18435.516 180.00 1.06012 1.80
4 3 -3 o 1290.583 1334.520 180.00 1.05711 0.13
5 2 -1 o 36696.27 35159.46 180.00 1.05564 3.64
0 6 4 o 861.074 715.413 0.00 1.05251 0.08
1 8 3 o 3360.167 2952.031 180.00 1.04823 0.33
2 7 3 o 514.833 461.646 180.00 1.04799 0.05
2 4 4 o 39176.41 39127.45 0.00 1.03866 3.77
3 3 -4 o 5068.508 5458.687 0.00 1.04039 0.49
5 3 0 o 5707.010 5646.309 180.00 1.03774 0.55
2 10 0 o 1424.780 1335.774 0.00 1.03266 0.14
4 6 -2 o 1236.550 951.059 0.00 1.02994 0.12
5 1 -2 o 2316.617 2131.572 180.00 1.02117 0.22
0 10 2 o 685.050 636.896 180.00 1.02366 0.06
4 7 -1 o 64.647 67.646 0.00 1.02315 0.01
5 2 1 o 43610.24 44568.13 180.00 1.02247 4.07
3 9 0 o 160.031 163.388 0.00 1.02226 0.01
4 1 3 o 3564.471 4036.037 0.00 1.01388 0.33
0 1 5 o 1835.682 2262.749 0.00 1.01635 0.17
3 6 3 o 24108.592 25320.766 180.00 1.00227 2.17
3 1 4 o 691.804 704.415 0.00 0.99910 0.06
2 6 -4 o 953.971 896.897 180.00 1.00381 0.09
5 4 -1 o 604.593 618.849 0.00 1.00329 0.05
0 9 3 o 20620.955 21426.641 0.00 1.00291 1.86
1 2 -5 o 39373.08 40076.07 180.00 1.00161 3.54
4 7 1 o 117.480 117.784 0.00 0.99871 0.01
1 11 0 o 24257.402 23679.338 180.00 0.99845 2.17
0 11 1 o 26.909 27.033 180.00 0.99639 0.00
5 3 -2 o 3770.004 4268.333 180.00 0.98868 0.33
1 7 -4 o 13076.902 14644.255 0.00 0.99142 1.15
4 5 -3 o 6241.760 7058.503 180.00 0.98870 0.55
4 3 3 o 384.070 408.891 180.00 0.98206 0.03
0 3 5 o 46.551 185.117 180.00 0.98430 0.00
4 6 2 o 876.853 876.710 0.00 0.98182 0.08
1 2 5 o 32445.471 33743.211 180.00 0.97315 2.76
3 5 -4 o 107.818 82.880 0.00 0.97498 0.01
5 4 1 o 376.437 302.237 0.00 0.97469 0.03
1 7 4 o 14877.783 14958.784 0.00 0.96913 1.26
3 3 4 o 7967.933 8163.381 0.00 0.96861 0.67
2 1 -5 o 1222.518 1769.803 180.00 0.97778 0.10
5 5 0 o 214.211 216.514 0.00 0.97280 0.02
4 0 -4 o 34673.648 33499.043 0.00 0.96766 1.46
4 8 0 o 24809.180 25216.898 0.00 0.97100 2.10
2 10 -2 o 930.274 895.777 0.00 0.96778 0.08
3 9 -2 o 0.390 0.382 0.00 0.96447 0.00
2 6 4 o 1073.009 812.185 180.00 0.95911 0.09
5 1 2 o 738.805 912.642 180.00 0.96345 0.06
4 2 -4 o 397.684 432.459 180.00 0.95347 0.03
1 4 -5 o 51.933 60.078 0.00 0.95657 0.00
2 9 -3 o 11136.499 12322.584 180.00 0.95531 0.92
2 3 -5 o 1021.935 1404.552 0.00 0.94915 0.08
3 8 -3 o 1587.989 1185.741 0.00 0.94780 0.13
2 10 2 o 981.849 729.427 0.00 0.94702 0.08
0 8 4 o 19926.018 19965.664 0.00 0.94201 1.60
3 10 -1 o 21060.340 20752.369 0.00 0.94084 1.68
2 11 -1 o 0.058 0.046 180.00 0.93970 0.00
5 2 -3 o 37272.40 36696.95 180.00 0.93436 2.94
3 9 2 o 13.785 13.241 180.00 0.93412 0.00
5 5 -2 o 33.999 29.270 0.00 0.93204 0.00
1 4 5 o 917.630 859.802 0.00 0.93168 0.07
5 3 2 o 5194.392 5436.695 180.00 0.93603 0.41
5 6 -1 o 37446.06 35193.21 0.00 0.93105 2.94
1 11 -2 o 23284.160 23363.148 180.00 0.93458 1.84
0 5 5 o 10240.653 10103.958 180.00 0.92837 0.80
2 1 5 o 4197.742 4324.983 180.00 0.92676 0.33
0 12 0 o 20328.658 19121.641 180.00 0.93129 0.80
4 5 3 o 6190.390 6439.884 180.00 0.92649 0.48
2 9 3 o 16540.818 16996.320 180.00 0.92579 1.28
4 8 -2 o 20194.355 20708.473 0.00 0.92573 1.57
2 11 1 o 715.717 570.739 0.00 0.93003 0.06
1 10 -3 o 17930.113 17929.078 180.00 0.92734 1.40
3 10 1 o 13700.416 14410.818 0.00 0.92640 1.06
1 11 2 o 21265.219 19963.979 180.00 0.92507 1.65
3 5 4 o 27.975 25.497 180.00 0.91517 0.00
4 4 -4 o 31201.463 30366.621 180.00 0.91437 2.37
1 10 3 o 15977.061 16113.999 180.00 0.91350 1.21
4 7 -3 o 0.140 0.129 0.00 0.90716 0.00
3 8 3 o 697.106 480.987 0.00 0.90548 0.05
4 9 -1 o 12913.139 12919.658 0.00 0.90854 0.97
3 2 -5 o 31608.916 31731.686 0.00 0.90845 2.37
5 6 1 o 18450.621 18259.730 0.00 0.90806 1.38
2 8 -4 o 22814.430 22464.561 180.00 0.90662 1.70
2 3 5 o 486.007 410.484 0.00 0.90227 0.04
1 12 -1 o 539.414 369.236 0.00 0.90545 0.04
5 4 -3 o 120.693 105.213 0.00 0.89748 0.01
1 12 1 o 873.850 712.916 0.00 0.90109 0.06
6 1 -1 o 3056.689 3200.298 180.00 0.89647 0.22
6 0 0 o 32152.289 31800.158 180.00 0.90043 1.18
5 7 0 o 11122.021 11537.125 0.00 0.89483 0.81
2 5 -5 o 5676.697 6132.168 0.00 0.89870 0.42
3 7 -4 o 8610.090 9020.056 180.00 0.89653 0.63
4 0 4 o 28793.814 29916.088 0.00 0.89183 1.04
4 9 1 o 16140.166 16827.504 0.00 0.89129 1.17
4 8 2 o 20147.010 19366.912 0.00 0.89032 1.45
1 6 -5 o 21897.795 21561.295 0.00 0.89335 1.59
5 5 2 o 201.652 192.597 0.00 0.88754 0.01
6 2 0 o 153.972 114.387 180.00 0.88896 0.01
1 9 -4 o 75.099 58.853 180.00 0.88610 0.01
3 11 0 o 21440.748 20149.650 0.00 0.88485 1.53
4 2 4 o 584.639 556.079 180.00 0.88069 0.04
2 12 0 o 9469.671 8972.731 0.00 0.88043 0.67
6 3 -1 o 476.295 480.732 0.00 0.87425 0.03
2 8 4 o 19348.328 20719.242 180.00 0.87328 1.35
1 6 5 o 24706.063 26303.197 0.00 0.87298 1.72
0 11 3 o 284.545 294.381 180.00 0.87221 0.02
6 0 -2 o 29373.176 28586.680 180.00 0.87171 1.02
0 12 2 o 7953.510 7757.611 180.00 0.87483 0.56
3 4 -5 o 230.262 230.801 180.00 0.87444 0.02
1 9 4 o 1.060 1.047 0.00 0.87008 0.00
5 2 3 o 26469.768 25610.006 180.00 0.86943 1.83
6 1 1 o 1900.904 1872.299 180.00 0.87194 0.13
5 7 -2 o 9036.856 10285.812 0.00 0.86280 0.62
6 2 -2 o 746.781 614.466 0.00 0.86129 0.05
4 10 0 o 120.918 103.765 180.00 0.86102 0.01
0 7 5 o 339.135 418.675 0.00 0.85989 0.02
4 6 -4 o 447.949 508.609 0.00 0.85869 0.03
2 5 5 o 4602.911 5201.092 0.00 0.85861 0.31
4 7 3 o 1.275 1.424 180.00 0.85840 0.00
5 1 -4 o 496.545 494.733 180.00 0.85729 0.03
6 4 0 o 28575.344 26892.877 0.00 0.85702 1.92
3 2 5 o 25778.082 26611.369 0.00 0.84843 1.70
5 8 -1 o 780.083 621.296 180.00 0.85194 0.05
0 0 6 o 24290.314 25377.604 0.00 0.85048 0.81
4 4 4 o 25940.736 25851.773 180.00 0.84960 1.72
3 7 4 o 7944.549 8188.607 180.00 0.84937 0.53
6 3 1 o 715.416 671.157 0.00 0.85146 0.05
4 1 -5 o 3021.443 2973.740 0.00 0.84578 0.20
1 13 0 o 137.421 148.605 0.00 0.84897 0.01
1 1 -6 o 2015.556 2082.413 180.00 0.84841 0.13
5 6 -3 o 18121.488 17834.775 0.00 0.84465 1.19
0 13 1 o 21256.520 21867.301 180.00 0.84770 1.40
3 11 -2 o 16593.666 16344.625 0.00 0.84657 1.09
3 10 -3 o 13718.622 13559.114 0.00 0.84472 0.90
0 2 6 o 531.355 417.477 180.00 0.84080 0.03
0 10 4 o 1313.757 1061.444 180.00 0.84062 0.09
5 4 3 o 398.971 396.080 0.00 0.83948 0.03
5 3 -4 o 4893.300 5077.391 180.00 0.83779 0.32
2 11 -3 o 260.537 226.816 0.00 0.84036 0.02
2 12 -2 o 14299.354 13629.709 0.00 0.83918 0.93
6 5 -1 o 5338.285 5769.753 0.00 0.83436 0.34
5 8 1 o 479.785 511.869 180.00 0.83422 0.03
2 7 -5 o 4.235 5.501 180.00 0.83615 0.00
6 4 -2 o 24573.180 24788.521 0.00 0.83214 1.57
1 3 -6 o 3311.516 3578.471 180.00 0.82950 0.21
4 10 -2 o 1343.864 1239.299 180.00 0.82898 0.09
1 1 6 o 627.966 650.197 180.00 0.82753 0.04
2 0 -6 o 29808.434 28058.178 180.00 0.83087 0.95
5 7 2 o 9517.054 9639.876 0.00 0.82714 0.60
4 3 -5 o 98.272 99.548 180.00 0.82704 0.01
3 11 2 o 17659.523 17797.943 0.00 0.82582 1.11
2 12 2 o 13857.795 13226.532 0.00 0.82554 0.87
6 0 2 o 26865.561 27107.068 180.00 0.82817 0.85
3 4 5 o 413.181 290.393 180.00 0.82053 0.03
4 9 -3 o 17878.100 17151.594 0.00 0.82440 1.12
1 8 -5 o 1424.375 1014.939 180.00 0.82277 0.09
6 1 -3 o 1894.188 1694.980 180.00 0.82185 0.12
3 6 -5 o 22466.869 21177.949 180.00 0.82537 1.41
2 11 3 o 37.905 26.123 180.00 0.82005 0.00
2 2 -6 o 0.436 0.397 0.00 0.82183 0.00
3 12 -1 o 768.009 579.513 180.00 0.82144 0.05
3 9 -4 o 115.396 135.572 0.00 0.81639 0.01
6 2 2 o 760.054 650.767 0.00 0.81923 0.05
2 10 -4 o 432.112 376.839 0.00 0.81517 0.03
5 9 0 o 87.133 77.983 180.00 0.81512 0.01
6 5 1 o 6735.090 6625.924 0.00 0.81447 0.41
3 10 3 o 15909.266 15713.989 0.00 0.81435 0.98
0 4 6 o 25797.951 24727.102 180.00 0.81362 1.58
1 12 -3 o 417.098 377.453 0.00 0.81240 0.03
3 12 1 o 155.782 152.653 180.00 0.81177 0.01
6 6 0 o 529.206 474.595 180.00 0.81067 0.03
1 3 6 o 5209.025 5904.688 180.00 0.80995 0.32
2 13 -1 o 17488.652 17006.014 0.00 0.81196 1.07
4 6 4 o 321.171 371.483 0.00 0.80438 0.02
4 11 -1 o 111.773 237.024 180.00 0.80799 0.01
2 7 5 o 20.329 15.100 0.00 0.80357 0.00
1 8 5 o 225.621 210.571 180.00 0.80677 0.01
2 13 1 o 22360.961 22040.977 0.00 0.80570 1.35
1 13 -2 o 427.762 598.885 0.00 0.80866 0.03
6 3 -3 o 340.010 385.551 0.00 0.80463 0.02
4 10 2 o 1682.165 1229.275 180.00 0.80327 0.10
1 12 3 o 317.098 254.624 0.00 0.80305 0.02
5 5 -4 o 314.344 463.723 0.00 0.80249 0.02
1 13 2 o 130.117 199.034 0.00 0.80247 0.01
2 0 6 o 23752.059 25144.277 180.00 0.79291 0.70
4 11 1 o 12.974 12.188 180.00 0.79579 0.00
5 6 3 o 27158.301 25494.352 0.00 0.79577 1.60
4 8 -4 o 19170.322 17810.617 0.00 0.79545 1.13
1 5 -6 o 31.689 28.346 0.00 0.79519 0.00
0 14 0 o 207.170 141.915 0.00 0.79825 0.01
6 4 2 o 22454.494 21874.766 0.00 0.79402 1.32
2 4 -6 o 21499.564 22477.996 0.00 0.79639 1.27
4 5 -5 o 7103.833 7401.528 180.00 0.79303 0.42
1 11 -4 o 13480.110 14015.162 180.00 0.79208 0.79
5 1 4 o 1610.089 1682.078 180.00 0.79124 0.09
2 10 4 o 513.340 436.236 0.00 0.79069 0.03
5 9 -2 o 69.908 59.067 180.00 0.79068 0.00
6 6 -2 o 328.824 341.001 180.00 0.78952 0.02
3 1 -6 o 404.515 450.314 0.00 0.79246 0.02
2 2 6 o 14.057 20.453 0.00 0.78505 0.00
0 9 5 o 9489.435 10557.290 0.00 0.78844 0.55
4 9 3 o 12134.459 12366.839 0.00 0.78729 0.70
4 1 5 o 1317.645 1487.095 0.00 0.78216 0.08
5 8 -3 o 825.035 649.466 180.00 0.78426 0.05
3 9 4 o 318.633 345.386 0.00 0.78031 0.02
6 7 -1 o 13.541 11.649 180.00 0.78359 0.00
3 6 5 o 21560.186 20749.107 180.00 0.77958 1.23
1 5 6 o 109.874 152.449 0.00 0.77792 0.01
1 11 4 o 15781.342 16779.852 180.00 0.78058 0.90
5 3 4 o 2247.731 3006.175 180.00 0.77583 0.13
1 14 1 o 5696.134 5892.570 0.00 0.77898 0.32
1 14 -1 o 7953.268 8287.958 0.00 0.78179 0.45
6 5 -3 o 6953.480 7326.238 0.00 0.77320 0.39
3 13 0 o 362.587 487.833 180.00 0.77579 0.02
5 10 -1 o 8819.441 10410.014 180.00 0.77474 0.50
3 3 -6 o 2730.366 3681.855 0.00 0.77699 0.15
0 6 6 o 356.317 358.190 0.00 0.77364 0.02
4 3 5 o 446.786 447.918 180.00 0.76727 0.02
2 9 -5 o 14738.854 15494.343 180.00 0.77002 0.82
7 1 0 o 1075.189 1128.090 0.00 0.76996 0.06
6 0 -4 o 28070.578 25628.221 180.00 0.76565 0.77
3 8 -5 o 544.779 479.891 0.00 0.76875 0.03
6 1 3 o 2569.589 2511.290 180.00 0.76843 0.14
0 13 3 o 17090.105 17176.719 180.00 0.76723 0.94
6 7 1 o 159.991 160.777 180.00 0.76705 0.01
5 2 -5 o 21062.563 21046.471 180.00 0.76680 1.16
4 12 0 o 9429.470 9482.152 180.00 0.76670 0.52
2 4 6 o 21405.412 20523.006 0.00 0.76279 1.17
2 14 0 o 3.736 3.386 180.00 0.76552 0.00
7 2 -1 o 27910.350 24129.799 0.00 0.76521 1.53
5 9 2 o 138.481 134.290 180.00 0.76297 0.01
6 2 -4 o 5.206 3.471 180.00 0.75856 0.00
0 14 2 o 76.321 65.077 0.00 0.76183 0.00
5 10 1 o 17023.475 14843.605 180.00 0.76134 0.93
2 6 -6 o 523.140 321.125 180.00 0.75879 0.03
7 1 -2 o 678.900 794.672 0.00 0.75430 0.04
5 7 -4 o 8385.652 8637.350 0.00 0.75701 0.45
6 8 0 o 13859.602 14107.941 180.00 0.75683 0.75
6 6 2 o 256.420 259.738 180.00 0.75674 0.01
7 3 0 o 2482.126 2600.986 0.00 0.75575 0.13
3 12 -3 o 217.964 150.608 180.00 0.75512 0.01
4 8 4 o 15920.876 15921.668 0.00 0.75170 0.85
6 3 3 o 217.926 257.532 0.00 0.75430 0.01
1 10 -5 o 12426.918 12574.223 180.00 0.75261 0.66
0 12 4 o 11598.042 11709.470 180.00 0.75218 0.62
1 7 -6 o 7125.542 7560.249 0.00 0.75088 0.38
5 5 4 o 161.038 154.479 0.00 0.74755 0.01
3 13 -2 o 28.053 33.808 180.00 0.74961 0.00
4 7 -5 o 279.636 308.738 0.00 0.74905 0.01
5 8 3 o 349.114 330.425 180.00 0.74466 0.02
4 0 -6 o 25449.223 24781.531 0.00 0.74771 0.67
2 9 5 o 11379.153 11004.175 180.00 0.74435 0.60
3 1 6 o 1544.903 1524.154 0.00 0.74425 0.08
7 2 1 o 20349.135 19440.131 0.00 0.74731 1.07
4 11 -3 o 115.731 106.819 180.00 0.74709 0.01
5 4 -5 o 653.567 504.502 0.00 0.74602 0.03
3 5 -6 o 740.183 862.478 180.00 0.74858 0.04
2 13 -3 o 20841.500 19313.471 0.00 0.74528 1.09
7 4 -1 o 202.168 190.985 180.00 0.74455 0.01
7 3 -2 o 4925.401 5067.307 0.00 0.74092 0.26
4 12 -2 o 9181.751 9206.778 180.00 0.74381 0.48
1 10 5 o 11241.729 11228.500 180.00 0.74031 0.58
4 5 5 o 6850.577 6839.794 180.00 0.73988 0.36
6 8 -2 o 15773.662 15497.676 180.00 0.73953 0.82
6 4 -4 o 20248.359 18239.838 0.00 0.73842 1.05
3 11 -4 o 15182.064 15389.527 0.00 0.74112 0.79
4 2 -6 o 18.948 19.203 180.00 0.74110 0.00
5 11 0 o 13245.479 13276.345 180.00 0.74016 0.69
1 7 6 o 5641.889 6767.490 0.00 0.73629 0.29
2 14 -2 o 131.870 122.750 180.00 0.73794 0.01
0 15 1 o 557.568 473.413 0.00 0.73721 0.03
3 12 3 o 419.126 312.536 180.00 0.73319 0.02
1 15 0 o 18279.115 17045.912 0.00 0.73804 0.94
6 7 -3 o 379.522 451.851 180.00 0.73228 0.02
3 13 2 o 192.375 239.089 180.00 0.73509 0.01
3 3 6 o 1966.845 2024.300 0.00 0.73139 0.10
3 8 5 o 298.818 306.899 0.00 0.73135 0.02
2 12 -4 o 7072.033 7540.283 0.00 0.73379 0.36
2 6 6 o 228.140 264.500 180.00 0.72956 0.01
4 10 -4 o 102.689 105.750 180.00 0.73153 0.01
2 13 3 o 14337.010 14273.504 0.00 0.73101 0.73
0 1 7 o 2046.551 2287.889 0.00 0.72744 0.10
7 5 0 o 450.525 529.867 180.00 0.72953 0.02
0 8 6 o 15151.311 15176.245 0.00 0.72644 0.76
2 14 2 o 149.341 145.929 180.00 0.72861 0.01
6 9 -1 o 10830.554 10632.567 180.00 0.72838 0.55
6 5 3 o 5684.585 5857.953 0.00 0.72822 0.29
7 4 1 o 80.348 87.631 180.00 0.72803 0.00
3 14 -1 o 6380.643 6323.959 180.00 0.72579 0.32
4 12 2 o 8908.019 8595.360 180.00 0.72507 0.45
1 2 -7 o 19121.021 17942.100 180.00 0.72421 0.96
0 11 5 o 33.955 30.435 180.00 0.72001 0.00
5 10 -3 o 13425.013 12379.299 180.00 0.72280 0.67
4 13 -1 o 18512.713 17191.332 180.00 0.72242 0.92
7 2 -3 o 19226.811 18347.715 0.00 0.71941 0.95
4 4 -6 o 17986.674 16950.533 180.00 0.72229 0.89
4 11 3 o 496.610 483.641 180.00 0.71914 0.02
5 11 -2 o 14954.033 13995.360 180.00 0.72172 0.74
7 1 2 o 1375.762 1376.689 0.00 0.72108 0.07
1 14 -3 o 5441.037 5211.350 0.00 0.71953 0.27
3 14 1 o 6145.297 6009.600 180.00 0.71909 0.30
7 5 -2 o 135.944 128.739 180.00 0.71616 0.01
2 12 4 o 7428.604 7264.116 0.00 0.71578 0.36
0 3 7 o 659.405 701.666 180.00 0.71541 0.03
5 6 -5 o 18271.461 17852.102 0.00 0.71484 0.89
3 11 4 o 11812.838 11581.307 0.00 0.71380 0.58
7 6 -1 o 13142.027 13077.474 180.00 0.71355 0.64
6 9 1 o 11033.801 10778.540 180.00 0.71504 0.54
2 1 -7 o 2085.075 2569.789 180.00 0.71722 0.10
2 8 -6 o 13107.492 12788.221 180.00 0.71410 0.64
4 13 1 o 13939.223 13728.667 180.00 0.71366 0.68
2 15 -1 o 697.946 694.936 180.00 0.71334 0.03
5 7 4 o 7750.491 7458.681 0.00 0.71037 0.37
1 14 3 o 7313.396 6954.178 0.00 0.71301 0.36
6 8 2 o 14555.262 14117.983 180.00 0.71239 0.71
1 2 7 o 21414.197 20163.766 180.00 0.70898 1.03
6 0 4 o 21207.174 19937.008 180.00 0.70891 0.51
3 7 -6 o 9273.414 8851.966 180.00 0.71126 0.45
1 15 -2 o 16982.340 16506.666 0.00 0.71110 0.82
1 13 -4 o 45.562 44.928 0.00 0.71099 0.00
6 6 -4 o 250.581 209.610 180.00 0.70815 0.01
3 10 -5 o 11023.527 10637.071 0.00 0.71060 0.53
5 2 5 o 23429.572 20356.330 180.00 0.70772 1.13
3 5 6 o 481.602 440.749 180.00 0.70754 0.02
5 9 -4 o 185.786 171.148 180.00 0.70689 0.01
7 3 2 o 3883.752 3822.569 0.00 0.70937 0.19
2 15 1 o 311.710 296.582 180.00 0.70908 0.02
1 15 2 o 20480.383 18859.572 0.00 0.70688 0.98
1 4 -7 o 259.670 240.944 0.00 0.70663 0.01
4 7 5 o 291.700 497.668 0.00 0.70378 0.01
6 2 4 o 22.308 27.490 180.00 0.70327 0.00
2 11 -5 o 98.600 103.081 0.00 0.70591 0.00
6 1 -5 o 1710.584 2371.229 180.00 0.70290 0.08
1 13 4 o 316.820 423.205 0.00 0.70263 0.02
7 4 -3 o 194.033 178.229 180.00 0.70216 0.01
5 12 -1 o 23.829 43.174 0.00 0.70388 0.00
2 3 -7 o 139.650 186.703 0.00 0.70569 0.01
5 11 2 o 11235.185 11612.943 180.00 0.70046 0.53
1 9 -6 o 125.414 118.315 180.00 0.70189 0.01
6 10 0 o 1009.487 757.268 0.00 0.70116 0.05
4 9 -5 o 6845.590 7189.700 0.00 0.70040 0.32
4 10 4 o 23.248 34.792 180.00 0.69707 0.00
7 6 1 o 18631.889 18047.779 180.00 0.69897 0.88
5 1 -6 o 1418.670 1605.141 180.00 0.69512 0.07
4 0 6 o 21340.645 20392.713 0.00 0.69460 0.50
5 12 1 o 377.843 299.582 0.00 0.69379 0.02
6 7 3 o 290.606 241.214 180.00 0.69373 0.01
0 16 0 o 2943.437 2966.197 0.00 0.69846 0.07
0 5 7 o 3162.127 4015.913 180.00 0.69305 0.15
1 4 7 o 48.055 57.447 0.00 0.69245 0.00
7 7 0 o 8461.213 8347.991 180.00 0.69486 0.39
4 2 6 o 0.319 0.311 0.00 0.68929 0.00
6 3 -5 o 566.722 667.751 0.00 0.69204 0.03
5 10 3 o 7631.457 8421.617 180.00 0.69145 0.35
5 4 5 o 19.667 20.942 0.00 0.69128 0.00
4 6 -6 o 222.665 167.951 0.00 0.69388 0.01
1 9 6 o 330.385 330.056 180.00 0.68993 0.02
2 8 6 o 12635.300 12088.272 180.00 0.68957 0.58
2 1 7 o 1175.926 1111.398 180.00 0.68849 0.05
6 10 -2 o 19.611 17.618 0.00 0.68734 0.00
6 4 4 o 17937.234 16164.970 0.00 0.68714 0.82
6 9 -3 o 8124.298 8418.925 180.00 0.68663 0.37
2 11 5 o 611.111 724.097 0.00 0.68597 0.03
3 15 0 o 18051.219 17030.604 180.00 0.68844 0.83
3 2 -7 o 18571.107 18017.291 0.00 0.69041 0.86
7 5 2 o 68.651 62.327 180.00 0.68755 0.00
1 16 -1 o 215.092 193.265 0.00 0.68736 0.01
4 14 0 o 331.891 294.845 0.00 0.68720 0.02
5 3 -6 o 1963.441 2679.709 180.00 0.68461 0.09
1 12 -5 o 171.987 153.562 0.00 0.68716 0.01
7 1 -4 o 1143.327 1429.397 0.00 0.68429 0.05
7 7 -2 o 4774.109 5609.411 180.00 0.68328 0.22
1 16 1 o 21.344 25.161 180.00 0.68545 0.00
2 5 -7 o 4333.037 5375.938 0.00 0.68420 0.20
3 10 5 o 8670.958 9197.143 0.00 0.68075 0.39
0 15 3 o 282.356 460.506 0.00 0.68244 0.01
3 7 6 o 8281.056 7966.188 180.00 0.67578 0.37
2 3 7 o 567.289 616.849 0.00 0.67827 0.03
1 12 5 o 89.917 93.047 0.00 0.67776 0.00
1 6 -7 o 16843.021 16987.230 0.00 0.67996 0.76
5 8 -5 o 55.898 49.602 180.00 0.67711 0.00
4 4 6 o 14934.308 14646.130 180.00 0.67408 0.66
0 10 6 o 28.167 24.301 180.00 0.67679 0.00
0 14 4 o 0.533 0.458 0.00 0.67669 0.00
3 14 -3 o 5047.776 5456.161 180.00 0.67883 0.23
7 8 -1 o 158.095 145.864 0.00 0.67601 0.01
7 6 -3 o 16776.047 15573.089 180.00 0.67598 0.75
8 1 -1 o 1201.838 1121.511 0.00 0.67546 0.05
4 13 -3 o 11317.299 11486.634 180.00 0.67791 0.51
7 2 3 o 20354.561 17964.281 0.00 0.67718 0.91
7 3 -4 o 1924.938 1895.937 0.00 0.67426 0.09
2 16 0 o 5523.670 5028.266 180.00 0.67622 0.25
6 11 -1 o 357.245 396.021 0.00 0.67341 0.02
8 0 0 o 21038.547 19202.340 0.00 0.67532 0.47
5 13 0 o 178.088 200.434 0.00 0.67272 0.01
6 5 -5 o 3344.715 3677.137 0.00 0.67174 0.15
6 8 -4 o 10217.354 10581.314 180.00 0.67141 0.45
0 16 2 o 4921.300 5026.466 0.00 0.67368 0.22
3 13 -4 o 676.599 745.792 180.00 0.67344 0.03
8 2 0 o 123.373 116.618 180.00 0.67044 0.01
3 4 -7 o 224.366 200.170 180.00 0.67512 0.01
4 12 -4 o 6309.346 6541.748 180.00 0.67101 0.28
5 9 4 o 63.022 95.778 180.00 0.66847 0.00
4 14 -2 o 37.364 35.985 180.00 0.67058 0.00
3 15 -2 o 15950.119 13857.452 180.00 0.66994 0.70
1 6 7 o 11108.569 11354.137 0.00 0.66731 0.48
3 9 -6 o 79.057 94.644 0.00 0.66921 0.00
8 0 -2 o 15644.185 15248.020 0.00 0.66642 0.34
5 6 5 o 10795.103 10982.477 0.00 0.66626 0.47
8 3 -1 o 585.795 692.801 180.00 0.66581 0.03
4 9 5 o 7514.551 7939.956 0.00 0.66297 0.32
6 10 2 o 4.329 5.052 0.00 0.66538 0.00
5 5 -6 o 73.310 141.810 0.00 0.66494 0.00
2 15 -3 o 262.746 264.161 180.00 0.66685 0.01
2 10 -6 o 339.602 336.954 0.00 0.66677 0.01
5 12 -3 o 269.183 165.438 0.00 0.66425 0.01
7 8 1 o 309.612 335.973 0.00 0.66357 0.01
0 7 7 o 40.494 43.063 0.00 0.66312 0.00
6 11 1 o 81.453 87.625 0.00 0.66283 0.00
3 14 3 o 5011.173 5482.680 180.00 0.66276 0.22
7 4 3 o 116.074 127.585 180.00 0.66274 0.00
6 6 4 o 151.911 174.350 180.00 0.66254 0.01
8 2 -2 o 1.371 3.371 180.00 0.66173 0.00
2 5 7 o 5149.822 5463.741 0.00 0.65912 0.22
4 1 -7 o 1246.390 1390.366 0.00 0.66339 0.05
2 14 -4 o 14.979 16.197 180.00 0.66321 0.00
3 15 2 o 12109.134 11540.294 180.00 0.65952 0.52
8 1 1 o 1651.294 2550.954 0.00 0.66133 0.07
5 13 -2 o 445.981 492.231 0.00 0.65879 0.02
7 7 2 o 4936.087 5194.961 180.00 0.65830 0.21
0 13 5 o 13270.002 12538.000 180.00 0.65749 0.56
4 8 -6 o 10013.852 10309.049 0.00 0.65922 0.43
4 13 3 o 13138.571 12863.008 180.00 0.65682 0.56
4 14 2 o 71.129 69.203 180.00 0.65675 0.00
2 15 3 o 617.634 587.120 180.00 0.65657 0.03
8 4 0 o 14012.814 13308.853 180.00 0.65642 0.59
5 11 -4 o 9537.776 9224.861 180.00 0.65632 0.40
7 9 0 o 45.253 52.795 0.00 0.65550 0.00
7 5 -4 o 357.480 437.060 180.00 0.65544 0.02
3 2 7 o 16286.406 15406.135 0.00 0.65283 0.68
2 16 -2 o 3061.633 3061.618 180.00 0.65699 0.13
6 9 3 o 6672.510 6907.480 180.00 0.65455 0.28
4 6 6 o 146.943 128.093 0.00 0.65082 0.01
2 7 -7 o 219.657 292.943 180.00 0.65536 0.01
3 13 4 o 206.036 199.184 180.00 0.65275 0.01
3 12 -5 o 80.313 80.192 180.00 0.65474 0.00
1 11 -6 o 11489.680 11235.835 180.00 0.65231 0.48
4 3 -7 o 804.115 977.943 180.00 0.65423 0.03
4 11 -5 o 270.648 219.808 180.00 0.65111 0.01
6 1 5 o 1558.490 1507.644 180.00 0.64834 0.06
2 16 2 o 2305.209 2960.995 180.00 0.65038 0.10
1 17 0 o 932.827 942.725 180.00 0.65257 0.04
8 3 1 o 351.456 340.502 180.00 0.65226 0.01
2 14 4 o 0.928 1.016 180.00 0.64982 0.00
0 17 1 o 15807.991 14561.092 0.00 0.65199 0.66
3 6 -7 o 12567.014 11866.446 180.00 0.65176 0.53
2 10 6 o 194.830 195.868 0.00 0.64668 0.01
8 4 -2 o 15178.882 14659.172 180.00 0.64824 0.63
4 15 -1 o 226.718 302.363 0.00 0.65033 0.01
8 5 -1 o 4818.988 5004.494 180.00 0.64767 0.20
8 1 -3 o 2268.955 2599.237 0.00 0.64492 0.09
6 12 0 o 6751.864 6975.331 0.00 0.64733 0.28
1 8 -7 o 110.888 115.625 180.00 0.64724 0.00
2 13 -5 o 9936.881 9895.137 0.00 0.64669 0.41
3 16 -1 o 28.675 27.437 180.00 0.64837 0.00
7 9 -2 o 226.523 362.158 0.00 0.64575 0.01
6 0 -6 o 11631.333 12517.762 180.00 0.64511 0.24
5 1 6 o 602.432 616.799 180.00 0.64222 0.02
6 7 -5 o 35.179 37.132 180.00 0.64438 0.00
4 12 4 o 6188.290 6193.781 180.00 0.64412 0.25
4 15 1 o 549.133 534.248 0.00 0.64391 0.02
7 8 -3 o 147.801 136.678 0.00 0.64381 0.01
3 16 1 o 41.161 35.295 180.00 0.64358 0.00
1 11 6 o 8397.884 8863.000 180.00 0.64267 0.34
5 13 2 o 189.959 207.904 0.00 0.64249 0.01
3 4 7 o 15.653 15.506 180.00 0.63986 0.00
6 3 5 o 949.548 938.398 0.00 0.63979 0.04
1 15 -4 o 14442.942 13591.818 0.00 0.64195 0.59
3 9 6 o 43.783 35.122 0.00 0.63941 0.00
1 16 -3 o 5.741 5.553 180.00 0.64390 0.00
5 14 -1 o 4493.184 4327.205 0.00 0.64088 0.18
6 2 -6 o 68.469 65.935 0.00 0.64085 0.00
7 6 3 o 10403.720 10214.547 180.00 0.64059 0.42
6 11 -3 o 38.721 37.862 0.00 0.64000 0.00
5 12 3 o 12.939 12.377 0.00 0.63967 0.00
7 2 -5 o 16151.888 14693.710 0.00 0.63708 0.65
1 16 3 o 236.825 181.336 0.00 0.63921 0.01
8 3 -3 o 530.368 499.179 180.00 0.63649 0.02
1 8 7 o 197.445 190.030 180.00 0.63630 0.01
1 1 -8 o 594.264 691.151 180.00 0.63852 0.02
5 7 -6 o 4837.682 5583.701 0.00 0.63837 0.20
8 0 2 o 13299.784 12880.053 0.00 0.64006 0.27
0 0 8 o 15787.570 15367.761 0.00 0.63786 0.32
5 8 5 o 311.782 264.924 180.00 0.63539 0.01
7 1 4 o 618.156 603.066 0.00 0.63669 0.02
6 12 -2 o 6366.994 5998.502 0.00 0.63641 0.26
5 10 -5 o 8409.359 7987.547 180.00 0.63636 0.34
5 3 6 o 2984.397 3317.859 180.00 0.63390 0.12
1 15 4 o 11215.418 10262.638 0.00 0.63578 0.45
2 7 7 o 508.775 553.630 180.00 0.63322 0.02
7 10 -1 o 11085.333 9417.046 0.00 0.63545 0.45
8 5 1 o 4407.900 3862.028 180.00 0.63518 0.18
8 6 0 o 111.736 87.303 0.00 0.63488 0.00
4 5 -7 o 3932.091 3679.300 180.00 0.63700 0.16
8 2 2 o 0.230 0.216 0.00 0.63590 0.00
0 2 8 o 36.431 43.055 0.00 0.63374 0.00
3 12 5 o 41.056 36.749 180.00 0.63117 0.00
5 14 1 o 5073.429 5551.315 0.00 0.63323 0.20
2 17 -1 o 15230.220 12986.025 180.00 0.63530 0.61
2 17 1 o 14516.853 13040.034 180.00 0.63229 0.58
7 7 -4 o 6572.650 6667.705 180.00 0.62995 0.26
6 8 4 o 10207.456 9348.068 180.00 0.63217 0.41
6 10 -4 o 388.533 326.221 0.00 0.63163 0.02
1 17 -2 o 247.546 299.390 180.00 0.63371 0.01
2 13 5 o 13712.377 11970.975 0.00 0.63126 0.55
1 17 2 o 593.113 535.040 180.00 0.63072 0.02
1 3 -8 o 2659.716 2833.117 180.00 0.63034 0.11
2 0 -8 o 16359.407 14602.297 180.00 0.63243 0.33
1 1 8 o 897.999 1211.231 180.00 0.62654 0.04
0 9 7 o 8922.387 8197.086 0.00 0.62865 0.35
7 3 4 o 2737.861 2554.563 0.00 0.62858 0.11
6 4 -6 o 15080.103 14122.760 0.00 0.62857 0.60
1 14 -5 o 5213.777 5488.547 0.00 0.62818 0.21
0 12 6 o 4972.191 5360.679 180.00 0.62801 0.20
5 11 4 o 10547.057 9842.696 180.00 0.62523 0.41
8 6 -2 o 170.354 138.940 0.00 0.62747 0.01
7 4 -5 o 8.149 8.036 180.00 0.62501 0.00
2 2 -8 o 161.183 160.332 0.00 0.62842 0.01
6 5 5 o 3657.573 3384.127 0.00 0.62365 0.14
3 11 -6 o 8131.552 8141.378 0.00 0.62583 0.32
7 10 1 o 7035.152 6820.597 0.00 0.62509 0.28
5 2 -7 o 14983.850 14015.149 180.00 0.62461 0.59
7 9 2 o 301.297 283.796 0.00 0.62454 0.01
4 8 6 o 9580.832 8851.242 0.00 0.62195 0.37
8 4 2 o 15706.700 13723.979 180.00 0.62390 0.61
8 7 -1 o 593.856 469.695 0.00 0.62304 0.02
4 11 5 o 25.965 28.575 180.00 0.62072 0.00
8 5 -3 o 2715.129 3093.237 180.00 0.62059 0.11
3 6 7 o 10342.205 10949.209 180.00 0.61986 0.40
2 9 -7 o 5983.730 5546.364 180.00 0.62202 0.23
4 1 7 o 1944.080 2117.404 0.00 0.61974 0.08
0 4 8 o 13409.280 12455.338 180.00 0.62186 0.52
4 10 -6 o 199.299 177.952 180.00 0.62144 0.01
6 13 -1 o 12168.322 10899.661 0.00 0.62143 0.47
1 3 8 o 1466.883 1876.314 180.00 0.61881 0.06
1 14 5 o 4129.792 4155.306 0.00 0.62097 0.16
3 8 -7 o 71.245 47.926 0.00 0.62278 0.00
5 5 6 o 473.698 459.868 0.00 0.61819 0.02
4 16 0 o 2488.142 2929.831 0.00 0.62042 0.10
8 0 -4 o 14412.381 13484.360 0.00 0.61806 0.28
2 12 -6 o 6214.950 6478.790 0.00 0.61999 0.24
6 12 2 o 4723.581 5968.463 0.00 0.61887 0.18
0 18 0 o 510.010 537.602 0.00 0.62086 0.01
3 17 0 o 254.919 261.264 0.00 0.61752 0.01
4 15 -3 o 523.914 551.574 0.00 0.61729 0.02
8 2 -4 o 15.178 15.758 180.00 0.61431 0.00
4 14 -4 o 58.542 35.040 0.00 0.61577 0.00
1 5 -8 o 454.824 544.891 0.00 0.61488 0.02
2 4 -8 o 12577.588 11904.601 0.00 0.61682 0.48
7 11 0 o 8581.141 8867.089 0.00 0.61457 0.33
4 3 7 o 476.135 620.306 180.00 0.61226 0.02
3 1 -8 o 1206.167 1386.716 0.00 0.61637 0.05
3 16 -3 o 42.426 43.392 180.00 0.61423 0.00
3 15 -4 o 11964.326 11413.609 180.00 0.61390 0.46
6 11 3 o 245.822 244.828 0.00 0.61379 0.01
5 15 0 o 11772.429 11497.662 0.00 0.61336 0.45
7 5 4 o 769.872 755.731 180.00 0.61325 0.03
5 4 -7 o 5.274 5.186 180.00 0.61322 0.00
0 17 3 o 11632.998 11521.534 0.00 0.61318 0.44
6 13 1 o 9361.741 9488.123 0.00 0.61308 0.36
7 8 3 o 57.222 58.801 0.00 0.61301 0.00
0 16 4 o 2879.017 2917.589 0.00 0.61265 0.11
6 9 -5 o 7381.550 7574.764 180.00 0.61262 0.28
2 0 8 o 14110.842 13589.285 180.00 0.60977 0.27
8 7 1 o 100.885 135.594 0.00 0.61190 0.00
4 7 -7 o 146.020 146.929 0.00 0.61353 0.01
1 10 -7 o 5637.752 6698.022 180.00 0.61138 0.21
1 18 -1 o 2236.746 2299.532 180.00 0.61302 0.08
7 10 -3 o 6327.279 6942.447 0.00 0.60848 0.24
5 14 -3 o 4283.367 5210.564 0.00 0.61053 0.16
8 1 3 o 1204.918 1150.868 0.00 0.60990 0.05
1 18 1 o 2135.168 2627.948 180.00 0.61166 0.08
6 6 -6 o 120.874 125.766 180.00 0.60958 0.00
7 6 -5 o 10421.810 9924.714 180.00 0.60633 0.39
2 2 8 o 74.416 76.028 0.00 0.60617 0.00
4 16 -2 o 3501.288 3695.784 0.00 0.60810 0.13
8 8 0 o 8217.386 8786.533 0.00 0.60800 0.31
5 13 -4 o 87.585 96.261 0.00 0.60792 0.00
5 9 -6 o 100.244 163.376 180.00 0.60744 0.00
3 3 -8 o 1951.783 2812.571 0.00 0.60901 0.07
7 11 -2 o 8500.201 7799.908 0.00 0.60652 0.32
1 5 8 o 450.524 464.915 0.00 0.60417 0.02
2 12 6 o 6639.788 5969.682 0.00 0.60373 0.25
8 4 -4 o 12056.202 11502.785 180.00 0.60347 0.45
0 6 8 o 100.812 96.459 0.00 0.60345 0.00
8 6 2 o 132.431 125.972 0.00 0.60531 0.00
2 9 7 o 6683.896 6740.053 180.00 0.60300 0.25
1 13 -6 o 328.905 567.592 0.00 0.60473 0.01
1 10 7 o 8587.634 8012.224 180.00 0.60213 0.32
3 17 -2 o 1257.313 1205.121 0.00 0.60407 0.05
4 13 -5 o 12569.181 11114.174 180.00 0.60378 0.47
6 7 5 o 128.099 120.507 180.00 0.60157 0.00
8 8 -2 o 9595.039 8982.339 0.00 0.60148 0.35
5 10 5 o 8435.925 8009.137 180.00 0.60136 0.31
3 11 6 o 9113.365 8912.651 0.00 0.60125 0.34
4 15 3 o 328.494 322.399 0.00 0.60123 0.01
0 18 2 o 105.849 105.954 0.00 0.60325 0.00
2 18 0 o 86.408 118.822 180.00 0.60508 0.00
3 14 -5 o 4484.523 4526.027 180.00 0.60313 0.17
8 3 3 o 927.430 939.210 180.00 0.60276 0.03
5 15 -2 o 9918.315 10075.009 0.00 0.60274 0.37
2 16 -4 o 3455.811 3596.409 180.00 0.60259 0.13
3 16 3 o 65.611 61.985 180.00 0.60225 0.00
7 9 -4 o 24.774 64.243 0.00 0.60018 0.00
2 17 -3 o 12901.408 12063.955 180.00 0.60180 0.48
0 15 5 o 407.263 383.147 0.00 0.60175 0.02
8 7 -3 o 49.465 45.230 0.00 0.59883 0.00
6 10 4 o 304.066 268.530 0.00 0.59863 0.01
3 15 4 o 13464.285 12985.069 180.00 0.59811 0.49
4 5 7 o 2993.706 2947.385 180.00 0.59807 0.11
9 1 0 o 363.147 909.365 180.00 0.59942 0.01
1 13 6 o 115.095 170.313 0.00 0.59703 0.00
2 6 -8 o 73.844 66.795 180.00 0.59885 0.00
5 7 6 o 4510.639 4942.715 0.00 0.59667 0.16
9 2 -1 o 13690.651 12119.253 180.00 0.59844 0.50
2 4 8 o 11212.630 10692.337 0.00 0.59574 0.41
4 16 2 o 3188.991 3722.827 0.00 0.59773 0.12
7 1 -6 o 782.699 761.791 0.00 0.59541 0.03
6 14 0 o 77.849 113.317 0.00 0.59732 0.00
4 14 4 o 61.153 53.284 0.00 0.59479 0.00
3 8 7 o 216.983 190.180 0.00 0.59477 0.01
6 0 6 o 11827.932 10887.110 180.00 0.59455 0.21
9 1 -2 o 1285.129 1199.852 180.00 0.59441 0.05
3 17 2 o 757.681 796.076 0.00 0.59639 0.03
8 9 -1 o 7115.764 6773.125 0.00 0.59419 0.26
5 6 -7 o 9720.262 9402.033 0.00 0.59555 0.35
5 12 -5 o 17.665 16.950 0.00 0.59531 0.00
6 13 -3 o 10773.753 9165.754 0.00 0.59489 0.39
7 12 -1 o 73.910 67.839 180.00 0.59457 0.00
2 16 4 o 3189.664 3576.743 180.00 0.59249 0.12
0 11 7 o 338.891 376.563 180.00 0.59229 0.01
7 7 4 o 5115.014 5742.854 180.00 0.59222 0.18
2 17 3 o 12102.459 11477.650 180.00 0.59421 0.44
4 0 -8 o 10607.111 10105.406 0.00 0.59584 0.19
1 7 -8 o 4994.425 5266.356 0.00 0.59370 0.18
2 15 -5 o 490.704 555.568 180.00 0.59344 0.02
6 12 -4 o 5918.860 6479.204 0.00 0.59143 0.21
5 14 3 o 3321.505 3715.018 0.00 0.59128 0.12
6 2 6 o 70.761 80.190 0.00 0.59122 0.00
3 5 -8 o 117.435 99.275 180.00 0.59503 0.00
9 3 0 o 2675.584 3059.445 180.00 0.59264 0.10
4 10 6 o 186.026 178.964 180.00 0.58993 0.01
6 1 -7 o 1404.562 1331.323 180.00 0.58980 0.05
7 2 5 o 11643.134 10982.563 0.00 0.58946 0.42
7 3 -6 o 3416.327 3290.031 0.00 0.58876 0.12
4 2 -8 o 6.597 7.390 180.00 0.59249 0.00
3 10 -7 o 7780.572 7431.773 0.00 0.59063 0.28
9 4 -1 o 0.832 0.963 180.00 0.58840 0.00
5 15 2 o 11599.035 10673.834 0.00 0.59019 0.42
9 3 -2 o 1277.316 1663.391 180.00 0.58780 0.05
3 1 8 o 802.649 792.298 0.00 0.58559 0.03
4 17 -1 o 12172.331 11110.329 0.00 0.58957 0.44
2 18 -2 o 366.763 423.211 180.00 0.59118 0.01
8 5 3 o 3323.365 3350.609 180.00 0.58921 0.12
7 11 2 o 8605.719 8003.680 0.00 0.58884 0.31
6 14 -2 o 63.237 62.474 180.00 0.58871 0.00
8 6 -4 o 59.721 69.634 0.00 0.58661 0.00
6 8 -6 o 9277.080 9056.228 180.00 0.58567 0.33
9 2 1 o 12035.953 11360.411 180.00 0.58734 0.43
8 1 -5 o 1097.164 982.478 0.00 0.58479 0.04
2 11 -7 o 273.442 301.776 0.00 0.58673 0.01
3 14 5 o 4207.979 3975.887 180.00 0.58455 0.15
2 18 2 o 351.068 433.531 180.00 0.58635 0.01
7 12 1 o 0.550 0.548 180.00 0.58605 0.00
1 7 8 o 5637.025 5412.415 0.00 0.58403 0.20
4 9 -7 o 8079.865 7615.758 0.00 0.58592 0.29
5 16 -1 o 7.183 6.971 0.00 0.58569 0.00
6 3 -7 o 502.833 531.166 0.00 0.58334 0.02
5 13 4 o 441.137 440.428 0.00 0.58297 0.02
3 18 -1 o 2084.887 1870.366 0.00 0.58488 0.07
4 17 1 o 11897.815 10571.369 0.00 0.58478 0.42
7 8 -5 o 177.180 173.033 0.00 0.58279 0.01
8 9 1 o 5593.827 5365.332 0.00 0.58451 0.20
7 10 3 o 8355.745 7575.740 0.00 0.58229 0.29
0 14 6 o 29.568 27.713 0.00 0.58204 0.00
5 2 7 o 10202.308 10310.264 180.00 0.57954 0.36
3 13 -6 o 61.310 65.902 180.00 0.58345 0.00
6 4 6 o 10179.660 10819.211 0.00 0.58153 0.36
2 15 5 o 249.507 276.908 180.00 0.58145 0.01
1 17 -4 o 925.421 972.991 180.00 0.58330 0.03
3 3 8 o 2978.445 3208.435 0.00 0.57926 0.10
4 12 -6 o 6286.248 6350.644 180.00 0.58304 0.22
1 19 0 o 12822.448 11386.589 180.00 0.58473 0.45
0 19 1 o 809.191 799.322 180.00 0.58431 0.03
4 7 7 o 56.735 81.150 0.00 0.57851 0.00
0 8 8 o 6794.235 7403.806 0.00 0.58023 0.24
8 8 2 o 8680.612 8370.856 0.00 0.58189 0.30
7 4 5 o 37.143 43.053 180.00 0.57986 0.00
1 18 -3 o 2569.717 2655.867 180.00 0.58159 0.09
2 6 8 o 49.632 49.966 180.00 0.57950 0.00
3 18 1 o 2476.160 2904.141 0.00 0.58136 0.09
4 13 5 o 7879.746 8304.139 180.00 0.57931 0.27
4 4 -8 o 11786.745 11488.470 180.00 0.58274 0.41
6 11 -5 o 318.727 447.551 0.00 0.57882 0.01
1 17 4 o 356.504 518.888 180.00 0.57866 0.01
8 3 -5 o 451.364 645.613 180.00 0.57849 0.02
9 2 -3 o 10851.862 10518.337 180.00 0.57802 0.38
5 16 1 o 141.286 162.620 0.00 0.57984 0.00
9 5 0 o 208.964 227.242 0.00 0.57974 0.01
8 0 4 o 13245.560 12235.435 0.00 0.57769 0.23
1 18 3 o 2045.292 2072.901 180.00 0.57813 0.07
8 10 0 o 23.659 22.562 180.00 0.57799 0.00
7 5 -6 o 232.617 255.595 180.00 0.57610 0.01
9 4 1 o 228.711 213.238 0.00 0.57784 0.01
6 9 5 o 6837.683 7190.533 180.00 0.57548 0.24
9 5 -2 o 445.399 489.718 0.00 0.57521 0.02
6 14 2 o 88.048 70.014 180.00 0.57473 0.00
1 12 -7 o 0.998 0.792 0.00 0.57471 0.00
8 2 4 o 39.092 31.435 180.00 0.57463 0.00
7 13 0 o 240.360 242.808 180.00 0.57430 0.01
2 8 -8 o 7523.530 8126.946 180.00 0.57614 0.26
1 16 -5 o 171.561 196.424 0.00 0.57595 0.01
2 14 -6 o 27.425 28.978 0.00 0.57563 0.00
6 13 3 o 9382.159 9163.065 0.00 0.57366 0.32
5 9 6 o 286.239 278.867 180.00 0.57119 0.01
8 9 -3 o 6451.529 5760.616 0.00 0.57308 0.22
9 6 -1 o 9458.923 8895.570 0.00 0.57274 0.32
5 11 -6 o 8898.752 7873.319 180.00 0.57445 0.31
5 4 7 o 143.749 166.454 0.00 0.57041 0.00
8 10 -2 o 69.930 63.240 180.00 0.57238 0.00
7 12 -3 o 3.452 3.191 180.00 0.57230 0.00
3 7 -8 o 3377.516 3762.570 180.00 0.57577 0.12
6 15 -1 o 338.548 328.598 180.00 0.57374 0.01
9 1 2 o 922.693 815.838 180.00 0.57323 0.03
5 8 -7 o 323.847 285.292 180.00 0.57319 0.01
6 5 -7 o 4003.036 3734.795 0.00 0.57102 0.14
2 11 7 o 21.895 22.983 0.00 0.57069 0.00
8 7 3 o 218.332 250.183 0.00 0.57048 0.01
2 19 -1 o 772.957 763.725 0.00 0.57221 0.03
1 16 5 o 8.430 9.769 0.00 0.57038 0.00
1 19 -2 o 10641.135 9768.793 180.00 0.57105 0.36
3 5 8 o 189.388 237.456 180.00 0.56720 0.01
9 4 -3 o 106.698 107.897 0.00 0.56896 0.00
1 9 -8 o 201.213 210.697 180.00 0.56858 0.01
3 10 7 o 6316.976 6153.406 0.00 0.56659 0.21
6 6 6 o 55.283 57.821 180.00 0.56640 0.00
7 11 -4 o 7927.009 7598.825 0.00 0.56829 0.27
2 19 1 o 337.622 460.024 0.00 0.57000 0.01
7 13 -2 o 173.974 225.587 180.00 0.56771 0.01
5 1 -8 o 413.529 750.284 180.00 0.56928 0.01
7 9 4 o 124.716 160.467 0.00 0.56728 0.00
6 15 1 o 350.164 434.404 180.00 0.56715 0.01
1 19 2 o 9161.693 8897.624 180.00 0.56886 0.31
1 12 7 o 25.035 28.635 0.00 0.56701 0.00
8 5 -5 o 3887.820 3919.565 180.00 0.56648 0.13
5 12 5 o 26.901 28.591 0.00 0.56636 0.00
0 1 9 o 1216.188 1341.951 0.00 0.56626 0.04
8 4 4 o 9727.179 8966.900 180.00 0.56572 0.33
9 3 2 o 1526.042 1986.090 180.00 0.56730 0.05
8 8 -4 o 7943.422 7448.278 0.00 0.56521 0.27
7 6 5 o 10704.716 9463.861 180.00 0.56486 0.36
4 16 -4 o 2772.678 2993.101 0.00 0.56634 0.09
4 6 -8 o 60.545 79.204 0.00 0.56751 0.00
6 12 4 o 5070.016 5340.982 0.00 0.56408 0.17
1 2 -9 o 12427.613 11288.542 180.00 0.56580 0.42
3 13 6 o 323.943 359.629 180.00 0.56339 0.01
8 11 -1 o 39.397 37.800 180.00 0.56320 0.00
4 17 -3 o 10268.105 8966.663 0.00 0.56462 0.35
2 14 6 o 15.140 13.384 0.00 0.56255 0.00
4 18 0 o 351.205 361.002 0.00 0.56411 0.01
9 1 -4 o 613.926 716.615 180.00 0.56037 0.02
9 7 0 o 3204.703 3692.432 0.00 0.56188 0.11
2 1 -9 o 952.252 1123.432 180.00 0.56351 0.03
5 3 -8 o 1968.078 2289.667 180.00 0.56346 0.07
4 0 8 o 8359.685 8371.162 0.00 0.55943 0.14
5 15 -4 o 10554.304 9622.695 0.00 0.56306 0.35
9 6 1 o 9013.742 8367.021 0.00 0.56299 0.30
2 8 8 o 7484.977 7257.053 180.00 0.55885 0.25
0 3 9 o 519.114 560.203 180.00 0.56053 0.02
5 16 -3 o 150.086 197.360 0.00 0.56226 0.01
1 15 -6 o 7605.313 8203.042 0.00 0.56052 0.25
3 17 -4 o 95.458 123.704 0.00 0.56203 0.00
1 9 8 o 96.826 115.156 180.00 0.56007 0.00
5 17 0 o 473.282 579.381 180.00 0.56161 0.02
6 10 -6 o 1.635 1.672 0.00 0.55870 0.00
4 12 6 o 6066.315 5604.569 180.00 0.55679 0.20
7 7 -6 o 3156.054 3582.355 180.00 0.55857 0.10
4 2 8 o 24.107 22.596 180.00 0.55664 0.00
4 15 -5 o 213.676 255.463 0.00 0.55976 0.01
5 6 7 o 9882.768 9162.109 0.00 0.55610 0.33
9 7 -2 o 4115.657 4877.749 0.00 0.55775 0.14
3 18 -3 o 2488.692 2498.517 0.00 0.55945 0.08
3 19 0 o 9209.826 8445.437 0.00 0.55911 0.31
1 4 -9 o 14.390 12.417 0.00 0.55730 0.00
4 9 7 o 5910.608 5629.808 0.00 0.55520 0.19
9 3 -4 o 2976.618 2978.346 180.00 0.55482 0.10
0 18 4 o 242.017 399.125 0.00 0.55826 0.01
1 2 9 o 9679.532 8846.760 180.00 0.55640 0.32
7 10 -5 o 6576.415 6004.343 0.00 0.55620 0.22
2 3 -9 o 638.010 848.946 0.00 0.55786 0.02
0 13 7 o 7893.590 7535.602 180.00 0.55599 0.26
5 14 -5 o 3118.864 3246.640 0.00 0.55572 0.10
3 12 -7 o 18.673 16.434 180.00 0.55738 0.00
0 20 0 o 1493.823 1461.330 180.00 0.55877 0.02
8 10 2 o 55.625 53.642 180.00 0.55541 0.00
7 14 -1 o 4077.623 3969.561 180.00 0.55512 0.13
8 11 1 o 477.764 478.548 180.00 0.55493 0.02
3 16 -5 o 100.698 92.217 180.00 0.55646 0.00
9 6 -3 o 8621.816 8631.728 0.00 0.55476 0.28
4 11 -7 o 184.745 168.855 180.00 0.55615 0.01
1 15 6 o 10710.685 10135.459 0.00 0.55437 0.35
9 5 2 o 621.872 601.815 0.00 0.55595 0.02
0 19 3 o 454.792 452.291 180.00 0.55588 0.01
0 10 8 o 130.263 177.333 180.00 0.55397 0.00
6 7 -7 o 289.722 440.914 180.00 0.55393 0.01
7 13 2 o 171.502 422.475 180.00 0.55314 0.01
4 18 -2 o 232.613 232.242 0.00 0.55481 0.01
8 0 -6 o 10954.695 10199.800 0.00 0.55122 0.18
9 8 -1 o 198.207 187.047 180.00 0.55277 0.01
6 15 -3 o 418.033 387.842 180.00 0.55265 0.01
0 17 5 o 10098.732 9375.996 0.00 0.55265 0.33
6 14 -4 o 56.596 54.383 0.00 0.55256 0.00
4 17 3 o 8259.586 8532.597 0.00 0.55226 0.27
3 7 8 o 3241.527 3387.834 180.00 0.55044 0.11
6 16 0 o 2911.347 3220.139 180.00 0.55189 0.09
8 6 4 o 25.400 27.146 0.00 0.55176 0.00
5 17 -2 o 1.948 302.064 180.00 0.55342 0.00
8 7 -5 o 472.306 574.763 0.00 0.54978 0.02
2 13 -7 o 9787.823 8562.033 0.00 0.55139 0.32
1 20 -1 o 191.843 301.351 180.00 0.55304 0.01
3 9 -8 o 341.623 316.201 0.00 0.55277 0.01
7 1 6 o 1572.284 1376.512 0.00 0.54900 0.05
5 5 -8 o 514.659 520.264 0.00 0.55234 0.02
1 20 1 o 1024.580 1127.408 180.00 0.55204 0.03
3 18 3 o 1765.751 1766.523 0.00 0.55036 0.06
7 12 3 o 23.176 23.192 180.00 0.55034 0.00
7 2 -7 o 9080.160 9269.325 0.00 0.55026 0.29
4 16 4 o 2142.456 2686.291 0.00 0.54989 0.07
3 17 4 o 305.254 381.797 0.00 0.54983 0.01
0 5 9 o 3156.273 3271.696 180.00 0.54958 0.10
2 18 -4 o 181.361 216.580 180.00 0.55061 0.01
2 10 -8 o 0.151 0.153 180.00 0.55041 0.00
3 2 -9 o 9785.475 9016.188 0.00 0.55121 0.32
9 2 3 o 9624.067 9385.100 180.00 0.54944 0.31
3 19 -2 o 10997.976 9470.921 0.00 0.54907 0.36
