#------------------------------------------------------------------------------
#$Date: 2021-09-06 14:10:56 +0300 (Mon, 06 Sep 2021) $
#$Revision: 268760 $
#$URL: file:///home/coder/svn-repositories/cod/cif/7/70/76/7707607.cif $
#------------------------------------------------------------------------------
#
# This file is available in the Crystallography Open Database (COD),
# http://www.crystallography.net/
#
# All data on this site have been placed in the public domain by the
# contributors.
#
data_7707607
loop_
_publ_author_name
'Mullens, Bryce G.'
'Avdeev, Maxim'
'Brand, Helen E. A.'
'Mondal, S.'
'Vaitheeswaran, G.'
'Kennedy, Brendan J.'
_publ_section_title
;
 Insights into the structural variations in
 SmNb<sub>1-<i>x</i></sub>Ta<sub><i>x</i></sub>O<sub>4</sub> and
 HoNb<sub>1-<i>x</i></sub>Ta<sub><i>x</i></sub>O<sub>4</sub> combined
 experimental and computational studies.
;
_journal_issue                   26
_journal_name_full
'Dalton transactions (Cambridge, England : 2003)'
_journal_page_first              9103
_journal_page_last               9117
_journal_paper_doi               10.1039/d1dt01051d
_journal_volume                  50
_journal_year                    2021
_chemical_formula_sum            'Ho Nb O4'
_chemical_formula_weight         321.83
_space_group_IT_number           15
_space_group_name_Hall           '-I 2ya'
_space_group_name_H-M_alt        'I 1 2/a 1'
_symmetry_cell_setting           monoclinic
_symmetry_space_group_name_H-M   'I 1 2/a 1'
_audit_creation_date             2021-05-20T14:24
_audit_creation_method           'from EXP file using GSAS2CIF'
_audit_update_record
' 2021-05-20T14:24  Initial CIF as created by GSAS2CIF'
_cell_angle_alpha                90.0
_cell_angle_beta                 94.5622(13)
_cell_angle_gamma                90.0
_cell_formula_units_Z            4
_cell_length_a                   5.30221(8)
_cell_length_b                   10.95710(20)
_cell_length_c                   5.07411(9)
_cell_volume                     293.856(9)
_computing_structure_refinement  GSAS
_diffrn_radiation_probe          neutron
_diffrn_radiation_wavelength     1.622
_exptl_absorpt_correction_T_max  1.00000
_exptl_absorpt_correction_T_min  1.00000
_exptl_absorpt_process_details
;   GSAS Absorption/surface roughness correction: function number 0
 No correction is applied.
;
_pd_block_id                     2021-05-20T14:24|HONBO4_X0P0|BJK|Echidna
_pd_calc_method                  'Rietveld Refinement'
_pd_instr_location               ' ?'
_pd_meas_number_of_points        3052
_pd_phase_name
'from C:/Experiments/2015/AS_June2015/LnNbO4/gsas/HONBO4.EXP'
_pd_proc_info_datetime           2021-05-20T14:24:07
_pd_proc_info_excluded_regions   ' ?'
_pd_proc_ls_background_function
;   GSAS Background function number 1 with  8 terms.
 Shifted Chebyshev function of 1st kind
      1:    902.355     2:   -450.323     3:    139.953     4:    18.8737    
      5:   -32.1625     6:    5.68731     7:  -0.425767     8:   -4.77270    
;
_pd_proc_ls_peak_cutoff          0.00100
_pd_proc_ls_profile_function
;
 CW Profile function number 4 with  21 terms
 Pseudovoigt profile coefficients as parameterized in
 P. Thompson, D.E. Cox & J.B. Hastings (1987). J. Appl. Cryst.,20,79-83.
 Asymmetry correction of L.W. Finger, D.E. Cox & A. P. Jephcoat (1994).
 J. Appl. Cryst.,27,892-900.
 Microstrain broadening by P.W. Stephens,  (1999). J. Appl. Cryst.,32,281-289.
 #1(GU)   =  153.847 #2(GV)   = -621.453 #3(GW)   =  809.343
 #4(GP)   =    0.000 #5(LX)   =   11.262 #6(ptec) =     0.00
 #7(trns) =     0.00 #8(shft) =   0.0000 #9(sfec) =     0.00
 #10(S/L) =   0.0800 #11(H/L) =   0.0800 #12(eta) =   0.0000
 #13(S400 ) =  0.0E+00 #14(S040 ) =  0.0E+00 #15(S004 ) =  0.0E+00
 #16(S220 ) =  0.0E+00 #17(S202 ) =  0.0E+00 #18(S022 ) =  0.0E+00
 #19(S301 ) =  0.0E+00 #20(S103 ) =  0.0E+00 #21(S121 ) =  0.0E+00
 Peak tails are ignored  where the intensity is below 0.0010 times the peak
   Aniso. broadening axis   0.0   0.0   1.0
;
_pd_proc_ls_prof_R_factor        0.0303
_pd_proc_ls_prof_wR_expected     0.0293
_pd_proc_ls_prof_wR_factor       0.0386
_pd_proc_number_of_points        3052
_pd_spec_mounting                ' ?'
_refine_ls_goodness_of_fit_all   1.33
_refine_ls_matrix_type           full
_refine_ls_number_parameters     30
_refine_ls_number_restraints     0
_refine_ls_R_Fsqd_factor         0.03012
_refine_ls_shift/su_max          0.03
_refine_ls_shift/su_mean         0.01
_reflns_d_resolution_high        0.825
_reflns_d_resolution_low         5.479
_reflns_limit_h_max              6
_reflns_limit_h_min              0
_reflns_limit_k_max              13
_reflns_limit_k_min              0
_reflns_limit_l_max              6
_reflns_limit_l_min              -6
_reflns_number_total             277
_cod_data_source_file            d1dt01051d1.cif
_cod_data_source_block           HONBO4_X0P0_publ
_cod_depositor_comments
;
The following automatic conversions were performed:

data item '_geom_angle_publ_flag' value 'N' was changed to 'n' in
accordance with the
/home/data/users/saulius/crontab/automatic-downloads/rss-feeds/RSC/lib/dictionaries/cif_core.dic
dictionary named 'cif_core.dic' version 2.4.2 last updated on
2011-04-26 (40 times).

data item '_geom_bond_publ_flag' value 'N' was changed to 'n' in
accordance with the
/home/data/users/saulius/crontab/automatic-downloads/rss-feeds/RSC/lib/dictionaries/cif_core.dic
dictionary named 'cif_core.dic' version 2.4.2 last updated on
2011-04-26 (29 times).

Automatic conversion script
Id: cif_fix_values 7556 2019-12-06 15:28:31Z antanas 

 Adding full bibliography for 7707607--7707609.cif.
;
_cod_original_cell_volume        293.856(10)
_cod_database_code               7707607
_gsas_exptl_extinct_corr_t_min   1.00000
_gsas_exptl_extinct_corr_t_max   1.00000
loop_
_symmetry_equiv_pos_site_id
_symmetry_equiv_pos_as_xyz
1 +x,+y,+z
2 -x+1/2,+y,-z
-1 -x,-y,-z
-2 +x+1/2,-y,+z
101 +x+1/2,+y+1/2,+z+1/2
102 -x,+y+1/2,-z+1/2
-101 -x+1/2,-y+1/2,-z+1/2
-102 +x,-y+1/2,+z+1/2
loop_
_atom_site_type_symbol
_atom_site_label
_atom_site_fract_x
_atom_site_fract_y
_atom_site_fract_z
_atom_site_occupancy
_atom_site_thermal_displace_type
_atom_site_U_iso_or_equiv
_atom_site_symmetry_multiplicity
Ho Ho1 0.25 0.12099(12) 0.0 1.0 Uiso 0.00042(24) 4
Nb Nb1 0.25 0.64372(13) 0.0 1.0 Uiso 0.00314(35) 4
O- O1 0.00398(26) 0.71807(11) 0.20964(25) 1.0 Uiso 0.00532(25) 8
O- O2 0.90787(26) 0.46015(12) 0.24747(25) 1.0 Uiso 0.00623(26) 8
loop_
_atom_type_symbol
_atom_type_number_in_cell
_atom_type_scat_length_neutron
_atom_type_scat_source
Ho+3 4.0 0.8010 International_Tables_Vol_C
Nb+5 4.0 0.7054 International_Tables_Vol_C
O-2 16.0 0.5803 International_Tables_Vol_C
loop_
_geom_angle_atom_site_label_1
_geom_angle_atom_site_label_2
_geom_angle_atom_site_label_3
_geom_angle
_geom_angle_site_symmetry_1
_geom_angle_site_symmetry_2
_geom_angle_site_symmetry_3
_geom_angle_publ_flag
O1 Ho1 O1 86.14(7) -1_565 . -2_554 n
O1 Ho1 O1 73.63(6) -1_565 . 101_544 n
O1 Ho1 O1 67.35(4) -1_565 . 102_334 n
O1 Ho1 O2 120.90(4) -1_565 . 101_444 n
O1 Ho1 O2 124.94(4) -1_565 . 102_434 n
O1 Ho1 O2 155.52(6) -1_565 . -101_544 n
O1 Ho1 O2 69.59(5) -1_565 . -102_343 n
O1 Ho1 O1 67.35(4) -2_554 . 101_544 n
O1 Ho1 O1 73.63(6) -2_554 . 102_334 n
O1 Ho1 O2 124.94(4) -2_554 . 101_444 n
O1 Ho1 O2 120.90(4) -2_554 . 102_434 n
O1 Ho1 O2 69.59(5) -2_554 . -101_544 n
O1 Ho1 O2 155.52(6) -2_554 . -102_343 n
O1 Ho1 O1 125.68(8) 101_544 . 102_334 n
O1 Ho1 O2 75.58(5) 101_544 . 101_444 n
O1 Ho1 O2 158.08(6) 101_544 . 102_434 n
O1 Ho1 O2 93.35(5) 101_544 . -101_544 n
O1 Ho1 O2 106.99(4) 101_544 . -102_343 n
O1 Ho1 O2 158.08(6) 102_334 . 101_444 n
O1 Ho1 O2 75.58(5) 102_334 . 102_434 n
O1 Ho1 O2 106.99(4) 102_334 . -101_544 n
O1 Ho1 O2 93.35(5) 102_334 . -102_343 n
O2 Ho1 O2 83.95(7) 101_444 . 102_434 n
O2 Ho1 O2 73.66(6) 101_444 . -101_544 n
O2 Ho1 O2 73.14(4) 101_444 . -102_343 n
O2 Ho1 O2 73.14(4) 102_434 . -101_544 n
O2 Ho1 O2 73.66(6) 102_434 . -102_343 n
O2 Ho1 O2 134.81(9) -101_544 . -102_343 n
O1 Nb1 O1 130.01(11) 1_555 . 2_555 n
O1 Nb1 O2 110.23(6) 1_555 . -1_665 n
O1 Nb1 O2 100.10(6) 1_555 . -2_454 n
O1 Nb1 O2 100.10(6) 2_555 . -1_665 n
O1 Nb1 O2 110.23(6) 2_555 . -2_454 n
O2 Nb1 O2 103.84(10) -1_665 . -2_454 n
Ho1 O1 Ho1 106.37(6) -1_565 . 101_455 n
Ho1 O1 Nb1 116.34(7) -1_565 . 1_555 n
Ho1 O1 Nb1 127.32(8) 101_455 . 1_555 n
Ho1 O2 Ho1 106.34(6) 101_555 . -101_555 n
Ho1 O2 Nb1 131.74(7) 101_555 . -1_665 n
Ho1 O2 Nb1 115.66(8) -101_755 . -1_665 n
loop_
_geom_bond_atom_site_label_1
_geom_bond_atom_site_label_2
_geom_bond_distance
_geom_bond_site_symmetry_1
_geom_bond_site_symmetry_2
_geom_bond_publ_flag
Ho1 Ho1 3.7494(18) . -1_555 n
Ho1 Ho1 3.7494(18) . -1_655 n
Ho1 Ho1 3.7987(19) . -101_443 n
Ho1 Ho1 3.7987(19) . -101_444 n
Ho1 Nb1 3.52946(14) . 101_444 n
Ho1 Nb1 3.52946(14) . 101_545 n
Ho1 O1 2.4139(15) . -1_565 n
Ho1 O1 2.4139(15) . -2_565 n
Ho1 O1 2.3306(15) . 101_544 n
Ho1 O1 2.3306(15) . 102_545 n
Ho1 O2 2.3705(15) . 101_444 n
Ho1 O2 2.3705(15) . 102_645 n
Ho1 O2 2.3137(14) . -101_544 n
Ho1 O2 2.3137(14) . -102_343 n
Nb1 Ho1 3.52946(14) . 101_454 n
Nb1 Ho1 3.52946(14) . 101_555 n
Nb1 O1 1.9281(14) . 1_555 n
Nb1 O1 1.9281(14) . 2_555 n
Nb1 O1 2.4207(15) . -101_454 n
Nb1 O1 2.4207(15) . -102_453 n
Nb1 O2 1.8454(15) . -1_665 n
Nb1 O2 1.8454(15) . -2_465 n
O1 Ho1 2.4139(15) . -1_565 n
O1 Ho1 2.3306(15) . 101_455 n
O1 Nb1 1.9281(14) . 1_555 n
O1 Nb1 2.4207(15) . -101_454 n
O2 Ho1 2.3705(15) . 101_555 n
O2 Ho1 2.3137(14) . -101_544 n
O2 Nb1 1.8454(15) . -1_665 n
loop_
_pd_meas_2theta_scan
_pd_proc_2theta_corrected
_pd_meas_intensity_total
_pd_proc_ls_weight
_pd_proc_intensity_bkg_calc
_pd_calc_intensity_total
10.0201 10.0186 1389(39) 0.000666 1440. 1440.
10.0701 10.0686 1461(40) 0.000637 1440. 1440.
10.1200 10.1185 1473(40) 0.000633 1440. 1440.
10.1699 10.1684 1518(40) 0.000610 1439. 1439.
10.2202 10.2187 1462(40) 0.000634 1439. 1439.
10.2746 10.2731 1490(43) 0.000539 1439. 1439.
10.3246 10.3231 1420(42) 0.000559 1439. 1439.
10.3748 10.3733 1484(43) 0.000540 1438. 1438.
10.4247 10.4232 1429(42) 0.000559 1438. 1438.
10.4747 10.4732 1470(43) 0.000545 1438. 1438.
10.5246 10.5231 1402(42) 0.000575 1438. 1438.
10.5747 10.5732 1485(43) 0.000534 1437. 1437.
10.6248 10.6233 1446(43) 0.000550 1437. 1437.
10.6746 10.6731 1354(41) 0.000591 1437. 1437.
10.7248 10.7233 1394(42) 0.000575 1436. 1436.
10.7748 10.7733 1404(42) 0.000568 1436. 1436.
10.8247 10.8232 1515(44) 0.000520 1436. 1436.
10.8746 10.8731 1407(42) 0.000570 1436. 1436.
10.9247 10.9232 1433(42) 0.000556 1435. 1435.
10.9748 10.9733 1416(42) 0.000565 1435. 1435.
11.0247 11.0232 1435(43) 0.000552 1435. 1435.
11.0746 11.0731 1394(42) 0.000577 1435. 1435.
11.1250 11.1235 1437(42) 0.000554 1434. 1434.
11.1748 11.1733 1458(43) 0.000543 1434. 1434.
11.2248 11.2233 1520(44) 0.000519 1434. 1434.
11.2749 11.2734 1448(43) 0.000551 1434. 1434.
11.3248 11.3233 1383(42) 0.000575 1433. 1433.
11.3748 11.3733 1437(42) 0.000561 1433. 1433.
11.4247 11.4232 1396(42) 0.000570 1433. 1433.
11.4749 11.4734 1449(43) 0.000549 1432. 1432.
11.5241 11.5226 1385(41) 0.000599 1432. 1432.
11.5741 11.5726 1478(42) 0.000559 1432. 1432.
11.6242 11.6227 1460(42) 0.000566 1432. 1432.
11.6742 11.6727 1410(41) 0.000589 1431. 1431.
11.7241 11.7226 1451(42) 0.000561 1431. 1431.
11.7741 11.7726 1401(41) 0.000588 1431. 1431.
11.8241 11.8226 1435(42) 0.000576 1431. 1431.
11.8743 11.8728 1470(42) 0.000554 1430. 1430.
11.9241 11.9226 1459(42) 0.000564 1430. 1430.
11.9742 11.9727 1446(42) 0.000566 1430. 1430.
12.0242 12.0227 1428(42) 0.000573 1429. 1429.
12.0742 12.0727 1419(42) 0.000558 1429. 1429.
12.1240 12.1225 1408(41) 0.000586 1429. 1429.
12.1741 12.1726 1433(42) 0.000569 1429. 1429.
12.2243 12.2228 1469(42) 0.000559 1428. 1428.
12.2741 12.2726 1403(42) 0.000579 1428. 1428.
12.3241 12.3226 1378(41) 0.000603 1428. 1428.
12.3745 12.3730 1454(42) 0.000569 1428. 1428.
12.4243 12.4228 1490(42) 0.000555 1427. 1427.
12.4743 12.4728 1427(42) 0.000571 1427. 1427.
12.5244 12.5229 1324(40) 0.000625 1427. 1427.
12.5743 12.5728 1442(41) 0.000582 1426. 1426.
12.6242 12.6227 1395(41) 0.000598 1426. 1426.
12.6742 12.6727 1454(42) 0.000570 1426. 1426.
12.7244 12.7229 1462(42) 0.000561 1426. 1426.
12.7631 12.7616 1410(39) 0.000669 1425. 1425.
12.8131 12.8116 1443(39) 0.000651 1425. 1425.
12.8633 12.8618 1483(40) 0.000631 1425. 1425.
12.9132 12.9117 1384(38) 0.000680 1425. 1425.
12.9632 12.9617 1458(39) 0.000644 1424. 1424.
13.0131 13.0116 1427(39) 0.000658 1424. 1424.
13.0632 13.0617 1502(40) 0.000625 1424. 1424.
13.1133 13.1118 1458(39) 0.000645 1423. 1424.
13.1631 13.1616 1393(38) 0.000677 1423. 1423.
13.2133 13.2118 1430(39) 0.000660 1423. 1423.
13.2633 13.2618 1430(39) 0.000654 1423. 1423.
13.3132 13.3117 1450(39) 0.000651 1422. 1422.
13.3631 13.3616 1376(38) 0.000687 1422. 1422.
13.4132 13.4117 1418(39) 0.000662 1422. 1422.
13.4633 13.4618 1430(39) 0.000657 1421. 1422.
13.5132 13.5117 1415(39) 0.000663 1421. 1421.
13.5631 13.5616 1435(39) 0.000657 1421. 1421.
13.6135 13.6120 1414(39) 0.000667 1421. 1421.
13.6633 13.6618 1436(39) 0.000655 1420. 1421.
13.7133 13.7118 1469(39) 0.000642 1420. 1420.
13.7634 13.7619 1458(39) 0.000642 1420. 1420.
13.8133 13.8118 1447(39) 0.000650 1419. 1420.
13.8633 13.8618 1390(38) 0.000680 1419. 1419.
13.9132 13.9117 1378(38) 0.000683 1419. 1419.
13.9634 13.9619 1439(39) 0.000652 1419. 1419.
14.0176 14.0161 1429(39) 0.000670 1418. 1419.
14.0676 14.0661 1395(38) 0.000685 1418. 1418.
14.1177 14.1162 1403(38) 0.000677 1418. 1418.
14.1677 14.1662 1464(39) 0.000650 1417. 1418.
14.2176 14.2161 1425(39) 0.000669 1417. 1418.
14.2676 14.2661 1364(38) 0.000703 1417. 1417.
14.3176 14.3161 1410(38) 0.000676 1417. 1417.
14.3677 14.3662 1417(39) 0.000673 1416. 1417.
14.4176 14.4161 1426(39) 0.000672 1416. 1417.
14.4677 14.4662 1373(38) 0.000701 1416. 1416.
14.5177 14.5162 1454(39) 0.000653 1415. 1416.
14.5677 14.5662 1448(39) 0.000661 1415. 1416.
14.6175 14.6160 1440(39) 0.000663 1415. 1416.
14.6676 14.6661 1373(38) 0.000694 1415. 1416.
14.7177 14.7162 1408(38) 0.000679 1414. 1416.
14.7676 14.7661 1450(39) 0.000656 1414. 1416.
14.8176 14.8161 1352(38) 0.000711 1414. 1416.
14.8680 14.8665 1398(38) 0.000683 1413. 1415.
14.9178 14.9163 1368(38) 0.000698 1413. 1415.
14.9678 14.9663 1368(38) 0.000696 1413. 1415.
15.0179 15.0164 1476(40) 0.000640 1412. 1415.
15.0678 15.0663 1450(39) 0.000654 1412. 1415.
15.1177 15.1162 1345(37) 0.000713 1412. 1415.
15.1677 15.1662 1459(39) 0.000653 1412. 1415.
15.2179 15.2164 1406(38) 0.000678 1411. 1415.
15.2736 15.2721 1432(39) 0.000665 1411. 1415.
15.3236 15.3221 1349(38) 0.000702 1411. 1415.
15.3738 15.3723 1430(39) 0.000658 1410. 1415.
15.4237 15.4222 1433(39) 0.000660 1410. 1415.
15.4736 15.4721 1410(39) 0.000669 1410. 1416.
15.5236 15.5221 1480(40) 0.000640 1409. 1416.
15.5737 15.5722 1451(39) 0.000651 1409. 1416.
15.6238 15.6223 1447(39) 0.000655 1409. 1416.
15.6736 15.6721 1427(39) 0.000666 1409. 1416.
15.7238 15.7223 1392(38) 0.000683 1408. 1416.
15.7738 15.7723 1465(39) 0.000645 1408. 1417.
15.8237 15.8222 1447(39) 0.000654 1408. 1417.
15.8736 15.8721 1370(38) 0.000694 1407. 1417.
15.9236 15.9221 1390(38) 0.000679 1407. 1418.
15.9738 15.9723 1455(39) 0.000651 1407. 1418.
16.0236 16.0221 1416(39) 0.000667 1406. 1419.
16.0736 16.0721 1357(38) 0.000700 1406. 1419.
16.1240 16.1225 1478(40) 0.000640 1406. 1420.
16.1738 16.1723 1425(39) 0.000661 1405. 1421.
16.2238 16.2223 1397(38) 0.000677 1405. 1422.
16.2739 16.2724 1427(39) 0.000662 1405. 1423.
16.3238 16.3223 1413(39) 0.000670 1405. 1424.
16.3738 16.3723 1446(39) 0.000654 1404. 1426.
16.4237 16.4222 1375(38) 0.000690 1404. 1427.
16.4739 16.4724 1443(39) 0.000657 1404. 1429.
16.5077 16.5062 1319(38) 0.000701 1403. 1430.
16.5577 16.5562 1412(39) 0.000647 1403. 1432.
16.6078 16.6063 1452(40) 0.000630 1403. 1434.
16.6578 16.6563 1379(39) 0.000666 1402. 1436.
16.7077 16.7062 1425(39) 0.000644 1402. 1437.
16.7577 16.7562 1397(39) 0.000658 1402. 1439.
16.8077 16.8062 1405(39) 0.000654 1402. 1439.
16.8579 16.8564 1430(39) 0.000643 1401. 1440.
16.9077 16.9062 1467(40) 0.000623 1401. 1439.
16.9579 16.9564 1453(40) 0.000633 1401. 1438.
17.0079 17.0064 1436(40) 0.000639 1400. 1436.
17.0578 17.0563 1396(39) 0.000657 1400. 1433.
17.1076 17.1061 1430(39) 0.000642 1400. 1430.
17.1577 17.1562 1365(39) 0.000671 1399. 1426.
17.2079 17.2064 1452(40) 0.000632 1399. 1423.
17.2577 17.2562 1421(39) 0.000645 1399. 1419.
17.3077 17.3062 1407(39) 0.000654 1398. 1416.
17.3581 17.3566 1386(39) 0.000663 1398. 1412.
17.4079 17.4064 1386(39) 0.000663 1398. 1410.
17.4579 17.4564 1367(39) 0.000673 1397. 1407.
17.5080 17.5065 1438(40) 0.000636 1397. 1405.
17.5579 17.5564 1383(39) 0.000663 1397. 1404.
17.6078 17.6063 1387(39) 0.000664 1396. 1403.
17.6578 17.6563 1377(39) 0.000666 1396. 1402.
17.7080 17.7065 1312(38) 0.000701 1396. 1401.
17.7446 17.7431 1401(39) 0.000645 1396. 1401.
17.7946 17.7931 1419(40) 0.000632 1395. 1401.
17.8447 17.8432 1375(39) 0.000655 1395. 1401.
17.8947 17.8932 1441(40) 0.000623 1395. 1401.
17.9446 17.9431 1388(39) 0.000647 1394. 1401.
17.9946 17.9931 1435(40) 0.000627 1394. 1401.
18.0446 18.0431 1367(39) 0.000657 1394. 1402.
18.0948 18.0933 1394(39) 0.000646 1393. 1402.
18.1446 18.1431 1401(39) 0.000643 1393. 1402.
18.1947 18.1932 1398(39) 0.000645 1393. 1403.
18.2447 18.2432 1427(40) 0.000630 1392. 1403.
18.2947 18.2932 1399(39) 0.000644 1392. 1404.
18.3445 18.3430 1385(39) 0.000650 1392. 1405.
18.3946 18.3931 1394(39) 0.000643 1391. 1405.
18.4448 18.4433 1364(39) 0.000661 1391. 1406.
18.4946 18.4931 1336(39) 0.000674 1391. 1407.
18.5446 18.5431 1417(40) 0.000634 1390. 1408.
18.5950 18.5935 1359(39) 0.000661 1390. 1410.
18.6448 18.6433 1395(39) 0.000644 1390. 1411.
18.6948 18.6933 1484(41) 0.000605 1389. 1412.
18.7449 18.7434 1427(40) 0.000629 1389. 1414.
18.7948 18.7933 1419(40) 0.000634 1389. 1416.
18.8447 18.8432 1445(40) 0.000623 1388. 1418.
18.8947 18.8932 1363(39) 0.000654 1388. 1421.
18.9449 18.9434 1423(40) 0.000629 1387. 1424.
18.9895 18.9880 1452(40) 0.000616 1387. 1427.
19.0394 19.0379 1413(40) 0.000632 1387. 1430.
19.0896 19.0881 1405(40) 0.000635 1386. 1434.
19.1395 19.1380 1474(41) 0.000607 1386. 1438.
19.1895 19.1880 1436(40) 0.000620 1386. 1442.
19.2395 19.2380 1428(40) 0.000628 1385. 1446.
19.2895 19.2880 1554(42) 0.000574 1385. 1450.
19.3396 19.3381 1565(42) 0.000569 1385. 1453.
19.3894 19.3879 1447(40) 0.000619 1384. 1455.
19.4396 19.4381 1486(41) 0.000599 1384. 1456.
19.4896 19.4881 1359(39) 0.000653 1384. 1456.
19.5395 19.5380 1414(40) 0.000636 1383. 1454.
19.5894 19.5879 1423(40) 0.000629 1383. 1452.
19.6395 19.6380 1461(41) 0.000608 1383. 1447.
19.6896 19.6881 1423(40) 0.000629 1382. 1442.
19.7395 19.7380 1419(40) 0.000628 1382. 1436.
19.7894 19.7879 1360(39) 0.000655 1382. 1430.
19.8398 19.8383 1362(39) 0.000658 1381. 1424.
19.8897 19.8882 1496(41) 0.000593 1381. 1418.
19.9396 19.9381 1366(39) 0.000657 1381. 1413.
19.9897 19.9882 1457(40) 0.000611 1380. 1408.
20.0397 20.0382 1451(40) 0.000617 1380. 1404.
20.0896 20.0881 1462(40) 0.000612 1379. 1400.
20.1395 20.1380 1450(40) 0.000616 1379. 1398.
20.1897 20.1882 1422(40) 0.000629 1379. 1395.
20.2554 20.2539 1384(39) 0.000643 1378. 1392.
20.3053 20.3038 1348(39) 0.000658 1378. 1390.
20.3555 20.3540 1459(41) 0.000606 1378. 1389.
20.4054 20.4039 1420(40) 0.000623 1377. 1387.
20.4554 20.4539 1315(39) 0.000674 1377. 1385.
20.5053 20.5038 1393(40) 0.000639 1376. 1384.
20.5554 20.5539 1331(39) 0.000666 1376. 1383.
20.6055 20.6040 1408(40) 0.000628 1376. 1381.
20.6553 20.6538 1463(41) 0.000606 1375. 1380.
20.7055 20.7040 1362(39) 0.000650 1375. 1379.
20.7555 20.7540 1422(40) 0.000622 1375. 1378.
20.8054 20.8039 1355(39) 0.000656 1374. 1377.
20.8553 20.8538 1393(40) 0.000637 1374. 1376.
20.9054 20.9039 1392(40) 0.000634 1374. 1375.
20.9555 20.9540 1399(40) 0.000634 1373. 1375.
21.0054 21.0039 1406(40) 0.000629 1373. 1374.
21.0553 21.0538 1356(39) 0.000654 1372. 1373.
21.1057 21.1042 1347(39) 0.000658 1372. 1373.
21.1556 21.1541 1361(39) 0.000648 1372. 1373.
21.2055 21.2040 1352(39) 0.000657 1371. 1372.
21.2556 21.2541 1368(39) 0.000645 1371. 1372.
21.3055 21.3040 1424(40) 0.000622 1371. 1371.
21.3555 21.3540 1339(39) 0.000667 1370. 1371.
21.4054 21.4039 1342(39) 0.000661 1370. 1370.
21.4557 21.4542 1348(39) 0.000657 1369. 1370.
21.5156 21.5141 1376(39) 0.000654 1369. 1369.
21.5656 21.5641 1293(38) 0.000697 1369. 1369.
21.6158 21.6143 1434(40) 0.000624 1368. 1369.
21.6657 21.6642 1389(39) 0.000647 1368. 1368.
21.7157 21.7142 1369(39) 0.000654 1367. 1368.
21.7656 21.7641 1466(40) 0.000612 1367. 1367.
21.8157 21.8142 1442(40) 0.000621 1367. 1367.
21.8658 21.8643 1382(39) 0.000650 1366. 1367.
21.9156 21.9141 1304(38) 0.000694 1366. 1366.
21.9658 21.9643 1362(39) 0.000664 1365. 1366.
22.0158 22.0143 1329(39) 0.000674 1365. 1365.
22.0657 22.0642 1376(39) 0.000655 1365. 1365.
22.1156 22.1141 1351(39) 0.000669 1364. 1365.
22.1657 22.1642 1424(40) 0.000629 1364. 1364.
22.2158 22.2143 1331(38) 0.000679 1364. 1364.
22.2657 22.2642 1364(39) 0.000651 1363. 1363.
22.3156 22.3141 1331(38) 0.000678 1363. 1363.
22.3660 22.3645 1427(40) 0.000630 1362. 1363.
22.4158 22.4143 1388(39) 0.000649 1362. 1362.
22.4658 22.4643 1417(40) 0.000637 1362. 1362.
22.5159 22.5144 1317(38) 0.000683 1361. 1361.
22.5658 22.5643 1328(38) 0.000679 1361. 1361.
22.6158 22.6143 1291(38) 0.000702 1360. 1361.
22.6657 22.6642 1359(39) 0.000663 1360. 1360.
22.7159 22.7144 1414(40) 0.000634 1360. 1360.
22.7616 22.7601 1293(38) 0.000685 1359. 1359.
22.8116 22.8101 1310(39) 0.000673 1359. 1359.
22.8618 22.8603 1305(38) 0.000675 1358. 1359.
22.9117 22.9102 1378(40) 0.000632 1358. 1358.
22.9616 22.9601 1340(39) 0.000658 1358. 1358.
23.0116 23.0101 1384(40) 0.000633 1357. 1357.
23.0617 23.0602 1308(39) 0.000673 1357. 1357.
23.1118 23.1103 1374(40) 0.000636 1356. 1357.
23.1616 23.1601 1240(37) 0.000713 1356. 1356.
23.2118 23.2103 1335(39) 0.000662 1356. 1356.
23.2618 23.2603 1304(39) 0.000669 1355. 1355.
23.3117 23.3102 1426(40) 0.000615 1355. 1355.
23.3616 23.3601 1302(38) 0.000679 1354. 1355.
23.4117 23.4102 1379(40) 0.000628 1354. 1354.
23.4618 23.4603 1337(39) 0.000656 1354. 1354.
23.5116 23.5101 1384(40) 0.000632 1353. 1353.
23.5616 23.5601 1383(40) 0.000631 1353. 1353.
23.6120 23.6105 1290(39) 0.000674 1352. 1353.
23.6618 23.6603 1376(40) 0.000634 1352. 1352.
23.7118 23.7103 1342(39) 0.000654 1352. 1352.
23.7619 23.7604 1373(40) 0.000639 1351. 1351.
23.8118 23.8103 1311(39) 0.000673 1351. 1351.
23.8618 23.8603 1401(40) 0.000625 1350. 1350.
23.9117 23.9102 1359(39) 0.000646 1350. 1350.
23.9619 23.9604 1394(40) 0.000626 1349. 1350.
24.0110 24.0095 1357(42) 0.000570 1349. 1349.
24.0610 24.0595 1401(43) 0.000547 1349. 1349.
24.1111 24.1096 1325(42) 0.000580 1348. 1348.
24.1611 24.1596 1342(42) 0.000576 1348. 1348.
24.2110 24.2095 1287(41) 0.000597 1347. 1348.
24.2610 24.2595 1323(42) 0.000580 1347. 1347.
24.3111 24.3096 1316(41) 0.000583 1347. 1347.
24.3612 24.3597 1329(42) 0.000580 1346. 1346.
24.4110 24.4095 1323(41) 0.000584 1346. 1346.
24.4612 24.4597 1332(41) 0.000581 1345. 1345.
24.5112 24.5097 1345(42) 0.000572 1345. 1345.
24.5611 24.5596 1372(42) 0.000560 1344. 1345.
24.6109 24.6094 1357(42) 0.000570 1344. 1344.
24.6611 24.6596 1329(42) 0.000572 1344. 1346.
24.7112 24.7097 1339(42) 0.000572 1343. 1345.
24.7610 24.7595 1370(42) 0.000559 1343. 1345.
24.8110 24.8095 1362(42) 0.000563 1342. 1345.
24.8614 24.8599 1357(42) 0.000559 1342. 1344.
24.9112 24.9097 1356(42) 0.000554 1341. 1344.
24.9612 24.9597 1383(42) 0.000555 1341. 1343.
25.0113 25.0098 1308(41) 0.000589 1341. 1343.
25.0612 25.0597 1335(42) 0.000578 1340. 1343.
25.1111 25.1096 1375(42) 0.000560 1340. 1342.
25.1611 25.1596 1347(42) 0.000567 1339. 1342.
25.2113 25.2098 1293(41) 0.000591 1339. 1341.
25.2651 25.2636 1318(41) 0.000606 1338. 1341.
25.3151 25.3136 1255(40) 0.000628 1338. 1341.
25.3653 25.3638 1420(43) 0.000553 1338. 1340.
25.4152 25.4137 1327(41) 0.000599 1337. 1340.
25.4651 25.4636 1346(41) 0.000589 1337. 1340.
25.5151 25.5136 1357(41) 0.000590 1336. 1339.
25.5651 25.5636 1369(41) 0.000584 1336. 1339.
25.6153 25.6138 1374(41) 0.000581 1335. 1338.
25.6651 25.6636 1382(42) 0.000573 1335. 1338.
25.7153 25.7138 1348(41) 0.000593 1334. 1338.
25.7653 25.7638 1298(41) 0.000606 1334. 1337.
25.8152 25.8137 1279(40) 0.000628 1334. 1337.
25.8651 25.8636 1334(41) 0.000592 1333. 1337.
25.9151 25.9136 1382(42) 0.000576 1333. 1336.
25.9653 25.9638 1410(42) 0.000562 1332. 1336.
26.0151 26.0136 1295(40) 0.000611 1332. 1336.
26.0651 26.0636 1401(42) 0.000565 1331. 1335.
26.1155 26.1140 1364(41) 0.000584 1331. 1335.
26.1653 26.1638 1316(41) 0.000608 1330. 1335.
26.2153 26.2138 1292(40) 0.000620 1330. 1334.
26.2654 26.2639 1386(42) 0.000570 1330. 1334.
26.3153 26.3138 1383(42) 0.000575 1329. 1334.
26.3653 26.3638 1365(41) 0.000587 1329. 1333.
26.4152 26.4137 1362(41) 0.000586 1328. 1335.
26.4654 26.4639 1344(41) 0.000590 1328. 1334.
26.5273 26.5258 1350(38) 0.000676 1327. 1334.
26.5772 26.5757 1316(38) 0.000688 1327. 1334.
26.6274 26.6259 1350(39) 0.000672 1326. 1334.
26.6773 26.6758 1279(38) 0.000708 1326. 1333.
26.7273 26.7258 1337(39) 0.000673 1325. 1333.
26.7773 26.7758 1299(38) 0.000700 1325. 1333.
26.8273 26.8258 1375(39) 0.000658 1324. 1333.
26.8774 26.8759 1324(38) 0.000686 1324. 1333.
26.9273 26.9258 1388(39) 0.000654 1324. 1332.
26.9774 26.9759 1359(39) 0.000668 1323. 1332.
27.0274 27.0259 1341(39) 0.000675 1323. 1332.
27.0774 27.0759 1350(39) 0.000669 1322. 1332.
27.1272 27.1257 1302(38) 0.000700 1322. 1332.
27.1773 27.1758 1357(39) 0.000666 1321. 1332.
27.2274 27.2259 1330(38) 0.000681 1321. 1332.
27.2773 27.2758 1344(39) 0.000670 1320. 1331.
27.3272 27.3257 1362(39) 0.000667 1320. 1331.
27.3776 27.3761 1331(38) 0.000681 1319. 1331.
27.4275 27.4260 1331(38) 0.000680 1319. 1331.
27.4774 27.4759 1298(38) 0.000699 1318. 1331.
27.5276 27.5261 1312(38) 0.000691 1318. 1331.
27.5775 27.5760 1321(38) 0.000689 1318. 1332.
27.6274 27.6259 1298(38) 0.000701 1317. 1332.
27.6774 27.6759 1337(38) 0.000676 1317. 1332.
27.7276 27.7261 1323(38) 0.000685 1316. 1332.
27.7831 27.7816 1312(40) 0.000623 1316. 1332.
27.8330 27.8315 1396(41) 0.000593 1315. 1333.
27.8832 27.8817 1396(41) 0.000590 1315. 1333.
27.9331 27.9316 1291(39) 0.000643 1314. 1334.
27.9831 27.9816 1322(40) 0.000626 1314. 1334.
28.0330 28.0315 1302(40) 0.000641 1313. 1335.
28.0831 28.0816 1340(40) 0.000617 1313. 1336.
28.1332 28.1317 1295(39) 0.000645 1312. 1337.
28.1831 28.1816 1332(40) 0.000625 1312. 1338.
28.2332 28.2317 1356(40) 0.000614 1311. 1340.
28.2832 28.2817 1345(40) 0.000617 1311. 1342.
28.3332 28.3317 1376(41) 0.000591 1310. 1346.
28.3830 28.3815 1370(41) 0.000606 1310. 1349.
28.4331 28.4316 1439(42) 0.000570 1309. 1355.
28.4832 28.4817 1361(41) 0.000604 1309. 1361.
28.5331 28.5316 1390(41) 0.000594 1308. 1370.
28.5830 28.5815 1408(42) 0.000571 1308. 1380.
28.6334 28.6319 1378(41) 0.000590 1307. 1394.
28.6833 28.6818 1399(41) 0.000588 1307. 1410.
28.7332 28.7317 1440(42) 0.000572 1307. 1430.
28.7833 28.7818 1447(42) 0.000568 1306. 1453.
28.8333 28.8318 1475(42) 0.000557 1306. 1481.
28.8832 28.8817 1499(43) 0.000551 1305. 1514.
28.9332 28.9317 1551(44) 0.000518 1305. 1552.
28.9834 28.9819 1629(45) 0.000500 1304. 1595.
29.0154 29.0139 1611(47) 0.000461 1304. 1626.
29.0654 29.0639 1780(49) 0.000414 1303. 1680.
29.1155 29.1140 1741(49) 0.000424 1303. 1741.
29.1655 29.1640 1831(50) 0.000402 1302. 1810.
29.2154 29.2139 1794(49) 0.000411 1302. 1888.
29.2654 29.2639 1921(51) 0.000380 1301. 1977.
29.3154 29.3139 1904(51) 0.000384 1301. 2078.
29.3656 29.3641 2147(54) 0.0003393 1300. 2193.
29.4154 29.4139 2195(55) 0.0003317 1300. 2321.
29.4655 29.4640 2484(59) 0.0002915 1299. 2463.
29.5155 29.5140 2592(60) 0.0002771 1299. 2619.
29.5655 29.5640 2697(61) 0.0002686 1298. 2786.
29.6153 29.6138 2964(64) 0.0002423 1298. 2959.
29.6654 29.6639 3119(66) 0.0002276 1297. 3135.
29.7156 29.7141 3404(69) 0.0002077 1297. 3305.
29.7654 29.7639 3688(73) 0.0001888 1296. 3457.
29.8154 29.8139 3611(72) 0.0001950 1296. 3583.
29.8658 29.8643 3792(74) 0.0001842 1295. 3674.
29.9156 29.9141 3771(73) 0.0001852 1295. 3716.
29.9656 29.9641 3704(73) 0.0001891 1294. 3706.
30.0157 30.0142 3522(71) 0.0001993 1294. 3638.
30.0656 30.0641 3576(71) 0.0001964 1293. 3517.
30.1155 30.1140 3413(69) 0.0002073 1293. 3349.
30.1655 30.1640 3160(67) 0.0002240 1292. 3146.
30.2157 30.2142 2983(65) 0.0002397 1292. 2924.
30.2482 30.2467 2835(62) 0.0002620 1292. 2776.
30.2982 30.2967 2623(59) 0.0002832 1291. 2552.
30.3483 30.3468 2357(56) 0.0003181 1291. 2343.
30.3983 30.3968 2196(54) 0.0003433 1290. 2157.
30.4482 30.4467 2110(53) 0.000357 1290. 1999.
30.4982 30.4967 2017(52) 0.000375 1289. 1872.
30.5482 30.5467 1941(51) 0.000390 1289. 1774.
30.5984 30.5969 1837(49) 0.000411 1288. 1705.
30.6482 30.6467 1687(47) 0.000453 1287. 1663.
30.6983 30.6968 1684(47) 0.000454 1287. 1643.
30.7483 30.7468 1744(48) 0.000436 1286. 1643.
30.7983 30.7968 1749(48) 0.000438 1286. 1661.
30.8481 30.8466 1633(46) 0.000467 1285. 1692.
30.8982 30.8967 1711(47) 0.000444 1285. 1737.
30.9484 30.9469 1869(50) 0.000403 1284. 1795.
30.9982 30.9967 1965(51) 0.000383 1284. 1864.
31.0482 31.0467 1977(51) 0.000380 1283. 1947.
31.0986 31.0971 2058(52) 0.000365 1283. 2042.
31.1484 31.1469 2076(53) 0.000361 1282. 2150.
31.1984 31.1969 2213(54) 0.0003392 1282. 2272.
31.2485 31.2470 2340(56) 0.0003188 1281. 2407.
31.2984 31.2969 2547(59) 0.0002911 1281. 2552.
31.3483 31.3468 2666(60) 0.0002782 1280. 2706.
31.3983 31.3968 2867(62) 0.0002565 1280. 2862.
31.4485 31.4470 3131(65) 0.0002332 1279. 3015.
31.5011 31.4996 3185(68) 0.0002189 1279. 3162.
31.5511 31.5496 3282(69) 0.0002103 1278. 3280.
31.6012 31.5997 3331(69) 0.0002080 1278. 3367.
31.6512 31.6497 3292(69) 0.0002103 1277. 3413.
31.7011 31.6996 3144(67) 0.0002199 1277. 3412.
31.7511 31.7496 3144(67) 0.0002217 1276. 3359.
31.8011 31.7996 3050(66) 0.0002285 1276. 3257.
31.8513 31.8498 2911(64) 0.0002414 1275. 3110.
31.9011 31.8996 2664(61) 0.0002664 1275. 2932.
31.9512 31.9497 2601(60) 0.0002745 1274. 2731.
32.0012 31.9997 2339(57) 0.0003063 1273. 2524.
32.0512 32.0497 2123(54) 0.0003369 1273. 2321.
32.1010 32.0995 2005(53) 0.000360 1272. 2131.
32.1511 32.1496 1886(51) 0.000384 1272. 1960.
32.2012 32.1997 1745(49) 0.000416 1271. 1812.
32.2511 32.2496 1686(48) 0.000431 1271. 1689.
32.3011 32.2996 1580(47) 0.000458 1270. 1590.
32.3515 32.3500 1529(46) 0.000478 1270. 1511.
32.4013 32.3998 1463(45) 0.000504 1269. 1453.
32.4513 32.4498 1419(44) 0.000507 1269. 1409.
32.5014 32.4999 1363(43) 0.000537 1268. 1377.
32.5513 32.5498 1413(44) 0.000520 1268. 1354.
32.6012 32.5997 1374(43) 0.000536 1267. 1338.
32.6512 32.6497 1372(43) 0.000536 1267. 1326.
32.7014 32.6999 1342(43) 0.000547 1266. 1318.
32.7460 32.7445 1339(42) 0.000579 1266. 1312.
32.7960 32.7945 1436(43) 0.000541 1265. 1307.
32.8461 32.8446 1356(42) 0.000576 1265. 1303.
32.8961 32.8946 1386(42) 0.000558 1264. 1299.
32.9460 32.9445 1369(42) 0.000562 1263. 1296.
32.9960 32.9945 1385(42) 0.000563 1263. 1293.
33.0460 33.0445 1314(41) 0.000591 1262. 1291.
33.0962 33.0947 1362(42) 0.000576 1262. 1289.
33.1460 33.1445 1331(41) 0.000592 1261. 1287.
33.1961 33.1946 1350(42) 0.000574 1261. 1285.
33.2461 33.2446 1277(40) 0.000616 1260. 1283.
33.2961 33.2946 1300(41) 0.000605 1260. 1281.
33.3459 33.3444 1327(41) 0.000591 1259. 1280.
33.3960 33.3945 1274(41) 0.000602 1259. 1278.
33.4461 33.4446 1252(40) 0.000634 1258. 1277.
33.4960 33.4945 1299(41) 0.000606 1258. 1275.
33.5460 33.5445 1335(41) 0.000589 1257. 1274.
33.5964 33.5949 1270(40) 0.000624 1256. 1273.
33.6462 33.6447 1297(41) 0.000604 1256. 1272.
33.6962 33.6947 1266(40) 0.000629 1255. 1270.
33.7463 33.7448 1268(40) 0.000620 1255. 1269.
33.7962 33.7947 1271(40) 0.000618 1254. 1268.
33.8461 33.8446 1288(40) 0.000615 1254. 1267.
33.8961 33.8946 1236(39) 0.000644 1253. 1266.
33.9463 33.9448 1337(41) 0.000592 1253. 1265.
33.9871 33.9856 1287(37) 0.000715 1252. 1264.
34.0370 34.0355 1285(38) 0.000711 1252. 1263.
34.0872 34.0857 1305(38) 0.000704 1251. 1262.
34.1371 34.1356 1280(37) 0.000718 1251. 1261.
34.1871 34.1856 1282(37) 0.000715 1250. 1261.
34.2371 34.2356 1339(38) 0.000687 1249. 1260.
34.2871 34.2856 1379(39) 0.000665 1249. 1259.
34.3372 34.3357 1299(38) 0.000704 1248. 1258.
34.3871 34.3856 1400(39) 0.000652 1248. 1257.
34.4372 34.4357 1319(38) 0.000691 1247. 1256.
34.4872 34.4857 1271(37) 0.000723 1247. 1256.
34.5372 34.5357 1235(37) 0.000744 1246. 1255.
34.5870 34.5855 1213(36) 0.000763 1246. 1254.
34.6371 34.6356 1285(38) 0.000708 1245. 1253.
34.6872 34.6857 1332(38) 0.000685 1244. 1250.
34.7371 34.7356 1266(37) 0.000718 1244. 1250.
34.7870 34.7855 1249(37) 0.000736 1243. 1249.
34.8375 34.8360 1246(37) 0.000735 1243. 1249.
34.8873 34.8858 1302(38) 0.000701 1242. 1248.
34.9372 34.9357 1245(37) 0.000739 1242. 1248.
34.9874 34.9859 1236(37) 0.000742 1241. 1247.
35.0373 35.0358 1318(38) 0.000694 1241. 1247.
35.0872 35.0857 1347(38) 0.000677 1240. 1246.
35.1372 35.1357 1269(37) 0.000720 1239. 1246.
35.1874 35.1859 1258(37) 0.000734 1239. 1246.
35.2556 35.2541 1229(37) 0.000735 1238. 1245.
35.3056 35.3041 1245(37) 0.000718 1238. 1245.
35.3557 35.3542 1289(38) 0.000694 1237. 1245.
35.4057 35.4042 1243(37) 0.000714 1236. 1245.
35.4556 35.4541 1266(38) 0.000706 1236. 1244.
35.5056 35.5041 1237(37) 0.000729 1235. 1244.
35.5557 35.5542 1263(38) 0.000708 1235. 1244.
35.6058 35.6043 1225(37) 0.000734 1234. 1243.
35.6556 35.6541 1302(38) 0.000688 1234. 1243.
35.7058 35.7043 1285(38) 0.000700 1233. 1242.
35.7558 35.7543 1235(37) 0.000726 1232. 1241.
35.8057 35.8042 1255(37) 0.000717 1232. 1241.
35.8555 35.8540 1255(37) 0.000717 1231. 1240.
35.9056 35.9041 1268(38) 0.000704 1231. 1239.
35.9558 35.9543 1236(37) 0.000728 1230. 1238.
36.0056 36.0041 1270(38) 0.000706 1230. 1238.
36.0556 36.0541 1233(37) 0.000727 1229. 1237.
36.1060 36.1045 1212(37) 0.000738 1228. 1237.
36.1558 36.1543 1222(37) 0.000733 1228. 1237.
36.2058 36.2043 1271(38) 0.000708 1227. 1237.
36.2559 36.2544 1273(38) 0.000704 1227. 1237.
36.3058 36.3043 1224(37) 0.000735 1226. 1238.
36.3557 36.3542 1276(38) 0.000703 1226. 1240.
36.4057 36.4042 1249(37) 0.000717 1225. 1242.
36.4559 36.4544 1264(38) 0.000706 1225. 1242.
36.5293 36.5278 1233(37) 0.000738 1224. 1247.
36.5793 36.5778 1220(37) 0.000747 1223. 1251.
36.6294 36.6279 1307(38) 0.000695 1223. 1256.
36.6794 36.6779 1229(37) 0.000743 1222. 1262.
36.7293 36.7278 1240(37) 0.000733 1221. 1269.
36.7793 36.7778 1296(38) 0.000703 1221. 1278.
36.8293 36.8278 1281(38) 0.000709 1220. 1287.
36.8795 36.8780 1287(38) 0.000701 1220. 1298.
36.9293 36.9278 1317(38) 0.000694 1219. 1309.
36.9794 36.9779 1274(37) 0.000718 1219. 1321.
37.0294 37.0279 1299(38) 0.000697 1218. 1333.
37.0794 37.0779 1324(38) 0.000690 1217. 1345.
37.1292 37.1277 1338(38) 0.000683 1217. 1355.
37.1793 37.1778 1316(38) 0.000686 1216. 1364.
37.2295 37.2280 1400(39) 0.000650 1216. 1369.
37.2793 37.2778 1370(39) 0.000657 1215. 1372.
37.3293 37.3278 1359(39) 0.000671 1214. 1370.
37.3797 37.3782 1374(39) 0.000661 1214. 1364.
37.4295 37.4280 1372(39) 0.000660 1213. 1355.
37.4795 37.4780 1324(38) 0.000691 1213. 1343.
37.5296 37.5281 1326(38) 0.000686 1212. 1328.
37.5795 37.5780 1220(37) 0.000748 1212. 1313.
37.6294 37.6279 1310(38) 0.000696 1211. 1297.
37.6794 37.6779 1294(38) 0.000703 1210. 1282.
37.7296 37.7281 1322(38) 0.000688 1210. 1268.
37.7697 37.7682 1236(37) 0.000741 1209. 1258.
37.8197 37.8182 1331(38) 0.000682 1209. 1247.
37.8698 37.8683 1356(39) 0.000672 1208. 1239.
37.9198 37.9183 1329(38) 0.000688 1208. 1234.
37.9697 37.9682 1270(37) 0.000721 1207. 1228.
38.0197 38.0182 1192(36) 0.000773 1206. 1224.
38.0697 38.0682 1274(37) 0.000718 1206. 1221.
38.1199 38.1184 1198(36) 0.000766 1205. 1219.
38.1697 38.1682 1187(36) 0.000776 1205. 1217.
38.2198 38.2183 1201(36) 0.000769 1204. 1216.
38.2698 38.2683 1173(36) 0.000778 1204. 1215.
38.3198 38.3183 1235(37) 0.000741 1203. 1215.
38.3696 38.3681 1199(36) 0.000769 1202. 1214.
38.4197 38.4182 1255(37) 0.000726 1202. 1214.
38.4699 38.4684 1199(36) 0.000765 1201. 1214.
38.5197 38.5182 1180(36) 0.000773 1201. 1214.
38.5697 38.5682 1199(36) 0.000767 1200. 1215.
38.6201 38.6186 1261(37) 0.000726 1199. 1216.
38.6699 38.6684 1217(36) 0.000754 1199. 1217.
38.7199 38.7184 1231(37) 0.000747 1198. 1218.
38.7700 38.7685 1253(37) 0.000730 1198. 1221.
38.8199 38.8184 1135(35) 0.000811 1197. 1224.
38.8698 38.8683 1252(37) 0.000734 1196. 1228.
38.9198 38.9183 1231(37) 0.000742 1196. 1233.
38.9700 38.9685 1324(38) 0.000688 1195. 1241.
39.0204 39.0189 1226(38) 0.000710 1195. 1250.
39.0704 39.0689 1245(38) 0.000699 1194. 1261.
39.1206 39.1191 1335(39) 0.000650 1194. 1275.
39.1705 39.1690 1238(38) 0.000702 1193. 1292.
39.2205 39.2190 1250(38) 0.000694 1192. 1315.
39.2704 39.2689 1388(40) 0.000626 1192. 1339.
39.3205 39.3190 1415(40) 0.000611 1191. 1367.
39.3706 39.3691 1414(40) 0.000611 1191. 1400.
39.4204 39.4189 1364(40) 0.000637 1190. 1436.
39.4706 39.4691 1420(40) 0.000611 1189. 1476.
39.5206 39.5191 1525(42) 0.000564 1189. 1519.
39.5705 39.5690 1536(42) 0.000562 1188. 1564.
39.6204 39.6189 1516(42) 0.000570 1188. 1608.
39.6705 39.6690 1643(44) 0.000521 1187. 1652.
39.7206 39.7191 1636(44) 0.000527 1186. 1691.
39.7705 39.7690 1694(44) 0.000506 1186. 1724.
39.8204 39.8189 1815(46) 0.000471 1185. 1750.
39.8708 39.8693 1743(45) 0.000493 1185. 1765.
39.9207 39.9192 1763(45) 0.000485 1184. 1769.
39.9706 39.9691 1707(45) 0.000502 1183. 1761.
40.0207 40.0192 1757(45) 0.000486 1183. 1741.
40.0707 40.0692 1613(43) 0.000536 1182. 1710.
40.1206 40.1191 1639(44) 0.000526 1182. 1670.
40.1705 40.1690 1605(43) 0.000535 1181. 1624.
40.2208 40.2193 1499(42) 0.000575 1180. 1574.
40.2720 40.2705 1493(41) 0.000595 1180. 1523.
40.3220 40.3205 1530(42) 0.000576 1179. 1478.
40.3722 40.3707 1434(40) 0.000618 1179. 1437.
40.4221 40.4206 1319(38) 0.000677 1178. 1405.
40.4721 40.4706 1350(39) 0.000660 1177. 1381.
40.5220 40.5205 1360(39) 0.000657 1177. 1366.
40.5721 40.5706 1359(39) 0.000656 1176. 1360.
40.6222 40.6207 1341(39) 0.000665 1176. 1362.
40.6720 40.6705 1290(38) 0.000695 1175. 1372.
40.7222 40.7207 1274(38) 0.000699 1174. 1388.
40.7722 40.7707 1379(39) 0.000643 1174. 1410.
40.8221 40.8206 1410(40) 0.000632 1173. 1436.
40.8720 40.8705 1465(41) 0.000605 1173. 1464.
40.9221 40.9206 1439(40) 0.000612 1172. 1492.
40.9722 40.9707 1580(42) 0.000559 1171. 1518.
41.0220 41.0205 1588(42) 0.000555 1171. 1540.
41.0720 41.0705 1568(42) 0.000565 1170. 1556.
41.1224 41.1209 1506(41) 0.000589 1170. 1565.
41.1722 41.1707 1587(42) 0.000557 1169. 1563.
41.2222 41.2207 1579(42) 0.000562 1168. 1552.
41.2723 41.2708 1530(42) 0.000577 1168. 1533.
41.3222 41.3207 1575(42) 0.000562 1167. 1506.
41.3722 41.3707 1427(40) 0.000624 1167. 1474.
41.4221 41.4206 1488(41) 0.000597 1166. 1440.
41.4723 41.4708 1363(39) 0.000656 1165. 1407.
41.5140 41.5125 1379(39) 0.000663 1165. 1382.
41.5640 41.5625 1310(38) 0.000696 1164. 1355.
41.6141 41.6126 1380(39) 0.000658 1164. 1335.
41.6641 41.6626 1307(38) 0.000696 1163. 1322.
41.7140 41.7125 1334(38) 0.000682 1162. 1317.
41.7640 41.7625 1317(38) 0.000693 1162. 1321.
41.8140 41.8125 1341(38) 0.000676 1161. 1335.
41.8642 41.8627 1411(39) 0.000641 1161. 1359.
41.9140 41.9125 1372(39) 0.000662 1160. 1395.
41.9641 41.9626 1407(39) 0.000645 1159. 1444.
42.0141 42.0126 1484(41) 0.000606 1159. 1507.
42.0641 42.0626 1503(41) 0.000601 1158. 1587.
42.1139 42.1124 1690(43) 0.000529 1158. 1683.
42.1640 42.1625 1732(44) 0.000511 1157. 1798.
42.2141 42.2126 1925(47) 0.000457 1156. 1932.
42.2640 42.2625 2038(48) 0.000432 1156. 2083.
42.3140 42.3125 2190(50) 0.000403 1155. 2250.
42.3644 42.3629 2302(51) 0.000381 1155. 2429.
42.4142 42.4127 2642(55) 0.0003282 1154. 2611.
42.4642 42.4627 2901(58) 0.0002976 1153. 2790.
42.5143 42.5128 3128(61) 0.0002725 1153. 2954.
42.5642 42.5627 3251(62) 0.0002623 1152. 3092.
42.6141 42.6126 3260(62) 0.0002622 1152. 3192.
42.6641 42.6626 3190(61) 0.0002679 1151. 3245.
42.7143 42.7128 3149(61) 0.0002711 1150. 3242.
42.7638 42.7623 3009(59) 0.0002844 1150. 3183.
42.8138 42.8123 3033(60) 0.0002796 1149. 3071.
42.8639 42.8624 2815(57) 0.0003030 1149. 2914.
42.9138 42.9123 2609(55) 0.0003307 1148. 2730.
42.9638 42.9623 2554(54) 0.0003383 1147. 2532.
43.0138 43.0123 2216(50) 0.000397 1147. 2336.
43.0638 43.0623 2095(49) 0.000419 1146. 2155.
43.1140 43.1125 2017(48) 0.000437 1146. 1998.
43.1638 43.1623 1841(46) 0.000482 1145. 1874.
43.2139 43.2124 1777(45) 0.000502 1144. 1785.
43.2639 43.2624 1766(45) 0.000500 1144. 1734.
43.3139 43.3124 1750(44) 0.000506 1143. 1719.
43.3637 43.3622 1699(44) 0.000523 1142. 1741.
43.4138 43.4123 1750(45) 0.000502 1142. 1796.
43.4639 43.4624 1790(45) 0.000493 1141. 1884.
43.5138 43.5123 1912(47) 0.000458 1141. 1999.
43.5638 43.5623 2055(49) 0.000424 1140. 2139.
43.6142 43.6127 2278(51) 0.000380 1139. 2300.
43.6640 43.6625 2471(54) 0.0003482 1139. 2472.
43.7140 43.7125 2598(55) 0.0003317 1138. 2649.
43.7641 43.7626 2920(59) 0.0002907 1138. 2820.
43.8140 43.8125 2969(59) 0.0002868 1137. 2974.
43.8639 43.8624 3077(60) 0.0002767 1136. 3099.
43.9139 43.9124 3239(62) 0.0002606 1136. 3184.
43.9641 43.9626 3241(62) 0.0002608 1135. 3218.
44.0146 44.0131 3111(60) 0.0002822 1135. 3195.
44.0646 44.0631 2991(58) 0.0002925 1134. 3114.
44.1148 44.1133 2898(57) 0.0003029 1133. 2980.
44.1647 44.1632 2690(55) 0.0003299 1133. 2806.
44.2146 44.2131 2443(52) 0.000367 1132. 2606.
44.2646 44.2631 2340(51) 0.000386 1131. 2395.
44.3147 44.3132 2165(49) 0.000419 1131. 2185.
44.3648 44.3633 1865(45) 0.000492 1130. 1988.
44.4146 44.4131 1808(44) 0.000510 1130. 1813.
44.4648 44.4633 1631(42) 0.000569 1129. 1662.
44.5148 44.5133 1529(41) 0.000605 1128. 1537.
44.5647 44.5632 1423(39) 0.000654 1128. 1438.
44.6145 44.6130 1370(38) 0.000680 1127. 1361.
44.6646 44.6631 1299(37) 0.000714 1127. 1304.
44.7148 44.7133 1236(36) 0.000758 1126. 1262.
44.7646 44.7631 1152(35) 0.000815 1125.3 1231.5
44.8146 44.8131 1181(35) 0.000796 1125. 1210.
44.8650 44.8635 1200(36) 0.000782 1124. 1195.
44.9148 44.9133 1222(36) 0.000763 1123. 1185.
44.9648 44.9633 1105(34) 0.000852 1122.9 1176.8
45.0149 45.0134 1212(36) 0.000768 1122. 1171.
45.0648 45.0633 1165(35) 0.000808 1122. 1166.
45.1148 45.1133 1160(35) 0.000813 1121. 1162.
45.1647 45.1632 1122(35) 0.000834 1120.4 1159.1
45.2149 45.2134 1171(35) 0.000800 1120. 1156.
45.2589 45.2574 1195(36) 0.000764 1119. 1154.
45.3089 45.3074 1112(35) 0.000803 1119. 1152.
45.3590 45.3575 1155(36) 0.000779 1118. 1149.
45.4090 45.4075 1142(35) 0.000794 1117. 1147.
45.4589 45.4574 1225(37) 0.000724 1117. 1146.
45.5089 45.5074 1138(35) 0.000795 1116. 1144.
45.5590 45.5575 1162(36) 0.000781 1116. 1144.
45.6091 45.6076 1107(35) 0.000821 1115.0 1145.6
45.6589 45.6574 1093(35) 0.000834 1114.4 1144.4
45.7090 45.7075 1087(35) 0.000837 1113.7 1143.4
45.7591 45.7576 1116(35) 0.000808 1113. 1142.
45.8090 45.8075 1175(36) 0.000767 1113. 1142.
45.8588 45.8573 1045(34) 0.000870 1111.9 1141.4
45.9089 45.9074 1110(35) 0.000806 1111. 1141.
45.9591 45.9576 1108(35) 0.000818 1110.7 1140.1
46.0089 46.0074 1098(35) 0.000819 1110.1 1139.8
46.0589 46.0574 1138(35) 0.000798 1109. 1140.
46.1093 46.1078 1184(36) 0.000761 1109. 1140.
46.1591 46.1576 1123(35) 0.000814 1108.2 1140.7
46.2091 46.2076 1164(36) 0.000786 1108. 1142.
46.2592 46.2577 1167(36) 0.000777 1107. 1144.
46.3091 46.3076 1131(35) 0.000806 1106. 1147.
46.3590 46.3575 1145(36) 0.000791 1106. 1151.
46.4090 46.4075 1208(37) 0.000740 1105. 1156.
46.4592 46.4577 1189(36) 0.000759 1105. 1164.
46.5094 46.5079 1213(39) 0.000656 1104. 1175.
46.5594 46.5579 1214(39) 0.000650 1103. 1189.
46.6095 46.6080 1248(39) 0.000642 1103. 1208.
46.6595 46.6580 1299(41) 0.000605 1102. 1231.
46.7094 46.7079 1289(41) 0.000608 1101. 1259.
46.7594 46.7579 1319(41) 0.000596 1101. 1294.
46.8094 46.8079 1323(41) 0.000595 1100. 1336.
46.8596 46.8581 1452(43) 0.000534 1100. 1384.
46.9094 46.9079 1420(43) 0.000550 1099. 1440.
46.9595 46.9580 1479(43) 0.000529 1098. 1499.
47.0095 47.0080 1605(46) 0.000477 1098. 1560.
47.0595 47.0580 1697(47) 0.000459 1097. 1622.
47.1093 47.1078 1705(47) 0.000458 1097. 1681.
47.1594 47.1579 1677(46) 0.000469 1096. 1735.
47.2096 47.2081 1828(48) 0.000429 1095. 1778.
47.2594 47.2579 1825(48) 0.000430 1095. 1809.
47.3094 47.3079 1804(48) 0.000431 1094. 1824.
47.3598 47.3583 1828(48) 0.000431 1093. 1822.
47.4096 47.4081 1784(48) 0.000442 1093. 1803.
47.4596 47.4581 1801(48) 0.000435 1092. 1767.
47.5097 47.5082 1739(47) 0.000450 1092. 1719.
47.5596 47.5581 1624(45) 0.000484 1091. 1662.
47.6095 47.6080 1603(45) 0.000494 1090. 1598.
47.6595 47.6580 1509(44) 0.000521 1090. 1532.
47.7097 47.7082 1466(43) 0.000539 1089. 1467.
47.7769 47.7754 1344(40) 0.000630 1088. 1387.
47.8269 47.8254 1273(39) 0.000664 1088. 1336.
47.8770 47.8755 1268(39) 0.000670 1087. 1293.
47.9270 47.9255 1201(38) 0.000710 1087. 1258.
47.9769 47.9754 1231(38) 0.000690 1086. 1231.
48.0269 48.0254 1174(37) 0.000724 1085. 1211.
48.0769 48.0754 1200(37) 0.000722 1085. 1197.
48.1271 48.1256 1139(37) 0.000735 1084. 1187.
48.1769 48.1754 1206(37) 0.000716 1083. 1180.
48.2270 48.2255 1160(37) 0.000739 1083. 1175.
48.2770 48.2755 1145(37) 0.000740 1082. 1172.
48.3270 48.3255 1141(36) 0.000754 1082. 1169.
48.3768 48.3753 1071(35) 0.000818 1081.0 1166.4
48.4269 48.4254 1080(35) 0.000800 1080. 1164.
48.4771 48.4756 1110(36) 0.000780 1080. 1161.
48.5269 48.5254 1103(36) 0.000773 1079. 1159.
48.5769 48.5754 1061(35) 0.000814 1078.5 1156.5
48.6273 48.6258 1046(35) 0.000825 1077.9 1155.0
48.6771 48.6756 1114(36) 0.000768 1077. 1154.
48.7271 48.7256 1108(36) 0.000783 1077. 1155.
48.7772 48.7757 1082(36) 0.000789 1076. 1155.
48.8271 48.8256 1106(36) 0.000769 1075. 1158.
48.8770 48.8755 1122(36) 0.000767 1075. 1163.
48.9270 48.9255 1062(35) 0.000806 1074. 1170.
48.9772 48.9757 1183(37) 0.000717 1074. 1179.
49.0202 49.0187 1065(33) 0.000923 1073.1 1189.2
49.0702 49.0687 1203(35) 0.000809 1072. 1204.
49.1203 49.1188 1196(35) 0.000814 1071.9 1222.8
49.1703 49.1688 1181(35) 0.000826 1071.3 1245.8
49.2202 49.2187 1223(35) 0.000795 1071. 1274.
49.2702 49.2687 1251(36) 0.000774 1070. 1307.
49.3202 49.3187 1282(36) 0.000761 1069. 1347.
49.3704 49.3689 1334(37) 0.000727 1069. 1393.
49.4202 49.4187 1360(37) 0.000715 1068. 1447.
49.4703 49.4688 1458(39) 0.000665 1068. 1511.
49.5203 49.5188 1490(39) 0.000648 1067. 1585.
49.5703 49.5688 1632(41) 0.000588 1066. 1674.
49.6201 49.6186 1716(42) 0.000554 1066. 1780.
49.6702 49.6687 1841(44) 0.000511 1065. 1910.
49.7204 49.7189 1961(46) 0.000478 1065. 2070.
49.7702 49.7687 2161(48) 0.000430 1064. 2266.
49.8202 49.8187 2380(51) 0.000388 1063. 2508.
49.8706 49.8691 2582(53) 0.000353 1063. 2805.
49.9204 49.9189 2972(57) 0.0003033 1062. 3155.
49.9704 49.9689 3455(62) 0.0002578 1061. 3563.
50.0205 50.0190 3887(67) 0.0002253 1061. 4023.
50.0704 50.0689 4389(71) 0.0001982 1060. 4518.
50.1203 50.1188 5112(77) 0.0001667 1060. 5027.
50.1703 50.1688 5546(81) 0.0001514 1059. 5524.
50.2205 50.2190 6020(85) 0.0001376 1058. 5977.
50.2503 50.2488 6508(94) 0.0001139 1058. 6209.
50.3003 50.2988 6568(95) 0.0001117 1057. 6513.
50.3505 50.3490 6800(96) 0.0001075 1057. 6684.
50.4004 50.3989 6819(96) 0.0001077 1056. 6701.
50.4503 50.4488 6521(94) 0.0001130 1056. 6561.
50.5003 50.4988 6324(92) 0.0001182 1055. 6276.
50.5504 50.5489 5892(88) 0.0001281 1054. 5874.
50.6005 50.5990 5528(85) 0.0001380 1054. 5390.
50.6503 50.6488 4817(79) 0.0001619 1053. 4868.
50.7005 50.6990 4426(75) 0.0001794 1053. 4334.
50.7505 50.7490 3906(70) 0.0002061 1052. 3826.
50.8004 50.7989 3377(64) 0.0002430 1051. 3366.
50.8503 50.8488 3054(61) 0.0002707 1051. 2969.
50.9004 50.8989 2794(58) 0.0002952 1050. 2647.
50.9505 50.9490 2519(55) 0.0003329 1050. 2406.
51.0003 50.9988 2425(54) 0.0003474 1049. 2250.
51.0503 51.0488 2301(52) 0.000364 1048. 2174.
51.1007 51.0992 2280(52) 0.000370 1048. 2177.
51.1505 51.1490 2380(54) 0.0003486 1047. 2254.
51.2005 51.1990 2412(54) 0.0003481 1047. 2402.
51.2506 51.2491 2555(55) 0.0003250 1046. 2613.
51.3005 51.2990 2847(59) 0.0002906 1045. 2876.
51.3505 51.3490 3304(64) 0.0002469 1045. 3180.
51.4004 51.3989 3737(68) 0.0002154 1044. 3507.
51.4506 51.4491 4084(71) 0.0001957 1043. 3838.
51.5161 51.5146 4552(76) 0.0001724 1043. 4231.
51.5661 51.5646 4751(78) 0.0001630 1042. 4469.
51.6162 51.6147 4756(78) 0.0001631 1041. 4625.
51.6661 51.6646 4810(79) 0.0001613 1041. 4679.
51.7161 51.7146 4564(77) 0.0001705 1040. 4619.
51.7661 51.7646 4500(76) 0.0001746 1040. 4449.
51.8161 51.8146 4206(73) 0.0001878 1039. 4182.
51.8663 51.8648 3847(69) 0.0002078 1038. 3845.
51.9161 51.9146 3557(66) 0.0002274 1038. 3472.
51.9662 51.9647 3076(61) 0.0002661 1037. 3088.
52.0162 52.0147 2635(57) 0.0003100 1037. 2719.
52.0662 52.0647 2373(53) 0.0003504 1036. 2383.
52.1160 52.1145 2148(50) 0.000393 1035. 2091.
52.1661 52.1646 1833(47) 0.000457 1035. 1847.
52.2162 52.2147 1751(45) 0.000487 1034. 1651.
52.2661 52.2646 1580(43) 0.000542 1034. 1500.
52.3161 52.3146 1393(40) 0.000619 1033. 1387.
52.3665 52.3650 1386(40) 0.000624 1032. 1304.
52.4163 52.4148 1221(37) 0.000713 1032. 1246.
52.4663 52.4648 1179(37) 0.000744 1031. 1205.
52.5164 52.5149 1192(37) 0.000728 1031. 1177.
52.5663 52.5648 1178(37) 0.000742 1030. 1157.
52.6162 52.6147 1092(35) 0.000801 1029. 1143.
52.6662 52.6647 1192(37) 0.000731 1029. 1134.
52.7164 52.7149 1139(36) 0.000767 1028. 1127.
52.7866 52.7851 1149(34) 0.000883 1027.4 1121.1
52.8366 52.8351 1037(32) 0.000966 1026.8 1119.2
52.8867 52.8852 1125(33) 0.000897 1026.2 1119.3
52.9366 52.9351 1139(34) 0.000885 1025.6 1121.3
52.9866 52.9851 1182(34) 0.000846 1025.0 1125.4
53.0366 53.0351 1077(33) 0.000944 1024.4 1131.8
53.0866 53.0851 1149(34) 0.000878 1023.8 1140.5
53.1367 53.1352 1203(35) 0.000836 1023.2 1151.1
53.1866 53.1851 1243(35) 0.000814 1022.6 1163.4
53.2367 53.2352 1190(34) 0.000850 1022.0 1177.0
53.2867 53.2852 1193(35) 0.000840 1021.4 1190.8
53.3367 53.3352 1208(35) 0.000837 1020.8 1203.9
53.3865 53.3850 1261(35) 0.000798 1020. 1215.
53.4366 53.4351 1286(36) 0.000775 1020. 1224.
53.4867 53.4852 1240(35) 0.000815 1019.0 1227.9
53.5366 53.5351 1256(35) 0.000795 1018. 1228.
53.5866 53.5851 1238(35) 0.000807 1018. 1222.
53.6370 53.6355 1191(34) 0.000849 1017.2 1212.8
53.6868 53.6853 1247(35) 0.000807 1017. 1200.
53.7368 53.7353 1174(34) 0.000867 1016.0 1185.7
53.7869 53.7854 1211(35) 0.000833 1015.4 1171.2
53.8368 53.8353 1205(35) 0.000840 1014.8 1158.2
53.8867 53.8852 1185(34) 0.000844 1014.2 1148.2
53.9367 53.9352 1159(34) 0.000868 1013.6 1142.5
53.9869 53.9854 1151(34) 0.000871 1013.0 1142.6
54.0197 54.0182 1159(34) 0.000889 1012.7 1146.5
54.0697 54.0682 1212(34) 0.000848 1012.1 1159.8
54.1198 54.1183 1236(35) 0.000826 1011.5 1183.8
54.1697 54.1682 1233(35) 0.000827 1010.9 1221.5
54.2197 54.2182 1297(36) 0.000787 1010. 1274.
54.2697 54.2682 1328(36) 0.000772 1010. 1346.
54.3197 54.3182 1492(38) 0.000677 1009. 1439.
54.3698 54.3683 1567(39) 0.000642 1009. 1556.
54.4197 54.4182 1704(41) 0.000591 1008. 1697.
54.4698 54.4683 1845(43) 0.000543 1007. 1861.
54.5198 54.5183 2034(45) 0.000487 1007. 2043.
54.5698 54.5683 2337(49) 0.000424 1006. 2236.
54.6196 54.6181 2553(51) 0.000384 1006. 2429.
54.6697 54.6682 2747(53) 0.000353 1005. 2612.
54.7198 54.7183 2776(53) 0.000352 1004. 2768.
54.7697 54.7682 2953(55) 0.0003277 1004. 2882.
54.8196 54.8181 2923(55) 0.0003331 1003. 2942.
54.8701 54.8686 2901(55) 0.0003352 1003. 2941.
54.9199 54.9184 2870(54) 0.0003379 1002. 2874.
54.9698 54.9683 2786(53) 0.000351 1001. 2750.
55.0199 55.0184 2692(52) 0.000363 1001. 2582.
55.0699 55.0684 2321(49) 0.000423 1000. 2387.
55.1198 55.1183 2220(47) 0.000448 1000. 2181.
55.1698 55.1683 2031(45) 0.000488 999. 1979.
55.2200 55.2185 1739(41) 0.000581 998. 1795.
55.2519 55.2504 1773(43) 0.000531 998. 1690.
55.3018 55.3003 1663(42) 0.000567 998. 1547.
55.3520 55.3505 1452(39) 0.000652 997. 1429.
55.4019 55.4004 1454(39) 0.000651 996. 1337.
55.4519 55.4504 1262(36) 0.000756 996. 1266.
55.5019 55.5004 1189(35) 0.000813 995.2 1213.7
55.5519 55.5504 1231(36) 0.000775 995. 1174.
55.6020 55.6005 1179(35) 0.000810 994. 1144.
55.6519 55.6504 1127(34) 0.000858 993.4 1120.9
55.7020 55.7005 1091(34) 0.000885 992.8 1102.0
55.7520 55.7505 1088(34) 0.000886 992.2 1086.5
55.8019 55.8004 1062(33) 0.000909 991.7 1073.4
55.8518 55.8503 1084(34) 0.000887 991.1 1062.6
55.9019 55.9004 1121(34) 0.000846 990.5 1053.1
55.9520 55.9505 1036(33) 0.000933 989.9 1045.0
56.0019 56.0004 1106(34) 0.000868 989.3 1038.3
56.0518 56.0503 1059(33) 0.000908 988.8 1032.8
56.1022 56.1007 1103(34) 0.000874 988.2 1028.2
56.1521 56.1506 1117(34) 0.000860 987.6 1024.5
56.2020 56.2005 1011(32) 0.000961 987.0 1021.4
56.2521 56.2506 1059(33) 0.000904 986.4 1018.9
56.3021 56.3006 1003(32) 0.000964 985.8 1016.8
56.3520 56.3505 1032(33) 0.000934 985.3 1015.0
56.4019 56.4004 1048(33) 0.000921 984.7 1013.5
56.4522 56.4507 1034(33) 0.000933 984.1 1009.0
56.5081 56.5066 1027(33) 0.000936 983.5 1007.8
56.5580 56.5565 1067(33) 0.000893 982.9 1006.8
56.6082 56.6067 963(32) 0.000995 982.3 1006.2
56.6581 56.6566 986(32) 0.000969 981.7 1005.5
56.7081 56.7066 1014(33) 0.000933 981.1 1004.9
56.7580 56.7565 1003(32) 0.000958 980.6 1004.3
56.8081 56.8066 1044(33) 0.000914 980.0 1004.0
56.8582 56.8567 998(32) 0.000953 979.4 1003.7
56.9081 56.9066 986(32) 0.000972 978.8 1003.7
56.9582 56.9567 1027(33) 0.000932 978.3 1004.0
57.0082 57.0067 990(32) 0.000968 977.7 1004.7
57.0581 57.0566 926(31) 0.001037 977.1 1005.9
57.1080 57.1065 1001(32) 0.000959 976.5 1008.5
57.1581 57.1566 984(32) 0.000967 976.0 1011.5
57.2082 57.2067 967(32) 0.000985 975.4 1015.8
57.2581 57.2566 1023(33) 0.000926 974.8 1021.9
57.3080 57.3065 1001(32) 0.000957 974.2 1030.0
57.3584 57.3569 1029(33) 0.000927 973.7 1040.8
57.4083 57.4068 1117(34) 0.000850 973.1 1054.2
57.4582 57.4567 1033(33) 0.000923 972.5 1070.5
57.5083 57.5068 1068(34) 0.000888 971.9 1089.7
57.5583 57.5568 1126(34) 0.000841 971.4 1111.2
57.6082 57.6067 1081(34) 0.000883 970.8 1134.2
57.6581 57.6566 1178(35) 0.000807 970. 1158.
57.7084 57.7069 1197(36) 0.000793 970. 1181.
57.7694 57.7679 1251(36) 0.000763 969. 1205.
57.8193 57.8178 1172(35) 0.000813 968.4 1219.4
57.8695 57.8680 1243(36) 0.000764 968. 1229.
57.9194 57.9179 1153(35) 0.000823 967.2 1231.8
57.9694 57.9679 1213(36) 0.000786 967. 1228.
58.0193 58.0178 1134(34) 0.000844 966.1 1220.2
58.0694 58.0679 1207(36) 0.000789 966. 1209.
58.1195 58.1180 1186(35) 0.000804 965. 1196.
58.1693 58.1678 1162(35) 0.000825 964.4 1183.8
58.2195 58.2180 1158(35) 0.000830 963.8 1174.7
58.2695 58.2680 1210(36) 0.000785 963. 1171.
58.3194 58.3179 1125(34) 0.000850 962.7 1173.9
58.3693 58.3678 1149(35) 0.000831 962.1 1186.6
58.4194 58.4179 1230(36) 0.000766 962. 1211.
58.4695 58.4680 1264(37) 0.000751 961. 1248.
58.5194 58.5179 1338(38) 0.000702 960. 1298.
58.5693 58.5678 1227(36) 0.000772 960. 1361.
58.6197 58.6182 1445(39) 0.000651 959. 1435.
58.6695 58.6680 1500(40) 0.000625 959. 1517.
58.7195 58.7180 1579(41) 0.000596 958. 1603.
58.7696 58.7681 1793(44) 0.000519 958. 1687.
58.8195 58.8180 1848(45) 0.000505 957. 1764.
58.8695 58.8680 1842(44) 0.000508 956. 1827.
58.9194 58.9179 1992(46) 0.000464 956. 1873.
58.9697 58.9682 1907(45) 0.000486 955. 1902.
59.0179 59.0164 1914(46) 0.000480 955. 1914.
59.0679 59.0664 1925(46) 0.000476 954. 1919.
59.1180 59.1165 1944(46) 0.000468 954. 1925.
59.1680 59.1665 1997(47) 0.000456 953. 1942.
59.2179 59.2164 1974(47) 0.000459 953. 1981.
59.2679 59.2664 2130(48) 0.000427 952. 2048.
59.3179 59.3164 2165(49) 0.000418 951. 2144.
59.3681 59.3666 2323(51) 0.000387 951. 2269.
59.4179 59.4164 2533(53) 0.000354 950. 2413.
59.4680 59.4665 2797(56) 0.0003191 950. 2567.
59.5180 59.5165 2741(56) 0.0003235 949. 2716.
59.5680 59.5665 2894(57) 0.0003061 949. 2844.
59.6178 59.6163 2990(58) 0.0002951 948. 2936.
59.6679 59.6664 3009(59) 0.0002920 948. 2985.
59.7180 59.7165 3052(59) 0.0002888 947. 2982.
59.7679 59.7664 2960(58) 0.0002979 946. 2931.
59.8179 59.8164 2936(58) 0.0003021 946. 2839.
59.8683 59.8668 2869(57) 0.0003090 945. 2714.
59.9181 59.9166 2755(56) 0.0003219 945. 2570.
59.9681 59.9666 2479(52) 0.000364 944. 2413.
60.0182 60.0167 2278(50) 0.000398 944. 2251.
60.0681 60.0666 2148(49) 0.000424 943. 2093.
60.1180 60.1165 2052(47) 0.000446 943. 1945.
60.1680 60.1665 1930(46) 0.000473 942. 1813.
60.2182 60.2167 1747(44) 0.000527 941. 1701.
60.2578 60.2563 1647(41) 0.000587 941. 1629.
60.3078 60.3063 1582(40) 0.000611 940. 1561.
60.3580 60.3565 1509(40) 0.000639 940. 1515.
60.4079 60.4064 1458(39) 0.000665 939. 1489.
60.4578 60.4563 1415(38) 0.000686 939. 1479.
60.5078 60.5063 1479(39) 0.000655 938. 1478.
60.5579 60.5564 1472(39) 0.000661 938. 1482.
60.6080 60.6065 1408(38) 0.000691 937. 1483.
60.6578 60.6563 1523(40) 0.000636 937. 1477.
60.7080 60.7065 1399(38) 0.000700 936. 1463.
60.7580 60.7565 1361(37) 0.000711 936. 1439.
60.8079 60.8064 1357(37) 0.000719 935. 1408.
60.8578 60.8563 1393(38) 0.000695 934. 1376.
60.9079 60.9064 1338(37) 0.000712 934. 1345.
60.9580 60.9565 1270(36) 0.000765 933. 1321.
61.0078 61.0063 1297(37) 0.000749 933. 1306.
61.0578 61.0563 1300(37) 0.000748 932. 1303.
61.1082 61.1067 1268(36) 0.000765 932. 1312.
61.1580 61.1565 1319(37) 0.000739 931. 1332.
61.2080 61.2065 1420(38) 0.000683 931. 1361.
61.2581 61.2566 1479(39) 0.000654 930. 1396.
61.3080 61.3065 1481(39) 0.000655 930. 1433.
61.3580 61.3565 1413(38) 0.000683 929. 1469.
61.4079 61.4064 1477(39) 0.000656 928. 1503.
61.4581 61.4566 1507(39) 0.000641 928. 1534.
61.4973 61.4958 1513(45) 0.000494 928. 1556.
61.5473 61.5458 1584(46) 0.000468 927. 1582.
61.5974 61.5959 1544(46) 0.000480 926. 1610.
61.6474 61.6459 1643(47) 0.000459 926. 1639.
61.6973 61.6958 1669(47) 0.000448 925. 1669.
61.7473 61.7458 1673(47) 0.000447 925. 1698.
61.7974 61.7959 1755(49) 0.000420 924. 1722.
61.8475 61.8460 1760(49) 0.000421 924. 1736.
61.8973 61.8958 1737(48) 0.000428 923. 1735.
61.9475 61.9460 1774(48) 0.000428 923. 1716.
61.9975 61.9960 1746(48) 0.000429 922. 1681.
62.0474 62.0459 1712(48) 0.000427 922. 1633.
62.0973 62.0958 1655(47) 0.000447 921. 1578.
62.1474 62.1459 1612(46) 0.000464 921. 1523.
62.1975 62.1960 1468(45) 0.000503 920. 1473.
62.2473 62.2458 1494(45) 0.000501 919. 1435.
62.2973 62.2958 1403(44) 0.000517 919. 1409.
62.3477 62.3462 1438(43) 0.000535 918. 1398.
62.3975 62.3960 1469(45) 0.000498 918. 1400.
62.4475 62.4460 1476(44) 0.000506 917. 1411.
62.4976 62.4961 1467(45) 0.000500 917. 1428.
62.5475 62.5460 1489(45) 0.000504 916. 1446.
62.5974 62.5959 1585(47) 0.000462 916. 1460.
62.6474 62.6459 1510(45) 0.000493 915. 1466.
62.6976 62.6961 1403(43) 0.000541 915. 1459.
62.7392 62.7377 1485(44) 0.000508 914. 1442.
62.7892 62.7877 1463(45) 0.000502 914. 1409.
62.8394 62.8379 1430(44) 0.000528 913. 1364.
62.8893 62.8878 1300(41) 0.000589 913. 1311.
62.9392 62.9377 1256(41) 0.000599 912. 1255.
62.9892 62.9877 1194(40) 0.000637 912. 1199.
63.0393 63.0378 1092(38) 0.000699 911. 1147.
63.0894 63.0879 1120(38) 0.000688 911. 1100.
63.1392 63.1377 1009(36) 0.000764 910. 1062.
63.1893 63.1878 1050(37) 0.000719 910. 1030.
63.2394 63.2379 1003(37) 0.000736 909. 1006.
63.2893 63.2878 997(37) 0.000750 908. 988.
63.3392 63.3377 994(36) 0.000766 908. 975.
63.3892 63.3877 1008(36) 0.000764 907. 967.
63.4394 63.4379 905(35) 0.000836 906.9 961.8
63.4892 63.4877 976(36) 0.000758 906. 959.
63.5392 63.5377 958(35) 0.000802 906. 959.
63.5896 63.5881 1028(36) 0.000752 905. 960.
63.6394 63.6379 1020(36) 0.000762 905. 962.
63.6894 63.6879 989(35) 0.000797 904. 964.
63.7395 63.7380 973(36) 0.000793 904. 967.
63.7894 63.7879 1003(36) 0.000760 903. 970.
63.8394 63.8379 949(36) 0.000775 903. 972.
63.8893 63.8878 1008(36) 0.000757 902. 974.
63.9395 63.9380 987(36) 0.000769 902. 976.
63.9790 63.9775 986(33) 0.000896 901.3 976.4
64.0289 64.0274 1034(34) 0.000843 900.8 977.0
64.0791 64.0776 969(33) 0.000909 900.3 978.0
64.1290 64.1275 980(34) 0.000883 899.8 980.3
64.1790 64.1775 1014(34) 0.000848 899.2 985.3
64.2290 64.2275 1065(35) 0.000831 898.7 994.3
64.2790 64.2775 1006(34) 0.000869 898.2 1009.3
64.3291 64.3276 1016(34) 0.000870 897.7 1032.3
64.3790 64.3775 1074(35) 0.000813 897.2 1064.0
64.4291 64.4276 1141(36) 0.000773 897. 1110.
64.4791 64.4776 1216(37) 0.000714 896. 1170.
64.5291 64.5276 1265(38) 0.000679 896. 1245.
64.5789 64.5774 1373(40) 0.000630 895. 1336.
64.6290 64.6275 1435(41) 0.000599 895. 1441.
64.6791 64.6776 1634(44) 0.000521 894. 1556.
64.7290 64.7275 1786(46) 0.000475 894. 1676.
64.7789 64.7774 1924(48) 0.000441 893. 1796.
64.8294 64.8279 1851(47) 0.000453 893. 1907.
64.8792 64.8777 2022(49) 0.000416 892. 2001.
64.9291 64.9276 1993(49) 0.000424 892. 2073.
64.9792 64.9777 2060(50) 0.000406 891. 2120.
65.0292 65.0277 2122(50) 0.000397 891. 2142.
65.0791 65.0776 2121(50) 0.000396 890. 2145.
65.1291 65.1276 2231(51) 0.000378 890. 2132.
65.1793 65.1778 2224(52) 0.000375 889. 2108.
65.2244 65.2229 2135(50) 0.000403 889. 2078.
65.2743 65.2728 2097(50) 0.000406 888. 2035.
65.3245 65.3230 2063(49) 0.000414 888. 1978.
65.3744 65.3729 1973(48) 0.000431 887. 1910.
65.4244 65.4229 1884(47) 0.000457 887. 1829.
65.4744 65.4729 1826(46) 0.000469 886. 1741.
65.5244 65.5229 1692(44) 0.000513 886. 1650.
65.5745 65.5730 1646(44) 0.000525 885. 1565.
65.6244 65.6229 1525(42) 0.000566 885. 1489.
65.6745 65.6730 1369(40) 0.000637 884. 1427.
65.7245 65.7230 1395(40) 0.000626 884. 1379.
65.7744 65.7729 1404(40) 0.000628 883. 1346.
65.8243 65.8228 1432(41) 0.000604 883. 1325.
65.8744 65.8729 1277(38) 0.000676 882. 1312.
65.9245 65.9230 1334(39) 0.000657 882. 1305.
65.9744 65.9729 1282(38) 0.000689 881. 1299.
66.0243 66.0228 1249(38) 0.000699 881. 1292.
66.0747 66.0732 1242(37) 0.000716 880. 1283.
66.1246 66.1231 1332(39) 0.000660 880. 1273.
66.1745 66.1730 1238(38) 0.000709 879. 1262.
66.2246 66.2231 1267(38) 0.000696 879. 1250.
66.2746 66.2731 1231(37) 0.000712 878. 1237.
66.3245 66.3230 1231(37) 0.000716 878. 1222.
66.3744 66.3729 1198(37) 0.000735 877. 1204.
66.4247 66.4232 1178(36) 0.000764 877. 1181.
66.4823 66.4808 1165(34) 0.000890 876.1 1151.1
66.5322 66.5307 1142(33) 0.000902 875.6 1122.5
66.5824 66.5809 1115(33) 0.000930 875.1 1093.5
66.6323 66.6308 1064(32) 0.000980 874.6 1066.0
66.6823 66.6808 1028(31) 0.001010 874.1 1043.3
66.7322 66.7307 1009(31) 0.001038 873.6 1026.4
66.7823 66.7808 1041(32) 0.001000 873.1 1016.8
66.8324 66.8309 1041(32) 0.001000 872.6 1015.5
66.8823 66.8808 1059(32) 0.000988 872.1 1022.8
66.9324 66.9309 1035(31) 0.001010 871.7 1038.6
66.9824 66.9809 1115(33) 0.000929 871.2 1061.8
67.0323 67.0308 1094(32) 0.000951 870.7 1090.7
67.0822 67.0807 1134(33) 0.000921 870.2 1122.7
67.1323 67.1308 1201(34) 0.000856 869.7 1155.1
67.1824 67.1809 1243(35) 0.000832 869.2 1183.9
67.2323 67.2308 1204(34) 0.000858 868.7 1205.7
67.2822 67.2807 1278(35) 0.000811 868. 1218.
67.3326 67.3311 1145(33) 0.000907 867.8 1217.8
67.3825 67.3810 1164(33) 0.000892 867.3 1206.4
67.4324 67.4309 1171(34) 0.000886 866.8 1185.6
67.4825 67.4810 1128(33) 0.000917 866.3 1159.8
67.5325 67.5310 1179(34) 0.000883 865.9 1133.6
67.5824 67.5809 1101(32) 0.000948 865.4 1109.9
67.6323 67.6308 1077(32) 0.000966 864.9 1092.1
67.6826 67.6811 1052(32) 0.000991 864.4 1082.1
67.7457 67.7442 1132(33) 0.000895 863.8 1081.6
67.7957 67.7942 1151(34) 0.000873 863.3 1089.5
67.8458 67.8443 1148(34) 0.000877 862.9 1102.8
67.8958 67.8943 1153(34) 0.000874 862.4 1117.8
67.9457 67.9442 1155(34) 0.000874 861.9 1131.1
67.9957 67.9942 1111(33) 0.000913 861.4 1139.6
68.0457 68.0442 1225(35) 0.000820 860.9 1140.2
68.0959 68.0944 1191(34) 0.000848 860.5 1131.6
68.1457 68.1442 1070(32) 0.000950 860.0 1114.1
68.1958 68.1943 1051(32) 0.000966 859.5 1089.8
68.2458 68.2443 1075(33) 0.000941 859.0 1061.1
68.2958 68.2943 1038(32) 0.000978 858.6 1030.5
68.3456 68.3441 1019(32) 0.000998 858.1 1000.8
68.3957 68.3942 983(31) 0.001030 857.6 973.4
68.4458 68.4443 1023(32) 0.000990 857.2 949.7
68.4957 68.4942 917(30) 0.001105 856.7 930.2
68.5457 68.5442 947(31) 0.001074 856.2 914.7
68.5961 68.5946 973(31) 0.001044 855.7 902.9
68.6459 68.6444 902(30) 0.001126 855.3 894.4
68.6959 68.6944 934(30) 0.001094 854.8 888.3
68.7460 68.7445 902(30) 0.001123 854.3 884.0
68.7959 68.7944 891(30) 0.001143 853.9 881.2
68.8458 68.8443 860(29) 0.001185 853.4 879.3
68.8958 68.8943 878(29) 0.001162 852.9 878.1
68.9460 68.9445 864(29) 0.001176 852.5 877.3
69.0137 69.0122 898(29) 0.001157 851.8 876.9
69.0637 69.0622 929(30) 0.001115 851.4 876.8
69.1138 69.1123 948(30) 0.001088 850.9 877.1
69.1638 69.1623 867(29) 0.001192 850.5 877.7
69.2137 69.2122 884(29) 0.001169 850.0 878.6
69.2637 69.2622 867(29) 0.001201 849.5 880.1
69.3137 69.3122 872(29) 0.001192 849.1 882.4
69.3639 69.3624 882(29) 0.001174 848.6 886.0
69.4137 69.4122 891(29) 0.001165 848.1 891.4
69.4638 69.4623 896(29) 0.001164 847.7 899.6
69.5138 69.5123 868(29) 0.001192 847.2 911.9
69.5638 69.5623 881(29) 0.001184 846.8 930.1
69.6136 69.6121 903(30) 0.001148 846.3 956.0
69.6637 69.6622 980(31) 0.001050 845.8 992.0
69.7138 69.7123 993(31) 0.001039 845.4 1039.4
69.7637 69.7622 1026(32) 0.000998 844.9 1100.8
69.8137 69.8122 1176(34) 0.000873 844.5 1176.2
69.8641 69.8626 1234(35) 0.000829 844.0 1264.8
69.9139 69.9124 1336(36) 0.000763 844. 1361.
69.9639 69.9624 1475(38) 0.000690 843. 1462.
70.0140 70.0125 1640(40) 0.000614 843. 1557.
70.0639 70.0624 1572(39) 0.000642 842. 1638.
70.1138 70.1123 1743(42) 0.000579 842. 1695.
70.1638 70.1623 1764(42) 0.000569 841. 1720.
70.2140 70.2125 1735(42) 0.000580 841. 1709.
70.2475 70.2460 1601(39) 0.000646 841. 1682.
70.2975 70.2960 1593(39) 0.000646 840. 1615.
70.3476 70.3461 1516(38) 0.000680 840. 1528.
70.3975 70.3960 1423(37) 0.000727 839. 1430.
70.4475 70.4460 1302(35) 0.000798 839. 1330.
70.4975 70.4960 1278(35) 0.000820 838.3 1237.8
70.5475 70.5460 1183(34) 0.000884 837.8 1156.8
70.5977 70.5962 1127(33) 0.000928 837.4 1089.9
70.6475 70.6460 1060(32) 0.000986 836.9 1038.3
70.6976 70.6961 1038(31) 0.001017 836.5 999.9
70.7476 70.7461 990(31) 0.001061 836.1 973.3
70.7976 70.7961 978(30) 0.001077 835.6 955.5
70.8474 70.8459 1001(31) 0.001049 835.2 943.8
70.8975 70.8960 973(30) 0.001077 834.7 935.8
70.9476 70.9461 912(29) 0.001160 834.3 929.0
70.9975 70.9960 876(29) 0.001207 833.8 922.5
71.0475 71.0460 900(29) 0.001176 833.4 915.8
71.0979 71.0964 905(29) 0.001164 832.9 908.9
71.1477 71.1462 957(30) 0.001102 832.5 902.1
71.1977 71.1962 862(29) 0.001223 832.1 896.0
71.2478 71.2463 885(29) 0.001192 831.6 890.7
71.2977 71.2962 923(30) 0.001144 831.2 886.6
71.3476 71.3461 848(28) 0.001254 830.7 883.8
71.3976 71.3961 890(29) 0.001188 830.3 882.2
71.4478 71.4463 838(28) 0.001260 829.9 882.1
71.4783 71.4768 837(29) 0.001208 829.6 882.6
71.5282 71.5267 851(29) 0.001177 829.2 884.6
71.5784 71.5769 855(29) 0.001174 828.7 888.1
71.6283 71.6268 873(30) 0.001148 828.3 893.4
71.6783 71.6768 895(30) 0.001109 827.8 900.9
71.7283 71.7268 890(30) 0.001131 827.4 911.6
71.7783 71.7768 868(30) 0.001149 827.0 926.6
71.8285 71.8270 909(30) 0.001094 826.5 947.7
71.8783 71.8768 906(30) 0.001107 826.1 976.4
71.9284 71.9269 946(31) 0.001059 825.7 1015.1
71.9784 71.9769 993(32) 0.001001 825.2 1065.0
72.0284 72.0269 1050(33) 0.000940 824.8 1126.9
72.0782 72.0767 1156(34) 0.000855 824.4 1200.9
72.1283 72.1268 1261(36) 0.000779 824. 1287.
72.1784 72.1769 1251(36) 0.000791 824. 1380.
72.2283 72.2268 1370(37) 0.000712 823. 1478.
72.2782 72.2767 1484(39) 0.000661 823. 1574.
72.3287 72.3272 1543(40) 0.000634 822. 1664.
72.3785 72.3770 1653(41) 0.000589 822. 1741.
72.4284 72.4269 1656(41) 0.000588 821. 1805.
72.4786 72.4771 1795(43) 0.000539 821. 1855.
72.5285 72.5270 1899(44) 0.000507 821. 1891.
72.5784 72.5769 1817(43) 0.000534 820. 1916.
72.6284 72.6269 1866(44) 0.000518 820. 1929.
72.6786 72.6771 1928(45) 0.000500 819. 1932.
72.7443 72.7428 1819(43) 0.000542 819. 1925.
72.7943 72.7928 1810(43) 0.000543 818. 1912.
72.8444 72.8429 1891(44) 0.000517 818. 1896.
72.8943 72.8928 1823(43) 0.000540 817. 1874.
72.9443 72.9428 1759(42) 0.000559 817. 1843.
72.9943 72.9928 1740(42) 0.000568 817. 1798.
73.0443 73.0428 1707(42) 0.000576 816. 1736.
73.0944 73.0929 1584(40) 0.000626 816. 1654.
73.1443 73.1428 1500(39) 0.000664 815. 1560.
73.1944 73.1929 1451(38) 0.000687 815. 1455.
73.2444 73.2429 1348(37) 0.000729 814. 1351.
73.2944 73.2929 1291(36) 0.000779 814. 1251.
73.3442 73.3427 1147(34) 0.000878 813.6 1161.7
73.3943 73.3928 1074(33) 0.000938 813.2 1084.5
73.4444 73.4429 1009(32) 0.001001 812.8 1021.0
73.4943 73.4928 970(31) 0.001041 812.4 972.0
73.5442 73.5427 895(30) 0.001127 812.0 934.1
73.5947 73.5932 894(30) 0.001139 811.5 905.9
73.6445 73.6430 895(30) 0.001137 811.1 886.0
73.6945 73.6930 875(29) 0.001162 810.7 871.9
73.7445 73.7430 823(29) 0.001223 810.3 862.1
73.7945 73.7930 842(29) 0.001212 809.9 855.1
73.8444 73.8429 838(29) 0.001217 809.5 850.1
73.8944 73.8929 863(29) 0.001182 809.1 846.4
73.9446 73.9431 810(28) 0.001261 808.6 843.4
73.9839 73.9824 825(28) 0.001241 808.3 841.5
74.0338 74.0323 826(28) 0.001238 807.9 840.1
74.0840 74.0825 834(28) 0.001234 807.5 838.5
74.1339 74.1324 862(29) 0.001194 807.1 837.2
74.1839 74.1824 786(28) 0.001307 806.7 836.2
74.2339 74.2324 779(27) 0.001328 806.3 835.5
74.2839 74.2824 888(30) 0.001148 805.9 835.0
74.3340 74.3325 848(29) 0.001213 805.5 834.9
74.3839 74.3824 852(29) 0.001210 805.0 835.0
74.4340 74.4325 818(28) 0.001268 804.6 835.3
74.4840 74.4825 811(28) 0.001266 804.2 835.8
74.5340 74.5325 871(29) 0.001172 803.8 836.4
74.5838 74.5823 833(28) 0.001235 803.4 837.0
74.6339 74.6324 802(28) 0.001280 803.0 837.5
74.6840 74.6825 792(28) 0.001298 802.6 837.9
74.7339 74.7324 882(29) 0.001151 802.2 838.2
74.7838 74.7823 800(28) 0.001292 801.8 838.5
74.8342 74.8327 779(28) 0.001320 801.4 839.0
74.8841 74.8826 825(28) 0.001246 801.0 840.0
74.9340 74.9325 754(27) 0.001373 800.6 842.6
74.9841 74.9826 798(28) 0.001272 800.2 846.5
75.0341 75.0326 856(29) 0.001203 799.8 852.9
75.0840 75.0825 855(29) 0.001201 799.4 863.1
75.1339 75.1324 872(29) 0.001170 799.0 878.4
75.1842 75.1827 859(29) 0.001191 798.6 900.5
75.2200 75.2185 835(29) 0.001206 798.3 921.1
75.2700 75.2685 927(30) 0.001079 797.9 957.6
75.3201 75.3186 938(31) 0.001064 797.5 1003.7
75.3701 75.3686 1034(32) 0.000964 797.1 1058.7
75.4200 75.4185 1067(33) 0.000935 796.7 1120.7
75.4700 75.4685 1176(34) 0.000848 796.3 1186.5
75.5200 75.5185 1257(36) 0.000787 796. 1251.
75.5702 75.5687 1301(36) 0.000760 796. 1308.
75.6200 75.6185 1288(36) 0.000769 795. 1349.
75.6701 75.6686 1302(36) 0.000762 795. 1369.
75.7201 75.7186 1288(36) 0.000765 794. 1366.
75.7701 75.7686 1271(36) 0.000781 794. 1339.
75.8199 75.8184 1220(35) 0.000813 794. 1295.
75.8700 75.8685 1194(35) 0.000829 793.2 1238.7
75.9202 75.9187 1093(33) 0.000911 792.8 1178.5
75.9700 75.9685 1141(34) 0.000869 792.4 1120.2
76.0200 76.0185 1088(33) 0.000914 792.0 1066.8
76.0704 76.0689 987(31) 0.001011 791.6 1020.2
76.1202 76.1187 1026(32) 0.000967 791.3 982.1
76.1702 76.1687 969(31) 0.001037 790.9 951.2
76.2203 76.2188 1001(32) 0.000995 790.5 927.1
76.2702 76.2687 864(29) 0.001162 790.1 909.1
76.3201 76.3186 944(31) 0.001061 789.7 896.6
76.3701 76.3686 819(29) 0.001225 789.3 888.9
76.4203 76.4188 967(31) 0.001032 788.9 886.1
76.4696 76.4681 876(30) 0.001096 788.6 888.4
76.5196 76.5181 872(30) 0.001090 788.2 895.6
76.5697 76.5682 917(31) 0.001031 787.8 908.1
76.6197 76.6182 931(31) 0.001031 787.4 925.6
76.6696 76.6681 935(31) 0.001017 787.0 947.5
76.7196 76.7181 1002(32) 0.000952 786.7 972.9
76.7696 76.7681 1017(33) 0.000943 786.3 999.9
76.8198 76.8183 988(32) 0.000959 785.9 1026.6
76.8696 76.8681 1078(34) 0.000889 785.5 1050.4
76.9197 76.9182 1068(33) 0.000897 785.1 1069.0
76.9697 76.9682 1100(34) 0.000849 784.8 1081.0
77.0197 77.0182 1008(33) 0.000934 784.4 1086.9
77.0695 77.0680 1021(33) 0.000943 784.0 1088.8
77.1196 77.1181 1053(33) 0.000901 783.6 1090.4
77.1697 77.1682 1026(33) 0.000926 783.2 1095.5
77.2196 77.2181 1064(33) 0.000895 782.9 1107.7
77.2696 77.2681 1139(35) 0.000840 782.5 1129.9
77.3200 77.3185 1142(35) 0.000832 782.1 1165.0
77.3698 77.3683 1103(34) 0.000853 781.7 1213.8
77.4198 77.4183 1113(35) 0.000836 781.4 1279.8
77.4699 77.4684 1277(37) 0.000734 781. 1364.
77.5198 77.5183 1337(38) 0.000706 781. 1470.
77.5697 77.5682 1397(39) 0.000669 780. 1599.
77.6197 77.6182 1591(42) 0.000580 780. 1754.
77.6699 77.6684 1833(45) 0.000505 780. 1938.
77.7286 77.7271 2139(47) 0.000447 779. 2183.
77.7786 77.7771 2520(52) 0.000374 779. 2407.
77.8288 77.8273 2743(54) 0.0003383 778. 2630.
77.8787 77.8772 2804(55) 0.0003324 778. 2830.
77.9287 77.9272 3004(57) 0.0003066 778. 2986.
77.9786 77.9771 3098(58) 0.0002985 777. 3081.
78.0287 78.0272 3106(58) 0.0002961 777. 3110.
78.0788 78.0773 3133(59) 0.0002908 776. 3079.
78.1286 78.1271 3179(59) 0.0002883 776. 3001.
78.1788 78.1773 2956(57) 0.0003109 776. 2884.
78.2288 78.2273 2794(55) 0.0003264 775. 2738.
78.2787 78.2772 2580(53) 0.000360 775. 2570.
78.3286 78.3271 2334(50) 0.000401 775. 2389.
78.3787 78.3772 2186(48) 0.000431 774. 2205.
78.4288 78.4273 2011(46) 0.000473 774. 2036.
78.4786 78.4771 1860(44) 0.000511 774. 1893.
78.5286 78.5271 1817(44) 0.000528 773. 1782.
78.5790 78.5775 1771(43) 0.000540 773. 1707.
78.6289 78.6274 1665(42) 0.000573 772. 1667.
78.6788 78.6773 1715(42) 0.000564 772. 1652.
78.7289 78.7274 1777(43) 0.000537 772. 1653.
78.7789 78.7774 1794(43) 0.000533 771. 1654.
78.8288 78.8273 1689(42) 0.000566 771. 1645.
78.8787 78.8772 1656(41) 0.000583 771. 1614.
78.9289 78.9274 1602(41) 0.000604 770. 1561.
78.9806 78.9791 1490(38) 0.000701 770. 1487.
79.0306 79.0291 1449(37) 0.000718 770. 1410.
79.0807 79.0792 1381(36) 0.000756 769. 1335.
79.1307 79.1292 1364(36) 0.000767 769. 1272.
79.1806 79.1791 1213(34) 0.000860 768.5 1231.5
79.2306 79.2291 1230(34) 0.000854 768.2 1220.1
79.2806 79.2791 1193(34) 0.000875 767.8 1243.4
79.3308 79.3293 1206(34) 0.000871 767.5 1305.2
79.3806 79.3791 1293(35) 0.000813 767.1 1404.9
79.4307 79.4292 1453(37) 0.000720 767. 1541.
79.4807 79.4792 1560(39) 0.000663 766. 1704.
79.5307 79.5292 1787(42) 0.000577 766. 1882.
79.5805 79.5790 2086(45) 0.000490 766. 2057.
79.6306 79.6291 2164(46) 0.000468 765. 2210.
79.6807 79.6792 2195(47) 0.000462 765. 2315.
79.7306 79.7291 2276(47) 0.000444 765. 2352.
79.7806 79.7791 2180(46) 0.000466 764. 2313.
79.8310 79.8295 2194(46) 0.000463 764. 2205.
79.8808 79.8793 2069(45) 0.000492 764. 2048.
79.9308 79.9293 1931(43) 0.000533 763. 1863.
79.9809 79.9794 1721(41) 0.000599 763. 1672.
80.0308 80.0293 1579(39) 0.000650 763. 1491.
80.0807 80.0792 1420(37) 0.000734 762. 1331.
80.1307 80.1292 1307(35) 0.000799 762. 1197.
80.1809 80.1794 1234(34) 0.000852 761.5 1091.2
80.2200 80.2185 1120(33) 0.000892 761.3 1026.9
80.2700 80.2685 1009(32) 0.000995 760.9 965.1
80.3201 80.3186 1049(32) 0.000950 760.6 921.9
80.3701 80.3686 989(31) 0.001015 760.2 893.0
80.4200 80.4185 901(30) 0.001115 759.9 873.9
80.4700 80.4685 928(30) 0.001086 759.6 862.6
80.5200 80.5185 869(29) 0.001160 759.2 856.7
80.5701 80.5686 905(30) 0.001104 758.9 855.1
80.6200 80.6185 881(30) 0.001147 758.5 857.5
80.6701 80.6686 896(30) 0.001126 758.2 864.3
80.7201 80.7186 863(29) 0.001165 757.9 876.3
80.7701 80.7686 929(30) 0.001081 757.5 894.6
80.8199 80.8184 902(30) 0.001120 757.2 920.0
80.8700 80.8685 946(31) 0.001053 756.8 953.6
80.9201 80.9186 1015(32) 0.000986 756.5 995.5
80.9700 80.9685 1029(32) 0.000969 756.2 1044.9
81.0199 81.0184 1110(33) 0.000900 755.8 1100.4
81.0704 81.0689 1261(36) 0.000787 755. 1159.
81.1202 81.1187 1252(36) 0.000793 755. 1216.
81.1702 81.1687 1282(36) 0.000772 755. 1268.
81.2203 81.2188 1359(37) 0.000725 754. 1311.
81.2702 81.2687 1318(36) 0.000753 754. 1343.
81.3201 81.3186 1416(38) 0.000700 754. 1365.
81.3701 81.3686 1366(37) 0.000724 753. 1381.
81.4203 81.4188 1394(38) 0.000708 753. 1395.
81.4665 81.4650 1389(37) 0.000732 753. 1411.
81.5165 81.5150 1390(37) 0.000733 753. 1435.
81.5666 81.5651 1516(39) 0.000669 752. 1467.
81.6165 81.6150 1511(39) 0.000673 752. 1502.
81.6665 81.6650 1570(39) 0.000645 752. 1535.
81.7165 81.7150 1615(40) 0.000630 751. 1559.
81.7665 81.7650 1635(40) 0.000620 751. 1567.
81.8166 81.8151 1555(39) 0.000653 751. 1557.
81.8665 81.8650 1557(39) 0.000652 750. 1527.
81.9166 81.9151 1538(39) 0.000663 750. 1479.
81.9666 81.9651 1480(38) 0.000686 750. 1416.
82.0166 82.0151 1483(38) 0.000691 749. 1344.
82.0664 82.0649 1310(36) 0.000782 749. 1272.
82.1165 82.1150 1292(36) 0.000790 749. 1204.
82.1666 82.1651 1199(34) 0.000857 748.3 1148.6
82.2165 82.2150 1156(34) 0.000884 747.9 1107.5
82.2665 82.2650 1106(33) 0.000934 747.6 1081.9
82.3169 82.3154 1053(32) 0.000983 747.3 1072.4
82.3667 82.3652 1060(32) 0.000974 747.0 1077.5
82.4167 82.4152 1045(32) 0.000985 746.7 1095.3
82.4668 82.4653 1159(34) 0.000888 746.3 1123.5
82.5167 82.5152 1166(34) 0.000880 746.0 1159.3
82.5666 82.5651 1167(34) 0.000885 745.7 1200.1
82.6166 82.6151 1287(36) 0.000789 745. 1244.
82.6668 82.6653 1256(35) 0.000818 745.0 1291.1
82.7191 82.7176 1227(35) 0.000812 745. 1347.
82.7691 82.7676 1367(37) 0.000721 744. 1409.
82.8192 82.8177 1391(38) 0.000694 744. 1480.
82.8692 82.8677 1459(38) 0.000676 744. 1558.
82.9191 82.9176 1597(40) 0.000611 743. 1638.
82.9691 82.9676 1756(42) 0.000554 743. 1711.
83.0191 83.0176 1806(43) 0.000535 743. 1769.
83.0693 83.0678 1796(43) 0.000543 742. 1807.
83.1191 83.1176 1801(43) 0.000543 742. 1820.
83.1693 83.1678 1775(43) 0.000553 742. 1812.
83.2193 83.2178 1724(42) 0.000566 742. 1793.
83.2692 83.2677 1870(44) 0.000522 741. 1780.
83.3190 83.3175 1852(44) 0.000525 741. 1790.
83.3691 83.3676 1964(45) 0.000486 741. 1838.
83.4193 83.4178 1927(45) 0.000501 740. 1934.
83.4691 83.4676 2086(47) 0.000459 740. 2079.
83.5191 83.5176 2260(49) 0.000422 740. 2268.
83.5695 83.5680 2478(51) 0.000381 739. 2491.
83.6193 83.6178 2765(54) 0.0003379 739. 2722.
83.6693 83.6678 2984(56) 0.0003136 739. 2940.
83.7194 83.7179 3203(59) 0.0002878 738. 3120.
83.7693 83.7678 3259(59) 0.0002850 738. 3235.
83.8192 83.8177 3252(59) 0.0002853 738. 3266.
83.8692 83.8677 3289(60) 0.0002815 738. 3200.
83.9194 83.9179 3069(57) 0.0003037 737. 3044.
83.9801 83.9786 2820(58) 0.0002946 737. 2770.
84.0301 84.0286 2615(56) 0.0003188 737. 2509.
84.0802 84.0787 2274(52) 0.000371 736. 2244.
84.1302 84.1287 2120(50) 0.000400 736. 2002.
84.1801 84.1786 1839(46) 0.000466 736. 1799.
84.2301 84.2286 1693(44) 0.000511 735. 1647.
84.2801 84.2786 1595(43) 0.000539 735. 1550.
84.3303 84.3288 1487(41) 0.000581 735. 1506.
84.3801 84.3786 1524(42) 0.000567 734. 1509.
84.4302 84.4287 1622(43) 0.000532 734. 1548.
84.4802 84.4787 1774(46) 0.000483 734. 1606.
84.5302 84.5287 1717(45) 0.000503 733. 1670.
84.5800 84.5785 1750(45) 0.000490 733. 1721.
84.6301 84.6286 1742(45) 0.000491 733. 1743.
84.6803 84.6788 1727(45) 0.000499 733. 1730.
84.7301 84.7286 1637(44) 0.000528 732. 1682.
84.7801 84.7786 1626(43) 0.000531 732. 1608.
84.8305 84.8290 1608(43) 0.000538 732. 1519.
84.8803 84.8788 1486(41) 0.000583 731. 1424.
84.9303 84.9288 1341(39) 0.000652 731. 1327.
84.9804 84.9789 1252(38) 0.000693 731. 1236.
85.0303 85.0288 1163(36) 0.000757 730. 1153.
85.0802 85.0787 1052(34) 0.000842 730.2 1081.0
85.1302 85.1287 988(34) 0.000885 729.9 1022.1
85.1804 85.1789 975(33) 0.000906 729.6 977.1
85.2220 85.2205 976(36) 0.000788 729. 951.
85.2720 85.2705 937(35) 0.000812 729. 931.
85.3221 85.3206 959(36) 0.000790 729. 926.
85.3721 85.3706 941(35) 0.000798 728. 936.
85.4220 85.4205 918(35) 0.000834 728.2 961.5
85.4720 85.4705 920(35) 0.000828 727.9 1004.3
85.5220 85.5205 967(35) 0.000794 728. 1064.
85.5722 85.5707 1077(38) 0.000699 727. 1140.
85.6220 85.6205 1226(40) 0.000617 727. 1229.
85.6721 85.6706 1304(41) 0.000581 727. 1324.
85.7221 85.7206 1418(43) 0.000531 726. 1419.
85.7721 85.7706 1507(45) 0.000498 726. 1503.
85.8219 85.8204 1497(45) 0.000503 726. 1565.
85.8720 85.8705 1567(46) 0.000473 726. 1598.
85.9222 85.9207 1525(45) 0.000487 725. 1602.
85.9720 85.9705 1555(46) 0.000478 725. 1584.
86.0220 86.0205 1529(45) 0.000488 725. 1554.
86.0724 86.0709 1528(45) 0.000485 724. 1525.
86.1222 86.1207 1416(44) 0.000528 724. 1506.
86.1722 86.1707 1533(45) 0.000485 724. 1501.
86.2223 86.2208 1583(46) 0.000467 724. 1511.
86.2722 86.2707 1630(47) 0.000455 723. 1533.
86.3221 86.3206 1592(46) 0.000472 723. 1563.
86.3721 86.3706 1613(47) 0.000460 723. 1592.
86.4223 86.4208 1663(47) 0.000445 722. 1613.
86.4536 86.4521 1690(50) 0.000399 722. 1619.
86.5036 86.5021 1647(50) 0.000407 722. 1611.
86.5538 86.5523 1599(49) 0.000419 722. 1578.
86.6037 86.6022 1523(48) 0.000443 721. 1518.
86.6537 86.6522 1324(44) 0.000512 721. 1439.
86.7036 86.7021 1352(45) 0.000504 721. 1349.
86.7537 86.7522 1312(44) 0.000516 721. 1259.
86.8038 86.8023 1254(43) 0.000546 720. 1176.
86.8536 86.8521 1152(41) 0.000597 720. 1106.
86.9038 86.9023 1069(39) 0.000648 720. 1050.
86.9538 86.9523 990(38) 0.000693 719. 1009.
87.0037 87.0022 1074(39) 0.000644 719. 979.
87.0536 87.0521 1032(39) 0.000664 719. 957.
87.1037 87.1022 1050(39) 0.000655 719. 939.
87.1538 87.1523 992(38) 0.000690 718. 922.
87.2037 87.2022 951(37) 0.000724 718. 905.
87.2536 87.2521 967(37) 0.000713 718. 886.
87.3040 87.3025 893(36) 0.000774 717. 868.
87.3539 87.3524 922(37) 0.000746 717. 851.
87.4038 87.4023 878(36) 0.000793 717. 836.
87.4539 87.4524 849(35) 0.000810 717. 825.
87.5039 87.5024 862(35) 0.000802 716. 817.
87.5538 87.5523 888(36) 0.000782 716. 812.
87.6037 87.6022 860(35) 0.000800 716. 810.
87.6539 87.6524 855(35) 0.000804 716. 810.
87.7065 87.7050 879(35) 0.000825 715.3 811.3
87.7565 87.7550 836(34) 0.000872 715.0 814.7
87.8067 87.8052 853(34) 0.000845 714.7 820.6
87.8566 87.8551 816(33) 0.000895 714.5 829.9
87.9065 87.9050 894(35) 0.000803 714. 846.
87.9565 87.9550 844(34) 0.000865 713.9 871.0
88.0066 88.0051 909(35) 0.000798 714. 907.
88.0567 88.0552 968(37) 0.000738 713. 954.
88.1065 88.1050 1008(37) 0.000717 713. 1012.
88.1567 88.1552 1060(38) 0.000689 713. 1079.
88.2067 88.2052 1130(40) 0.000637 713. 1150.
88.2566 88.2551 1230(41) 0.000587 712. 1218.
88.3065 88.3050 1289(43) 0.000548 712. 1274.
88.3566 88.3551 1324(43) 0.000533 712. 1306.
88.4067 88.4052 1300(43) 0.000548 712. 1310.
88.4565 88.4550 1205(41) 0.000582 711. 1283.
88.5065 88.5050 1232(42) 0.000578 711. 1231.
88.5569 88.5554 1199(41) 0.000591 711. 1161.
88.6067 88.6052 1114(40) 0.000637 710. 1089.
88.6567 88.6552 1012(37) 0.000718 710. 1017.
88.7068 88.7053 1013(38) 0.000708 710. 953.
88.7567 88.7552 931(36) 0.000770 710. 899.
88.8067 88.8052 836(34) 0.000876 709.4 856.9
88.8566 88.8551 865(34) 0.000844 709.1 825.5
88.9068 88.9053 806(33) 0.000902 708.9 803.2
88.9835 88.9820 803(32) 0.000956 708.5 783.8
89.0335 89.0320 772(32) 0.000993 708.2 777.4
89.0836 89.0821 846(33) 0.000905 708.0 774.7
89.1335 89.1320 781(32) 0.000970 707.7 774.8
89.1835 89.1820 787(32) 0.000975 707.4 777.3
89.2335 89.2320 779(32) 0.000988 707.2 782.3
89.2835 89.2820 833(33) 0.000922 706.9 790.1
89.3336 89.3321 801(32) 0.000954 706.7 802.7
89.3835 89.3820 766(32) 0.001002 706.4 819.7
89.4336 89.4321 849(33) 0.000904 706.1 846.0
89.4836 89.4821 843(33) 0.000906 705.9 884.5
89.5336 89.5321 920(35) 0.000828 705.6 939.7
89.5834 89.5819 1044(37) 0.000725 705. 1016.
89.6335 89.6320 1106(38) 0.000682 705. 1119.
89.6836 89.6821 1236(41) 0.000608 705. 1251.
89.7335 89.7320 1420(44) 0.000527 705. 1410.
89.7835 89.7820 1486(45) 0.000495 704. 1592.
89.8339 89.8324 1693(48) 0.000436 704. 1785.
89.8837 89.8822 2018(53) 0.000362 704. 1969.
89.9337 89.9322 2136(54) 0.0003417 704. 2123.
89.9838 89.9823 2115(54) 0.0003427 703. 2222.
90.0337 90.0322 2126(54) 0.0003419 703. 2247.
90.0836 90.0821 2024(53) 0.000362 703. 2191.
90.1336 90.1321 2036(53) 0.000359 703. 2066.
90.1838 90.1823 1825(50) 0.000403 702. 1893.
90.2352 90.2337 1625(47) 0.000445 702. 1694.
90.2852 90.2837 1476(45) 0.000493 702. 1501.
90.3353 90.3338 1328(43) 0.000549 702. 1325.
90.3853 90.3838 1209(41) 0.000608 701. 1174.
90.4352 90.4337 1064(38) 0.000694 701. 1054.
90.4852 90.4837 1014(37) 0.000731 701. 961.
90.5353 90.5338 895(35) 0.000830 700.6 894.4
90.5854 90.5839 941(36) 0.000789 700. 848.
90.6352 90.6337 840(34) 0.000887 700.1 817.9
90.6854 90.6839 824(33) 0.000906 699.8 799.9
90.7354 90.7339 798(33) 0.000926 699.6 791.2
90.7853 90.7838 783(32) 0.000951 699.3 789.8
90.8351 90.8336 830(33) 0.000902 699.1 794.6
90.8852 90.8837 768(32) 0.000972 698.8 805.4
90.9354 90.9339 738(31) 0.001012 698.6 821.6
90.9852 90.9837 842(34) 0.000881 698.4 842.3
91.0352 91.0337 931(35) 0.000800 698. 867.
91.0856 91.0841 903(35) 0.000824 697.9 892.2
91.1354 91.1339 911(35) 0.000815 697.6 915.5
91.1854 91.1839 891(35) 0.000839 697.4 933.2
91.2355 91.2340 938(36) 0.000788 697. 941.
91.2854 91.2839 965(36) 0.000769 697. 937.
91.3353 91.3338 934(36) 0.000792 697. 922.
91.3853 91.3838 869(34) 0.000856 696.4 898.6
91.4355 91.4340 895(35) 0.000833 696.2 870.4
91.4814 91.4799 909(36) 0.000774 696. 844.
91.5314 91.5299 831(34) 0.000850 695.7 816.3
91.5815 91.5800 759(33) 0.000935 695.5 791.9
91.6314 91.6299 696(31) 0.001021 695.2 772.6
91.6814 91.6799 745(32) 0.000948 695.0 757.1
91.7314 91.7299 845(35) 0.000834 694.7 745.4
91.7814 91.7799 733(32) 0.000961 694.5 737.0
91.8315 91.8300 710(32) 0.000996 694.3 731.3
91.8814 91.8799 751(33) 0.000944 694.0 727.4
91.9315 91.9300 704(31) 0.001012 693.8 725.0
91.9815 91.9800 691(31) 0.001024 693.6 723.6
92.0315 92.0300 731(32) 0.000968 693.3 722.8
92.0813 92.0798 755(33) 0.000942 693.1 723.4
92.1314 92.1299 727(32) 0.000974 692.9 723.9
92.1815 92.1800 702(31) 0.001008 692.6 725.4
92.2314 92.2299 740(32) 0.000950 692.4 727.8
92.2813 92.2798 700(31) 0.001010 692.1 731.6
92.3318 92.3303 757(33) 0.000935 691.9 738.2
92.3816 92.3801 758(33) 0.000930 691.7 745.5
92.4316 92.4301 748(32) 0.000949 691.4 754.9
92.4817 92.4802 728(32) 0.000974 691.2 766.2
92.5316 92.5301 756(33) 0.000937 691.0 778.5
92.5815 92.5800 746(32) 0.000951 690.7 791.1
92.6315 92.6300 797(34) 0.000885 690.5 802.5
92.6817 92.6802 795(34) 0.000889 690.3 811.2
92.7199 92.7184 833(34) 0.000883 690.1 815.0
92.7699 92.7684 775(33) 0.000942 689.9 815.7
92.8200 92.8185 737(32) 0.000993 689.6 811.8
92.8700 92.8685 751(32) 0.000976 689.4 804.8
92.9199 92.9184 815(33) 0.000894 689.2 796.4
92.9699 92.9684 774(33) 0.000937 689.0 788.5
93.0199 93.0184 749(32) 0.000982 688.7 782.7
93.0701 93.0686 749(32) 0.000983 688.5 780.4
93.1199 93.1184 762(32) 0.000955 688.3 782.7
93.1700 93.1685 772(32) 0.000952 688.0 792.2
93.2200 93.2185 810(33) 0.000893 687.8 810.6
93.2700 93.2685 764(32) 0.000955 687.6 840.2
93.3198 93.3183 900(35) 0.000810 687. 884.
93.3699 93.3684 891(35) 0.000810 687. 943.
93.4201 93.4186 989(37) 0.000729 687. 1021.
93.4699 93.4684 1103(39) 0.000650 687. 1116.
93.5199 93.5184 1253(42) 0.000571 686. 1226.
93.5703 93.5688 1406(44) 0.000507 686. 1346.
93.6201 93.6186 1528(46) 0.000466 686. 1467.
93.6701 93.6686 1504(46) 0.000471 686. 1578.
93.7202 93.7187 1649(48) 0.000428 686. 1668.
93.7701 93.7686 1632(48) 0.000434 685. 1730.
93.8200 93.8185 1684(49) 0.000421 685. 1764.
93.8700 93.8685 1727(49) 0.000408 685. 1776.
93.9202 93.9187 1850(51) 0.000378 685. 1776.
93.9595 93.9580 1775(50) 0.000406 684. 1773.
94.0095 94.0080 1811(50) 0.000392 684. 1767.
94.0596 94.0581 1779(50) 0.000402 684. 1754.
94.1096 94.1081 1659(48) 0.000434 684. 1723.
94.1595 94.1580 1667(48) 0.000429 684. 1665.
94.2095 94.2080 1609(47) 0.000449 683. 1579.
94.2595 94.2580 1414(44) 0.000516 683. 1471.
94.3097 94.3082 1375(43) 0.000530 683. 1351.
94.3595 94.3580 1216(41) 0.000604 683. 1232.
94.4096 94.4081 1148(39) 0.000643 683. 1121.
94.4596 94.4581 1050(38) 0.000701 682. 1025.
94.5096 94.5081 938(36) 0.000791 682. 946.
94.5594 94.5579 842(34) 0.000879 681.9 884.2
94.6095 94.6080 907(35) 0.000810 682. 838.
94.6597 94.6582 784(33) 0.000936 681.4 805.1
94.7095 94.7080 862(34) 0.000858 681.2 782.1
94.7595 94.7580 784(33) 0.000941 681.0 765.9
94.8099 94.8084 765(32) 0.000969 680.8 756.0
94.8597 94.8582 717(31) 0.001039 680.6 749.7
94.9097 94.9082 813(33) 0.000908 680.3 746.1
94.9598 94.9583 770(33) 0.000946 680.1 744.4
95.0097 95.0082 762(32) 0.000975 679.9 744.7
95.0596 95.0581 714(31) 0.001046 679.7 746.8
95.1096 95.1081 691(30) 0.001081 679.5 751.0
95.1598 95.1583 763(32) 0.000974 679.3 757.5
95.2181 95.2166 792(33) 0.000902 679.0 768.0
95.2680 95.2665 850(35) 0.000835 678.8 779.4
95.3182 95.3167 809(34) 0.000875 678.6 792.4
95.3681 95.3666 804(34) 0.000881 678.4 806.0
95.4181 95.4166 823(34) 0.000860 678.2 818.7
95.4680 95.4665 856(35) 0.000830 678.0 828.8
95.5181 95.5166 905(36) 0.000782 678. 835.
95.5682 95.5667 879(35) 0.000806 678. 836.
95.6181 95.6166 831(34) 0.000850 677.3 833.2
95.6682 95.6667 887(35) 0.000803 677. 829.
95.7182 95.7167 827(34) 0.000856 676.9 824.6
95.7681 95.7666 847(35) 0.000840 676.7 824.1
95.8180 95.8165 785(33) 0.000908 676.5 829.9
95.8681 95.8666 856(35) 0.000826 676.3 845.3
95.9182 95.9167 841(34) 0.000841 676.1 874.1
95.9681 95.9666 852(35) 0.000827 675.9 920.4
96.0180 96.0165 919(36) 0.000769 676. 988.
96.0684 96.0669 1038(38) 0.000680 675. 1083.
96.1183 96.1168 1175(41) 0.000597 675. 1204.
96.1682 96.1667 1427(45) 0.000489 675. 1350.
96.2183 96.2168 1626(49) 0.000424 675. 1516.
96.2682 96.2667 1836(52) 0.000374 675. 1690.
96.3182 96.3167 1965(54) 0.0003474 674. 1856.
96.3681 96.3666 2127(56) 0.0003173 674. 1995.
96.4184 96.4169 2097(56) 0.0003222 674. 2087.
96.4548 96.4533 2104(53) 0.000353 674. 2119.
96.5047 96.5032 2049(52) 0.000363 674. 2116.
96.5549 96.5534 1956(51) 0.000381 673. 2075.
96.6048 96.6033 1964(52) 0.000377 673. 2024.
96.6548 96.6533 1977(52) 0.000374 673. 1984.
96.7047 96.7032 1954(51) 0.000380 673. 1974.
96.7548 96.7533 1997(52) 0.000372 673. 2003.
96.8049 96.8034 2091(53) 0.000352 672. 2068.
96.8547 96.8532 2180(55) 0.0003367 672. 2156.
96.9049 96.9034 2236(55) 0.0003272 672. 2253.
96.9549 96.9534 2376(57) 0.0003070 672. 2344.
97.0048 97.0033 2503(59) 0.0002900 672. 2420.
97.0547 97.0532 2507(59) 0.0002906 671. 2470.
97.1048 97.1033 2539(59) 0.0002871 671. 2482.
97.1549 97.1534 2449(58) 0.0002980 671. 2441.
97.2048 97.2033 2279(56) 0.0003197 671. 2345.
97.2547 97.2532 2078(53) 0.000356 671. 2202.
97.3051 97.3036 1916(51) 0.000390 670. 2027.
97.3550 97.3535 1740(48) 0.000431 670. 1844.
97.4049 97.4034 1529(45) 0.000492 670. 1666.
97.4550 97.4535 1460(44) 0.000518 670. 1504.
97.5049 97.5034 1286(41) 0.000591 670. 1367.
97.5549 97.5534 1257(41) 0.000608 669. 1257.
97.6048 97.6033 1177(39) 0.000651 669. 1170.
97.6550 97.6535 1046(37) 0.000725 669. 1099.
97.7147 97.7132 988(34) 0.000848 668.8 1031.4
97.7647 97.7632 987(34) 0.000845 668.6 983.7
97.8149 97.8134 889(33) 0.000942 668.4 943.1
97.8648 97.8633 933(33) 0.000896 668.2 910.1
97.9148 97.9133 903(33) 0.000926 668.0 884.7
97.9647 97.9632 870(32) 0.000966 667.8 866.6
98.0148 98.0133 883(32) 0.000950 667.7 855.2
98.0649 98.0634 924(33) 0.000904 667.5 848.7
98.1147 98.1132 804(31) 0.001047 667.3 845.3
98.1649 98.1634 836(32) 0.001005 667.1 842.5
98.2149 98.2134 845(32) 0.000992 666.9 838.4
98.2648 98.2633 769(30) 0.001098 666.7 831.7
98.3147 98.3132 843(32) 0.000999 666.5 822.4
98.3648 98.3633 819(31) 0.001019 666.3 811.4
98.4149 98.4134 809(31) 0.001037 666.1 800.3
98.4648 98.4633 813(31) 0.001032 665.9 791.1
98.5147 98.5132 860(32) 0.000975 665.7 784.4
98.5651 98.5636 768(30) 0.001086 665.5 781.8
98.6149 98.6134 778(31) 0.001075 665.3 783.0
98.6649 98.6634 816(31) 0.001029 665.2 787.8
98.7150 98.7135 815(31) 0.001025 665.0 795.2
98.7649 98.7634 881(32) 0.000953 664.8 804.1
98.8149 98.8134 882(32) 0.000954 664.6 814.0
98.8648 98.8633 849(32) 0.000985 664.4 821.1
98.9150 98.9135 851(32) 0.000987 664.2 827.8
98.9836 98.9821 881(33) 0.000939 664.0 837.4
99.0336 99.0321 875(33) 0.000940 663.8 847.6
99.0838 99.0823 877(33) 0.000940 663.6 863.1
99.1337 99.1322 872(33) 0.000940 663.4 886.0
99.1836 99.1821 958(34) 0.000857 663.2 917.5
99.2336 99.2321 1029(35) 0.000802 663. 957.
99.2837 99.2822 1093(37) 0.000751 663. 1003.
99.3338 99.3323 1047(36) 0.000779 663. 1048.
99.3836 99.3821 1111(37) 0.000740 662. 1086.
99.4338 99.4323 1124(37) 0.000731 662. 1108.
99.4838 99.4823 1085(36) 0.000754 662. 1108.
99.5337 99.5322 1069(36) 0.000769 662. 1083.
99.5836 99.5821 998(35) 0.000827 661.7 1041.4
99.6336 99.6321 922(34) 0.000891 661.5 990.4
99.6838 99.6823 865(32) 0.000956 661.3 936.1
99.7336 99.7321 897(33) 0.000918 661.2 885.6
99.7836 99.7821 782(31) 0.001059 661.0 841.9
99.8340 99.8325 778(31) 0.001064 660.8 806.5
99.8838 99.8823 826(32) 0.000999 660.6 780.3
99.9338 99.9323 729(30) 0.001142 660.4 761.8
99.9839 99.9824 741(30) 0.001119 660.3 749.8
100.0340 100.0325 742(30) 0.001119 660.1 742.7
100.0840 100.0825 731(30) 0.001128 659.9 739.5
100.1340 100.1325 772(31) 0.001074 659.7 739.1
100.1840 100.1825 721(29) 0.001152 659.5 741.2
100.2300 100.2285 763(31) 0.001042 659.4 745.5
100.2800 100.2785 716(30) 0.001093 659.2 753.3
100.3300 100.3285 797(32) 0.000988 659.0 765.6
100.3800 100.3785 788(32) 0.001001 658.8 783.9
100.4300 100.4285 773(31) 0.001023 658.6 810.1
100.4800 100.4785 777(31) 0.001020 658.5 846.0
100.5300 100.5285 903(34) 0.000873 658.3 892.9
100.5800 100.5785 948(35) 0.000825 658.1 950.9
100.6300 100.6285 1133(38) 0.000691 658. 1018.
100.6800 100.6785 1123(38) 0.000693 658. 1091.
100.7300 100.7285 1301(41) 0.000598 658. 1163.
100.7800 100.7785 1262(40) 0.000618 657. 1226.
100.8300 100.8285 1308(41) 0.000597 657. 1271.
100.8800 100.8785 1350(42) 0.000575 657. 1292.
100.9300 100.9285 1270(40) 0.000613 657. 1293.
100.9800 100.9785 1246(40) 0.000622 657. 1282.
101.0300 101.0285 1287(41) 0.000607 657. 1276.
101.0810 101.0795 1279(41) 0.000606 656. 1287.
101.1300 101.1285 1366(42) 0.000569 656. 1326.
101.1800 101.1785 1387(42) 0.000557 656. 1399.
101.2310 101.2295 1629(46) 0.000472 656. 1510.
101.2800 101.2785 1747(48) 0.000438 656. 1646.
101.3300 101.3285 1907(50) 0.000400 655. 1802.
101.3800 101.3785 1992(51) 0.000381 655. 1957.
101.4310 101.4295 2107(53) 0.000360 655. 2094.
101.4750 101.4735 2181(53) 0.000361 655. 2181.
101.5250 101.5235 2313(55) 0.0003357 655. 2242.
101.5750 101.5735 2327(55) 0.0003317 655. 2261.
101.6250 101.6235 2118(52) 0.000369 654. 2240.
101.6750 101.6735 2184(53) 0.000356 654. 2182.
101.7250 101.7235 1956(50) 0.000397 654. 2095.
101.7750 101.7735 1891(49) 0.000412 654. 1996.
101.8250 101.8235 1831(48) 0.000428 654. 1906.
101.8750 101.8735 1712(46) 0.000465 654. 1848.
101.9250 101.9235 1844(48) 0.000426 653. 1841.
101.9750 101.9735 1934(50) 0.000397 653. 1894.
102.0250 102.0235 2159(53) 0.000358 653. 2007.
102.0750 102.0735 2352(55) 0.0003295 653. 2165.
102.1250 102.1235 2441(56) 0.0003156 653. 2346.
102.1750 102.1735 2534(57) 0.0003044 653. 2517.
102.2250 102.2235 2632(59) 0.0002881 652. 2640.
102.2750 102.2735 2619(58) 0.0002943 652. 2689.
102.3250 102.3235 2649(59) 0.0002901 652. 2656.
102.3750 102.3735 2497(57) 0.0003096 652. 2546.
102.4250 102.4235 2098(52) 0.000375 652. 2373.
102.4750 102.4735 1957(50) 0.000400 652. 2163.
102.5250 102.5235 1867(49) 0.000421 651. 1943.
102.5750 102.5735 1627(45) 0.000489 651. 1739.
102.6250 102.6235 1490(43) 0.000534 651. 1566.
102.6750 102.6735 1335(41) 0.000602 651. 1429.
102.7200 102.7185 1280(39) 0.000666 651. 1334.
102.7700 102.7685 1190(37) 0.000715 651. 1255.
102.8200 102.8185 1206(38) 0.000704 650. 1192.
102.8700 102.8685 1153(37) 0.000740 650. 1138.
102.9200 102.9185 1031(35) 0.000827 650.1 1086.6
102.9700 102.9685 962(33) 0.000897 649.9 1039.7
103.0200 103.0185 964(34) 0.000886 649.7 1000.4
103.0700 103.0685 888(32) 0.000961 649.6 972.8
103.1200 103.1185 983(34) 0.000872 649.4 961.6
103.1700 103.1685 930(33) 0.000929 649.2 971.3
103.2200 103.2185 1037(35) 0.000821 649.1 1006.5
103.2700 103.2685 1088(36) 0.000789 649. 1071.
103.3200 103.3185 1227(38) 0.000696 649. 1167.
103.3700 103.3685 1452(42) 0.000576 649. 1294.
103.4200 103.4185 1654(44) 0.000505 648. 1445.
103.4700 103.4685 1727(46) 0.000481 648. 1608.
103.5200 103.5185 1904(48) 0.000436 648. 1764.
103.5710 103.5695 2035(50) 0.000404 648. 1891.
103.6200 103.6185 1899(48) 0.000436 648. 1956.
103.6700 103.6685 1847(47) 0.000450 648. 1946.
103.7200 103.7185 1759(46) 0.000472 647. 1863.
103.7700 103.7685 1515(42) 0.000557 647. 1729.
103.8200 103.8185 1425(41) 0.000591 647. 1572.
103.8700 103.8685 1323(40) 0.000638 647. 1418.
103.9210 103.9195 1237(38) 0.000684 647. 1282.
103.9670 103.9655 1087(34) 0.000841 646.7 1189.6
104.0170 104.0155 1110(35) 0.000823 646.5 1128.8
104.0670 104.0655 1119(35) 0.000814 646.4 1112.5
104.1170 104.1155 1112(35) 0.000813 646. 1141.
104.1670 104.1655 1238(37) 0.000729 646. 1210.
104.2170 104.2155 1370(39) 0.000659 646. 1314.
104.2670 104.2655 1533(41) 0.000583 646. 1442.
104.3170 104.3155 1549(42) 0.000580 646. 1578.
104.3670 104.3655 1709(44) 0.000521 645. 1700.
104.4170 104.4155 1678(43) 0.000535 645. 1783.
104.4670 104.4655 1745(44) 0.000512 645. 1807.
104.5170 104.5155 1668(43) 0.000534 645. 1764.
104.5670 104.5655 1560(42) 0.000574 645. 1664.
104.6170 104.6155 1373(39) 0.000656 645. 1529.
104.6670 104.6655 1303(38) 0.000696 644. 1379.
104.7170 104.7155 1132(35) 0.000802 644. 1233.
104.7670 104.7655 1006(33) 0.000917 644.2 1102.3
104.8170 104.8155 975(33) 0.000944 644.0 993.3
104.8670 104.8655 880(31) 0.001040 643.8 907.7
104.9170 104.9155 843(30) 0.001102 643.7 843.7
104.9670 104.9655 787(29) 0.001168 643.5 797.9
105.0170 105.0155 815(30) 0.001142 643.4 766.1
105.0670 105.0655 772(29) 0.001206 643.2 744.2
105.1170 105.1155 730(28) 0.001266 643.1 729.2
105.1670 105.1655 772(29) 0.001200 642.9 718.7
105.2050 105.2035 715(27) 0.001398 642.8 713.2
105.2550 105.2535 684(26) 0.001455 642.7 707.0
105.3060 105.3045 691(26) 0.001439 642.5 702.1
105.3560 105.3545 718(27) 0.001381 642.3 698.2
105.4050 105.4035 665(26) 0.001497 642.2 695.0
105.4550 105.4535 663(26) 0.001515 642.0 692.4
105.5050 105.5035 667(26) 0.001495 641.9 690.1
105.5560 105.5545 695(26) 0.001429 641.7 688.5
105.6050 105.6035 682(26) 0.001462 641.6 687.0
105.6560 105.6545 692(26) 0.001449 641.4 686.5
105.7060 105.7045 690(26) 0.001436 641.3 686.6
105.7560 105.7545 674(26) 0.001484 641.1 687.3
105.8050 105.8035 669(26) 0.001492 641.0 688.7
105.8550 105.8535 687(26) 0.001445 640.8 690.6
105.9060 105.9045 720(27) 0.001383 640.7 693.0
105.9550 105.9535 696(26) 0.001429 640.5 695.6
106.0050 106.0035 765(28) 0.001301 640.4 698.2
106.0560 106.0545 726(27) 0.001367 640.2 700.6
106.1060 106.1045 692(26) 0.001436 640.1 703.0
106.1560 106.1545 688(26) 0.001447 639.9 705.1
106.2060 106.2045 698(26) 0.001425 639.8 708.9
106.2560 106.2545 731(27) 0.001363 639.7 714.3
106.3060 106.3045 747(27) 0.001325 639.5 721.2
106.3560 106.3545 760(28) 0.001301 639.4 730.2
106.4060 106.4045 734(27) 0.001358 639.2 740.6
106.4640 106.4625 819(28) 0.001232 639.0 752.4
106.5140 106.5125 772(28) 0.001299 638.9 761.9
106.5650 106.5635 790(28) 0.001273 638.7 769.5
106.6140 106.6125 738(27) 0.001361 638.6 775.2
106.6640 106.6625 776(28) 0.001290 638.5 780.1
106.7140 106.7125 752(27) 0.001345 638.3 785.5
106.7640 106.7625 796(28) 0.001261 638.2 792.4
106.8150 106.8135 791(28) 0.001272 638.0 800.3
106.8640 106.8625 864(29) 0.001166 637.9 807.6
106.9150 106.9135 787(28) 0.001287 637.7 812.7
106.9650 106.9635 815(29) 0.001229 637.6 811.7
107.0140 107.0125 776(28) 0.001299 637.4 806.2
107.0640 107.0625 805(28) 0.001249 637.3 795.8
107.1140 107.1125 712(27) 0.001407 637.2 781.6
107.1650 107.1635 774(28) 0.001300 637.0 767.1
107.2140 107.2125 760(28) 0.001318 636.9 754.1
107.2640 107.2625 770(28) 0.001302 636.7 743.0
107.3150 107.3135 706(27) 0.001421 636.6 734.9
107.3650 107.3635 759(27) 0.001328 636.4 730.2
107.4150 107.4135 722(27) 0.001401 636.3 728.8
107.4650 107.4635 777(28) 0.001291 636.2 731.0
107.5150 107.5135 720(27) 0.001402 636.0 737.1
107.5650 107.5635 705(26) 0.001441 635.9 747.9
107.6140 107.6125 772(28) 0.001304 635.7 765.4
107.6650 107.6635 804(28) 0.001254 635.6 793.8
107.7210 107.7195 807(28) 0.001301 635.4 842.5
107.7710 107.7695 889(29) 0.001172 635.3 908.0
107.8210 107.8195 941(30) 0.001107 635.2 1000.8
107.8710 107.8695 1062(32) 0.000974 635.0 1126.0
107.9210 107.9195 1248(35) 0.000818 634.9 1286.2
107.9710 107.9695 1423(37) 0.000720 635. 1479.
108.0210 108.0195 1778(42) 0.000569 635. 1695.
108.0710 108.0695 2078(46) 0.000483 634. 1915.
108.1210 108.1195 2155(46) 0.000465 634. 2110.
108.1710 108.1695 2264(48) 0.000440 634. 2245.
108.2210 108.2195 2334(49) 0.000424 634. 2295.
108.2710 108.2695 2195(47) 0.000456 634. 2253.
108.3210 108.3195 2073(45) 0.000484 634. 2138.
108.3710 108.3695 1908(44) 0.000525 634. 1976.
108.4210 108.4195 1805(42) 0.000561 633. 1797.
108.4710 108.4695 1655(40) 0.000611 633. 1623.
108.5210 108.5195 1495(38) 0.000683 633. 1470.
108.5720 108.5705 1358(36) 0.000754 633. 1345.
108.6210 108.6195 1301(36) 0.000787 633. 1255.
108.6710 108.6695 1303(36) 0.000789 633. 1190.
108.7210 108.7195 1302(36) 0.000785 633. 1142.
108.7710 108.7695 1181(34) 0.000875 632.5 1101.3
108.8210 108.8195 1089(32) 0.000953 632.4 1059.9
108.8710 108.8695 1080(32) 0.000956 632.3 1015.6
108.9210 108.9195 994(31) 0.001039 632.1 969.3
108.9580 108.9565 980(31) 0.001012 632.0 935.3
109.0080 109.0065 902(30) 0.001094 631.9 892.4
109.0580 109.0565 880(30) 0.001130 631.8 855.6
109.1080 109.1065 843(29) 0.001174 631.6 826.9
109.1580 109.1565 878(30) 0.001127 631.5 807.9
109.2080 109.2065 837(29) 0.001195 631.4 798.7
109.2580 109.2565 833(29) 0.001187 631.2 802.9
109.3080 109.3065 795(28) 0.001249 631.1 821.7
109.3580 109.3565 867(30) 0.001147 631.0 856.5
109.4080 109.4065 907(30) 0.001099 630.8 909.9
109.4580 109.4565 1042(33) 0.000946 630.7 983.4
109.5080 109.5065 1106(34) 0.000889 630.6 1076.3
109.5580 109.5565 1244(36) 0.000791 630. 1185.
109.6080 109.6065 1298(36) 0.000752 630. 1300.
109.6580 109.6565 1471(39) 0.000663 630. 1409.
109.7080 109.7065 1439(38) 0.000676 630. 1492.
109.7580 109.7565 1494(39) 0.000654 630. 1533.
109.8090 109.8075 1461(39) 0.000668 630. 1523.
109.8580 109.8565 1396(38) 0.000694 630. 1471.
109.9080 109.9065 1323(37) 0.000740 630. 1389.
109.9580 109.9565 1231(36) 0.000793 629. 1294.
110.0080 110.0065 1199(35) 0.000816 629.3 1202.4
110.0580 110.0565 1061(33) 0.000922 629.2 1122.8
110.1080 110.1065 1073(33) 0.000912 629.0 1063.6
110.1580 110.1565 1036(32) 0.000948 628.9 1029.4
110.2040 110.2025 1024(32) 0.000954 628.8 1022.1
110.2540 110.2525 1092(34) 0.000888 628.6 1040.9
110.3050 110.3035 1084(33) 0.000899 628.5 1087.1
110.3540 110.3525 1177(35) 0.000825 628.4 1152.7
110.4040 110.4025 1293(37) 0.000746 628. 1233.
110.4540 110.4525 1341(37) 0.000726 628. 1314.
110.5040 110.5025 1505(40) 0.000641 628. 1379.
110.5550 110.5535 1537(40) 0.000626 628. 1411.
110.6040 110.6025 1465(39) 0.000662 628. 1401.
110.6550 110.6535 1312(37) 0.000742 628. 1351.
110.7050 110.7035 1234(36) 0.000780 628. 1273.
110.7550 110.7535 1202(35) 0.000810 627. 1180.
110.8040 110.8025 1034(32) 0.000948 627.3 1083.9
110.8540 110.8525 992(32) 0.000981 627.1 992.6
110.9050 110.9035 883(30) 0.001108 627.0 912.5
110.9540 110.9525 893(30) 0.001093 626.9 850.5
111.0040 111.0025 793(28) 0.001239 626.8 802.6
111.0550 111.0535 796(28) 0.001237 626.6 767.9
111.1050 111.1035 779(28) 0.001258 626.5 745.3
111.1550 111.1535 724(27) 0.001364 626.4 731.4
111.2050 111.2035 738(27) 0.001339 626.3 724.2
111.2550 111.2535 708(27) 0.001394 626.1 721.6
111.3050 111.3035 737(27) 0.001336 626.0 722.2
111.3550 111.3535 731(27) 0.001350 625.9 725.0
111.4050 111.4035 731(27) 0.001352 625.8 729.0
111.4700 111.4685 753(28) 0.001289 625.6 735.5
111.5200 111.5185 731(27) 0.001331 625.5 742.4
111.5700 111.5685 768(28) 0.001249 625.4 752.9
111.6200 111.6185 773(28) 0.001254 625.2 768.7
111.6700 111.6685 751(28) 0.001292 625.1 791.9
111.7200 111.7185 800(29) 0.001207 625.0 824.0
111.7700 111.7685 838(30) 0.001148 624.9 865.9
111.8200 111.8185 968(32) 0.000988 624.8 915.4
111.8700 111.8685 980(32) 0.000986 624.6 969.4
111.9200 111.9185 1047(33) 0.000922 624.5 1022.1
111.9700 111.9685 1138(35) 0.000831 624.4 1067.2
112.0200 112.0185 1079(33) 0.000898 624.3 1098.8
112.0700 112.0685 1092(34) 0.000884 624.2 1111.9
112.1200 112.1185 1142(35) 0.000833 624.0 1104.0
112.1700 112.1685 1145(35) 0.000833 623.9 1076.6
112.2200 112.2185 1058(33) 0.000897 623.8 1035.1
112.2700 112.2685 970(32) 0.000988 623.7 986.5
112.3200 112.3185 894(31) 0.001074 623.6 937.3
112.3700 112.3685 942(31) 0.001019 623.4 892.8
112.4200 112.4185 829(29) 0.001161 623.3 856.5
112.4700 112.4685 846(30) 0.001133 623.2 829.4
112.5200 112.5185 763(28) 0.001266 623.1 810.6
112.5700 112.5685 825(29) 0.001177 623.0 797.6
112.6200 112.6185 771(28) 0.001242 622.9 786.7
112.6700 112.6685 757(28) 0.001279 622.7 775.3
112.7420 112.7405 775(28) 0.001249 622.6 755.9
112.7920 112.7905 800(29) 0.001199 622.5 741.1
112.8430 112.8415 711(27) 0.001359 622.3 725.5
112.8930 112.8915 744(28) 0.001298 622.2 711.0
112.9420 112.9405 742(28) 0.001308 622.1 698.4
112.9920 112.9905 750(28) 0.001287 622.0 687.6
113.0420 113.0405 736(28) 0.001320 621.9 679.1
113.0930 113.0915 684(27) 0.001411 621.8 672.7
113.1420 113.1405 722(27) 0.001347 621.7 668.3
113.1930 113.1915 638(26) 0.001525 621.5 665.3
113.2430 113.2415 698(27) 0.001384 621.4 663.5
113.2930 113.2915 660(26) 0.001478 621.3 662.5
113.3420 113.3405 730(28) 0.001316 621.2 662.2
113.3920 113.3905 679(27) 0.001419 621.1 662.4
113.4430 113.4415 674(26) 0.001437 621.0 662.9
113.4920 113.4905 701(27) 0.001377 620.9 662.9
113.5420 113.5405 680(26) 0.001429 620.7 664.8
113.5930 113.5915 699(27) 0.001396 620.6 667.8
113.6430 113.6415 715(27) 0.001348 620.5 672.1
113.6930 113.6915 701(27) 0.001364 620.4 678.0
113.7430 113.7415 724(27) 0.001328 620.3 686.0
113.7930 113.7915 716(27) 0.001352 620.2 696.1
113.8430 113.8415 745(28) 0.001300 620.1 708.3
113.8930 113.8915 736(28) 0.001310 620.0 722.0
113.9430 113.9415 742(28) 0.001287 619.9 736.5
113.9760 113.9745 798(28) 0.001287 619.8 745.8
114.0260 114.0245 774(28) 0.001321 619.7 758.5
114.0760 114.0745 782(28) 0.001314 619.6 770.0
114.1260 114.1245 817(28) 0.001253 619.5 781.2
114.1760 114.1745 820(28) 0.001248 619.3 794.6
114.2260 114.2245 822(28) 0.001247 619.2 813.4
114.2760 114.2745 822(28) 0.001247 619.1 840.4
114.3260 114.3245 875(29) 0.001168 619.0 878.3
114.3760 114.3745 897(30) 0.001142 618.9 928.3
114.4260 114.4245 971(31) 0.001051 618.8 988.5
114.4760 114.4745 1071(33) 0.000944 618.7 1053.9
114.5260 114.5245 1139(34) 0.000891 618.6 1116.2
114.5760 114.5745 1188(34) 0.000852 618.5 1163.7
114.6260 114.6245 1189(34) 0.000846 618.4 1186.1
114.6760 114.6745 1142(34) 0.000878 618.3 1180.6
114.7260 114.7245 1147(34) 0.000875 618.2 1152.9
114.7760 114.7745 1133(33) 0.000894 618.0 1112.6
114.8260 114.8245 1052(32) 0.000963 617.9 1070.1
114.8760 114.8745 1052(32) 0.000964 617.8 1035.1
114.9260 114.9245 1055(32) 0.000964 617.7 1016.4
114.9760 114.9745 1088(33) 0.000930 617.6 1020.6
115.0260 115.0245 1031(32) 0.000981 617.5 1049.7
115.0760 115.0745 1116(33) 0.000911 617.4 1104.2
115.1260 115.1245 1272(36) 0.000790 617. 1178.
115.1760 115.1745 1325(36) 0.000758 617. 1261.
115.2130 115.2115 1339(36) 0.000756 617. 1320.
115.2630 115.2615 1425(38) 0.000705 617. 1380.
115.3130 115.3115 1402(37) 0.000717 617. 1406.
115.3630 115.3615 1352(37) 0.000742 617. 1392.
115.4130 115.4115 1288(36) 0.000776 617. 1346.
115.4630 115.4615 1243(35) 0.000814 616.6 1283.6
115.5130 115.5115 1157(34) 0.000873 616.5 1216.3
115.5630 115.5615 1132(33) 0.000897 616.4 1157.5
115.6130 115.6115 1061(32) 0.000961 616.3 1119.4
115.6630 115.6615 1086(33) 0.000941 616.2 1112.1
115.7130 115.7115 1143(34) 0.000886 616.1 1142.4
115.7630 115.7615 1225(35) 0.000830 616.0 1213.1
115.8130 115.8115 1394(37) 0.000725 616. 1323.
115.8630 115.8615 1523(39) 0.000655 616. 1464.
115.9130 115.9115 1677(41) 0.000595 616. 1623.
115.9630 115.9615 1823(43) 0.000542 616. 1778.
116.0130 116.0115 1888(44) 0.000524 615. 1898.
116.0630 116.0615 1939(44) 0.000509 615. 1959.
116.1130 116.1115 1905(44) 0.000518 615. 1947.
116.1630 116.1615 1779(42) 0.000559 615. 1867.
116.2130 116.2115 1661(41) 0.000598 615. 1738.
116.2630 116.2615 1511(39) 0.000662 615. 1583.
116.3130 116.3115 1418(38) 0.000706 615. 1425.
116.3630 116.3615 1251(35) 0.000802 615. 1279.
116.4130 116.4115 1216(35) 0.000833 614.7 1155.0
116.4630 116.4615 1079(33) 0.000935 614.6 1060.0
116.5130 116.5115 1020(32) 0.000990 614.5 995.6
116.5630 116.5615 996(31) 0.001014 614.4 960.8
116.6130 116.6115 1014(32) 0.000997 614.3 953.0
116.6630 116.6615 993(31) 0.001015 614.2 969.1
116.7130 116.7115 1055(32) 0.000961 614.1 1005.2
116.7630 116.7615 1028(32) 0.000985 614.0 1056.2
116.8140 116.8125 1159(34) 0.000872 613.9 1117.5
116.8630 116.8615 1182(34) 0.000856 613.8 1179.1
116.9130 116.9115 1218(35) 0.000827 613.7 1239.9
116.9630 116.9615 1339(37) 0.000749 614. 1294.
117.0130 117.0115 1342(37) 0.000749 614. 1335.
117.0630 117.0615 1334(36) 0.000754 613. 1353.
117.1130 117.1115 1349(37) 0.000736 613. 1344.
117.1630 117.1615 1335(37) 0.000750 613. 1305.
117.2130 117.2115 1222(35) 0.000819 613.1 1243.6
117.2630 117.2615 1142(34) 0.000884 613.0 1169.7
117.3140 117.3125 1036(32) 0.000974 612.9 1090.2
117.3640 117.3625 1057(32) 0.000957 612.8 1015.4
117.4140 117.4125 941(30) 0.001085 612.8 949.5
117.4640 117.4625 889(30) 0.001139 612.7 893.7
117.5140 117.5125 913(30) 0.001112 612.6 851.3
117.5630 117.5615 833(29) 0.001229 612.5 823.6
117.6130 117.6115 827(29) 0.001229 612.4 809.7
117.6640 117.6625 773(27) 0.001325 612.3 810.1
117.6980 117.6965 792(28) 0.001238 612.2 818.5
117.7480 117.7465 828(29) 0.001173 612.1 841.9
117.7990 117.7975 822(29) 0.001182 612.0 878.0
117.8490 117.8475 875(30) 0.001110 611.9 922.2
117.8980 117.8965 941(31) 0.001029 611.9 969.2
117.9480 117.9465 991(32) 0.000981 611.8 1013.6
117.9990 117.9975 1020(33) 0.000944 611.7 1047.1
118.0490 118.0475 1060(33) 0.000912 611.6 1061.8
118.0980 118.0965 1080(33) 0.000895 611.5 1055.8
118.1490 118.1475 1049(33) 0.000924 611.4 1030.1
118.1990 118.1975 937(31) 0.001036 611.3 990.4
118.2490 118.2475 889(30) 0.001091 611.2 943.1
118.2980 118.2965 842(29) 0.001159 611.1 894.0
118.3490 118.3475 834(29) 0.001163 611.0 845.1
118.3990 118.3975 800(29) 0.001217 610.9 802.5
118.4480 118.4465 742(28) 0.001307 610.9 767.8
118.4980 118.4965 761(28) 0.001283 610.8 739.5
118.5490 118.5475 724(27) 0.001347 610.7 717.5
118.5990 118.5975 710(27) 0.001376 610.6 701.5
118.6490 118.6475 644(26) 0.001528 610.5 690.3
118.6990 118.6975 742(28) 0.001310 610.4 683.7
118.7490 118.7475 671(26) 0.001450 610.3 678.8
118.7990 118.7975 692(27) 0.001406 610.2 676.1
118.8490 118.8475 654(26) 0.001492 610.2 675.0
118.8990 118.8975 673(26) 0.001451 610.1 675.3
118.9440 118.9425 690(30) 0.001111 610.0 676.8
118.9940 118.9925 663(29) 0.001171 609.9 680.2
119.0450 119.0435 669(29) 0.001188 609.8 685.8
119.0940 119.0925 691(30) 0.001124 609.7 694.3
119.1440 119.1425 670(29) 0.001171 609.6 707.3
119.1940 119.1925 709(30) 0.001094 609.6 726.5
119.2440 119.2425 735(31) 0.001069 609.5 754.1
119.2950 119.2935 762(31) 0.001034 609.4 793.6
119.3440 119.3425 786(32) 0.000986 609.3 844.3
119.3940 119.3925 823(33) 0.000945 609.2 909.7
119.4450 119.4435 921(35) 0.000813 609. 990.
119.4940 119.4925 1044(37) 0.000728 609. 1076.
119.5440 119.5425 1085(38) 0.000701 609. 1165.
119.5940 119.5925 1217(41) 0.000608 609. 1245.
119.6450 119.6435 1287(41) 0.000587 609. 1302.
119.6940 119.6925 1282(41) 0.000585 609. 1322.
119.7440 119.7425 1244(40) 0.000622 609. 1305.
119.7950 119.7935 1142(39) 0.000668 609. 1253.
119.8450 119.8435 1126(39) 0.000669 608. 1179.
119.8950 119.8935 1082(38) 0.000709 608. 1096.
119.9450 119.9435 955(35) 0.000800 608. 1015.
119.9950 119.9935 881(34) 0.000881 608.2 937.9
120.0450 120.0435 915(35) 0.000839 608.1 871.4
120.0940 120.0925 826(33) 0.000924 608.1 817.7
120.1450 120.1435 767(32) 0.001003 608.0 774.0
120.1960 120.1945 846(33) 0.000946 607.9 741.6
120.2460 120.2445 700(30) 0.001148 607.8 718.6
120.2960 120.2945 735(30) 0.001126 607.7 702.4
120.3460 120.3445 645(29) 0.001212 607.7 691.2
120.3960 120.3945 715(30) 0.001104 607.6 683.6
120.4460 120.4445 691(29) 0.001166 607.5 678.6
120.4960 120.4945 623(28) 0.001291 607.4 675.6
120.5460 120.5445 653(29) 0.001201 607.3 673.5
120.5960 120.5945 720(30) 0.001110 607.3 673.5
120.6460 120.6445 670(29) 0.001227 607.2 675.1
120.6960 120.6945 680(29) 0.001177 607.1 678.9
120.7460 120.7445 739(31) 0.001066 607.0 685.1
120.7960 120.7945 730(30) 0.001083 606.9 694.7
120.8460 120.8445 695(29) 0.001180 606.9 708.7
120.8960 120.8945 722(30) 0.001122 606.8 727.9
120.9460 120.9445 713(29) 0.001154 606.7 753.1
120.9960 120.9945 741(31) 0.001054 606.6 783.6
121.0470 121.0455 777(32) 0.001007 606.6 818.9
121.0970 121.0955 803(31) 0.001021 606.5 854.7
121.1470 121.1455 936(35) 0.000838 606.4 887.0
121.1970 121.1955 860(33) 0.000938 606.3 910.8
121.2470 121.2455 919(34) 0.000873 606.3 922.8
121.2960 121.2945 932(35) 0.000833 606.2 924.1
121.3460 121.3445 971(35) 0.000833 606.1 918.8
121.3970 121.3955 877(33) 0.000905 606.0 909.7
121.4480 121.4465 917(30) 0.001107 606.0 900.1
121.4980 121.4965 934(30) 0.001081 605.9 891.8
121.5480 121.5465 976(31) 0.001029 605.8 884.4
121.5980 121.5965 906(30) 0.001110 605.7 876.1
121.6480 121.6465 930(30) 0.001082 605.7 864.8
121.6980 121.6965 854(29) 0.001187 605.6 849.4
121.7480 121.7465 821(28) 0.001233 605.5 830.2
121.7980 121.7965 768(28) 0.001318 605.4 808.7
121.8480 121.8465 770(28) 0.001313 605.4 786.8
121.8980 121.8965 798(28) 0.001273 605.3 766.4
121.9480 121.9465 767(28) 0.001321 605.2 748.4
121.9980 121.9965 707(26) 0.001445 605.2 733.5
122.0480 122.0465 710(26) 0.001436 605.1 721.7
122.0980 122.0965 731(27) 0.001372 605.0 713.0
122.1480 122.1465 698(26) 0.001457 604.9 707.6
122.1980 122.1965 717(27) 0.001411 604.9 704.8
122.2480 122.2465 690(26) 0.001475 604.8 704.1
122.2990 122.2975 671(26) 0.001513 604.7 704.9
122.3480 122.3465 677(26) 0.001499 604.7 707.8
122.3980 122.3965 692(26) 0.001470 604.6 712.4
122.4480 122.4465 668(26) 0.001516 604.5 718.9
122.4980 122.4965 728(27) 0.001394 604.4 726.9
122.5480 122.5465 700(26) 0.001455 604.4 737.2
122.5980 122.5965 735(27) 0.001366 604.3 750.7
122.6480 122.6465 673(26) 0.001492 604.2 769.2
122.7040 122.7025 768(28) 0.001292 604.2 798.3
122.7530 122.7515 819(29) 0.001199 604.1 834.9
122.8040 122.8025 825(29) 0.001189 604.0 889.0
122.8540 122.8525 912(31) 0.001074 604.0 963.3
122.9040 122.9025 922(31) 0.001064 603.9 1063.9
122.9540 122.9525 1150(34) 0.000847 603.8 1194.9
123.0040 123.0025 1280(36) 0.000756 604. 1357.
123.0540 123.0525 1505(40) 0.000638 604. 1546.
123.1040 123.1025 1724(42) 0.000556 604. 1748.
123.1540 123.1525 1968(46) 0.000480 604. 1940.
123.2040 123.2025 2077(47) 0.000453 603. 2091.
123.2540 123.2525 2193(48) 0.000428 603. 2175.
123.3030 123.3015 2224(49) 0.000421 603. 2183.
123.3540 123.3525 2075(47) 0.000452 603. 2122.
123.4040 123.4025 1933(45) 0.000489 603. 2011.
123.4540 123.4525 1856(44) 0.000508 603. 1869.
123.5030 123.5015 1684(42) 0.000567 603. 1723.
123.5540 123.5525 1539(40) 0.000621 603. 1580.
123.6040 123.6025 1479(39) 0.000644 603. 1459.
123.6540 123.6525 1346(37) 0.000714 603. 1368.
123.7040 123.7025 1353(38) 0.000706 603. 1312.
123.7540 123.7525 1264(36) 0.000765 603. 1295.
123.8040 123.8025 1230(36) 0.000789 603. 1320.
123.8540 123.8525 1338(37) 0.000718 603. 1387.
123.9040 123.9025 1483(39) 0.000647 603. 1494.
123.9490 123.9475 1501(39) 0.000659 603. 1621.
123.9990 123.9975 1710(42) 0.000572 602. 1790.
124.0500 124.0485 1804(43) 0.000541 602. 1979.
124.0990 124.0975 2114(47) 0.000457 602. 2170.
124.1490 124.1475 2433(51) 0.000391 602. 2370.
124.1990 124.1975 2528(51) 0.000377 602. 2570.
124.2490 124.2475 2877(55) 0.0003262 602. 2760.
124.3000 124.2985 2899(56) 0.0003234 602. 2927.
124.3490 124.3475 3120(58) 0.0002996 602. 3047.
124.4000 124.3985 3151(58) 0.0002963 602. 3121.
124.4500 124.4485 3096(58) 0.0003010 602. 3140.
124.4990 124.4975 3143(58) 0.0002965 602. 3101.
124.5490 124.5475 2932(56) 0.0003202 602. 2997.
124.5990 124.5975 2802(55) 0.0003345 602. 2835.
124.6500 124.6485 2551(52) 0.000372 602. 2624.
124.6990 124.6975 2386(50) 0.000398 602. 2398.
124.7490 124.7475 2077(46) 0.000463 602. 2165.
124.8000 124.7985 1894(44) 0.000509 602. 1946.
124.8500 124.8485 1776(43) 0.000544 601. 1765.
124.9000 124.8985 1562(40) 0.000627 601. 1627.
124.9500 124.9485 1520(39) 0.000643 601. 1533.
125.0000 124.9985 1486(39) 0.000661 601. 1489.
125.0500 125.0485 1471(39) 0.000670 601. 1495.
125.0990 125.0975 1518(39) 0.000646 601. 1550.
125.1500 125.1485 1608(41) 0.000608 601. 1656.
125.1860 125.1845 1753(44) 0.000521 601. 1758.
125.2360 125.2345 2076(48) 0.000430 601. 1927.
125.2860 125.2845 2196(49) 0.000409 601. 2116.
125.3360 125.3345 2501(53) 0.000355 601. 2310.
125.3860 125.3845 2687(55) 0.0003263 601. 2501.
125.4360 125.4345 2818(57) 0.0003124 601. 2694.
125.4860 125.4845 3059(59) 0.0002850 601. 2901.
125.5360 125.5345 3192(61) 0.0002710 601. 3131.
125.5860 125.5845 3547(64) 0.0002424 601. 3385.
125.6360 125.6345 3823(67) 0.0002222 601. 3648.
125.6860 125.6845 4078(70) 0.0002050 601. 3887.
125.7360 125.7345 4279(72) 0.0001953 601. 4053.
125.7860 125.7845 4156(70) 0.0002015 600. 4098.
125.8360 125.8345 4043(70) 0.0002070 600. 4005.
125.8860 125.8845 3780(67) 0.0002233 600. 3789.
125.9360 125.9345 3468(64) 0.0002459 600. 3481.
125.9860 125.9845 3042(59) 0.0002844 600. 3123.
126.0370 126.0355 2705(56) 0.0003232 600. 2749.
126.0870 126.0855 2436(53) 0.000357 600. 2405.
126.1360 126.1345 2122(49) 0.000419 600. 2108.
126.1870 126.1855 1925(46) 0.000465 600. 1847.
126.2370 126.2355 1672(43) 0.000537 600. 1642.
126.2860 126.2845 1655(43) 0.000548 600. 1489.
126.3360 126.3345 1472(40) 0.000613 600. 1378.
126.3870 126.3855 1368(39) 0.000669 600. 1304.
126.4310 126.4295 1306(37) 0.000713 600. 1265.
126.4810 126.4795 1323(38) 0.000698 600. 1237.
126.5310 126.5295 1284(37) 0.000726 600. 1220.
126.5810 126.5795 1309(38) 0.000695 600. 1205.
126.6310 126.6295 1279(37) 0.000724 600. 1191.
126.6810 126.6795 1191(36) 0.000779 600. 1173.
126.7310 126.7295 1158(35) 0.000800 600. 1149.
126.7810 126.7795 1089(34) 0.000864 599.5 1117.1
126.8310 126.8295 1031(33) 0.000918 599.4 1078.1
126.8810 126.8795 1047(34) 0.000887 599.4 1033.3
126.9310 126.9295 967(32) 0.000960 599.3 985.5
126.9810 126.9795 915(31) 0.001037 599.3 938.2
127.0310 127.0295 897(31) 0.001056 599.2 894.2
127.0810 127.0795 900(31) 0.001040 599.2 855.4
127.1310 127.1295 790(29) 0.001176 599.2 822.3
127.1810 127.1795 787(29) 0.001196 599.1 794.3
127.2310 127.2295 739(28) 0.001281 599.1 771.3
127.2810 127.2795 752(28) 0.001253 599.0 752.9
127.3310 127.3295 734(28) 0.001273 599.0 738.5
127.3810 127.3795 693(27) 0.001382 598.9 727.7
127.4310 127.4295 756(28) 0.001242 598.9 720.1
127.4810 127.4795 735(28) 0.001299 598.8 715.3
127.5310 127.5295 779(29) 0.001200 598.8 713.3
127.5810 127.5795 705(27) 0.001344 598.8 714.1
127.6310 127.6295 704(27) 0.001338 598.7 717.8
127.6960 127.6945 724(27) 0.001363 598.7 726.7
127.7460 127.7445 745(28) 0.001317 598.6 736.5
127.7960 127.7945 816(29) 0.001196 598.6 748.4
127.8460 127.8445 726(27) 0.001341 598.5 761.1
127.8960 127.8945 764(28) 0.001287 598.5 772.6
127.9460 127.9445 794(29) 0.001217 598.5 780.8
127.9960 127.9945 816(29) 0.001206 598.4 784.4
128.0460 128.0445 859(30) 0.001135 598.4 783.4
128.0960 128.0945 808(29) 0.001218 598.3 779.1
128.1460 128.1445 838(29) 0.001174 598.3 772.8
128.1960 128.1945 794(28) 0.001235 598.3 766.6
128.2460 128.2445 782(28) 0.001253 598.2 762.4
128.2960 128.2945 775(28) 0.001270 598.2 762.1
128.3460 128.3445 754(28) 0.001293 598.1 767.3
128.3960 128.3945 780(28) 0.001252 598.1 779.8
128.4460 128.4445 815(29) 0.001203 598.1 801.4
128.4960 128.4945 780(28) 0.001257 598.0 833.9
128.5460 128.5445 909(30) 0.001077 598.0 878.8
128.5960 128.5945 901(30) 0.001083 597.9 936.4
128.6460 128.6445 968(31) 0.001014 597.9 1005.3
128.6960 128.6945 1066(33) 0.000911 597.9 1081.5
128.7460 128.7445 1090(33) 0.000893 597.8 1156.9
128.7960 128.7945 1266(36) 0.000766 598. 1221.
128.8460 128.8445 1180(35) 0.000816 597.8 1266.1
128.8960 128.8945 1251(36) 0.000770 598. 1289.
128.9730 128.9715 1244(37) 0.000712 598. 1286.
129.0230 129.0215 1173(36) 0.000752 598. 1263.
129.0730 129.0715 1185(37) 0.000738 598. 1233.
129.1230 129.1215 1156(36) 0.000762 598. 1203.
129.1730 129.1715 1099(35) 0.000800 598. 1181.
129.2230 129.2215 1159(36) 0.000760 597. 1171.
129.2730 129.2715 1154(36) 0.000760 597. 1177.
129.3230 129.3215 1238(38) 0.000708 597. 1199.
129.3730 129.3715 1172(37) 0.000749 597. 1235.
129.4230 129.4215 1239(38) 0.000710 597. 1278.
129.4730 129.4715 1340(39) 0.000653 597. 1315.
129.5230 129.5215 1258(38) 0.000702 597. 1333.
129.5730 129.5715 1321(39) 0.000666 597. 1325.
129.6230 129.6215 1284(38) 0.000682 597. 1293.
129.6730 129.6715 1225(37) 0.000718 597. 1242.
129.7230 129.7215 1109(36) 0.000790 597. 1177.
129.7730 129.7715 1101(35) 0.000798 597. 1107.
129.8230 129.8215 1039(34) 0.000848 597.1 1038.7
129.8730 129.8715 1029(34) 0.000853 597.1 977.5
129.9230 129.9215 887(32) 0.000998 597.0 925.7
129.9730 129.9715 928(32) 0.000953 597.0 883.1
130.0230 130.0215 833(31) 0.001074 597.0 849.9
130.0730 130.0715 896(32) 0.000992 597.0 827.1
130.1230 130.1215 836(31) 0.001064 596.9 814.5
130.1730 130.1715 857(31) 0.001039 596.9 815.1
130.2230 130.2215 795(30) 0.001110 596.9 828.0
130.2720 130.2705 882(32) 0.000986 596.8 853.0
130.3230 130.3215 910(32) 0.000961 596.8 890.4
130.3730 130.3715 947(33) 0.000922 596.8 939.1
130.4230 130.4215 954(33) 0.000912 596.8 994.9
130.4730 130.4715 1040(35) 0.000836 596.7 1051.4
130.5230 130.5215 1107(36) 0.000784 597. 1099.
130.5730 130.5715 1174(37) 0.000738 597. 1129.
130.6230 130.6215 1116(36) 0.000779 597. 1136.
130.6730 130.6715 1078(35) 0.000808 597. 1123.
130.7230 130.7215 1018(34) 0.000854 596.6 1093.9
130.7730 130.7715 1063(35) 0.000818 596.6 1053.3
130.8220 130.8205 971(33) 0.000899 596.5 1009.1
130.8730 130.8715 947(33) 0.000917 596.5 965.3
130.9230 130.9215 919(33) 0.000946 596.5 929.5
130.9730 130.9715 876(32) 0.000989 596.5 902.9
131.0220 131.0205 876(32) 0.000996 596.4 886.1
131.0730 131.0715 852(31) 0.001026 596.4 878.0
131.1230 131.1215 869(32) 0.001005 596.4 877.9
131.1730 131.1715 919(32) 0.000949 596.4 884.5
131.2230 131.2215 909(32) 0.000957 596.3 894.1
131.2730 131.2715 945(33) 0.000921 596.3 902.9
131.3230 131.3215 1008(34) 0.000863 596.3 907.9
131.3730 131.3715 1007(34) 0.000864 596.3 907.7
131.4230 131.4215 928(33) 0.000942 596.3 902.3
131.4550 131.4535 889(32) 0.000980 596.2 896.5
131.5040 131.5025 922(33) 0.000942 596.2 883.9
131.5550 131.5535 906(32) 0.000959 596.2 863.8
131.6050 131.6035 913(32) 0.000952 596.2 843.1
131.6550 131.6535 844(31) 0.001029 596.2 820.6
131.7040 131.7025 868(32) 0.001006 596.1 799.1
131.7550 131.7535 826(31) 0.001055 596.1 778.5
131.8050 131.8035 784(30) 0.001113 596.1 760.7
131.8550 131.8535 792(30) 0.001099 596.1 745.4
131.9050 131.9035 766(30) 0.001142 596.0 732.7
131.9550 131.9535 729(29) 0.001196 596.0 722.1
132.0050 132.0035 684(28) 0.001287 596.0 712.8
132.0540 132.0525 711(28) 0.001235 596.0 704.3
132.1050 132.1035 712(29) 0.001227 596.0 696.0
132.1550 132.1535 685(28) 0.001274 595.9 688.4
132.2050 132.2035 648(27) 0.001347 595.9 681.6
132.2540 132.2525 653(27) 0.001345 595.9 675.7
132.3050 132.3035 672(28) 0.001300 595.9 670.4
132.3550 132.3535 698(28) 0.001257 595.9 666.4
132.4050 132.4035 651(27) 0.001353 595.9 663.5
132.4550 132.4535 654(28) 0.001321 595.8 661.9
132.5050 132.5035 645(27) 0.001362 595.8 661.5
132.5550 132.5535 654(27) 0.001345 595.8 662.9
132.6050 132.6035 652(27) 0.001349 595.8 665.6
132.6550 132.6535 677(28) 0.001297 595.8 670.4
132.7020 132.7005 641(27) 0.001347 595.8 677.7
132.7520 132.7505 626(27) 0.001369 595.7 688.5
132.8020 132.8005 745(30) 0.001148 595.7 703.8
132.8520 132.8505 669(28) 0.001287 595.7 724.6
132.9020 132.9005 707(29) 0.001205 595.7 751.7
132.9520 132.9505 766(30) 0.001115 595.7 785.6
133.0020 133.0005 848(32) 0.001002 595.7 826.1
133.0520 133.0505 843(31) 0.001012 595.7 871.8
133.1020 133.1005 894(32) 0.000951 595.6 919.6
133.1520 133.1505 1055(35) 0.000805 596. 964.
133.2020 133.2005 1034(35) 0.000815 595.6 1000.6
133.2520 133.2505 1072(36) 0.000790 596. 1024.
133.3020 133.3005 1101(36) 0.000767 596. 1034.
133.3520 133.3505 1059(35) 0.000796 596. 1032.
133.4020 133.4005 1041(35) 0.000813 595.6 1022.0
133.4520 133.4505 1060(35) 0.000796 596. 1006.
133.5020 133.5005 982(34) 0.000862 595.5 985.1
133.5530 133.5515 975(34) 0.000867 595.5 960.4
133.6020 133.6005 995(34) 0.000850 595.5 935.4
133.6520 133.6505 910(33) 0.000933 595.5 911.6
133.7030 133.7015 893(32) 0.000953 595.5 891.5
133.7520 133.7505 862(32) 0.000990 595.5 877.9
133.8020 133.8005 786(30) 0.001081 595.5 870.7
133.8520 133.8505 868(32) 0.000980 595.5 870.6
133.9030 133.9015 922(33) 0.000922 595.4 877.9
133.9690 133.9675 842(31) 0.001045 595.4 895.9
134.0190 134.0175 879(32) 0.000983 595.4 911.9
134.0690 134.0675 965(33) 0.000901 595.4 925.7
134.1190 134.1175 966(33) 0.000902 595.4 934.4
134.1690 134.1675 914(32) 0.000949 595.4 937.1
134.2190 134.2175 946(33) 0.000923 595.4 935.3
134.2690 134.2675 923(33) 0.000947 595.4 931.6
134.3190 134.3175 965(33) 0.000900 595.4 928.7
134.3690 134.3675 952(33) 0.000917 595.4 928.2
134.4190 134.4175 897(32) 0.000975 595.3 930.3
134.4690 134.4675 904(32) 0.000959 595.3 934.2
134.5190 134.5175 930(33) 0.000939 595.3 937.7
134.5690 134.5675 903(32) 0.000972 595.3 937.5
134.6190 134.6175 895(32) 0.000972 595.3 931.3
134.6690 134.6675 903(32) 0.000963 595.3 918.2
134.7190 134.7175 888(32) 0.000981 595.3 899.2
134.7690 134.7675 844(31) 0.001027 595.3 876.9
134.8200 134.8185 823(31) 0.001071 595.3 853.1
134.8690 134.8675 796(30) 0.001103 595.3 831.3
134.9190 134.9175 806(30) 0.001087 595.3 811.2
134.9700 134.9685 772(30) 0.001119 595.3 794.4
135.0190 135.0175 780(30) 0.001128 595.3 782.6
135.0690 135.0675 747(29) 0.001177 595.3 776.0
135.1190 135.1175 813(30) 0.001078 595.3 774.6
135.1700 135.1685 795(30) 0.001101 595.3 778.0
135.2170 135.2155 802(29) 0.001179 595.3 785.8
135.2670 135.2655 771(29) 0.001224 595.2 797.9
135.3170 135.3155 769(28) 0.001233 595.2 812.8
135.3670 135.3655 839(30) 0.001122 595.2 829.4
135.4170 135.4155 801(29) 0.001160 595.2 847.2
135.4670 135.4655 806(29) 0.001174 595.2 865.2
135.5170 135.5155 824(30) 0.001143 595.2 882.0
135.5670 135.5655 831(30) 0.001133 595.2 895.6
135.6170 135.6155 863(30) 0.001093 595.2 903.7
135.6670 135.6655 908(31) 0.001037 595.2 905.3
135.7170 135.7155 872(31) 0.001064 595.2 900.8
135.7670 135.7655 907(31) 0.001031 595.2 892.3
135.8170 135.8155 851(30) 0.001107 595.2 882.8
135.8670 135.8655 886(31) 0.001046 595.2 874.7
135.9170 135.9155 811(29) 0.001166 595.2 871.6
135.9670 135.9655 867(31) 0.001075 595.2 874.9
136.0170 136.0155 852(30) 0.001110 595.2 886.6
136.0680 136.0665 867(30) 0.001090 595.2 908.8
136.1170 136.1155 1013(33) 0.000915 595.2 940.5
136.1670 136.1655 982(32) 0.000956 595.2 982.4
136.2180 136.2165 1042(33) 0.000895 595.2 1032.6
136.2670 136.2655 1087(34) 0.000859 595.2 1083.3
136.3170 136.3155 1079(34) 0.000855 595.2 1131.1
136.3670 136.3655 1145(35) 0.000813 595.2 1167.6
136.4180 136.4165 1120(35) 0.000829 595.2 1187.8
136.4530 136.4515 1201(36) 0.000788 595. 1190.
136.5030 136.5015 1176(35) 0.000804 595. 1179.
136.5530 136.5515 1129(35) 0.000838 595.2 1152.9
136.6030 136.6015 1162(35) 0.000815 595.2 1116.9
136.6530 136.6515 1070(34) 0.000885 595.2 1074.9
136.7030 136.7015 1022(33) 0.000933 595.2 1030.4
136.7530 136.7515 976(32) 0.000972 595.2 985.8
136.8030 136.8015 900(31) 0.001062 595.2 943.6
136.8530 136.8515 908(31) 0.001048 595.2 905.7
136.9030 136.9015 867(30) 0.001108 595.2 873.1
136.9530 136.9515 893(31) 0.001064 595.2 846.8
137.0030 137.0015 854(30) 0.001123 595.2 826.5
137.0530 137.0515 816(29) 0.001177 595.2 812.3
137.1030 137.1015 804(29) 0.001184 595.2 804.8
137.1530 137.1515 756(28) 0.001275 595.3 804.6
137.2030 137.2015 790(29) 0.001212 595.3 812.5
137.2530 137.2515 818(29) 0.001159 595.3 829.4
137.3030 137.3015 844(30) 0.001133 595.3 856.3
137.3530 137.3515 882(30) 0.001080 595.3 893.8
137.4030 137.4015 992(32) 0.000962 595.3 942.3
137.4530 137.4515 1006(33) 0.000946 595.3 1001.3
137.5030 137.5015 1108(34) 0.000857 595.3 1069.1
137.5530 137.5515 1153(35) 0.000828 595.3 1142.1
137.6030 137.6015 1280(37) 0.000732 595. 1214.
137.6530 137.6515 1204(36) 0.000785 595. 1278.
137.6900 137.6885 1334(38) 0.000701 595. 1316.
137.7400 137.7385 1349(38) 0.000692 595. 1350.
137.7910 137.7895 1318(38) 0.000708 595. 1367.
137.8410 137.8395 1372(38) 0.000679 595. 1367.
137.8900 137.8885 1293(37) 0.000721 595. 1360.
137.9400 137.9385 1397(39) 0.000665 595. 1351.
137.9910 137.9895 1346(38) 0.000692 595. 1344.
138.0410 138.0395 1400(39) 0.000664 595. 1343.
138.0900 138.0885 1333(38) 0.000701 595. 1348.
138.1410 138.1395 1349(38) 0.000692 595. 1357.
138.1910 138.1895 1282(37) 0.000728 595. 1369.
138.2410 138.2395 1335(38) 0.000700 595. 1380.
138.2900 138.2885 1324(38) 0.000705 595. 1388.
138.3400 138.3385 1377(39) 0.000672 595. 1394.
138.3910 138.3895 1427(39) 0.000652 595. 1398.
138.4400 138.4385 1439(39) 0.000644 595. 1401.
138.4900 138.4885 1522(40) 0.000610 595. 1404.
138.5410 138.5395 1420(39) 0.000654 595. 1401.
138.5910 138.5895 1399(39) 0.000662 595. 1390.
138.6410 138.6395 1376(38) 0.000679 595. 1366.
138.6910 138.6895 1410(39) 0.000657 595. 1329.
138.7410 138.7395 1374(38) 0.000677 595. 1282.
138.7910 138.7895 1278(37) 0.000732 595. 1228.
138.8410 138.8395 1252(37) 0.000744 595. 1171.
138.8910 138.8895 1126(35) 0.000835 595.5 1113.9
138.9370 138.9355 1200(37) 0.000719 596. 1063.
138.9870 138.9855 1022(34) 0.000849 595.5 1011.1
139.0370 139.0355 1016(34) 0.000858 595.5 963.3
139.0870 139.0855 951(33) 0.000901 595.5 921.2
139.1370 139.1355 874(32) 0.000990 595.6 885.3
139.1870 139.1855 838(31) 0.001035 595.6 855.8
139.2370 139.2355 866(31) 0.001009 595.6 832.1
139.2870 139.2855 807(30) 0.001088 595.6 813.9
139.3370 139.3355 830(31) 0.001062 595.6 801.0
139.3870 139.3855 848(31) 0.001024 595.6 793.5
139.4370 139.4355 833(31) 0.001040 595.6 792.0
139.4870 139.4855 802(30) 0.001076 595.6 797.4
139.5370 139.5355 828(31) 0.001047 595.6 810.0
139.5870 139.5855 817(31) 0.001068 595.7 831.0
139.6370 139.6355 790(30) 0.001108 595.7 861.5
139.6870 139.6855 894(32) 0.000960 595.7 902.3
139.7370 139.7355 945(33) 0.000923 595.7 954.5
139.7880 139.7865 1011(34) 0.000865 595.7 1017.8
139.8370 139.8355 1065(35) 0.000812 596. 1087.
139.8870 139.8855 1132(36) 0.000772 596. 1164.
139.9370 139.9355 1261(38) 0.000675 596. 1241.
139.9870 139.9855 1270(39) 0.000667 596. 1312.
140.0370 140.0355 1337(39) 0.000645 596. 1367.
140.0870 140.0855 1382(40) 0.000621 596. 1402.
140.1370 140.1355 1380(40) 0.000626 596. 1412.
140.2090 140.2075 1302(39) 0.000666 596. 1391.
140.2590 140.2575 1375(40) 0.000627 596. 1358.
140.3090 140.3075 1333(39) 0.000650 596. 1316.
140.3590 140.3575 1336(39) 0.000647 596. 1273.
140.4090 140.4075 1269(39) 0.000666 596. 1231.
140.4590 140.4575 1233(38) 0.000701 596. 1195.
140.5090 140.5075 1176(37) 0.000734 596. 1166.
140.5590 140.5575 1246(38) 0.000688 596. 1145.
140.6090 140.6075 1164(37) 0.000742 596. 1135.
140.6590 140.6575 1158(37) 0.000743 596. 1133.
140.7090 140.7075 1147(36) 0.000755 596. 1139.
140.7590 140.7575 1148(37) 0.000747 596. 1146.
140.8090 140.8075 1131(36) 0.000761 596. 1151.
140.8590 140.8575 1197(37) 0.000724 596. 1150.
140.9090 140.9075 1133(36) 0.000770 596. 1140.
140.9590 140.9575 1163(37) 0.000743 596. 1122.
141.0090 141.0075 1071(35) 0.000818 596.0 1096.4
141.0590 141.0575 1074(35) 0.000805 596. 1066.
141.1090 141.1075 1064(35) 0.000814 596.1 1034.3
141.1590 141.1575 1049(35) 0.000824 596.1 1002.9
141.2090 141.2075 988(34) 0.000888 596.1 973.8
141.2590 141.2575 949(33) 0.000919 596.1 947.5
141.3090 141.3075 916(32) 0.000959 596.1 925.2
141.3590 141.3575 922(33) 0.000947 596.2 907.7
141.4090 141.4075 871(32) 0.001001 596.2 895.3
141.4580 141.4565 940(31) 0.001022 596.2 888.2
141.5080 141.5065 847(30) 0.001136 596.2 885.0
141.5580 141.5565 902(31) 0.001058 596.2 884.4
141.6080 141.6065 930(31) 0.001031 596.2 885.3
141.6580 141.6565 975(32) 0.000977 596.3 886.6
141.7080 141.7065 971(32) 0.000986 596.3 888.1
141.7580 141.7565 965(32) 0.000995 596.3 889.9
141.8080 141.8065 970(32) 0.000984 596.3 892.4
141.8580 141.8565 945(31) 0.001020 596.3 896.0
141.9080 141.9065 961(32) 0.001000 596.3 900.9
141.9580 141.9565 922(31) 0.001040 596.4 906.5
142.0080 142.0065 909(31) 0.001062 596.4 911.7
142.0580 142.0565 981(32) 0.000980 596.4 914.6
142.1080 142.1065 963(32) 0.000990 596.4 913.8
142.1580 142.1565 938(31) 0.001017 596.4 908.3
142.2080 142.2065 914(31) 0.001043 596.4 898.3
142.2580 142.2565 917(31) 0.001049 596.5 884.2
142.3090 142.3075 941(31) 0.001018 596.5 866.8
142.3580 142.3565 947(31) 0.001011 596.5 848.2
142.4080 142.4065 894(30) 0.001077 596.5 828.7
142.4580 142.4565 860(30) 0.001116 596.5 809.3
142.5080 142.5065 803(29) 0.001199 596.5 790.7
142.5580 142.5565 772(28) 0.001254 596.6 773.3
142.6080 142.6065 838(30) 0.001145 596.6 757.6
142.6590 142.6575 776(28) 0.001242 596.6 743.7
142.6940 142.6925 779(28) 0.001236 596.6 735.7
142.7440 142.7425 737(28) 0.001303 596.6 726.3
142.7940 142.7925 732(28) 0.001313 596.6 719.5
142.8440 142.8425 730(28) 0.001312 596.7 715.1
142.8940 142.8925 721(27) 0.001335 596.7 712.9
142.9440 142.9425 683(27) 0.001413 596.7 712.9
142.9940 142.9925 684(27) 0.001400 596.7 715.3
143.0440 143.0425 687(27) 0.001404 596.7 719.7
143.0940 143.0925 773(28) 0.001247 596.7 726.0
143.1440 143.1425 736(28) 0.001313 596.8 733.7
143.1940 143.1925 787(29) 0.001218 596.8 742.4
143.2440 143.2425 750(28) 0.001283 596.8 751.7
143.2940 143.2925 756(28) 0.001276 596.8 760.6
143.3440 143.3425 732(28) 0.001310 596.8 769.0
143.3940 143.3925 744(28) 0.001296 596.8 777.0
143.4440 143.4425 779(29) 0.001227 596.9 784.7
143.4940 143.4925 811(29) 0.001183 596.9 792.5
143.5440 143.5425 837(30) 0.001141 596.9 801.0
143.5940 143.5925 795(29) 0.001201 596.9 810.6
143.6440 143.6425 802(29) 0.001203 596.9 820.6
143.6940 143.6925 899(31) 0.001061 597.0 831.4
143.7440 143.7425 856(30) 0.001119 597.0 840.9
143.7940 143.7925 826(29) 0.001166 597.0 848.2
143.8440 143.8425 851(30) 0.001126 597.0 852.4
143.8940 143.8925 829(29) 0.001154 597.0 852.6
143.9420 143.9405 813(29) 0.001221 597.0 848.9
143.9920 143.9905 844(29) 0.001174 597.1 841.2
144.0420 144.0405 801(28) 0.001237 597.1 830.3
144.0920 144.0905 844(29) 0.001171 597.1 817.0
144.1420 144.1405 833(29) 0.001182 597.1 802.4
144.1920 144.1905 772(28) 0.001287 597.1 787.2
144.2420 144.2405 778(28) 0.001273 597.1 772.1
144.2920 144.2905 755(28) 0.001318 597.2 757.5
144.3420 144.3405 769(28) 0.001292 597.2 743.5
144.3920 144.3905 778(28) 0.001277 597.2 730.6
144.4420 144.4405 691(26) 0.001429 597.2 719.1
144.4920 144.4905 713(27) 0.001398 597.2 709.1
144.5420 144.5405 713(27) 0.001393 597.2 700.7
144.5920 144.5905 679(26) 0.001460 597.3 693.9
144.6420 144.6405 722(27) 0.001377 597.3 688.5
144.6920 144.6905 710(27) 0.001396 597.3 684.7
144.7420 144.7405 693(26) 0.001438 597.3 682.4
144.7920 144.7905 679(26) 0.001463 597.3 681.6
144.8420 144.8405 671(26) 0.001482 597.3 682.6
144.8920 144.8905 694(26) 0.001435 597.4 685.3
144.9420 144.9405 698(26) 0.001426 597.4 689.9
144.9920 144.9905 665(26) 0.001501 597.4 696.3
145.0420 145.0405 688(26) 0.001452 597.4 704.6
145.0920 145.0905 690(26) 0.001440 597.4 714.6
145.1420 145.1405 739(27) 0.001345 597.4 726.0
145.2050 145.2035 750(28) 0.001297 597.5 742.0
145.2550 145.2535 750(28) 0.001276 597.5 755.1
145.3050 145.3035 726(27) 0.001333 597.5 767.7
145.3550 145.3535 784(28) 0.001232 597.5 779.1
145.4050 145.4035 755(28) 0.001276 597.5 788.7
145.4550 145.4535 718(27) 0.001337 597.5 796.0
145.5050 145.5035 771(28) 0.001257 597.6 801.0
145.5550 145.5535 815(29) 0.001186 597.6 803.9
145.6050 145.6035 764(28) 0.001267 597.6 804.7
145.6550 145.6535 742(28) 0.001314 597.6 803.6
145.7050 145.7035 755(28) 0.001283 597.6 800.7
145.7550 145.7535 821(29) 0.001178 597.6 796.2
145.8050 145.8035 737(28) 0.001316 597.6 789.9
145.8550 145.8535 781(29) 0.001231 597.7 782.1
145.9050 145.9035 795(29) 0.001217 597.7 773.1
145.9550 145.9535 736(28) 0.001308 597.7 763.3
146.0050 146.0035 696(27) 0.001392 597.7 753.2
146.0550 146.0535 799(29) 0.001212 597.7 743.2
146.1050 146.1035 743(28) 0.001300 597.7 733.7
146.1550 146.1535 725(27) 0.001333 597.7 724.7
146.2050 146.2035 771(28) 0.001244 597.8 716.4
146.2550 146.2535 680(26) 0.001425 597.8 708.7
146.3050 146.3035 669(26) 0.001456 597.8 701.8
146.3550 146.3535 697(27) 0.001388 597.8 695.8
146.4050 146.4035 711(27) 0.001362 597.8 690.6
146.4540 146.4525 680(26) 0.001425 597.8 686.5
146.5040 146.5025 717(27) 0.001338 597.8 683.2
146.5540 146.5525 689(27) 0.001393 597.8 680.8
146.6040 146.6025 692(27) 0.001389 597.9 679.3
146.6540 146.6525 701(27) 0.001369 597.9 678.6
146.7040 146.7025 661(26) 0.001455 597.9 678.8
146.7540 146.7525 695(27) 0.001385 597.9 679.9
146.8040 146.8025 699(27) 0.001380 597.9 682.0
146.8540 146.8525 705(27) 0.001361 597.9 684.9
146.9040 146.9025 680(27) 0.001421 597.9 688.9
146.9540 146.9525 703(27) 0.001366 597.9 693.9
147.0040 147.0025 652(26) 0.001474 597.9 700.0
147.0540 147.0525 682(27) 0.001419 598.0 707.1
147.1040 147.1025 687(27) 0.001398 598.0 715.4
147.1540 147.1525 735(28) 0.001304 598.0 724.8
147.2040 147.2025 746(28) 0.001278 598.0 735.3
147.2540 147.2525 778(28) 0.001236 598.0 746.8
147.3040 147.3025 715(27) 0.001350 598.0 759.4
147.3540 147.3525 777(28) 0.001237 598.0 773.1
147.4040 147.4025 748(28) 0.001289 598.0 788.0
147.4540 147.4525 744(28) 0.001283 598.0 804.6
147.5040 147.5025 760(28) 0.001257 598.0 823.2
147.5540 147.5525 830(29) 0.001159 598.0 844.3
147.6040 147.6025 895(31) 0.001067 598.1 868.4
147.6540 147.6525 811(29) 0.001167 598.1 896.1
147.6960 147.6945 888(30) 0.001110 598.1 922.3
147.7460 147.7445 953(31) 0.001028 598.1 957.2
147.7960 147.7945 917(31) 0.001069 598.1 996.1
147.8460 147.8445 1015(32) 0.000959 598.1 1038.5
147.8960 147.8945 1011(32) 0.000964 598.1 1084.0
147.9460 147.9445 1126(34) 0.000870 598.1 1131.9
147.9960 147.9945 1198(35) 0.000814 598.1 1181.6
148.0460 148.0445 1210(35) 0.000802 598. 1232.
148.0960 148.0945 1327(37) 0.000734 598. 1283.
148.1460 148.1445 1345(37) 0.000721 598. 1332.
148.1960 148.1945 1396(38) 0.000691 598. 1379.
148.2460 148.2445 1471(39) 0.000657 598. 1421.
148.2960 148.2945 1487(39) 0.000649 598. 1457.
148.3460 148.3445 1410(38) 0.000680 598. 1484.
148.3960 148.3945 1577(41) 0.000609 598. 1502.
148.4460 148.4445 1487(39) 0.000646 598. 1510.
148.4960 148.4945 1607(41) 0.000598 598. 1507.
148.5460 148.5445 1538(40) 0.000624 598. 1496.
148.5960 148.5945 1447(39) 0.000665 598. 1478.
148.6460 148.6445 1470(39) 0.000656 598. 1453.
148.6960 148.6945 1428(39) 0.000672 598. 1424.
148.7460 148.7445 1406(38) 0.000686 598. 1391.
148.7960 148.7945 1423(38) 0.000679 598. 1356.
148.8460 148.8445 1326(37) 0.000729 598. 1319.
148.8960 148.8945 1356(37) 0.000713 598. 1282.
148.9440 148.9425 1280(37) 0.000713 598. 1246.
148.9940 148.9925 1286(38) 0.000702 598. 1210.
149.0440 149.0425 1218(37) 0.000746 598. 1177.
149.0940 149.0925 1199(36) 0.000758 598. 1148.
149.1440 149.1425 1190(36) 0.000759 598. 1123.
149.1940 149.1925 1169(36) 0.000780 598. 1102.
149.2440 149.2425 1106(35) 0.000823 598.1 1086.7
149.2940 149.2925 1052(34) 0.000866 598.1 1075.4
149.3440 149.3425 1085(34) 0.000844 598.1 1068.1
149.3940 149.3925 1075(34) 0.000854 598.1 1064.2
149.4440 149.4425 1089(35) 0.000840 598.1 1063.2
149.4940 149.4925 1084(34) 0.000846 598.1 1064.3
149.5440 149.5425 1069(34) 0.000857 598.1 1066.7
149.5940 149.5925 1065(34) 0.000856 598.1 1069.5
149.6440 149.6425 1043(34) 0.000870 598.1 1072.1
149.6940 149.6925 1007(33) 0.000907 598.1 1074.2
149.7440 149.7425 1032(34) 0.000888 598.1 1076.0
149.7940 149.7925 1060(34) 0.000857 598.1 1077.9
149.8440 149.8425 1037(34) 0.000883 598.1 1080.7
149.8940 149.8925 1007(33) 0.000917 598.1 1085.1
149.9440 149.9425 1093(35) 0.000832 598.1 1092.4
149.9940 149.9925 1102(35) 0.000828 598.0 1103.4
150.0440 150.0425 1162(36) 0.000785 598. 1119.
150.0940 150.0925 1153(35) 0.000794 598. 1139.
150.1440 150.1425 1136(35) 0.000805 598. 1164.
150.1800 150.1785 1211(36) 0.000769 598. 1186.
150.2300 150.2285 1259(37) 0.000731 598. 1220.
150.2800 150.2785 1265(37) 0.000725 598. 1258.
150.3300 150.3285 1324(38) 0.000694 598. 1300.
150.3800 150.3785 1328(38) 0.000694 598. 1343.
150.4300 150.4285 1356(38) 0.000682 598. 1387.
150.4800 150.4785 1401(39) 0.000661 598. 1429.
150.5300 150.5285 1424(39) 0.000649 598. 1466.
150.5800 150.5785 1438(39) 0.000644 598. 1496.
150.6300 150.6285 1542(41) 0.000598 598. 1519.
150.6800 150.6785 1473(40) 0.000620 598. 1533.
150.7300 150.7285 1521(41) 0.000607 598. 1538.
150.7800 150.7785 1479(40) 0.000623 598. 1537.
150.8300 150.8285 1508(41) 0.000606 598. 1529.
150.8800 150.8785 1561(41) 0.000589 598. 1517.
150.9300 150.9285 1475(40) 0.000623 598. 1502.
150.9800 150.9785 1445(40) 0.000636 598. 1486.
151.0300 151.0285 1465(40) 0.000626 598. 1469.
151.0800 151.0785 1465(40) 0.000623 598. 1451.
151.1300 151.1285 1470(40) 0.000623 598. 1433.
151.1800 151.1785 1553(41) 0.000585 598. 1414.
151.2300 151.2285 1413(39) 0.000647 598. 1393.
151.2800 151.2785 1308(38) 0.000705 598. 1371.
151.3300 151.3285 1310(38) 0.000704 598. 1346.
151.3800 151.3785 1392(39) 0.000659 598. 1320.
151.4340 151.4325 1343(38) 0.000696 598. 1288.
151.4840 151.4825 1216(36) 0.000769 598. 1257.
151.5350 151.5335 1231(36) 0.000755 598. 1224.
151.5850 151.5835 1223(36) 0.000764 597. 1189.
151.6340 151.6325 1152(35) 0.000813 597.5 1155.1
151.6840 151.6825 1101(34) 0.000853 597.4 1119.9
151.7340 151.7325 1136(35) 0.000825 597.4 1084.9
151.7850 151.7835 1073(34) 0.000875 597.4 1050.2
151.8340 151.8325 1012(33) 0.000933 597.4 1018.0
151.8850 151.8835 1031(33) 0.000914 597.3 986.0
151.9350 151.9335 998(33) 0.000944 597.3 956.4
151.9850 151.9835 955(32) 0.000991 597.3 928.7
152.0340 152.0325 875(30) 0.001081 597.2 903.6
152.0840 152.0825 885(31) 0.001058 597.2 880.2
152.1350 152.1335 821(30) 0.001147 597.2 858.8
152.1840 152.1825 862(30) 0.001096 597.1 840.6
152.2340 152.2325 811(29) 0.001170 597.1 824.5
152.2850 152.2835 785(29) 0.001207 597.1 810.5
152.3350 152.3335 808(29) 0.001174 597.0 799.0
152.3850 152.3835 754(28) 0.001265 597.0 789.7
152.4350 152.4335 808(29) 0.001172 596.9 782.4
152.4850 152.4835 785(29) 0.001203 596.9 777.1
152.5350 152.5335 774(28) 0.001235 596.9 773.7
152.5850 152.5835 757(28) 0.001251 596.8 772.4
152.6350 152.6335 758(28) 0.001255 596.8 773.0
152.6920 152.6905 721(28) 0.001292 596.7 776.1
152.7420 152.7405 791(29) 0.001170 596.7 780.9
152.7920 152.7905 731(28) 0.001269 596.7 787.4
152.8420 152.8405 787(29) 0.001180 596.6 795.7
152.8920 152.8905 723(28) 0.001287 596.6 805.6
152.9420 152.9405 788(29) 0.001180 596.5 816.9
152.9920 152.9905 859(31) 0.001074 596.5 829.4
153.0420 153.0405 829(30) 0.001115 596.4 842.9
153.0920 153.0905 846(30) 0.001099 596.4 857.1
153.1420 153.1405 864(31) 0.001074 596.3 871.7
153.1920 153.1905 848(30) 0.001088 596.3 886.4
153.2420 153.2405 848(30) 0.001096 596.2 900.8
153.2920 153.2905 875(31) 0.001056 596.2 914.4
153.3420 153.3405 849(30) 0.001084 596.1 927.1
153.3920 153.3905 881(31) 0.001044 596.1 938.3
153.4420 153.4405 874(31) 0.001057 596.0 947.8
153.4920 153.4905 854(30) 0.001081 596.0 955.4
153.5420 153.5405 925(32) 0.000995 595.9 960.9
153.5920 153.5905 934(32) 0.000981 595.9 964.4
153.6420 153.6405 909(31) 0.001016 595.8 966.0
153.6920 153.6905 939(32) 0.000977 595.8 966.0
153.7420 153.7405 914(31) 0.001010 595.7 964.6
153.7920 153.7905 967(32) 0.000953 595.6 962.3
153.8420 153.8405 900(31) 0.001027 595.6 959.4
153.8920 153.8905 879(31) 0.001051 595.5 956.5
153.9390 153.9375 920(31) 0.001017 595.5 954.0
153.9890 153.9875 929(31) 0.001009 595.4 951.9
154.0400 154.0385 956(32) 0.000979 595.3 950.6
154.0900 154.0885 914(31) 0.001025 595.3 950.4
154.1400 154.1385 943(32) 0.000996 595.2 951.5
154.1890 154.1875 935(32) 0.001007 595.1 953.8
154.2400 154.2385 956(32) 0.000977 595.1 957.5
154.2900 154.2885 991(33) 0.000942 595.0 962.3
154.3390 154.3375 954(32) 0.000986 594.9 967.8
154.3900 154.3885 919(31) 0.001027 594.9 974.2
154.4400 154.4385 986(33) 0.000946 594.8 980.7
154.4900 154.4885 1021(33) 0.000915 594.7 986.8
154.5390 154.5375 972(32) 0.000954 594.7 992.1
154.5900 154.5885 1028(33) 0.000894 594.6 996.3
154.6400 154.6385 1036(33) 0.000899 594.5 998.7
154.6900 154.6885 1015(33) 0.000919 594.4 999.1
154.7390 154.7375 1011(33) 0.000921 594.4 997.3
154.7900 154.7885 995(33) 0.000937 594.3 993.3
154.8400 154.8385 1010(33) 0.000922 594.2 987.1
154.8900 154.8885 944(32) 0.000993 594.1 979.1
154.9400 154.9385 1011(33) 0.000921 594.0 969.5
154.9900 154.9885 993(33) 0.000941 594.0 958.5
155.0400 155.0385 921(31) 0.001016 593.9 946.5
155.0900 155.0885 988(33) 0.000947 593.8 933.8
155.1400 155.1385 1000(33) 0.000931 593.7 920.6
155.1920 155.1905 957(32) 0.000973 593.6 906.6
155.2420 155.2405 1007(33) 0.000915 593.5 893.2
155.2920 155.2905 933(32) 0.000988 593.4 880.1
155.3420 155.3405 902(31) 0.001031 593.4 867.4
155.3920 155.3905 918(32) 0.001004 593.3 855.2
155.4420 155.4405 829(30) 0.001126 593.2 843.6
155.4920 155.4905 843(30) 0.001109 593.1 832.8
155.5420 155.5405 835(30) 0.001120 593.0 822.8
155.5920 155.5905 821(30) 0.001141 592.9 813.6
155.6420 155.6405 894(31) 0.001037 592.8 805.3
155.6920 155.6905 811(30) 0.001137 592.7 797.9
155.7420 155.7405 760(29) 0.001223 592.6 791.6
155.7920 155.7905 755(28) 0.001234 592.5 786.2
155.8420 155.8405 768(29) 0.001206 592.4 781.8
155.8920 155.8905 805(29) 0.001159 592.3 778.4
155.9420 155.9405 783(29) 0.001185 592.2 776.0
155.9920 155.9905 848(30) 0.001102 592.1 774.5
156.0420 156.0405 753(28) 0.001234 592.0 774.0
156.0920 156.0905 773(29) 0.001206 591.9 774.5
156.1420 156.1405 788(29) 0.001184 591.8 775.8
156.1920 156.1905 726(28) 0.001287 591.7 778.1
156.2420 156.2405 785(29) 0.001192 591.5 781.1
156.2920 156.2905 797(29) 0.001170 591.4 784.9
156.3420 156.3405 840(30) 0.001113 591.3 789.3
156.3920 156.3905 770(29) 0.001217 591.2 794.3
156.4400 156.4385 771(28) 0.001253 591.1 799.3
156.4900 156.4885 804(29) 0.001197 591.0 804.8
156.5410 156.5395 808(29) 0.001188 590.9 810.3
156.5900 156.5885 819(29) 0.001168 590.7 815.4
156.6400 156.6385 842(30) 0.001141 590.6 820.1
156.6900 156.6885 813(29) 0.001187 590.5 824.2
156.7400 156.7385 850(30) 0.001128 590.4 827.3
156.7910 156.7895 851(30) 0.001128 590.3 829.5
156.8400 156.8385 889(30) 0.001081 590.1 830.5
156.8910 156.8895 830(29) 0.001164 590.0 830.4
156.9410 156.9395 854(30) 0.001119 589.9 829.2
156.9900 156.9885 851(30) 0.001129 589.7 827.0
157.0400 157.0385 859(30) 0.001120 589.6 823.8
157.0900 157.0885 872(30) 0.001094 589.5 819.8
157.1410 157.1395 814(29) 0.001180 589.3 815.0
157.1900 157.1885 823(29) 0.001160 589.2 809.8
157.2400 157.2385 858(30) 0.001123 589.1 804.2
157.2910 157.2895 789(29) 0.001220 588.9 798.1
157.3410 157.3395 784(29) 0.001231 588.8 792.1
157.3910 157.3895 831(29) 0.001157 588.7 786.1
157.4410 157.4395 825(29) 0.001158 588.5 780.3
157.4910 157.4895 784(29) 0.001226 588.4 774.7
157.5410 157.5395 790(29) 0.001217 588.2 769.5
157.5900 157.5885 756(28) 0.001270 588.1 764.9
157.6410 157.6395 759(28) 0.001266 587.9 760.6
157.6790 157.6775 759(30) 0.001148 587.8 757.9
157.7290 157.7275 753(29) 0.001160 587.7 754.9
157.7790 157.7775 782(30) 0.001110 587.5 752.7
157.8290 157.8275 760(30) 0.001135 587.4 751.2
157.8790 157.8775 759(30) 0.001142 587.2 750.6
157.9290 157.9275 783(30) 0.001112 587.0 751.0
157.9790 157.9775 750(29) 0.001166 586.9 752.2
158.0290 158.0275 749(29) 0.001165 586.7 754.4
158.0790 158.0775 775(30) 0.001105 586.6 757.6
158.1290 158.1275 751(29) 0.001152 586.4 761.7
158.1790 158.1775 791(30) 0.001091 586.2 766.8
158.2290 158.2275 745(29) 0.001166 586.1 772.9
158.2790 158.2775 825(31) 0.001043 585.9 779.9
158.3290 158.3275 843(31) 0.001029 585.7 787.8
158.3790 158.3775 787(30) 0.001109 585.6 796.5
158.4290 158.4275 768(30) 0.001131 585.4 806.1
158.4790 158.4775 801(30) 0.001088 585.2 816.4
158.5290 158.5275 761(30) 0.001124 585.0 827.5
158.5790 158.5775 857(31) 0.001008 584.9 839.1
158.6290 158.6275 813(31) 0.001049 584.7 851.2
158.6790 158.6775 863(32) 0.001003 584.5 863.7
158.7290 158.7275 831(31) 0.001044 584.3 876.5
158.7790 158.7775 828(31) 0.001049 584.1 889.5
158.8290 158.8275 869(32) 0.000981 584.0 902.6
158.8790 158.8775 945(33) 0.000914 583.8 915.7
158.9320 158.9305 888(33) 0.000935 583.6 929.7
158.9820 158.9805 931(33) 0.000899 583.4 942.9
159.0330 159.0315 908(33) 0.000913 583.2 956.5
159.0830 159.0815 894(33) 0.000930 583.0 970.0
159.1320 159.1305 905(33) 0.000925 582.8 983.5
159.1820 159.1805 928(33) 0.000900 582.6 997.7
159.2320 159.2305 1069(36) 0.000782 582. 1013.
159.2830 159.2815 1043(35) 0.000800 582. 1028.
159.3320 159.3305 1065(36) 0.000785 582. 1045.
159.3830 159.3815 1043(35) 0.000808 582. 1062.
159.4330 159.4315 1076(36) 0.000776 582. 1081.
159.4830 159.4815 1157(37) 0.000719 581. 1101.
159.5320 159.5305 1093(36) 0.000766 581. 1122.
159.5820 159.5805 1160(37) 0.000717 581. 1144.
159.6330 159.6315 1189(38) 0.000702 581. 1169.
159.6820 159.6805 1259(39) 0.000656 581. 1193.
159.7320 159.7305 1260(39) 0.000655 580. 1220.
159.7830 159.7815 1221(38) 0.000684 580. 1248.
159.8330 159.8315 1300(39) 0.000642 580. 1276.
159.8830 159.8815 1375(41) 0.000608 580. 1305.
159.9330 159.9315 1329(40) 0.000622 579. 1333.
159.9830 159.9815 1414(41) 0.000588 579. 1362.
160.0330 160.0315 1424(42) . . .
160.0830 160.0815 1460(42) . . .
160.1330 160.1315 1482(42) . . .
160.1910 160.1895 1473(45) . . .
160.2410 160.2395 1612(48) . . .
160.2910 160.2895 1562(48) . . .
160.3410 160.3395 1626(48) . . .
160.3910 160.3895 1495(47) . . .
160.4410 160.4395 1627(48) . . .
160.4910 160.4895 1725(50) . . .
160.5410 160.5395 1673(49) . . .
160.5910 160.5895 1691(49) . . .
160.6410 160.6395 1670(49) . . .
160.6910 160.6895 1675(49) . . .
160.7410 160.7395 1684(49) . . .
160.7910 160.7895 1651(49) . . .
160.8410 160.8395 1613(48) . . .
160.8910 160.8895 1645(49) . . .
160.9410 160.9395 1729(50) . . .
160.9910 160.9895 1580(47) . . .
161.0410 161.0395 1626(48) . . .
161.0910 161.0895 1600(48) . . .
161.1410 161.1395 1565(48) . . .
161.1910 161.1895 1518(47) . . .
161.2410 161.2395 1488(46) . . .
161.2910 161.2895 1428(45) . . .
161.3410 161.3395 1432(46) . . .
161.3910 161.3895 1474(46) . . .
161.4470 161.4455 1498(55) . . .
161.4970 161.4955 1349(53) . . .
161.5470 161.5455 1429(54) . . .
161.5970 161.5955 1333(52) . . .
161.6470 161.6455 1297(51) . . .
161.6970 161.6955 1305(52) . . .
161.7470 161.7455 1285(52) . . .
161.7970 161.7955 1281(51) . . .
161.8470 161.8455 1233(50) . . .
161.8970 161.8955 1239(50) . . .
161.9470 161.9455 1199(49) . . .
161.9970 161.9955 1105(47) . . .
162.0470 162.0455 1147(48) . . .
162.0970 162.0955 1163(49) . . .
162.1470 162.1455 1060(46) . . .
162.1970 162.1955 1046(46) . . .
162.2470 162.2455 1070(46) . . .
162.2970 162.2955 944(44) . . .
162.3470 162.3455 997(45) . . .
162.3970 162.3955 999(45) . . .
162.4470 162.4455 997(45) . . .
162.4970 162.4955 924(43) . . .
loop_
_refln_index_h
_refln_index_k
_refln_index_l
_refln_observed_status
_refln_F_squared_meas
_refln_F_squared_calc
_refln_phase_calc
_refln_d_spacing
_gsas_i100_meas
0 2 0 o 0.402 0.488 180.00 5.47855 1.31
1 1 0 o 0.454 0.550 0.00 4.76051 2.25
0 1 1 o 0.118 0.077 0.00 4.59234 0.54
1 2 -1 o 37.983 36.734 180.00 3.12728 82.95
1 3 0 o 0.138 0.131 0.00 3.00475 0.28
0 3 1 o 1.113 1.116 0.00 2.96108 2.19
1 2 1 o 34.020 34.171 180.00 2.95977 66.83
0 4 0 o 0.006 0.001 180.00 2.73927 0.01
2 0 0 o 0.488 0.161 0.00 2.64271 0.39
0 0 2 o 6.993 6.498 180.00 2.52902 5.09
2 2 0 o 4.233 4.414 180.00 2.38025 5.50
2 1 -1 o 9.298 9.855 0.00 2.36557 11.94
1 1 -2 o 7.961 8.193 180.00 2.30281 9.73
0 2 2 o 0.636 0.645 180.00 2.29617 0.77
1 4 -1 o 28.884 29.443 180.00 2.22386 33.08
2 1 1 o 22.782 23.244 180.00 2.22220 26.06
1 1 2 o 1.907 1.969 0.00 2.16993 2.09
1 4 1 o 50.971 52.914 0.00 2.16117 55.39
1 5 0 o 2.788 2.672 0.00 2.02432 2.69
2 3 -1 o 11.164 11.022 0.00 2.01892 10.72
0 5 1 o 8.509 8.775 180.00 2.01081 8.11
1 3 -2 o 0.541 0.937 180.00 1.97948 0.50
2 3 1 o 7.514 8.682 180.00 1.92758 6.64
2 0 -2 o 136.256 137.572 180.00 1.90439 58.89
2 4 0 o 94.916 95.130 0.00 1.90190 81.86
1 3 2 o 22.945 22.480 180.00 1.89317 19.63
0 4 2 o 120.830 116.619 180.00 1.85818 100.00
0 6 0 o 0.000 0.000 0.00 1.82618 0.00
2 2 -2 o 6.038 5.329 0.00 1.79881 4.72
2 0 2 o 141.643 135.670 180.00 1.75862 53.23
3 1 0 o 2.422 2.102 0.00 1.73946 1.79
2 2 2 o 6.925 7.429 0.00 1.67446 4.79
0 1 3 o 1.913 2.032 0.00 1.66640 1.31
1 6 -1 o 31.246 30.479 0.00 1.64669 20.99
3 2 -1 o 64.135 61.428 0.00 1.62926 42.33
2 5 -1 o 4.717 4.507 0.00 1.62520 3.10
1 6 1 o 24.707 23.629 0.00 1.62074 16.17
1 5 -2 o 16.640 17.201 180.00 1.60442 10.71
3 3 0 o 15.707 15.758 0.00 1.58684 9.92
2 5 1 o 0.003 0.003 180.00 1.57640 0.00
1 2 -3 o 28.820 27.718 180.00 1.57515 17.99
2 4 -2 o 4.242 3.929 0.00 1.56364 2.62
1 5 2 o 4.399 4.142 180.00 1.55741 2.70
3 2 1 o 15.094 14.232 0.00 1.55714 9.25
0 3 3 o 1.696 1.357 180.00 1.53078 1.01
1 2 3 o 41.229 39.516 180.00 1.50970 24.03
2 6 0 o 8.047 7.663 180.00 1.50237 4.65
1 7 0 o 27.073 25.704 0.00 1.50086 15.63
0 7 1 o 0.039 0.037 0.00 1.49533 0.02
3 1 -2 o 11.989 11.692 180.00 1.48882 6.83
0 6 2 o 5.830 5.700 0.00 1.48054 3.29
2 4 2 o 4.022 3.924 0.00 1.47989 2.27
2 1 -3 o 14.831 14.295 180.00 1.46239 8.22
3 4 -1 o 12.602 11.391 180.00 1.44840 6.88
1 4 -3 o 39.642 40.018 0.00 1.40999 20.78
3 4 1 o 2.425 2.344 0.00 1.39703 1.25
3 3 -2 o 0.082 0.103 0.00 1.38972 0.04
3 1 2 o 0.437 0.638 0.00 1.38336 0.22
3 5 0 o 21.515 24.740 0.00 1.37308 10.84
0 8 0 o 6.951 7.624 0.00 1.36964 1.74
2 3 -3 o 23.495 25.469 180.00 1.36815 11.78
1 4 3 o 18.094 19.243 180.00 1.36246 9.01
2 1 3 o 14.161 15.052 0.00 1.36208 7.05
0 5 3 o 0.226 0.387 0.00 1.33628 0.11
4 0 0 o 47.928 53.716 0.00 1.32135 11.43
2 6 -2 o 0.006 0.007 180.00 1.31809 0.00
2 7 -1 o 2.193 2.168 0.00 1.31476 1.04
1 7 -2 o 0.733 0.769 0.00 1.30368 0.34
3 3 2 o 9.101 9.723 180.00 1.30279 4.26
4 1 -1 o 10.453 11.860 0.00 1.29493 4.85
1 8 -1 o 81.136 82.006 180.00 1.28884 37.40
2 7 1 o 6.114 6.158 0.00 1.28852 2.82
2 3 3 o 0.897 0.888 0.00 1.28497 0.41
4 2 0 o 49.900 49.341 180.00 1.28452 22.90
1 7 2 o 0.002 0.002 180.00 1.27808 0.00
1 8 1 o 36.657 35.011 0.00 1.27628 16.68
2 6 2 o 0.000 0.000 0.00 1.26674 0.00
0 0 4 o 156.475 155.939 0.00 1.26451 35.16
3 6 -1 o 0.583 0.551 180.00 1.24683 0.26
4 1 1 o 6.642 6.309 180.00 1.24615 2.93
1 1 -4 o 17.657 16.983 0.00 1.24445 7.77
3 5 -2 o 22.250 21.248 180.00 1.23935 9.75
3 2 -3 o 21.102 19.716 0.00 1.23682 9.22
0 2 4 o 1.424 1.371 0.00 1.23211 0.62
4 3 -1 o 12.392 12.703 0.00 1.22813 5.37
2 5 -3 o 11.508 11.783 0.00 1.22398 4.96
1 6 -3 o 36.244 36.401 0.00 1.22207 15.60
2 8 0 o 31.749 31.139 180.00 1.21602 13.59
3 6 1 o 101.398 98.970 180.00 1.21360 43.29
4 0 -2 o 27.249 26.361 0.00 1.21135 5.80
0 8 2 o 45.519 43.930 0.00 1.20436 19.26
1 1 4 o 9.011 8.847 180.00 1.20097 3.80
1 6 3 o 21.709 22.529 0.00 1.19074 9.07
4 4 0 o 16.727 17.225 180.00 1.19013 6.98
1 9 0 o 7.412 7.248 0.00 1.18639 3.08
4 3 1 o 2.314 2.260 180.00 1.18628 0.96
1 3 -4 o 8.811 8.497 180.00 1.18482 3.66
0 9 1 o 6.122 5.866 0.00 1.18365 2.54
4 2 -2 o 28.695 27.311 0.00 1.18278 11.89
2 0 -4 o 4.168 3.412 180.00 1.17771 0.86
3 5 2 o 6.689 5.250 180.00 1.17651 2.76
3 7 0 o 2.337 1.816 0.00 1.17017 0.96
2 5 3 o 32.259 31.277 0.00 1.16333 13.13
3 4 -3 o 0.553 0.558 0.00 1.15189 0.22
2 2 -4 o 0.064 0.065 0.00 1.15141 0.03
0 4 4 o 2.870 2.957 180.00 1.14809 1.15
0 7 3 o 14.185 14.589 180.00 1.14714 5.69
1 3 4 o 11.205 11.523 0.00 1.14711 4.50
3 2 3 o 55.249 56.588 0.00 1.14645 22.16
4 0 2 o 24.176 24.016 0.00 1.13468 4.80
4 5 -1 o 4.096 5.073 180.00 1.12065 1.61
2 8 -2 o 14.159 14.572 180.00 1.11193 5.52
4 2 2 o 32.031 32.737 0.00 1.11110 12.48
4 4 -2 o 42.483 42.370 180.00 1.10786 16.51
2 0 4 o 4.049 3.995 180.00 1.10689 0.79
0 10 0 o 11.914 10.593 180.00 1.09571 2.29
4 5 1 o 12.361 12.169 180.00 1.08859 4.74
2 9 -1 o 50.388 49.813 180.00 1.08783 19.29
1 5 -4 o 10.651 10.567 0.00 1.08745 4.08
2 2 4 o 0.257 0.257 180.00 1.08497 0.10
3 7 -2 o 40.960 40.959 180.00 1.08405 15.64
2 4 -4 o 63.047 64.227 0.00 1.08195 24.05
1 9 -2 o 0.085 0.087 180.00 1.08153 0.03
2 8 2 o 14.688 15.299 180.00 1.08058 5.60
3 4 3 o 6.067 6.287 180.00 1.07784 2.31
4 1 -3 o 3.193 3.284 180.00 1.07742 1.21
2 7 -3 o 2.325 2.250 180.00 1.07371 0.88
2 9 1 o 3.491 3.332 180.00 1.07282 1.32
4 6 0 o 0.232 0.204 180.00 1.07051 0.09
3 8 -1 o 4.340 3.674 180.00 1.06814 1.64
1 9 2 o 2.321 2.023 180.00 1.06678 0.88
3 1 -4 o 23.054 22.991 0.00 1.06329 8.69
1 5 4 o 0.040 0.041 180.00 1.05808 0.02
1 10 -1 o 6.631 6.324 180.00 1.05300 2.49
1 8 -3 o 23.232 22.232 0.00 1.05245 8.71
5 1 0 o 0.470 0.451 0.00 1.05220 0.18
4 4 2 o 45.349 44.431 180.00 1.04830 16.96
3 8 1 o 24.789 24.859 0.00 1.04703 9.27
1 10 1 o 32.969 33.440 180.00 1.04612 12.32
3 6 -3 o 67.998 68.834 180.00 1.04243 25.36
3 7 2 o 46.900 48.992 180.00 1.04124 17.48
0 6 4 o 0.501 0.537 0.00 1.03961 0.19
4 3 -3 o 13.360 14.304 180.00 1.03802 4.97
5 2 -1 o 5.485 5.382 180.00 1.03276 2.04
1 8 3 o 58.489 58.880 180.00 1.03224 21.72
2 7 3 o 6.475 6.573 180.00 1.03207 2.40
2 4 4 o 60.151 63.369 0.00 1.02627 22.30
3 3 -4 o 0.993 1.064 0.00 1.02537 0.37
5 3 0 o 1.219 1.081 180.00 1.01541 0.45
2 10 0 o 4.657 4.390 0.00 1.01216 1.72
4 6 -2 o 6.938 7.085 0.00 1.00946 2.56
0 1 5 o 0.205 0.205 180.00 1.00732 0.08
0 10 2 o 0.010 0.011 0.00 1.00540 0.00
4 7 -1 o 0.002 0.002 0.00 1.00192 0.00
3 9 0 o 4.882 4.836 0.00 1.00158 1.80
5 2 1 o 87.268 86.330 180.00 1.00147 32.17
5 1 -2 o 8.212 7.881 180.00 0.99996 3.03
4 1 3 o 17.440 15.707 0.00 0.99787 6.43
1 2 -5 o 49.203 49.416 180.00 0.99183 18.13
2 6 -4 o 3.390 3.376 180.00 0.98974 1.25
0 9 3 o 38.631 36.981 0.00 0.98703 14.24
3 1 4 o 5.022 4.835 180.00 0.98662 1.85
3 6 3 o 1.704 1.641 180.00 0.98659 0.63
5 4 -1 o 2.088 2.024 0.00 0.98175 0.77
1 11 0 o 10.347 9.977 180.00 0.97887 3.82
4 7 1 o 0.118 0.114 0.00 0.97881 0.04
1 7 -4 o 17.433 16.732 0.00 0.97798 6.43
0 11 1 o 2.876 2.768 0.00 0.97733 1.06
0 3 5 o 6.169 5.475 0.00 0.97490 2.28
4 5 -3 o 0.150 0.100 180.00 0.97066 0.06
5 3 -2 o 0.003 0.002 180.00 0.96822 0.00
2 1 -5 o 4.745 4.033 0.00 0.96710 1.76
4 3 3 o 1.052 0.951 0.00 0.96633 0.39
1 2 5 o 22.868 22.231 180.00 0.96401 8.48
4 6 2 o 8.041 7.812 0.00 0.96379 2.98
3 5 -4 o 41.982 41.661 0.00 0.96030 15.59
1 7 4 o 32.272 32.148 0.00 0.95645 12.01
3 3 4 o 45.661 45.618 0.00 0.95610 17.00
5 4 1 o 0.254 0.249 0.00 0.95475 0.09
4 0 -4 o 26.467 25.801 0.00 0.95219 4.94
5 5 0 o 0.345 0.337 0.00 0.95210 0.13
4 8 0 o 32.377 32.184 0.00 0.95095 12.09
2 10 -2 o 2.446 2.442 0.00 0.94973 0.91
2 6 4 o 3.703 3.920 180.00 0.94658 1.39
1 4 -5 o 8.135 8.597 180.00 0.94639 3.05
3 9 -2 o 11.202 11.807 180.00 0.94597 4.20
5 1 2 o 1.311 1.378 0.00 0.94529 0.49
2 9 -3 o 2.841 3.188 0.00 0.93908 1.07
2 3 -5 o 18.982 20.600 0.00 0.93830 7.17
4 2 -4 o 17.592 18.958 180.00 0.93813 6.64
3 8 -3 o 14.418 14.533 0.00 0.93110 5.49
2 10 2 o 1.714 1.645 0.00 0.92997 0.65
0 8 4 o 8.665 8.397 0.00 0.92909 3.31
1 4 5 o 19.403 20.219 0.00 0.92214 7.48
3 10 -1 o 60.978 63.334 0.00 0.92201 23.50
2 11 -1 o 9.580 9.877 180.00 0.92127 3.70
0 5 5 o 28.218 29.074 180.00 0.91847 10.94
5 3 2 o 9.679 9.945 180.00 0.91835 3.75
1 11 -2 o 36.451 36.859 180.00 0.91743 14.15
2 1 5 o 25.871 26.153 180.00 0.91739 10.05
3 9 2 o 18.241 18.426 180.00 0.91712 7.09
5 2 -3 o 72.523 73.471 180.00 0.91641 28.21
0 12 0 o 113.600 109.175 180.00 0.91309 22.23
5 5 -2 o 9.216 8.843 180.00 0.91287 3.61
2 11 1 o 11.589 11.162 0.00 0.91210 4.54
1 10 -3 o 22.343 21.578 180.00 0.91186 8.76
5 6 -1 o 161.646 157.070 0.00 0.91131 63.47
4 5 3 o 1.035 1.006 0.00 0.91129 0.41
2 9 3 o 10.273 9.994 180.00 0.91084 4.04
1 11 2 o 15.188 14.339 180.00 0.90838 6.00
3 10 1 o 0.000 0.000 0.00 0.90833 0.00
4 8 -2 o 13.705 13.444 0.00 0.90738 5.43
3 5 4 o 7.088 6.462 0.00 0.90269 2.84
4 4 -4 o 29.833 31.242 180.00 0.89940 12.04
1 10 3 o 10.106 10.611 180.00 0.89862 4.09
3 2 -5 o 38.212 38.836 0.00 0.89679 15.53
2 8 -4 o 29.675 29.986 180.00 0.89298 12.19
2 3 5 o 0.781 0.792 180.00 0.89270 0.32
3 8 3 o 0.890 0.822 180.00 0.89066 0.37
4 7 -3 o 11.853 10.778 180.00 0.89043 4.91
4 9 -1 o 0.026 0.024 0.00 0.88992 0.01
5 6 1 o 7.040 6.258 180.00 0.88960 2.92
1 12 -1 o 2.126 2.087 180.00 0.88793 0.89
2 5 -5 o 0.050 0.050 180.00 0.88767 0.02
1 6 -5 o 7.314 7.199 0.00 0.88282 3.11
3 7 -4 o 0.340 0.339 0.00 0.88240 0.14
1 12 1 o 22.801 22.327 0.00 0.88380 9.66
6 0 0 o 29.974 30.392 180.00 0.88090 6.42
5 4 -3 o 0.231 0.237 180.00 0.88021 0.10
4 0 4 o 27.524 28.990 0.00 0.87931 5.94
6 1 -1 o 4.462 4.805 180.00 0.87693 1.95
5 7 0 o 11.834 12.729 0.00 0.87603 5.18
4 8 2 o 12.748 12.980 0.00 0.87378 5.64
4 9 1 o 20.773 21.117 0.00 0.87360 9.20
1 9 -4 o 2.301 2.326 0.00 0.87302 1.02
5 5 2 o 0.360 0.360 180.00 0.87072 0.16
6 2 0 o 42.398 42.298 180.00 0.86973 19.15
4 2 4 o 27.610 27.204 180.00 0.86820 12.57
3 11 0 o 34.071 32.282 0.00 0.86710 15.61
1 6 5 o 49.312 49.048 0.00 0.86303 23.16
2 12 0 o 1.256 1.249 180.00 0.86303 0.59
3 4 -5 o 1.523 1.504 180.00 0.86279 0.72
2 8 4 o 28.963 27.824 180.00 0.86090 13.80
0 12 2 o 10.555 9.410 0.00 0.85883 5.10
0 11 3 o 3.223 2.828 180.00 0.85761 1.57
1 9 4 o 13.372 11.734 0.00 0.85760 6.52
5 2 3 o 6.727 6.632 180.00 0.85458 3.36
6 1 1 o 0.274 0.270 0.00 0.85380 0.14
6 3 -1 o 0.084 0.082 180.00 0.85529 0.04
6 0 -2 o 27.412 26.980 180.00 0.85323 6.93
2 5 5 o 5.235 5.459 180.00 0.84877 2.76
0 7 5 o 8.690 9.350 0.00 0.84962 4.54
4 7 3 o 13.405 13.646 180.00 0.84393 7.44
5 7 -2 o 3.874 4.123 0.00 0.84519 2.12
4 10 0 o 4.898 4.879 0.00 0.84345 2.74
6 2 -2 o 44.707 44.009 0.00 0.84307 25.09
0 0 6 o 2.835 2.787 0.00 0.84301 0.80
4 6 -4 o 0.153 0.159 0.00 0.84431 0.08
5 1 -4 o 14.140 13.744 0.00 0.84226 8.01
1 1 -6 o 20.273 20.438 180.00 0.84049 11.76
3 2 5 o 21.451 21.576 0.00 0.83861 12.78
6 4 0 o 38.395 38.618 0.00 0.83861 22.88
4 4 4 o 27.986 27.832 180.00 0.83723 17.03
3 7 4 o 2.475 2.463 0.00 0.83709 1.51
6 3 1 o 0.774 0.849 0.00 0.83379 0.50
4 1 -5 o 7.611 8.306 0.00 0.83355 4.94
0 2 6 o 12.415 13.376 180.00 0.83320 8.11
5 8 -1 o 2.786 3.055 180.00 0.83411 1.79
0 13 1 o 26.282 25.353 180.00 0.83139 17.80
1 13 0 o 0.669 0.684 180.00 0.83234 0.44
3 11 -2 o 1.704 1.608 0.00 0.83027 1.18
5 6 -3 o 0.977 0.931 180.00 0.82837 0.71
3 10 -3 o 1.938 1.852 0.00 0.82950 1.37
0 10 4 o 15.337 14.559 180.00 0.82808 11.23
2 11 -3 o 0.033 0.034 0.00 0.82560 0.03
2 7 -5 o 15.242 15.554 0.00 0.82507 12.17
5 4 3 o 2.994 3.053 0.00 0.82500 2.40
