#------------------------------------------------------------------------------
#$Date: 2021-09-06 14:10:56 +0300 (Mon, 06 Sep 2021) $
#$Revision: 268760 $
#$URL: file:///home/coder/svn-repositories/cod/cif/7/70/76/7707608.cif $
#------------------------------------------------------------------------------
#
# This file is available in the Crystallography Open Database (COD),
# http://www.crystallography.net/
#
# All data on this site have been placed in the public domain by the
# contributors.
#
data_7707608
loop_
_publ_author_name
'Mullens, Bryce G.'
'Avdeev, Maxim'
'Brand, Helen E. A.'
'Mondal, S.'
'Vaitheeswaran, G.'
'Kennedy, Brendan J.'
_publ_section_title
;
 Insights into the structural variations in
 SmNb<sub>1-<i>x</i></sub>Ta<sub><i>x</i></sub>O<sub>4</sub> and
 HoNb<sub>1-<i>x</i></sub>Ta<sub><i>x</i></sub>O<sub>4</sub> combined
 experimental and computational studies.
;
_journal_issue                   26
_journal_name_full
'Dalton transactions (Cambridge, England : 2003)'
_journal_page_first              9103
_journal_page_last               9117
_journal_paper_doi               10.1039/d1dt01051d
_journal_volume                  50
_journal_year                    2021
_chemical_formula_sum            'Ho O4 Ta'
_chemical_formula_weight         409.87
_space_group_IT_number           13
_space_group_name_Hall           '-P 2yc'
_space_group_name_H-M_alt        'P 1 2/c 1'
_symmetry_cell_setting           monoclinic
_symmetry_space_group_name_H-M   'P 1 2/c 1'
_audit_creation_date             2021-05-20T14:25
_audit_creation_method           'from EXP file using GSAS2CIF'
_audit_update_record
' 2021-05-20T14:25  Initial CIF as created by GSAS2CIF'
_cell_angle_alpha                90.0
_cell_angle_beta                 96.4704(21)
_cell_angle_gamma                90.0
_cell_formula_units_Z            2
_cell_length_a                   5.11450(15)
_cell_length_b                   5.45546(16)
_cell_length_c                   5.30199(13)
_cell_volume                     146.994(7)
_computing_structure_refinement  GSAS
_diffrn_radiation_probe          neutron
_diffrn_radiation_wavelength     1.622
_exptl_absorpt_correction_T_max  1.00000
_exptl_absorpt_correction_T_min  1.00000
_exptl_absorpt_process_details
;   GSAS Absorption/surface roughness correction: function number 0
 No correction is applied.
;
_pd_block_id                     2021-05-20T14:25|HONBO4_X1P0|bjk|Echidna
_pd_calc_method                  'Rietveld Refinement'
_pd_instr_location               ' ?'
_pd_meas_number_of_points        3052
_pd_phase_name
'from C:/Experiments/2020/Echidna_July2020/HoTaO4.txt'
_pd_proc_info_datetime           2021-05-20T14:25:56
_pd_proc_info_excluded_regions   ' ?'
_pd_proc_ls_background_function
;   GSAS Background function number 1 with  8 terms.
 Shifted Chebyshev function of 1st kind
      1:    667.587     2:   -297.248     3:    105.897     4:    19.9869    
      5:   -14.4098     6:    7.08021     7:    6.33699     8:    1.79455    
;
_pd_proc_ls_peak_cutoff          0.00100
_pd_proc_ls_profile_function
;
 CW Profile function number 4 with  21 terms
 Pseudovoigt profile coefficients as parameterized in
 P. Thompson, D.E. Cox & J.B. Hastings (1987). J. Appl. Cryst.,20,79-83.
 Asymmetry correction of L.W. Finger, D.E. Cox & A. P. Jephcoat (1994).
 J. Appl. Cryst.,27,892-900.
 Microstrain broadening by P.W. Stephens,  (1999). J. Appl. Cryst.,32,281-289.
 #1(GU)   =  146.305 #2(GV)   = -512.311 #3(GW)   =  731.966
 #4(GP)   =    0.000 #5(LX)   =   11.582 #6(ptec) =     0.00
 #7(trns) =     0.00 #8(shft) =   0.0000 #9(sfec) =     0.00
 #10(S/L) =   0.0800 #11(H/L) =   0.0800 #12(eta) =   0.0000
 #13(S400 ) =  0.0E+00 #14(S040 ) =  0.0E+00 #15(S004 ) =  0.0E+00
 #16(S220 ) =  0.0E+00 #17(S202 ) =  0.0E+00 #18(S022 ) =  0.0E+00
 #19(S301 ) =  0.0E+00 #20(S103 ) =  0.0E+00 #21(S121 ) =  0.0E+00
 Peak tails are ignored  where the intensity is below 0.0010 times the peak
   Aniso. broadening axis   0.0   0.0   1.0
;
_pd_proc_ls_prof_R_factor        0.0407
_pd_proc_ls_prof_wR_expected     0.0337
_pd_proc_ls_prof_wR_factor       0.0533
_pd_proc_number_of_points        3052
_pd_spec_mounting                ' ?'
_refine_ls_goodness_of_fit_all   1.59
_refine_ls_matrix_type           full
_refine_ls_number_parameters     30
_refine_ls_number_restraints     0
_refine_ls_R_Fsqd_factor         0.04999
_refine_ls_shift/su_max          0.02
_refine_ls_shift/su_mean         0.00
_reflns_d_resolution_high        0.825
_reflns_d_resolution_low         5.455
_reflns_limit_h_max              6
_reflns_limit_h_min              0
_reflns_limit_k_max              6
_reflns_limit_k_min              0
_reflns_limit_l_max              6
_reflns_limit_l_min              -6
_reflns_number_total             280
_cod_data_source_file            d1dt01051d2.cif
_cod_data_source_block           HONBO4_X1P0_publ
_cod_depositor_comments
;
The following automatic conversions were performed:

data item '_geom_angle_publ_flag' value 'N' was changed to 'n' in
accordance with the
/home/data/users/saulius/crontab/automatic-downloads/rss-feeds/RSC/lib/dictionaries/cif_core.dic
dictionary named 'cif_core.dic' version 2.4.2 last updated on
2011-04-26 (52 times).

data item '_geom_bond_publ_flag' value 'N' was changed to 'n' in
accordance with the
/home/data/users/saulius/crontab/automatic-downloads/rss-feeds/RSC/lib/dictionaries/cif_core.dic
dictionary named 'cif_core.dic' version 2.4.2 last updated on
2011-04-26 (33 times).

Automatic conversion script
Id: cif_fix_values 7556 2019-12-06 15:28:31Z antanas 

 Adding full bibliography for 7707607--7707609.cif.
;
_cod_database_code               7707608
_gsas_exptl_extinct_corr_t_min   1.00000
_gsas_exptl_extinct_corr_t_max   1.00000
loop_
_symmetry_equiv_pos_site_id
_symmetry_equiv_pos_as_xyz
1 +x,+y,+z
2 -x,+y,-z+1/2
-1 -x,-y,-z
-2 +x,-y,+z+1/2
loop_
_atom_site_type_symbol
_atom_site_label
_atom_site_fract_x
_atom_site_fract_y
_atom_site_fract_z
_atom_site_occupancy
_atom_site_thermal_displace_type
_atom_site_U_iso_or_equiv
_atom_site_symmetry_multiplicity
Ho Ho1 0.5 0.73345(32) 0.25 1.0 Uiso -0.0010(4) 2
Ta Ta1 0.0 0.1945(4) 0.25 1.0 Uiso 0.0078(6) 2
O- O1 0.2491(4) 0.4171(4) 0.3987(4) 1.0 Uiso 0.0072(4) 4
O- O2 0.2316(4) 0.0617(4) 0.0041(4) 1.0 Uiso 0.0074(4) 4
loop_
_atom_type_symbol
_atom_type_number_in_cell
_atom_type_scat_length_neutron
_atom_type_scat_source
Ho+3 2.0 0.8010 International_Tables_Vol_C
Ta+5 2.0 0.6910 International_Tables_Vol_C
O-2 8.0 0.5803 International_Tables_Vol_C
loop_
_geom_angle_atom_site_label_1
_geom_angle_atom_site_label_2
_geom_angle_atom_site_label_3
_geom_angle
_geom_angle_site_symmetry_1
_geom_angle_site_symmetry_2
_geom_angle_site_symmetry_3
_geom_angle_publ_flag
O1 Ho1 O1 84.95(11) 1_555 . 2_655 n
O1 Ho1 O1 74.92(8) 1_555 . -1_666 n
O1 Ho1 O1 74.42(6) 1_555 . -2_565 n
O1 Ho1 O2 114.19(7) 1_555 . 1_565 n
O1 Ho1 O2 129.45(7) 1_555 . 2_665 n
O1 Ho1 O2 159.29(9) 1_555 . -1_665 n
O1 Ho1 O2 77.08(8) 1_555 . -2_566 n
O1 Ho1 O1 74.42(6) 2_655 . -1_666 n
O1 Ho1 O1 74.92(8) 2_655 . -2_565 n
O1 Ho1 O2 129.45(7) 2_655 . 1_565 n
O1 Ho1 O2 114.19(7) 2_655 . 2_665 n
O1 Ho1 O2 77.08(8) 2_655 . -1_665 n
O1 Ho1 O2 159.29(9) 2_655 . -2_566 n
O1 Ho1 O1 137.99(13) -1_666 . -2_565 n
O1 Ho1 O2 153.52(10) -1_666 . 1_565 n
O1 Ho1 O2 67.22(7) -1_666 . 2_665 n
O1 Ho1 O2 109.36(8) -1_666 . -1_665 n
O1 Ho1 O2 90.83(8) -1_666 . -2_566 n
O1 Ho1 O2 67.22(7) -2_565 . 1_565 n
O1 Ho1 O2 153.52(10) -2_565 . 2_665 n
O1 Ho1 O2 90.83(8) -2_565 . -1_665 n
O1 Ho1 O2 109.36(8) -2_565 . -2_566 n
O2 Ho1 O2 89.77(12) 1_565 . 2_665 n
O2 Ho1 O2 71.40(9) 1_565 . -1_665 n
O2 Ho1 O2 68.60(5) 1_565 . -2_566 n
O2 Ho1 O2 68.60(5) 2_665 . -1_665 n
O2 Ho1 O2 71.40(9) 2_665 . -2_566 n
O2 Ho1 O2 122.30(12) -1_665 . -2_566 n
O1 Ta1 O1 98.96(16) 1_555 . 2_555 n
O1 Ta1 O2 94.88(9) 1_555 . 1_555 n
O1 Ta1 O2 112.78(10) 1_555 . 2_555 n
O1 Ta1 O2 165.54(9) 1_555 . -1_555 n
O1 Ta1 O2 81.92(9) 1_555 . -2_556 n
O1 Ta1 O2 112.78(10) 2_555 . 1_555 n
O1 Ta1 O2 94.88(9) 2_555 . 2_555 n
O1 Ta1 O2 81.92(9) 2_555 . -1_555 n
O1 Ta1 O2 165.54(9) 2_555 . -2_556 n
O2 Ta1 O2 137.37(17) 1_555 . 2_555 n
O2 Ta1 O2 71.72(10) 1_555 . -1_555 n
O2 Ta1 O2 81.40(8) 1_555 . -2_556 n
O2 Ta1 O2 81.40(8) 2_555 . -1_555 n
O2 Ta1 O2 71.72(10) 2_555 . -2_556 n
O2 Ta1 O2 100.86(15) -1_555 . -2_556 n
Ho1 O1 Ho1 105.08(8) 1_555 . -1_666 n
Ho1 O1 Ta1 135.29(12) 1_555 . 1_555 n
Ho1 O1 Ta1 113.75(12) -1_666 . 1_555 n
Ho1 O2 Ho1 108.60(9) 1_545 . -1_665 n
Ho1 O2 Ta1 104.39(11) 1_545 . 1_555 n
Ho1 O2 Ta1 95.15(9) 1_545 . -1_555 n
Ho1 O2 Ta1 129.75(12) -1_665 . 1_555 n
Ho1 O2 Ta1 105.34(9) -1_665 . -1_555 n
Ta1 O2 Ta1 108.28(10) 1_555 . -1_555 n
loop_
_geom_bond_atom_site_label_1
_geom_bond_atom_site_label_2
_geom_bond_distance
_geom_bond_site_symmetry_1
_geom_bond_site_symmetry_2
_geom_bond_publ_flag
Ho1 Ho1 3.6764(24) . -1_665 n
Ho1 Ho1 3.6764(24) . -1_666 n
Ho1 Ho1 3.9353(25) . -1_675 n
Ho1 Ho1 3.9353(25) . -1_676 n
Ho1 Ta1 3.5869(20) . 1_565 n
Ho1 Ta1 3.5869(20) . 1_665 n
Ho1 Ta1 3.49198(33) . -1_565 n
Ho1 Ta1 3.49198(33) . -1_666 n
Ho1 O1 2.3399(23) . 1_555 n
Ho1 O1 2.3399(23) . 2_655 n
Ho1 O1 2.2915(23) . -1_666 n
Ho1 O1 2.2915(23) . -2_564 n
Ho1 O2 2.5271(24) . 1_565 n
Ho1 O2 2.5271(24) . 2_665 n
Ho1 O2 2.3165(23) . -1_665 n
Ho1 O2 2.3165(23) . -2_565 n
Ta1 Ho1 3.5869(20) . 1_445 n
Ta1 Ho1 3.5869(20) . 1_545 n
Ta1 Ho1 3.49198(33) . -1_565 n
Ta1 Ho1 3.49198(33) . -1_666 n
Ta1 O1 1.8691(24) . 1_555 n
Ta1 O1 1.8691(24) . 2_555 n
Ta1 O2 1.9939(21) . 1_555 n
Ta1 O2 1.9939(21) . 2_555 n
Ta1 O2 2.1936(26) . -1_555 n
Ta1 O2 2.1936(26) . -2_555 n
O1 Ho1 2.3399(23) . 1_555 n
O1 Ho1 2.2915(23) . -1_666 n
O1 Ta1 1.8691(24) . 1_555 n
O2 Ho1 2.5271(24) . 1_545 n
O2 Ho1 2.3165(23) . -1_665 n
O2 Ta1 1.9939(21) . 1_555 n
O2 Ta1 2.1936(26) . -1_555 n
loop_
_pd_meas_2theta_scan
_pd_proc_2theta_corrected
_pd_meas_intensity_total
_pd_proc_ls_weight
_pd_proc_intensity_bkg_calc
_pd_calc_intensity_total
10.0200 10.0320 1057(33) 0.000931 1033.8 1033.8
10.0700 10.0820 1039(33) 0.000943 1033.6 1033.6
10.1199 10.1319 1008(32) 0.000975 1033.4 1033.4
10.1698 10.1818 1062(33) 0.000924 1033.2 1033.2
10.2198 10.2318 1088(33) 0.000909 1033.1 1033.1
10.2747 10.2867 1022(35) 0.000799 1033. 1033.
10.3247 10.3367 970(34) 0.000842 1032.7 1032.7
10.3747 10.3867 994(34) 0.000843 1032.5 1032.5
10.4247 10.4367 979(34) 0.000852 1032.3 1032.3
10.4747 10.4867 1030(35) 0.000809 1032. 1032.
10.5247 10.5367 1031(35) 0.000803 1032. 1032.
10.5748 10.5868 982(34) 0.000847 1031.7 1031.7
10.6247 10.6367 991(34) 0.000850 1031.5 1031.5
10.6746 10.6866 1049(35) 0.000797 1031. 1031.
10.7246 10.7366 1030(35) 0.000805 1031. 1031.
10.7746 10.7866 1019(35) 0.000814 1031.0 1031.0
10.8246 10.8366 975(34) 0.000858 1030.8 1030.8
10.8748 10.8868 1072(36) 0.000771 1031. 1031.
10.9247 10.9367 1005(34) 0.000842 1030.4 1030.4
10.9747 10.9867 993(35) 0.000840 1030.2 1030.2
11.0246 11.0366 1060(36) 0.000775 1030. 1030.
11.0747 11.0867 1006(35) 0.000832 1029.8 1029.8
11.1247 11.1367 1088(36) 0.000762 1030. 1030.
11.1747 11.1867 1006(35) 0.000827 1029.4 1029.5
11.2249 11.2369 1046(35) 0.000803 1029. 1029.
11.2748 11.2868 1088(36) 0.000774 1029. 1029.
11.3247 11.3367 1067(36) 0.000764 1029. 1029.
11.3747 11.3867 976(34) 0.000867 1028.6 1028.7
11.4246 11.4366 1035(35) 0.000813 1028. 1028.
11.4746 11.4866 1057(35) 0.000794 1028. 1028.
11.5241 11.5361 1096(36) 0.000767 1028. 1028.
11.5741 11.5861 1011(34) 0.000849 1027.8 1027.9
11.6241 11.6361 970(34) 0.000883 1027.6 1027.7
11.6742 11.6862 1053(35) 0.000814 1027.4 1027.5
11.7242 11.7362 1016(34) 0.000852 1027.2 1027.3
11.7741 11.7861 1054(35) 0.000825 1027.0 1027.1
11.8243 11.8363 1068(35) 0.000809 1027. 1027.
11.8741 11.8861 980(33) 0.000901 1026.6 1026.7
11.9241 11.9361 1034(35) 0.000831 1026.4 1026.5
11.9741 11.9861 1075(35) 0.000805 1026. 1026.
12.0241 12.0361 1029(35) 0.000837 1026.0 1026.1
12.0741 12.0861 1042(35) 0.000838 1025.8 1025.9
12.1243 12.1363 1053(35) 0.000807 1026. 1026.
12.1742 12.1862 1098(35) 0.000795 1025. 1025.
12.2241 12.2361 1078(35) 0.000805 1025. 1025.
12.2740 12.2860 1027(34) 0.000855 1025.0 1025.0
12.3241 12.3361 1013(34) 0.000857 1024.8 1024.8
12.3742 12.3862 1062(35) 0.000822 1024.6 1024.6
12.4242 12.4362 955(33) 0.000919 1024.3 1024.4
12.4743 12.4863 997(34) 0.000874 1024.1 1024.2
12.5243 12.5363 1052(35) 0.000830 1023.9 1024.0
12.5742 12.5862 953(33) 0.000908 1023.7 1023.8
12.6242 12.6362 965(33) 0.000910 1023.5 1023.6
12.6741 12.6861 1006(34) 0.000846 1023.3 1023.4
12.7241 12.7361 1046(35) 0.000831 1023.1 1023.2
12.7632 12.7752 1009(32) 0.000996 1022.9 1023.0
12.8132 12.8252 1039(32) 0.000961 1022.7 1022.8
12.8631 12.8751 1072(33) 0.000934 1022.5 1022.6
12.9132 12.9252 1038(32) 0.000968 1022.3 1022.4
12.9632 12.9752 1068(33) 0.000937 1022.0 1022.1
13.0132 13.0252 1062(33) 0.000944 1021.8 1021.9
13.0633 13.0753 1004(32) 0.001001 1021.6 1021.7
13.1131 13.1251 1016(32) 0.000997 1021.4 1021.5
13.1631 13.1751 1065(33) 0.000945 1021.2 1021.3
13.2131 13.2251 994(31) 0.001015 1021.0 1021.1
13.2631 13.2751 1044(32) 0.000959 1020.7 1020.9
13.3131 13.3251 1045(32) 0.000968 1020.5 1020.6
13.3633 13.3753 1038(32) 0.000977 1020.3 1020.4
13.4132 13.4252 1034(32) 0.000981 1020.1 1020.2
13.4632 13.4752 1051(32) 0.000957 1019.9 1020.0
13.5131 13.5251 1029(32) 0.000985 1019.6 1019.8
13.5632 13.5752 1004(31) 0.001008 1019.4 1019.6
13.6132 13.6252 1032(32) 0.000975 1019.2 1019.3
13.6632 13.6752 1034(32) 0.000979 1019.0 1019.1
13.7134 13.7254 1078(33) 0.000936 1018.7 1018.9
13.7633 13.7753 991(31) 0.001016 1018.5 1018.7
13.8132 13.8252 1095(33) 0.000915 1018.3 1018.5
13.8632 13.8752 1040(32) 0.000970 1018.1 1018.3
13.9131 13.9251 1026(32) 0.000984 1017.9 1018.0
13.9631 13.9751 1033(32) 0.000980 1017.6 1017.8
14.0176 14.0296 1007(32) 0.001008 1017.4 1017.6
14.0676 14.0796 1019(32) 0.000990 1017.2 1017.4
14.1176 14.1296 1042(32) 0.000972 1016.9 1017.2
14.1677 14.1797 987(31) 0.001030 1016.7 1017.0
14.2176 14.2296 998(31) 0.001013 1016.5 1016.8
14.2676 14.2796 1024(32) 0.000987 1016.2 1016.6
14.3178 14.3298 1023(32) 0.000986 1016.0 1016.4
14.3676 14.3796 1040(32) 0.000980 1015.8 1016.2
14.4175 14.4295 988(31) 0.001032 1015.5 1016.1
14.4675 14.4795 1018(32) 0.000998 1015.3 1015.9
14.5176 14.5296 1013(32) 0.001006 1015.1 1015.8
14.5676 14.5796 988(31) 0.001027 1014.9 1015.7
14.6177 14.6297 1000(31) 0.001019 1014.6 1015.6
14.6677 14.6797 993(31) 0.001029 1014.4 1015.5
14.7176 14.7296 1003(31) 0.001010 1014.2 1015.4
14.7675 14.7795 987(31) 0.001031 1013.9 1015.3
14.8176 14.8296 1017(32) 0.001001 1013.7 1015.3
14.8676 14.8796 1042(32) 0.000971 1013.4 1015.3
14.9177 14.9297 1050(32) 0.000967 1013.2 1015.2
14.9678 14.9798 990(31) 0.001029 1013.0 1015.2
15.0178 15.0298 979(31) 0.001039 1012.7 1015.2
15.0677 15.0797 998(31) 0.001015 1012.5 1015.3
15.1177 15.1297 987(31) 0.001025 1012.3 1015.3
15.1676 15.1796 983(31) 0.001029 1012.0 1015.3
15.2176 15.2296 1010(31) 0.001011 1011.8 1015.4
15.2736 15.2856 1018(32) 0.000995 1011.5 1015.5
15.3236 15.3356 1008(31) 0.001008 1011.3 1015.5
15.3736 15.3856 1057(32) 0.000959 1011.0 1015.6
15.4237 15.4357 1012(32) 0.001003 1010.8 1015.8
15.4737 15.4857 1066(32) 0.000950 1010.6 1015.9
15.5236 15.5356 1012(32) 0.001005 1010.3 1016.0
15.5738 15.5858 983(31) 0.001031 1010.1 1016.2
15.6236 15.6356 1009(31) 0.001011 1009.8 1016.4
15.6736 15.6856 985(31) 0.001036 1009.6 1016.6
15.7236 15.7356 1090(33) 0.000934 1009.3 1016.9
15.7736 15.7856 1002(31) 0.001023 1009.1 1017.2
15.8236 15.8356 1011(31) 0.001014 1008.9 1017.5
15.8738 15.8858 1010(31) 0.001011 1008.6 1017.9
15.9237 15.9357 1014(32) 0.001008 1008.4 1018.3
15.9737 15.9857 1015(32) 0.001001 1008.1 1018.7
16.0236 16.0356 1042(32) 0.000981 1007.9 1019.2
16.0737 16.0857 1016(32) 0.000999 1007.6 1019.8
16.1237 16.1357 1073(33) 0.000946 1007.4 1020.5
16.1737 16.1857 1012(31) 0.001010 1007.1 1021.3
16.2238 16.2358 1033(32) 0.000990 1006.9 1022.1
16.2738 16.2858 998(31) 0.001025 1006.6 1023.2
16.3237 16.3357 1075(33) 0.000944 1006.4 1024.3
16.3737 16.3857 999(31) 0.001017 1006.1 1025.7
16.4236 16.4356 1048(32) 0.000971 1005.9 1027.2
16.4736 16.4856 1013(31) 0.001014 1005.6 1029.0
16.5077 16.5197 1015(32) 0.000975 1005.5 1030.2
16.5577 16.5697 1077(33) 0.000915 1005.2 1032.3
16.6077 16.6197 1042(32) 0.000947 1005.0 1034.4
16.6578 16.6698 999(32) 0.000991 1004.7 1036.6
16.7078 16.7198 1038(32) 0.000953 1004.5 1038.7
16.7577 16.7697 1099(33) 0.000896 1004.2 1040.6
16.8079 16.8199 1074(33) 0.000920 1004.0 1042.2
16.8577 16.8697 1013(32) 0.000983 1003.7 1043.3
16.9077 16.9197 1122(34) 0.000883 1003.4 1043.7
16.9577 16.9697 1044(32) 0.000953 1003.2 1043.4
17.0077 17.0197 1042(32) 0.000955 1002.9 1042.3
17.0577 17.0697 1033(32) 0.000966 1002.7 1040.2
17.1079 17.1199 1005(32) 0.000993 1002.4 1037.4
17.1578 17.1698 1029(32) 0.000969 1002.2 1034.0
17.2078 17.2198 1030(32) 0.000960 1001.9 1030.2
17.2577 17.2697 1067(33) 0.000934 1001.7 1026.2
17.3078 17.3198 1040(32) 0.000959 1001.4 1022.2
17.3578 17.3698 1033(32) 0.000959 1001.1 1018.3
17.4078 17.4198 1007(32) 0.000993 1000.9 1014.8
17.4579 17.4699 1080(33) 0.000918 1000.6 1011.7
17.5079 17.5199 981(31) 0.001016 1000.4 1009.1
17.5578 17.5698 984(31) 0.001011 1000.1 1006.8
17.6078 17.6198 982(31) 0.001015 999.8 1005.0
17.6577 17.6697 966(31) 0.001028 999.6 1003.6
17.7077 17.7197 1023(32) 0.000975 999.3 1002.4
17.7446 17.7566 1031(33) 0.000923 999.1 1001.7
17.7946 17.8066 984(32) 0.000971 998.9 1001.0
17.8446 17.8566 945(31) 0.001014 998.6 1000.4
17.8947 17.9067 972(32) 0.000985 998.3 999.9
17.9447 17.9567 1016(33) 0.000939 998.1 999.4
17.9946 18.0066 951(32) 0.001007 997.8 999.1
18.0448 18.0568 1027(33) 0.000928 997.5 998.7
18.0946 18.1066 1029(33) 0.000931 997.3 998.4
18.1446 18.1566 975(32) 0.000971 997.0 998.1
18.1946 18.2066 942(31) 0.001023 996.7 997.8
18.2446 18.2566 1017(33) 0.000939 996.5 997.5
18.2946 18.3066 1031(33) 0.000931 996.2 997.2
18.3448 18.3568 992(32) 0.000970 995.9 996.8
18.3947 18.4067 979(32) 0.000979 995.7 996.5
18.4446 18.4566 938(31) 0.001021 995.4 996.2
18.4946 18.5066 986(32) 0.000977 995.1 995.8
18.5447 18.5567 1024(33) 0.000938 994.9 995.5
18.5947 18.6067 1057(33) 0.000905 994.6 995.2
18.6447 18.6567 984(32) 0.000979 994.3 994.8
18.6948 18.7068 981(32) 0.000978 994.1 994.5
18.7448 18.7568 965(32) 0.000995 993.8 994.2
18.7947 18.8067 991(32) 0.000963 993.5 993.9
18.8447 18.8567 1059(33) 0.000897 993.3 993.6
18.8946 18.9066 1027(33) 0.000932 993.0 993.3
18.9446 18.9566 938(31) 0.001028 992.7 993.0
18.9895 19.0015 978(32) 0.000956 992.5 992.7
19.0395 19.0515 1008(33) 0.000927 992.2 992.4
19.0894 19.1014 1052(34) 0.000890 991.9 992.2
19.1395 19.1515 988(33) 0.000945 991.7 991.9
19.1895 19.2015 986(32) 0.000950 991.4 991.6
19.2395 19.2515 996(33) 0.000942 991.1 991.3
19.2896 19.3016 965(32) 0.000972 990.8 991.0
19.3395 19.3515 956(32) 0.000985 990.6 990.8
19.3894 19.4014 964(32) 0.000977 990.3 990.5
19.4394 19.4514 973(32) 0.000967 990.0 990.2
19.4894 19.5014 986(32) 0.000956 989.7 989.9
19.5394 19.5514 905(31) 0.001031 989.4 989.6
19.5896 19.6016 1000(33) 0.000944 989.2 989.4
19.6396 19.6516 995(32) 0.000951 988.9 989.1
19.6895 19.7015 990(33) 0.000946 988.6 988.8
19.7394 19.7514 1014(33) 0.000933 988.3 988.7
19.7895 19.8015 985(32) 0.000960 988.1 988.4
19.8395 19.8515 938(32) 0.001003 987.8 988.1
19.8895 19.9015 1006(33) 0.000940 987.5 987.8
19.9397 19.9517 988(32) 0.000958 987.2 987.6
19.9896 20.0016 938(31) 0.001008 986.9 987.3
20.0395 20.0515 1011(33) 0.000928 986.7 987.0
20.0895 20.1015 1013(33) 0.000930 986.4 986.7
20.1394 20.1514 980(32) 0.000951 986.1 986.4
20.1894 20.2014 969(32) 0.000978 985.8 986.2
20.2554 20.2674 949(32) 0.000991 985.4 985.8
20.3054 20.3174 961(32) 0.000976 985.2 985.5
20.3553 20.3673 974(32) 0.000963 984.9 985.2
20.4054 20.4174 998(33) 0.000938 984.6 985.0
20.4554 20.4674 1013(33) 0.000923 984.3 984.7
20.5054 20.5174 925(31) 0.001017 984.0 984.4
20.5555 20.5675 946(32) 0.000989 983.7 984.1
20.6054 20.6174 1031(33) 0.000913 983.5 983.8
20.6553 20.6673 934(32) 0.001005 983.2 983.6
20.7053 20.7173 967(32) 0.000976 982.9 983.3
20.7553 20.7673 987(32) 0.000956 982.6 983.0
20.8053 20.8173 986(32) 0.000957 982.3 982.7
20.8555 20.8675 948(32) 0.001000 982.0 982.4
20.9054 20.9174 944(32) 0.001005 981.7 982.1
20.9554 20.9674 967(32) 0.000972 981.5 981.9
21.0053 21.0173 1027(33) 0.000919 981.2 981.6
21.0554 21.0674 921(31) 0.001029 980.9 981.3
21.1054 21.1174 941(32) 0.001001 980.6 981.0
21.1554 21.1674 1001(33) 0.000943 980.3 980.7
21.2056 21.2176 979(32) 0.000964 980.0 980.5
21.2555 21.2675 966(32) 0.000977 979.7 980.2
21.3054 21.3174 979(32) 0.000961 979.4 979.9
21.3554 21.3674 935(31) 0.001010 979.1 979.6
21.4053 21.4173 1007(33) 0.000935 978.8 979.4
21.4553 21.4673 927(31) 0.001019 978.6 979.1
21.5157 21.5277 1012(33) 0.000937 978.2 978.7
21.5657 21.5777 993(32) 0.000953 977.9 978.5
21.6156 21.6276 937(31) 0.001017 977.6 978.2
21.6657 21.6777 962(32) 0.000987 977.3 977.9
21.7157 21.7277 963(32) 0.000980 977.0 977.6
21.7657 21.7777 1029(33) 0.000921 976.7 977.4
21.8158 21.8278 983(32) 0.000953 976.4 977.1
21.8657 21.8777 1015(33) 0.000938 976.1 976.8
21.9156 21.9276 904(31) 0.001054 975.9 976.5
21.9656 21.9776 998(32) 0.000954 975.6 976.3
22.0156 22.0276 990(32) 0.000959 975.3 976.0
22.0656 22.0776 997(32) 0.000958 975.0 975.7
22.1158 22.1278 952(32) 0.001006 974.7 975.5
22.1657 22.1777 969(32) 0.000984 974.4 975.2
22.2157 22.2277 942(31) 0.001008 974.1 974.9
22.2656 22.2776 986(32) 0.000970 973.8 974.6
22.3157 22.3277 929(31) 0.001031 973.5 974.4
22.3657 22.3777 978(32) 0.000970 973.2 974.1
22.4157 22.4277 960(32) 0.000996 972.9 973.9
22.4659 22.4779 961(32) 0.000996 972.6 973.6
22.5158 22.5278 985(32) 0.000970 972.3 973.4
22.5657 22.5777 954(32) 0.000998 972.0 973.1
22.6157 22.6277 970(32) 0.000981 971.7 972.9
22.6656 22.6776 964(32) 0.000990 971.4 972.7
22.7156 22.7276 954(32) 0.001006 971.1 972.5
22.7617 22.7737 928(32) 0.000993 970.8 972.3
22.8117 22.8237 902(31) 0.001021 970.5 972.1
22.8616 22.8736 989(33) 0.000931 970.2 972.0
22.9117 22.9237 991(33) 0.000923 969.9 971.9
22.9617 22.9737 991(33) 0.000921 969.6 971.8
23.0117 23.0237 966(33) 0.000938 969.3 971.8
23.0618 23.0738 1049(34) 0.000874 969.0 971.8
23.1116 23.1236 958(32) 0.000967 968.7 971.9
23.1616 23.1736 948(32) 0.000975 968.4 972.1
23.2116 23.2236 974(32) 0.000952 968.1 972.3
23.2616 23.2736 980(33) 0.000932 967.8 972.7
23.3116 23.3236 948(32) 0.000976 967.5 973.1
23.3618 23.3738 933(32) 0.000988 967.2 973.7
23.4117 23.4237 980(33) 0.000922 966.9 974.5
23.4617 23.4737 989(33) 0.000927 966.6 975.4
23.5116 23.5236 1009(33) 0.000912 966.3 976.5
23.5617 23.5737 1010(33) 0.000917 965.9 977.8
23.6117 23.6237 1000(33) 0.000920 965.6 979.3
23.6617 23.6737 1001(33) 0.000927 965.3 981.1
23.7119 23.7239 1062(34) 0.000866 965.0 983.2
23.7618 23.7738 993(33) 0.000932 964.7 985.6
23.8117 23.8237 950(32) 0.000970 964.4 988.2
23.8617 23.8737 977(33) 0.000937 964.1 991.3
23.9116 23.9236 1048(34) 0.000879 963.8 994.6
23.9616 23.9736 1059(34) 0.000876 963.5 998.4
24.0110 24.0230 1017(36) 0.000790 963. 1003.
24.0611 24.0731 1040(36) 0.000770 963. 1007.
24.1110 24.1230 1041(36) 0.000776 963. 1012.
24.1611 24.1731 1037(36) 0.000777 962. 1018.
24.2111 24.2231 980(35) 0.000823 961.9 1024.3
24.2610 24.2730 1113(37) 0.000721 962. 1031.
24.3112 24.3232 1049(36) 0.000766 961. 1040.
24.3610 24.3730 1031(36) 0.000789 961. 1048.
24.4110 24.4230 1107(37) 0.000715 961. 1056.
24.4610 24.4730 1040(36) 0.000776 960. 1065.
24.5110 24.5230 1019(35) 0.000798 960. 1074.
24.5610 24.5730 979(35) 0.000833 959.8 1083.0
24.6112 24.6232 1058(36) 0.000769 959. 1092.
24.6611 24.6731 1071(36) 0.000751 959. 1102.
24.7111 24.7231 1030(36) 0.000781 959. 1111.
24.7610 24.7730 1107(37) 0.000728 958. 1120.
24.8111 24.8231 1085(37) 0.000744 958. 1128.
24.8611 24.8731 1092(37) 0.000737 958. 1136.
24.9111 24.9231 1096(37) 0.000734 958. 1141.
24.9613 24.9733 1152(38) 0.000697 957. 1145.
25.0112 25.0232 1142(38) 0.000699 957. 1145.
25.0611 25.0731 1154(38) 0.000696 957. 1143.
25.1111 25.1231 1088(37) 0.000747 956. 1137.
25.1610 25.1730 1137(38) 0.000711 956. 1127.
25.2110 25.2230 1077(36) 0.000755 956. 1114.
25.2651 25.2771 1075(36) 0.000770 955. 1097.
25.3151 25.3271 1039(35) 0.000805 955. 1079.
25.3651 25.3771 1015(35) 0.000826 954.7 1061.5
25.4152 25.4272 1045(35) 0.000805 954. 1044.
25.4652 25.4772 1021(35) 0.000821 954.0 1027.8
25.5151 25.5271 1012(35) 0.000830 953.7 1013.3
25.5653 25.5773 984(34) 0.000855 953.4 1000.7
25.6151 25.6271 1028(35) 0.000814 953.1 990.2
25.6651 25.6771 1004(35) 0.000834 952.8 981.7
25.7151 25.7271 957(34) 0.000877 952.4 975.0
25.7651 25.7771 970(34) 0.000873 952.1 969.9
25.8151 25.8271 1006(35) 0.000832 951.8 966.0
25.8653 25.8773 952(33) 0.000898 951.5 963.2
25.9152 25.9272 895(33) 0.000945 951.2 961.1
25.9652 25.9772 955(34) 0.000879 950.8 959.5
26.0151 26.0271 931(33) 0.000918 950.5 958.4
26.0652 26.0772 974(34) 0.000855 950.2 957.5
26.1152 26.1272 975(34) 0.000864 949.9 956.7
26.1652 26.1772 918(33) 0.000915 949.5 956.2
26.2153 26.2273 971(34) 0.000870 949.2 955.6
26.2653 26.2773 941(33) 0.000903 948.9 955.2
26.3152 26.3272 938(34) 0.000882 948.6 954.8
26.3652 26.3772 929(33) 0.000908 948.2 954.4
26.4151 26.4271 975(34) 0.000860 947.9 954.0
26.4651 26.4771 946(33) 0.000897 947.6 953.7
26.5273 26.5393 962(32) 0.000999 947.2 953.3
26.5773 26.5893 945(31) 0.001018 946.9 953.0
26.6273 26.6393 979(32) 0.000984 946.5 952.8
26.6774 26.6894 979(32) 0.000975 946.2 952.5
26.7273 26.7393 990(32) 0.000974 945.9 952.3
26.7773 26.7893 996(32) 0.000966 945.6 953.1
26.8274 26.8394 1011(32) 0.000953 945.2 952.9
26.8773 26.8893 945(31) 0.001026 944.9 952.8
26.9272 26.9392 981(32) 0.000980 944.6 952.6
26.9772 26.9892 1016(32) 0.000954 944.2 952.5
27.0272 27.0392 953(31) 0.001014 943.9 952.4
27.0772 27.0892 992(32) 0.000980 943.6 952.3
27.1274 27.1394 927(31) 0.001047 943.3 952.2
27.1774 27.1894 1011(32) 0.000960 942.9 952.2
27.2273 27.2393 968(32) 0.000995 942.6 952.2
27.2772 27.2892 966(32) 0.001003 942.3 952.2
27.3273 27.3393 926(31) 0.001046 941.9 952.2
27.3773 27.3893 931(31) 0.001037 941.6 952.3
27.4273 27.4393 1007(32) 0.000961 941.3 952.4
27.4775 27.4895 944(31) 0.001026 941.0 952.6
27.5275 27.5395 984(32) 0.000978 940.6 952.8
27.5774 27.5894 947(31) 0.001017 940.3 953.0
27.6274 27.6394 999(32) 0.000968 940.0 953.4
27.6772 27.6892 946(31) 0.001029 939.6 953.8
27.7273 27.7393 994(32) 0.000972 939.3 954.3
27.7831 27.7951 941(33) 0.000909 938.9 955.1
27.8331 27.8451 965(33) 0.000917 938.6 956.0
27.8831 27.8951 949(33) 0.000935 938.3 957.2
27.9332 27.9452 971(33) 0.000905 937.9 958.7
27.9831 27.9951 943(33) 0.000918 937.6 960.8
28.0331 28.0451 955(33) 0.000914 937.3 963.5
28.0832 28.0952 950(33) 0.000917 936.9 967.0
28.1331 28.1451 952(33) 0.000927 936.6 971.5
28.1830 28.1950 995(34) 0.000885 936.3 977.3
28.2330 28.2450 969(33) 0.000905 935.9 984.7
28.2830 28.2950 997(33) 0.000892 935.6 993.8
28.3330 28.3450 1051(35) 0.000822 935.2 1004.9
28.3832 28.3952 1069(35) 0.000825 934.9 1018.5
28.4332 28.4452 1023(34) 0.000856 934.6 1034.5
28.4831 28.4951 1063(35) 0.000826 934.2 1053.3
28.5330 28.5450 1064(35) 0.000817 933.9 1075.0
28.5831 28.5951 1025(34) 0.000856 933.6 1100.1
28.6331 28.6451 1133(36) 0.000768 933. 1129.
28.6831 28.6951 1174(36) 0.000751 933. 1161.
28.7333 28.7453 1208(37) 0.000716 933. 1198.
28.7832 28.7952 1239(38) 0.000703 932. 1239.
28.8332 28.8452 1284(39) 0.000672 932. 1285.
28.8831 28.8951 1320(39) 0.000657 932. 1338.
28.9330 28.9450 1417(40) 0.000611 931. 1398.
28.9830 28.9950 1449(41) 0.000593 931. 1466.
29.0154 29.0274 1416(43) 0.000545 931. 1515.
29.0654 29.0774 1620(46) 0.000474 930. 1598.
29.1154 29.1274 1605(46) 0.000482 930. 1691.
29.1655 29.1775 1762(48) 0.000435 930. 1793.
29.2155 29.2275 1817(49) 0.000420 929. 1902.
29.2654 29.2774 1995(51) 0.000383 929. 2016.
29.3156 29.3276 2148(53) 0.000355 929. 2131.
29.3654 29.3774 2350(56) 0.0003239 928. 2240.
29.4154 29.4274 2513(58) 0.0002991 928. 2339.
29.4654 29.4774 2553(58) 0.0002957 928. 2418.
29.5154 29.5274 2544(58) 0.0002981 927. 2471.
29.5654 29.5774 2391(56) 0.0003188 927. 2491.
29.6156 29.6276 2405(56) 0.0003168 927. 2474.
29.6655 29.6775 2397(56) 0.0003173 926. 2418.
29.7154 29.7274 2233(54) 0.0003417 926. 2325.
29.7654 29.7774 2135(53) 0.000361 926. 2203.
29.8155 29.8275 2083(52) 0.000370 925. 2059.
29.8655 29.8775 1905(50) 0.000406 925. 1906.
29.9155 29.9275 1772(48) 0.000440 924. 1752.
29.9656 29.9776 1583(45) 0.000496 924. 1605.
30.0156 30.0276 1535(44) 0.000510 924. 1472.
30.0655 30.0775 1399(42) 0.000560 923. 1357.
30.1155 30.1275 1310(41) 0.000604 923. 1259.
30.1654 30.1774 1210(39) 0.000653 923. 1181.
30.2154 30.2274 1216(39) 0.000652 922. 1119.
30.2482 30.2602 1143(38) 0.000698 922. 1087.
30.2982 30.3102 1009(35) 0.000794 922. 1049.
30.3482 30.3602 1008(35) 0.000794 921. 1021.
30.3983 30.4103 1051(36) 0.000765 921. 1002.
30.4483 30.4603 999(35) 0.000807 921. 988.
30.4982 30.5102 1079(37) 0.000742 920. 980.
30.5484 30.5604 1071(37) 0.000740 920. 975.
30.5982 30.6102 1097(37) 0.000730 920. 972.
30.6482 30.6602 1011(35) 0.000794 919. 971.
30.6982 30.7102 1128(37) 0.000711 919. 972.
30.7482 30.7602 1067(36) 0.000754 919. 975.
30.7982 30.8102 1173(38) 0.000683 918. 979.
30.8484 30.8604 1200(39) 0.000667 918. 986.
30.8983 30.9103 1170(38) 0.000685 918. 994.
30.9482 30.9602 1187(39) 0.000674 917. 1005.
30.9981 31.0101 1172(38) 0.000685 917. 1019.
31.0482 31.0602 1217(39) 0.000656 917. 1035.
31.0983 31.1103 1267(40) 0.000629 916. 1055.
31.1483 31.1603 1266(40) 0.000635 916. 1079.
31.1984 31.2104 1266(40) 0.000628 916. 1106.
31.2484 31.2604 1228(39) 0.000653 915. 1138.
31.2983 31.3103 1293(40) 0.000612 915. 1174.
31.3483 31.3603 1213(39) 0.000655 915. 1216.
31.3982 31.4102 1289(40) 0.000616 914. 1265.
31.4482 31.4602 1283(40) 0.000617 914. 1320.
31.5011 31.5131 1433(44) 0.000514 913. 1387.
31.5511 31.5631 1366(43) 0.000539 913. 1459.
31.6011 31.6131 1379(43) 0.000540 913. 1539.
31.6512 31.6632 1484(45) 0.000500 912. 1626.
31.7011 31.7131 1587(46) 0.000463 912. 1719.
31.7511 31.7631 1684(48) 0.000440 912. 1816.
31.8013 31.8133 1761(49) 0.000418 911. 1913.
31.8511 31.8631 1924(51) 0.000382 911. 2003.
31.9011 31.9131 2068(53) 0.000353 911. 2082.
31.9511 31.9631 2053(53) 0.000358 910. 2143.
32.0011 32.0131 2033(52) 0.000363 910. 2180.
32.0511 32.0631 1985(52) 0.000372 910. 2188.
32.1013 32.1133 1918(51) 0.000382 909. 2163.
32.1512 32.1632 1860(50) 0.000400 909. 2107.
32.2011 32.2131 1758(49) 0.000423 908. 2021.
32.2510 32.2630 1768(49) 0.000422 908. 1913.
32.3011 32.3131 1628(47) 0.000460 908. 1790.
32.3512 32.3632 1541(45) 0.000485 907. 1662.
32.4012 32.4132 1374(43) 0.000548 907. 1536.
32.4513 32.4633 1300(42) 0.000578 907. 1419.
32.5013 32.5133 1228(40) 0.000612 906. 1314.
32.5512 32.5632 1137(39) 0.000664 906. 1224.
32.6012 32.6132 1124(39) 0.000670 906. 1149.
32.6511 32.6631 1000(36) 0.000759 905. 1090.
32.7011 32.7131 992(36) 0.000766 905. 1044.
32.7460 32.7580 982(35) 0.000828 904.6 1012.3
32.7960 32.8080 995(35) 0.000811 904. 986.
32.8460 32.8580 949(34) 0.000867 903.9 967.3
32.8961 32.9081 947(34) 0.000858 903.5 953.8
32.9460 32.9580 888(33) 0.000915 903.2 944.4
32.9960 33.0080 854(33) 0.000942 902.8 937.6
33.0462 33.0582 906(33) 0.000899 902.5 932.7
33.0960 33.1080 951(34) 0.000855 902.1 929.0
33.1459 33.1579 984(35) 0.000796 902. 926.
33.1960 33.2080 942(34) 0.000842 901.4 923.6
33.2460 33.2580 931(34) 0.000876 901.0 921.6
33.2959 33.3079 898(33) 0.000909 900.7 919.8
33.3461 33.3581 926(34) 0.000872 900.3 918.2
33.3961 33.4081 1019(36) 0.000781 900. 917.
33.4460 33.4580 917(34) 0.000884 899.6 915.4
33.4959 33.5079 872(33) 0.000932 899.2 914.2
33.5460 33.5580 894(33) 0.000917 898.9 913.1
33.5961 33.6081 917(34) 0.000879 898.5 912.0
33.6461 33.6581 917(34) 0.000889 898.1 911.1
33.6962 33.7082 932(34) 0.000882 897.8 910.2
33.7462 33.7582 895(33) 0.000911 897.4 909.3
33.7961 33.8081 929(34) 0.000874 897.1 908.5
33.8461 33.8581 955(35) 0.000837 896.7 907.8
33.8959 33.9079 918(33) 0.000893 896.3 907.0
33.9460 33.9580 862(33) 0.000932 896.0 906.4
33.9871 33.9991 922(31) 0.001038 895.7 905.9
34.0371 34.0491 930(31) 0.001019 895.3 905.3
34.0871 34.0991 911(31) 0.001049 894.9 904.7
34.1372 34.1492 874(30) 0.001093 894.6 904.2
34.1871 34.1991 859(30) 0.001113 894.2 903.7
34.2371 34.2491 911(31) 0.001051 893.9 903.2
34.2873 34.2993 913(31) 0.001045 893.5 902.8
34.3371 34.3491 900(31) 0.001073 893.1 900.7
34.3870 34.3990 959(32) 0.001002 892.8 900.3
34.4370 34.4490 924(31) 0.001037 892.4 899.8
34.4870 34.4990 896(30) 0.001081 892.0 899.3
34.5370 34.5490 883(30) 0.001102 891.7 898.8
34.5872 34.5992 943(31) 0.001027 891.3 898.1
34.6372 34.6492 926(31) 0.001045 890.9 897.5
34.6871 34.6991 875(30) 0.001094 890.6 896.8
34.7370 34.7490 925(31) 0.001041 890.2 896.2
34.7871 34.7991 813(29) 0.001186 889.8 895.5
34.8371 34.8491 959(32) 0.001001 889.5 894.9
34.8871 34.8991 928(31) 0.001043 889.1 894.2
34.9373 34.9493 910(31) 0.001064 888.7 893.6
34.9873 34.9993 880(30) 0.001097 888.4 893.1
35.0372 35.0492 868(30) 0.001110 888.0 892.7
35.0872 35.0992 930(31) 0.001031 887.6 892.2
35.1370 35.1490 879(30) 0.001100 887.3 891.8
35.1871 35.1991 904(31) 0.001070 886.9 891.3
35.2556 35.2676 914(31) 0.001031 886.4 890.8
35.3056 35.3176 881(31) 0.001072 886.0 890.4
35.3556 35.3676 872(30) 0.001087 885.7 890.0
35.4057 35.4177 867(30) 0.001093 885.3 889.7
35.4557 35.4677 901(31) 0.001049 884.9 889.3
35.5056 35.5176 893(31) 0.001058 884.6 889.0
35.5558 35.5678 882(31) 0.001061 884.2 888.7
35.6056 35.6176 931(31) 0.001021 883.8 888.4
35.6556 35.6676 880(30) 0.001077 883.5 888.2
35.7056 35.7176 945(32) 0.001004 883.1 888.0
35.7556 35.7676 893(31) 0.001063 882.7 887.8
35.8056 35.8176 864(30) 0.001106 882.4 887.7
35.8558 35.8678 878(30) 0.001083 882.0 887.7
35.9057 35.9177 925(31) 0.001025 881.6 887.9
35.9557 35.9677 848(30) 0.001119 881.2 888.2
36.0056 36.0176 902(31) 0.001056 880.9 888.7
36.0557 36.0677 853(30) 0.001113 880.5 889.5
36.1057 36.1177 909(31) 0.001041 880.1 890.6
36.1557 36.1677 890(31) 0.001071 879.8 892.0
36.2058 36.2178 913(31) 0.001041 879.4 893.9
36.2558 36.2678 846(30) 0.001122 879.0 896.4
36.3057 36.3177 912(31) 0.001037 878.6 899.4
36.3557 36.3677 971(32) 0.000975 878.3 903.1
36.4056 36.4176 963(32) 0.000982 877.9 907.6
36.4556 36.4676 912(31) 0.001041 877.5 913.0
36.5293 36.5413 856(30) 0.001133 877.0 922.8
36.5793 36.5913 927(31) 0.001039 876.6 930.7
36.6293 36.6413 926(31) 0.001043 876.2 939.8
36.6794 36.6914 904(31) 0.001066 875.9 950.0
36.7294 36.7414 984(32) 0.000977 875.5 961.2
36.7793 36.7913 988(32) 0.000978 875.1 973.0
36.8295 36.8415 984(32) 0.000982 874.8 983.9
36.8793 36.8913 991(32) 0.000977 874.4 995.7
36.9293 36.9413 1078(33) 0.000893 874.0 1006.6
36.9793 36.9913 1032(33) 0.000939 873.6 1015.6
37.0293 37.0413 979(32) 0.000991 873.3 1022.1
37.0793 37.0913 992(32) 0.000978 872.9 1025.2
37.1295 37.1415 1016(32) 0.000957 872.5 1024.4
37.1794 37.1914 1006(32) 0.000961 872.1 1019.6
37.2293 37.2413 1015(32) 0.000949 871.8 1011.0
37.2793 37.2913 1021(32) 0.000951 871.4 999.3
37.3294 37.3414 1001(32) 0.000972 871.0 985.5
37.3794 37.3914 987(32) 0.000972 870.6 970.8
37.4294 37.4414 921(31) 0.001053 870.3 956.2
37.4795 37.4915 979(32) 0.000986 869.9 942.7
37.5295 37.5415 948(31) 0.001025 869.5 930.9
37.5794 37.5914 910(31) 0.001065 869.1 921.3
37.6294 37.6414 901(30) 0.001076 868.8 914.6
37.6793 37.6913 946(31) 0.001013 868.4 909.9
37.7293 37.7413 904(30) 0.001080 868.0 908.2
37.7697 37.7817 953(31) 0.001025 867.7 908.0
37.8197 37.8317 865(30) 0.001131 867.3 909.6
37.8697 37.8817 894(30) 0.001099 867.0 913.2
37.9198 37.9318 928(31) 0.001052 866.6 918.6
37.9698 37.9818 949(31) 0.001029 866.2 925.6
38.0197 38.0317 1004(32) 0.000969 865.8 934.2
38.0699 38.0819 986(32) 0.000985 865.4 944.1
38.1197 38.1317 1009(32) 0.000970 865.1 955.0
38.1697 38.1817 964(31) 0.001019 864.7 966.6
38.2197 38.2317 1036(33) 0.000946 864.3 978.4
38.2697 38.2817 971(32) 0.001007 863.9 989.8
38.3197 38.3317 1000(32) 0.000977 863.6 1000.0
38.3699 38.3819 1045(33) 0.000940 863.2 1008.2
38.4198 38.4318 1108(34) 0.000883 862.8 1013.8
38.4697 38.4817 950(31) 0.001031 862.4 1016.2
38.5196 38.5316 981(32) 0.001005 862.0 1014.8
38.5697 38.5817 1008(32) 0.000977 861.7 1009.9
38.6198 38.6318 978(32) 0.001000 861.3 1002.0
38.6698 38.6818 1014(32) 0.000968 860.9 991.9
38.7199 38.7319 1030(32) 0.000950 860.5 980.8
38.7699 38.7819 1035(33) 0.000943 860.2 969.9
38.8198 38.8318 963(31) 0.001015 859.8 960.1
38.8698 38.8818 1047(33) 0.000933 859.4 952.2
38.9197 38.9317 1005(32) 0.000967 859.0 946.7
38.9697 38.9817 977(32) 0.001005 858.6 943.9
39.0205 39.0325 990(33) 0.000947 858.3 943.7
39.0705 39.0825 931(31) 0.001008 857.9 946.0
39.1204 39.1324 974(32) 0.000967 857.5 950.4
39.1705 39.1825 961(32) 0.000977 857.1 956.4
39.2205 39.2325 996(33) 0.000938 856.7 963.6
39.2705 39.2825 1026(33) 0.000911 856.4 971.4
39.3206 39.3326 1094(34) 0.000853 856.0 979.6
39.3705 39.3825 995(32) 0.000949 855.6 987.8
39.4204 39.4324 1024(33) 0.000911 855.2 995.9
39.4704 39.4824 1050(33) 0.000899 854.8 1004.0
39.5204 39.5324 1131(35) 0.000828 854.4 1012.0
39.5704 39.5824 1047(33) 0.000902 854.1 1021.2
39.6206 39.6326 1026(33) 0.000920 853.7 1029.1
39.6705 39.6825 1087(34) 0.000868 853.3 1036.4
39.7205 39.7325 1022(33) 0.000917 852.9 1042.4
39.7704 39.7824 1061(34) 0.000889 852.5 1046.5
39.8205 39.8325 1120(34) 0.000841 852.2 1047.7
39.8705 39.8825 1073(34) 0.000868 851.8 1045.2
39.9205 39.9325 978(32) 0.000966 851.4 1038.7
39.9707 39.9827 1049(33) 0.000899 851.0 1028.0
40.0206 40.0326 1012(33) 0.000933 850.6 1013.7
40.0705 40.0825 1059(34) 0.000885 850.2 996.8
40.1205 40.1325 963(32) 0.000978 849.9 978.4
40.1704 40.1824 971(32) 0.000969 849.5 959.7
40.2204 40.2324 966(32) 0.000980 849.1 941.8
40.2720 40.2840 921(31) 0.001040 848.7 925.0
40.3221 40.3341 833(30) 0.001148 848.3 910.7
40.3720 40.3840 902(31) 0.001065 847.9 898.9
40.4221 40.4341 903(31) 0.001067 847.6 889.3
40.4721 40.4841 868(30) 0.001105 847.2 881.9
40.5221 40.5341 878(30) 0.001093 846.8 876.5
40.5722 40.5842 862(30) 0.001112 846.4 872.6
40.6220 40.6340 891(30) 0.001077 846.0 870.1
40.6720 40.6840 824(29) 0.001173 845.6 868.5
40.7220 40.7340 854(30) 0.001132 845.3 867.6
40.7720 40.7840 869(30) 0.001114 844.9 867.3
40.8220 40.8340 886(30) 0.001091 844.5 867.4
40.8722 40.8842 854(30) 0.001133 844.1 867.7
40.9222 40.9342 844(30) 0.001146 843.7 868.3
40.9721 40.9841 936(31) 0.001022 843.3 869.0
41.0220 41.0340 849(30) 0.001134 842.9 869.9
41.0721 41.0841 884(30) 0.001096 842.6 870.9
41.1221 41.1341 884(30) 0.001086 842.2 872.1
41.1721 41.1841 882(30) 0.001093 841.8 873.6
41.2223 41.2343 874(30) 0.001099 841.4 876.0
41.2722 41.2842 911(31) 0.001058 841.0 878.6
41.3221 41.3341 870(30) 0.001106 840.6 882.2
41.3721 41.3841 905(31) 0.001060 840.3 887.2
41.4220 41.4340 856(30) 0.001115 839.9 894.1
41.4720 41.4840 912(31) 0.001057 839.5 903.5
41.5140 41.5260 890(30) 0.001076 839.2 913.9
41.5640 41.5760 870(30) 0.001099 838.8 929.9
41.6140 41.6260 961(32) 0.000995 838.4 950.8
41.6641 41.6761 903(31) 0.001062 838.0 977.7
41.7140 41.7260 968(32) 0.000980 837.6 1011.6
41.7640 41.7760 1060(34) 0.000890 837.2 1053.8
41.8142 41.8262 1031(33) 0.000917 836.8 1105.7
41.8640 41.8760 1177(35) 0.000805 836. 1168.
41.9140 41.9260 1167(35) 0.000807 836. 1241.
41.9639 41.9759 1259(37) 0.000747 836. 1326.
42.0140 42.0260 1380(38) 0.000684 835. 1423.
42.0640 42.0760 1460(40) 0.000640 835. 1529.
42.1142 42.1262 1689(42) 0.000556 835. 1643.
42.1641 42.1761 1775(44) 0.000524 834. 1759.
42.2140 42.2260 1849(45) 0.000502 834. 1873.
42.2639 42.2759 1924(45) 0.000484 833. 1978.
42.3140 42.3260 2088(48) 0.000443 833. 2067.
42.3640 42.3760 2117(48) 0.000434 833. 2133.
42.4141 42.4261 2175(49) 0.000423 832. 2168.
42.4642 42.4762 2149(48) 0.000430 832. 2168.
42.5142 42.5262 2087(48) 0.000442 831. 2133.
42.5641 42.5761 1953(46) 0.000475 831. 2065.
42.6141 42.6261 1855(45) 0.000504 831. 1969.
42.6640 42.6760 1827(44) 0.000512 830. 1854.
42.7140 42.7260 1735(43) 0.000542 830. 1730.
42.7638 42.7758 1449(39) 0.000645 829. 1605.
42.8138 42.8258 1436(39) 0.000653 829. 1488.
42.8638 42.8758 1291(37) 0.000732 829. 1383.
42.9139 42.9259 1220(36) 0.000774 828. 1295.
42.9638 42.9758 1192(35) 0.000795 828. 1224.
43.0138 43.0258 1174(35) 0.000808 828. 1170.
43.0640 43.0760 1174(35) 0.000806 827. 1131.
43.1138 43.1258 1068(33) 0.000896 826.8 1103.6
43.1637 43.1757 1130(35) 0.000840 826.4 1085.6
43.2138 43.2258 1031(33) 0.000929 826.0 1073.4
43.2637 43.2757 1035(33) 0.000921 825.6 1064.4
43.3138 43.3258 985(32) 0.000977 825.2 1057.0
43.3639 43.3759 1044(33) 0.000920 824.8 1050.4
43.4139 43.4259 1038(33) 0.000922 824.4 1044.5
43.4638 43.4758 1073(34) 0.000886 824.0 1040.6
43.5137 43.5257 1053(33) 0.000912 823.7 1040.2
43.5638 43.5758 992(32) 0.000967 823.3 1045.5
43.6139 43.6259 1065(33) 0.000892 822.9 1058.6
43.6638 43.6758 1060(33) 0.000900 822.5 1081.3
43.7140 43.7260 1051(33) 0.000907 822.1 1115.9
43.7640 43.7760 1159(35) 0.000816 821.7 1163.6
43.8139 43.8259 1226(36) 0.000767 821. 1225.
43.8639 43.8759 1260(37) 0.000746 821. 1302.
43.9138 43.9258 1374(38) 0.000680 821. 1393.
43.9638 43.9758 1494(40) 0.000625 820. 1497.
44.0146 44.0266 1646(42) 0.000579 820. 1613.
44.0646 44.0766 1771(43) 0.000536 819. 1732.
44.1146 44.1266 1932(45) 0.000492 819. 1851.
44.1647 44.1767 2057(47) 0.000459 819. 1963.
44.2147 44.2267 2194(48) 0.000427 818. 2058.
44.2646 44.2766 2141(48) 0.000440 818. 2128.
44.3148 44.3268 2221(49) 0.000421 817. 2166.
44.3646 44.3766 2161(48) 0.000437 817. 2165.
44.4146 44.4266 2045(47) 0.000462 817. 2125.
44.4646 44.4766 2072(47) 0.000458 816. 2046.
44.5146 44.5266 1991(46) 0.000480 816. 1938.
44.5646 44.5766 1861(44) 0.000514 815. 1807.
44.6148 44.6268 1604(41) 0.000603 815. 1667.
44.6647 44.6767 1478(39) 0.000655 815. 1527.
44.7147 44.7267 1388(38) 0.000698 814. 1395.
44.7646 44.7766 1162(34) 0.000850 813.9 1276.8
44.8147 44.8267 1183(35) 0.000835 813.5 1175.3
44.8647 44.8767 1060(33) 0.000927 813.1 1092.2
44.9147 44.9267 1007(32) 0.000972 812.7 1026.8
44.9648 44.9768 959(31) 0.001034 812.3 977.3
45.0148 45.0268 912(30) 0.001082 811.9 941.8
45.0647 45.0767 885(30) 0.001122 811.5 917.6
45.1147 45.1267 901(30) 0.001090 811.2 902.5
45.1646 45.1766 886(30) 0.001117 810.8 894.7
45.2146 45.2266 875(30) 0.001139 810.4 893.1
45.2589 45.2709 872(30) 0.001081 810.0 896.0
45.3089 45.3209 900(31) 0.001036 809.6 903.9
45.3589 45.3709 935(32) 0.001007 809.2 916.7
45.4090 45.4210 929(31) 0.001019 808.9 934.5
45.4590 45.4710 943(32) 0.000993 808.5 957.7
45.5089 45.5209 966(32) 0.000972 808.1 986.4
45.5591 45.5711 990(33) 0.000927 807.7 1020.9
45.6089 45.6209 1026(33) 0.000906 807.3 1060.5
45.6589 45.6709 1116(35) 0.000835 806.9 1104.7
45.7089 45.7209 1123(35) 0.000840 806.5 1152.0
45.7589 45.7709 1184(35) 0.000798 806. 1200.
45.8089 45.8209 1264(37) 0.000736 806. 1249.
45.8591 45.8711 1329(38) 0.000704 805. 1291.
45.9090 45.9210 1276(37) 0.000746 805. 1325.
45.9590 45.9710 1352(38) 0.000694 805. 1347.
46.0089 46.0209 1332(38) 0.000705 804. 1355.
46.0590 46.0710 1317(37) 0.000717 804. 1347.
46.1090 46.1210 1217(36) 0.000775 803. 1323.
46.1590 46.1710 1269(37) 0.000740 803. 1286.
46.2091 46.2211 1182(35) 0.000798 803. 1238.
46.2591 46.2711 1150(35) 0.000816 802.2 1185.8
46.3090 46.3210 1088(34) 0.000868 801.8 1132.4
46.3590 46.3710 1028(33) 0.000915 801.4 1081.5
46.4089 46.4209 1000(32) 0.000948 801.0 1036.1
46.4589 46.4709 940(31) 0.001017 800.6 997.5
46.5094 46.5214 959(34) 0.000883 800.2 966.4
46.5594 46.5714 877(32) 0.000967 799.8 943.1
46.6094 46.6214 871(32) 0.000961 799.4 926.5
46.6595 46.6715 948(34) 0.000891 799.0 915.2
46.7095 46.7215 909(33) 0.000922 798.7 907.8
46.7594 46.7714 898(33) 0.000934 798.3 902.9
46.8096 46.8216 918(33) 0.000929 797.9 899.1
46.8594 46.8714 906(33) 0.000942 797.5 897.2
46.9094 46.9214 946(33) 0.000906 797.1 892.5
46.9594 46.9714 916(33) 0.000928 796.7 886.7
47.0094 47.0214 840(31) 0.001014 796.3 879.8
47.0594 47.0714 864(32) 0.000985 795.9 872.1
47.1096 47.1216 834(31) 0.001034 795.5 864.0
47.1595 47.1715 904(33) 0.000933 795.1 855.4
47.2094 47.2214 876(32) 0.000974 794.7 848.0
47.2593 47.2713 871(32) 0.000981 794.3 840.6
47.3095 47.3215 872(32) 0.000988 793.9 834.8
47.3595 47.3715 831(31) 0.001033 793.5 830.1
47.4095 47.4215 876(32) 0.000990 793.1 826.3
47.4596 47.4716 822(31) 0.001047 792.8 823.4
47.5096 47.5216 868(32) 0.000985 792.4 821.3
47.5595 47.5715 843(31) 0.001025 792.0 819.9
47.6095 47.6215 875(32) 0.000977 791.6 819.0
47.6594 47.6714 792(30) 0.001082 791.2 818.4
47.7094 47.7214 829(31) 0.001031 790.8 818.2
47.7769 47.7889 799(29) 0.001150 790.3 818.5
47.8269 47.8389 790(29) 0.001153 789.9 818.8
47.8769 47.8889 765(29) 0.001197 789.5 819.4
47.9270 47.9390 818(30) 0.001144 789.1 820.2
47.9770 47.9890 823(30) 0.001106 788.7 821.2
48.0269 48.0389 815(30) 0.001109 788.3 822.4
48.0771 48.0891 751(29) 0.001218 787.9 823.8
48.1269 48.1389 775(29) 0.001180 787.5 825.8
48.1769 48.1889 823(30) 0.001103 787.1 828.6
48.2269 48.2389 826(30) 0.001106 786.7 832.2
48.2769 48.2889 815(29) 0.001152 786.3 837.1
48.3269 48.3389 784(29) 0.001199 785.9 843.9
48.3771 48.3891 823(30) 0.001149 785.5 853.2
48.4270 48.4390 782(29) 0.001213 785.1 866.1
48.4769 48.4889 897(31) 0.001014 784.8 883.5
48.5269 48.5389 891(31) 0.001027 784.4 907.2
48.5769 48.5889 912(31) 0.001019 784.0 938.7
48.6270 48.6390 961(32) 0.000959 783.6 980.1
48.6770 48.6890 947(32) 0.000961 783.2 1033.6
48.7271 48.7391 1070(34) 0.000859 782.8 1100.7
48.7771 48.7891 1128(35) 0.000817 782.4 1183.0
48.8270 48.8390 1269(37) 0.000712 782. 1281.
48.8770 48.8890 1307(38) 0.000694 782. 1395.
48.9269 48.9389 1489(40) 0.000612 781. 1522.
48.9769 48.9889 1641(43) 0.000553 781. 1660.
49.0202 49.0322 1725(42) 0.000577 780. 1782.
49.0702 49.0822 1964(45) 0.000503 780. 1921.
49.1202 49.1322 2081(46) 0.000474 780. 2047.
49.1703 49.1823 2138(47) 0.000458 779. 2152.
49.2203 49.2323 2247(48) 0.000434 779. 2225.
49.2702 49.2822 2230(48) 0.000438 779. 2257.
49.3204 49.3324 2247(48) 0.000434 778. 2244.
49.3702 49.3822 2194(47) 0.000449 778. 2185.
49.4202 49.4322 2040(45) 0.000485 777. 2086.
49.4702 49.4822 1976(45) 0.000500 777. 1956.
49.5202 49.5322 1817(43) 0.000552 777. 1810.
49.5702 49.5822 1705(41) 0.000591 776. 1660.
49.6204 49.6324 1519(39) 0.000669 776. 1516.
49.6703 49.6823 1431(38) 0.000708 775. 1389.
49.7202 49.7322 1321(36) 0.000764 775. 1282.
49.7701 49.7821 1284(35) 0.000798 775. 1200.
49.8202 49.8322 1153(33) 0.000893 774.2 1145.1
49.8703 49.8823 1145(34) 0.000886 773.8 1117.3
49.9203 49.9323 1106(33) 0.000922 773.4 1116.6
49.9704 49.9824 1110(33) 0.000923 773.0 1142.6
50.0204 50.0324 1165(34) 0.000874 772.6 1194.7
50.0703 50.0823 1295(36) 0.000780 772. 1272.
50.1203 50.1323 1307(36) 0.000774 772. 1375.
50.1702 50.1822 1412(37) 0.000714 771. 1500.
50.2202 50.2322 1542(39) 0.000656 771. 1646.
50.2503 50.2623 1640(43) 0.000541 771. 1741.
50.3004 50.3124 1926(47) 0.000453 770. 1907.
50.3503 50.3623 2102(49) 0.000414 770. 2074.
50.4004 50.4124 2303(52) 0.000376 770. 2234.
50.4504 50.4624 2434(53) 0.0003503 769. 2372.
50.5003 50.5123 2373(52) 0.000364 769. 2478.
50.5505 50.5625 2453(54) 0.0003491 768. 2539.
50.6003 50.6123 2357(52) 0.000370 768. 2548.
50.6503 50.6623 2341(52) 0.000371 768. 2503.
50.7003 50.7123 2220(50) 0.000394 767. 2409.
50.7503 50.7623 2240(51) 0.000391 767. 2277.
50.8003 50.8123 2041(48) 0.000431 766. 2125.
50.8505 50.8625 1877(46) 0.000475 766. 1968.
50.9004 50.9124 1731(44) 0.000513 766. 1825.
50.9504 50.9624 1620(43) 0.000543 765. 1708.
51.0003 51.0123 1529(41) 0.000586 765. 1627.
51.0504 51.0624 1440(40) 0.000620 765. 1590.
51.1004 51.1124 1553(42) 0.000570 764. 1602.
51.1504 51.1624 1533(42) 0.000578 764. 1662.
51.2006 51.2126 1733(44) 0.000508 763. 1769.
51.2505 51.2625 1810(45) 0.000485 763. 1917.
51.3004 51.3124 2112(49) 0.000411 763. 2098.
51.3504 51.3624 2302(52) 0.000376 762. 2301.
51.4003 51.4123 2605(55) 0.0003303 762. 2511.
51.4503 51.4623 2924(58) 0.0002929 761. 2711.
51.5161 51.5281 3170(62) 0.0002637 761. 2930.
51.5661 51.5781 3391(64) 0.0002440 760. 3039.
51.6161 51.6281 3331(63) 0.0002502 760. 3083.
51.6662 51.6782 3378(64) 0.0002453 760. 3053.
51.7161 51.7281 3267(63) 0.0002536 759. 2950.
51.7661 51.7781 3259(63) 0.0002559 759. 2784.
51.8163 51.8283 2994(60) 0.0002810 759. 2572.
51.8661 51.8781 2809(58) 0.0003016 758. 2337.
51.9160 51.9280 2591(55) 0.0003293 758. 2098.
51.9661 51.9781 2261(51) 0.000384 757. 1870.
52.0160 52.0280 2062(49) 0.000423 757. 1668.
52.0660 52.0780 1809(45) 0.000485 757. 1499.
52.1162 52.1282 1669(43) 0.000531 756. 1365.
52.1662 52.1782 1539(42) 0.000580 756. 1268.
52.2161 52.2281 1432(40) 0.000620 755. 1204.
52.2660 52.2780 1340(39) 0.000670 755. 1167.
52.3161 52.3281 1280(38) 0.000701 755. 1152.
52.3661 52.3781 1181(36) 0.000760 754. 1152.
52.4162 52.4282 1217(37) 0.000736 754. 1162.
52.4663 52.4783 1197(36) 0.000751 753. 1174.
52.5163 52.5283 1220(37) 0.000738 753. 1185.
52.5662 52.5782 1161(36) 0.000771 753. 1190.
52.6162 52.6282 1161(36) 0.000776 752. 1187.
52.6660 52.6780 1121(35) 0.000806 752. 1175.
52.7161 52.7281 1149(36) 0.000790 751. 1155.
52.7866 52.7986 1093(32) 0.000950 750.9 1116.8
52.8366 52.8486 1057(32) 0.000969 750.5 1086.7
52.8866 52.8986 1093(32) 0.000953 750.1 1057.8
52.9367 52.9487 1016(31) 0.001026 749.7 1032.9
52.9866 52.9986 964(30) 0.001083 749.3 1014.4
53.0366 53.0486 1021(31) 0.001017 749.0 1003.5
53.0868 53.0988 1013(31) 0.001029 748.6 1000.7
53.1366 53.1486 1017(31) 0.001026 748.2 1005.4
53.1865 53.1985 1082(32) 0.000961 747.8 1016.1
53.2365 53.2485 1030(31) 0.001015 747.4 1030.5
53.2865 53.2985 1051(32) 0.000991 747.0 1046.0
53.3366 53.3486 1091(32) 0.000957 746.6 1059.8
53.3867 53.3987 1082(32) 0.000963 746.2 1068.9
53.4367 53.4487 1041(31) 0.001010 745.8 1071.0
53.4866 53.4986 1108(33) 0.000924 745.4 1064.5
53.5365 53.5485 1078(32) 0.000977 745.0 1049.3
53.5866 53.5986 1097(32) 0.000954 744.7 1026.3
53.6366 53.6486 1029(31) 0.001012 744.3 997.6
53.6867 53.6987 961(30) 0.001100 743.9 965.8
53.7368 53.7488 959(30) 0.001099 743.5 933.4
53.7868 53.7988 898(29) 0.001174 743.1 902.4
53.8367 53.8487 854(29) 0.001222 742.7 874.5
53.8867 53.8987 867(29) 0.001211 742.3 850.4
53.9365 53.9485 865(29) 0.001217 741.9 830.7
53.9866 53.9986 802(27) 0.001323 741.5 814.8
54.0197 54.0317 818(28) 0.001322 741.3 806.4
54.0697 54.0817 808(27) 0.001340 740.9 795.1
54.1197 54.1317 753(26) 0.001445 740.5 788.0
54.1698 54.1818 771(27) 0.001405 740.1 783.4
54.2197 54.2317 806(27) 0.001342 739.7 780.0
54.2697 54.2817 757(26) 0.001437 739.3 777.9
54.3199 54.3319 751(26) 0.001446 738.9 776.6
54.3697 54.3817 733(26) 0.001490 738.6 776.9
54.4196 54.4316 784(27) 0.001391 738.2 776.7
54.4696 54.4816 783(27) 0.001391 737.8 777.0
54.5196 54.5316 803(27) 0.001348 737.4 777.6
54.5696 54.5816 747(26) 0.001459 737.0 778.7
54.6198 54.6318 725(26) 0.001506 736.6 780.3
54.6698 54.6818 765(26) 0.001425 736.2 782.6
54.7197 54.7317 812(27) 0.001336 735.8 785.9
54.7696 54.7816 783(27) 0.001396 735.4 790.6
54.8197 54.8317 794(27) 0.001369 735.1 797.3
54.8697 54.8817 832(28) 0.001300 734.7 807.0
54.9197 54.9317 773(27) 0.001410 734.3 820.7
54.9699 54.9819 853(28) 0.001270 733.9 840.0
55.0198 55.0318 872(28) 0.001237 733.5 866.6
55.0698 55.0818 890(29) 0.001210 733.1 902.8
55.1198 55.1318 920(29) 0.001175 732.7 950.7
55.1696 55.1816 1031(31) 0.001043 732.3 1012.3
55.2197 55.2317 1065(31) 0.001011 732.0 1089.9
55.2519 55.2639 1075(33) 0.000933 731.7 1148.5
55.3019 55.3139 1281(36) 0.000775 731. 1253.
55.3519 55.3639 1403(38) 0.000710 731. 1370.
55.4019 55.4139 1526(39) 0.000650 731. 1500.
55.4519 55.4639 1699(42) 0.000576 730. 1634.
55.5019 55.5139 1850(43) 0.000531 730. 1766.
55.5520 55.5640 1972(45) 0.000496 729. 1887.
55.6019 55.6139 2120(46) 0.000463 729. 1987.
55.6518 55.6638 2100(46) 0.000464 729. 2057.
55.7018 55.7138 2137(47) 0.000459 728. 2092.
55.7518 55.7638 2063(46) 0.000477 728. 2090.
55.8018 55.8138 2056(46) 0.000478 727. 2055.
55.8520 55.8640 2046(46) 0.000481 727. 1995.
55.9020 55.9140 1951(44) 0.000507 727. 1923.
55.9519 55.9639 1960(45) 0.000500 726. 1850.
56.0018 56.0138 1783(42) 0.000558 726. 1786.
56.0519 56.0639 1778(42) 0.000560 726. 1736.
56.1019 56.1139 1739(42) 0.000571 725. 1703.
56.1519 56.1639 1671(41) 0.000598 725. 1687.
56.2021 56.2141 1750(42) 0.000569 724. 1685.
56.2520 56.2640 1720(42) 0.000576 724. 1691.
56.3020 56.3140 1721(42) 0.000578 724. 1699.
56.3519 56.3639 1705(42) 0.000580 723. 1705.
56.4018 56.4138 1748(42) 0.000569 723. 1700.
56.4519 56.4639 1634(40) 0.000612 722. 1685.
56.5081 56.5201 1650(41) 0.000598 722. 1651.
56.5581 56.5701 1573(40) 0.000628 722. 1602.
56.6081 56.6201 1492(39) 0.000665 721. 1537.
56.6581 56.6701 1465(38) 0.000677 721. 1458.
56.7081 56.7201 1351(37) 0.000736 720. 1372.
56.7581 56.7701 1307(36) 0.000762 720. 1283.
56.8082 56.8202 1201(35) 0.000833 719.7 1197.3
56.8581 56.8701 1109(33) 0.000913 719.3 1118.7
56.9080 56.9200 991(31) 0.001017 718.9 1049.8
56.9580 56.9700 985(31) 0.001027 718.5 991.5
57.0080 57.0200 923(30) 0.001099 718.2 944.2
57.0580 57.0700 870(29) 0.001178 717.8 906.7
57.1082 57.1202 822(28) 0.001237 717.4 877.7
57.1582 57.1702 828(28) 0.001235 717.0 855.6
57.2081 57.2201 865(29) 0.001177 716.6 839.0
57.2580 57.2700 818(28) 0.001249 716.2 826.5
57.3081 57.3201 760(27) 0.001345 715.9 817.4
57.3581 57.3701 850(29) 0.001196 715.5 811.8
57.4081 57.4201 801(28) 0.001282 715.1 809.4
57.4583 57.4703 774(28) 0.001315 714.7 810.1
57.5082 57.5202 825(29) 0.001231 714.3 814.2
57.5581 57.5701 853(29) 0.001192 713.9 821.6
57.6081 57.6201 784(28) 0.001301 713.6 832.0
57.6580 57.6700 843(29) 0.001209 713.2 844.8
57.7080 57.7200 846(29) 0.001209 712.8 859.4
57.7694 57.7814 845(29) 0.001184 712.3 878.1
57.8194 57.8314 859(29) 0.001162 712.0 892.5
57.8693 57.8813 902(30) 0.001107 711.6 904.8
57.9194 57.9314 851(29) 0.001178 711.2 913.8
57.9694 57.9814 895(30) 0.001119 710.8 919.0
58.0194 58.0314 862(29) 0.001169 710.4 920.4
58.0695 58.0815 881(30) 0.001132 710.0 919.0
58.1194 58.1314 868(29) 0.001163 709.7 916.8
58.1693 58.1813 898(30) 0.001112 709.3 916.2
58.2193 58.2313 922(30) 0.001090 708.9 919.7
58.2693 58.2813 918(30) 0.001088 708.5 930.5
58.3193 58.3313 901(30) 0.001117 708.1 950.6
58.3695 58.3815 1002(32) 0.000996 707.8 982.4
58.4194 58.4314 1039(32) 0.000959 707.4 1027.0
58.4694 58.4814 1087(33) 0.000913 707.0 1085.8
58.5193 58.5313 1192(35) 0.000835 706.6 1159.0
58.5694 58.5814 1233(35) 0.000798 706. 1247.
58.6194 58.6314 1398(38) 0.000702 706. 1347.
58.6694 58.6814 1450(38) 0.000677 705. 1459.
58.7196 58.7316 1537(40) 0.000636 705. 1579.
58.7695 58.7815 1698(42) 0.000572 705. 1703.
58.8194 58.8314 1853(44) 0.000518 704. 1826.
58.8694 58.8814 1896(44) 0.000509 704. 1942.
58.9193 58.9313 2083(47) 0.000461 704. 2045.
58.9693 58.9813 2204(48) 0.000436 703. 2128.
59.0179 59.0299 2189(48) 0.000425 703. 2181.
59.0679 59.0799 2219(49) 0.000419 702. 2203.
59.1179 59.1299 2179(48) 0.000429 702. 2187.
59.1680 59.1800 2120(48) 0.000442 702. 2131.
59.2180 59.2300 1949(46) 0.000482 701. 2037.
59.2679 59.2799 1894(45) 0.000498 701. 1912.
59.3181 59.3301 1721(43) 0.000552 701. 1766.
59.3679 59.3799 1613(41) 0.000595 700. 1611.
59.4178 59.4298 1532(40) 0.000624 700. 1458.
59.4679 59.4799 1366(38) 0.000707 699. 1314.
59.5179 59.5299 1184(35) 0.000824 699.1 1187.6
59.5679 59.5799 1138(34) 0.000860 698.7 1080.5
59.6180 59.6300 985(32) 0.000996 698.3 994.0
59.6680 59.6800 948(31) 0.001040 697.9 927.6
59.7179 59.7299 870(30) 0.001124 697.6 879.6
59.7678 59.7798 829(29) 0.001195 697.2 847.3
59.8179 59.8299 847(29) 0.001163 696.8 828.3
59.8680 59.8800 793(28) 0.001241 696.4 820.5
59.9180 59.9300 815(29) 0.001214 696.1 822.1
59.9681 59.9801 812(29) 0.001213 695.7 831.4
60.0181 60.0301 817(29) 0.001199 695.3 847.2
60.0680 60.0800 892(30) 0.001095 694.9 868.1
60.1180 60.1300 831(29) 0.001187 694.6 892.7
60.1679 60.1799 884(30) 0.001111 694.2 919.5
60.2179 60.2299 922(31) 0.001065 693.8 946.6
60.2578 60.2698 956(31) 0.001074 693.5 967.1
60.3079 60.3199 955(31) 0.001065 693.1 989.9
60.3578 60.3698 981(31) 0.001048 692.8 1008.0
60.4079 60.4199 927(30) 0.001107 692.4 1020.8
60.4579 60.4699 996(31) 0.001018 692.0 1027.8
60.5078 60.5198 1044(32) 0.000971 691.6 1033.2
60.5580 60.5700 994(31) 0.001025 691.3 1038.2
60.6078 60.6198 1058(32) 0.000963 690.9 1046.0
60.6578 60.6698 1044(32) 0.000984 690.5 1059.3
60.7078 60.7198 987(31) 0.001039 690.1 1079.1
60.7578 60.7698 1044(32) 0.000969 689.8 1105.1
60.8078 60.8198 1107(33) 0.000929 689.4 1135.2
60.8580 60.8700 1154(34) 0.000888 689.0 1166.0
60.9079 60.9199 1259(35) 0.000814 688.7 1192.9
60.9579 60.9699 1251(35) 0.000808 688. 1211.
61.0078 61.0198 1169(34) 0.000875 687.9 1216.6
61.0579 61.0699 1197(34) 0.000857 687.5 1206.6
61.1079 61.1199 1212(35) 0.000838 687.2 1180.7
61.1579 61.1699 1156(34) 0.000876 686.8 1141.3
61.2081 61.2201 1160(34) 0.000886 686.4 1092.1
61.2580 61.2700 1068(32) 0.000962 686.1 1039.0
61.3079 61.3199 1080(33) 0.000943 685.7 985.5
61.3579 61.3699 1067(32) 0.000962 685.3 935.7
61.4078 61.4198 1069(32) 0.000950 684.9 891.8
61.4578 61.4698 974(31) 0.001063 684.6 854.7
61.4973 61.5093 990(36) 0.000777 684. 830.
61.5474 61.5594 967(36) 0.000773 684. 805.
61.5973 61.6093 981(35) 0.000817 683.5 785.3
61.6474 61.6594 982(35) 0.000812 683. 770.
61.6974 61.7094 950(34) 0.000848 682.8 757.0
61.7473 61.7593 922(34) 0.000885 682.4 746.9
61.7975 61.8095 912(35) 0.000821 682.1 737.8
61.8473 61.8593 949(35) 0.000839 681.7 729.9
61.8973 61.9093 913(34) 0.000874 681.3 722.9
61.9473 61.9593 871(33) 0.000913 681.0 716.9
61.9973 62.0093 805(32) 0.000977 680.6 711.8
62.0473 62.0593 851(33) 0.000908 680.2 707.5
62.0975 62.1095 803(32) 0.000990 679.9 703.9
62.1474 62.1594 777(31) 0.001034 679.5 701.0
62.1974 62.2094 762(31) 0.001058 679.1 698.6
62.2473 62.2593 729(30) 0.001108 678.8 696.8
62.2974 62.3094 748(31) 0.001010 678.4 695.4
62.3474 62.3594 691(29) 0.001150 678.0 694.2
62.3974 62.4094 691(29) 0.001198 677.6 693.3
62.4476 62.4596 685(30) 0.001130 677.3 692.6
62.4975 62.5095 671(29) 0.001188 676.9 692.1
62.5474 62.5594 662(29) 0.001217 676.6 691.9
62.5974 62.6094 641(29) 0.001191 676.2 691.7
62.6473 62.6593 632(28) 0.001279 675.8 691.9
62.6973 62.7093 642(28) 0.001253 675.5 692.2
62.7392 62.7512 644(29) 0.001205 675.1 693.1
62.7892 62.8012 714(31) 0.001074 674.8 694.7
62.8392 62.8512 709(30) 0.001119 674.4 697.4
62.8893 62.9013 717(30) 0.001090 674.1 701.4
62.9393 62.9513 667(29) 0.001195 673.7 707.0
62.9892 63.0012 677(29) 0.001161 673.3 714.6
63.0394 63.0514 761(31) 0.001043 673.0 724.6
63.0892 63.1012 713(31) 0.001071 672.6 737.1
63.1392 63.1512 759(31) 0.001011 672.2 752.5
63.1892 63.2012 694(30) 0.001128 671.9 769.5
63.2392 63.2512 755(30) 0.001081 671.5 787.9
63.2892 63.3012 767(32) 0.001008 671.1 806.4
63.3394 63.3514 842(34) 0.000885 670.8 823.6
63.3893 63.4013 829(32) 0.000966 670.4 837.8
63.4393 63.4513 815(33) 0.000930 670.1 847.2
63.4892 63.5012 823(32) 0.000958 669.7 850.9
63.5393 63.5513 801(33) 0.000947 669.3 847.9
63.5893 63.6013 818(33) 0.000924 669.0 838.6
63.6393 63.6513 821(32) 0.000991 668.6 824.2
63.6894 63.7014 774(31) 0.001035 668.2 805.9
63.7394 63.7514 726(31) 0.001053 667.9 786.6
63.7893 63.8013 684(29) 0.001192 667.5 767.4
63.8393 63.8513 741(31) 0.001045 667.2 749.5
63.8892 63.9012 726(30) 0.001099 666.8 732.9
63.9392 63.9512 699(29) 0.001159 666.4 719.8
63.9790 63.9910 673(27) 0.001337 666.2 711.4
64.0290 64.0410 686(27) 0.001330 665.8 703.0
64.0790 64.0910 699(28) 0.001282 665.4 697.0
64.1291 64.1411 674(27) 0.001348 665.1 692.9
64.1790 64.1910 702(28) 0.001289 664.7 690.2
64.2290 64.2410 657(27) 0.001366 664.4 688.8
64.2792 64.2912 716(28) 0.001261 664.0 688.3
64.3290 64.3410 670(27) 0.001369 663.6 688.6
64.3789 64.3909 728(28) 0.001251 663.3 689.7
64.4289 64.4409 728(28) 0.001235 662.9 691.7
64.4789 64.4909 711(28) 0.001283 662.6 695.0
64.5289 64.5409 690(28) 0.001318 662.2 700.0
64.5791 64.5911 744(29) 0.001225 661.8 708.1
64.6291 64.6411 735(28) 0.001248 661.5 719.0
64.6790 64.6910 700(28) 0.001313 661.1 734.4
64.7289 64.7409 733(28) 0.001240 660.8 755.8
64.7790 64.7910 732(28) 0.001261 660.4 784.6
64.8290 64.8410 796(30) 0.001116 660.1 821.8
64.8790 64.8910 812(30) 0.001134 659.7 868.4
64.9292 64.9412 881(31) 0.001026 659.4 924.6
64.9792 64.9912 990(33) 0.000912 659.0 988.8
65.0291 65.0411 1075(35) 0.000835 658.6 1058.9
65.0790 65.0910 1132(36) 0.000792 658. 1131.
65.1289 65.1409 1180(36) 0.000761 658. 1201.
65.1790 65.1910 1248(37) 0.000714 658. 1262.
65.2244 65.2364 1219(36) 0.000756 657. 1306.
65.2744 65.2864 1276(37) 0.000718 657. 1336.
65.3243 65.3363 1313(38) 0.000695 657. 1344.
65.3744 65.3864 1321(38) 0.000684 656. 1330.
65.4244 65.4364 1276(38) 0.000708 656. 1295.
65.4744 65.4864 1262(37) 0.000716 655. 1246.
65.5245 65.5365 1153(36) 0.000789 655. 1186.
65.5744 65.5864 1085(34) 0.000848 654.8 1121.0
65.6243 65.6363 998(33) 0.000927 654.4 1055.5
65.6743 65.6863 945(32) 0.000980 654.1 993.1
65.7243 65.7363 923(32) 0.000997 653.7 937.0
65.7743 65.7863 902(31) 0.001045 653.4 889.3
65.8245 65.8365 830(30) 0.001122 653.0 852.1
65.8745 65.8865 806(29) 0.001150 652.7 826.4
65.9244 65.9364 791(29) 0.001183 652.3 812.6
65.9743 65.9863 727(28) 0.001276 652.0 810.9
66.0244 66.0364 803(29) 0.001158 651.6 821.8
66.0744 66.0864 818(30) 0.001127 651.3 845.2
66.1244 66.1364 878(30) 0.001080 650.9 881.0
66.1746 66.1866 902(31) 0.001012 650.6 928.3
66.2245 66.2365 972(33) 0.000935 650.2 984.9
66.2744 66.2864 1069(34) 0.000842 649.9 1048.1
66.3244 66.3364 1087(35) 0.000837 649.5 1113.9
66.3743 66.3863 1213(36) 0.000761 649. 1177.
66.4244 66.4364 1225(37) 0.000750 649. 1231.
66.4823 66.4943 1253(34) 0.000868 648.4 1276.3
66.5323 66.5443 1243(34) 0.000879 648.1 1293.9
66.5823 66.5943 1282(34) 0.000853 647.7 1289.8
66.6323 66.6443 1302(35) 0.000836 647.4 1264.8
66.6823 66.6943 1239(34) 0.000883 647.0 1223.0
66.7323 66.7443 1156(32) 0.000950 646.7 1170.5
66.7824 66.7944 1156(32) 0.000950 646.3 1113.5
66.8323 66.8443 1118(32) 0.000991 646.0 1058.5
66.8822 66.8942 1042(31) 0.001058 645.6 1009.6
66.9322 66.9442 990(30) 0.001116 645.3 970.1
66.9822 66.9942 986(30) 0.001125 644.9 942.0
67.0322 67.0442 921(29) 0.001207 644.6 926.0
67.0824 67.0944 910(29) 0.001224 644.2 921.3
67.1324 67.1444 937(29) 0.001190 643.9 926.4
67.1823 67.1943 989(30) 0.001117 643.6 939.0
67.2322 67.2442 886(28) 0.001257 643.2 956.7
67.2823 67.2943 962(29) 0.001159 642.9 977.3
67.3323 67.3443 992(30) 0.001111 642.5 998.8
67.3823 67.3943 987(30) 0.001128 642.2 1020.7
67.4325 67.4445 972(30) 0.001144 641.8 1043.6
67.4824 67.4944 1042(31) 0.001058 641.5 1068.9
67.5323 67.5443 1070(31) 0.001031 641.2 1098.6
67.5823 67.5943 1142(32) 0.000964 640.8 1134.1
67.6322 67.6442 1150(32) 0.000959 640.5 1175.4
67.6822 67.6942 1194(33) 0.000921 640.1 1221.3
67.7457 67.7577 1293(35) 0.000814 639.7 1281.6
67.7957 67.8077 1351(36) 0.000777 639. 1325.
67.8457 67.8577 1404(37) 0.000746 639. 1359.
67.8958 67.9078 1373(36) 0.000762 639. 1378.
67.9458 67.9578 1377(36) 0.000761 638. 1376.
67.9957 68.0077 1420(37) 0.000737 638. 1350.
68.0459 68.0579 1280(35) 0.000817 637.6 1302.4
68.0957 68.1077 1268(35) 0.000837 637.3 1237.2
68.1457 68.1577 1188(33) 0.000892 637.0 1160.7
68.1957 68.2077 1142(33) 0.000930 636.6 1080.2
68.2457 68.2577 1032(31) 0.001038 636.3 1001.7
68.2957 68.3077 919(29) 0.001168 635.9 930.0
68.3459 68.3579 920(29) 0.001170 635.6 867.6
68.3958 68.4078 804(27) 0.001344 635.3 816.5
68.4457 68.4577 850(28) 0.001259 634.9 776.4
68.4956 68.5076 703(25) 0.001540 634.6 746.3
68.5457 68.5577 705(26) 0.001531 634.3 725.3
68.5958 68.6078 739(26) 0.001452 633.9 711.7
68.6458 68.6578 681(25) 0.001590 633.6 704.8
68.6959 68.7079 674(25) 0.001604 633.2 703.4
68.7459 68.7579 679(25) 0.001591 632.9 707.7
68.7958 68.8078 689(25) 0.001564 632.6 718.1
68.8458 68.8578 709(26) 0.001522 632.2 735.6
68.8957 68.9077 750(26) 0.001436 631.9 761.4
68.9457 68.9577 750(26) 0.001439 631.6 797.1
69.0137 69.0257 776(27) 0.001392 631.1 862.8
69.0637 69.0757 885(29) 0.001204 630.8 923.9
69.1137 69.1257 978(30) 0.001097 630.4 994.1
69.1638 69.1758 1108(32) 0.000959 630.1 1070.4
69.2138 69.2258 1193(33) 0.000895 629.8 1147.5
69.2637 69.2757 1298(35) 0.000821 629.4 1218.8
69.3139 69.3259 1282(35) 0.000829 629.1 1277.4
69.3637 69.3757 1275(34) 0.000842 628.8 1315.4
69.4137 69.4257 1296(35) 0.000823 628.4 1327.7
69.4637 69.4757 1350(36) 0.000790 628. 1312.
69.5136 69.5256 1325(35) 0.000807 628. 1272.
69.5637 69.5757 1287(35) 0.000832 627.4 1214.1
69.6139 69.6259 1165(33) 0.000923 627.1 1145.9
69.6638 69.6758 1163(33) 0.000926 626.8 1076.4
69.7137 69.7257 1029(31) 0.001045 626.4 1011.9
69.7636 69.7756 990(30) 0.001092 626.1 956.8
69.8137 69.8257 892(29) 0.001222 625.8 913.2
69.8638 69.8758 910(29) 0.001181 625.5 881.5
69.9138 69.9258 910(29) 0.001191 625.1 860.1
69.9639 69.9759 916(29) 0.001186 624.8 846.2
70.0139 70.0259 859(28) 0.001266 624.5 836.5
70.0638 70.0758 863(28) 0.001256 624.1 827.1
70.1138 70.1258 806(27) 0.001354 623.8 816.2
70.1637 70.1757 796(27) 0.001365 623.5 802.1
70.2137 70.2257 827(28) 0.001310 623.1 784.7
70.2475 70.2595 790(27) 0.001396 622.9 771.6
70.2975 70.3095 736(26) 0.001505 622.6 750.9
70.3475 70.3595 777(27) 0.001423 622.3 730.4
70.3976 70.4096 687(25) 0.001614 621.9 711.1
70.4476 70.4596 674(25) 0.001644 621.6 693.8
70.4975 70.5095 640(24) 0.001729 621.3 679.0
70.5477 70.5597 665(24) 0.001669 621.0 666.9
70.5975 70.6095 646(24) 0.001726 620.6 657.4
70.6475 70.6595 686(25) 0.001618 620.3 650.1
70.6975 70.7095 631(24) 0.001770 620.0 644.6
70.7474 70.7594 623(24) 0.001792 619.7 640.6
70.7975 70.8095 589(23) 0.001899 619.3 637.6
70.8476 70.8596 612(23) 0.001831 619.0 635.4
70.8976 70.9096 608(23) 0.001842 618.7 633.7
70.9475 70.9595 624(24) 0.001782 618.4 632.7
70.9974 71.0094 622(24) 0.001799 618.0 631.7
71.0475 71.0595 608(23) 0.001850 617.7 630.8
71.0976 71.1096 621(24) 0.001797 617.4 630.0
71.1476 71.1596 608(23) 0.001847 617.1 629.8
71.1977 71.2097 618(24) 0.001805 616.8 629.2
71.2477 71.2597 636(24) 0.001749 616.4 629.0
71.2976 71.3096 560(22) 0.001989 616.1 628.5
71.3476 71.3596 592(23) 0.001887 615.8 628.6
71.3975 71.4095 600(23) 0.001863 615.5 628.9
71.4475 71.4595 576(23) 0.001951 615.1 629.3
71.4783 71.4903 606(24) 0.001733 614.9 629.7
71.5283 71.5403 606(24) 0.001752 614.6 630.3
71.5783 71.5903 581(23) 0.001831 614.3 630.8
71.6284 71.6404 602(24) 0.001762 614.0 631.2
71.6783 71.6903 621(24) 0.001706 613.7 631.4
71.7283 71.7403 596(24) 0.001788 613.4 631.3
71.7785 71.7905 602(24) 0.001773 613.0 630.9
71.8283 71.8403 602(24) 0.001783 612.7 630.1
71.8782 71.8902 572(23) 0.001869 612.4 629.1
71.9282 71.9402 585(23) 0.001822 612.1 628.0
71.9782 71.9902 591(24) 0.001809 611.8 626.8
72.0282 72.0402 600(24) 0.001799 611.4 625.8
72.0784 72.0904 629(24) 0.001708 611.1 624.7
72.1284 72.1404 591(23) 0.001826 610.8 624.0
72.1783 72.1903 572(23) 0.001869 610.5 623.5
72.2282 72.2402 615(24) 0.001755 610.2 623.3
72.2783 72.2903 597(24) 0.001803 609.9 623.3
72.3283 72.3403 628(24) 0.001706 609.5 623.7
72.3784 72.3904 606(24) 0.001777 609.2 624.3
72.4285 72.4405 616(24) 0.001746 608.9 625.4
72.4785 72.4905 662(25) 0.001612 608.6 626.9
72.5284 72.5404 641(24) 0.001673 608.3 629.1
72.5784 72.5904 628(24) 0.001689 608.0 632.1
72.6282 72.6402 592(23) 0.001815 607.7 636.1
72.6783 72.6903 639(24) 0.001680 607.3 641.0
72.7443 72.7563 632(24) 0.001739 606.9 651.3
72.7943 72.8063 685(25) 0.001594 606.6 662.3
72.8443 72.8563 704(25) 0.001555 606.3 677.2
72.8944 72.9064 725(26) 0.001509 606.0 697.0
72.9443 72.9563 726(26) 0.001502 605.7 722.7
72.9943 73.0063 735(26) 0.001479 605.4 755.1
73.0444 73.0564 810(27) 0.001345 605.1 794.6
73.0943 73.1063 847(28) 0.001288 604.8 840.3
73.1442 73.1562 931(29) 0.001171 604.4 890.7
73.1942 73.2062 976(30) 0.001116 604.1 942.9
73.2442 73.2562 1020(31) 0.001065 603.8 992.6
73.2942 73.3062 1089(32) 0.001000 603.5 1035.2
73.3444 73.3564 1086(32) 0.001001 603.2 1064.2
73.3944 73.4064 1053(31) 0.001033 602.9 1075.7
73.4443 73.4563 1029(31) 0.001058 602.6 1067.7
73.4942 73.5062 1023(31) 0.001072 602.3 1041.2
73.5443 73.5563 1008(30) 0.001085 602.0 999.7
73.5943 73.6063 980(30) 0.001110 601.7 948.9
73.6443 73.6563 874(28) 0.001246 601.4 894.1
73.6945 73.7065 873(28) 0.001246 601.1 840.0
73.7444 73.7564 824(27) 0.001328 600.7 791.3
73.7944 73.8064 737(26) 0.001491 600.4 748.4
73.8444 73.8564 723(26) 0.001519 600.1 713.1
73.8942 73.9062 721(26) 0.001521 599.8 685.5
73.9443 73.9563 680(25) 0.001634 599.5 664.5
73.9839 73.9959 657(24) 0.001684 599.3 652.0
74.0339 74.0459 626(24) 0.001746 599.0 640.5
74.0839 74.0959 592(23) 0.001864 598.7 632.6
74.1339 74.1459 634(24) 0.001752 598.4 626.8
74.1839 74.1959 613(24) 0.001811 598.1 623.3
74.2339 74.2459 621(24) 0.001788 597.8 621.0
74.2840 74.2960 579(23) 0.001920 597.5 619.5
74.3339 74.3459 575(23) 0.001948 597.2 618.6
74.3838 74.3958 625(24) 0.001785 596.9 618.2
74.4338 74.4458 588(23) 0.001904 596.6 618.3
74.4838 74.4958 653(24) 0.001695 596.3 619.7
74.5338 74.5458 600(23) 0.001874 596.0 620.9
74.5840 74.5960 575(23) 0.001948 595.7 622.2
74.6340 74.6460 665(24) 0.001676 595.4 623.7
74.6839 74.6959 634(24) 0.001752 595.1 625.6
74.7338 74.7458 654(24) 0.001682 594.8 627.8
74.7839 74.7959 694(25) 0.001614 594.5 630.1
74.8339 74.8459 674(25) 0.001644 594.2 632.4
74.8839 74.8959 645(24) 0.001732 593.9 634.9
74.9341 74.9461 641(24) 0.001745 593.6 637.7
74.9840 74.9960 648(24) 0.001716 593.3 640.9
75.0340 75.0460 690(25) 0.001605 593.0 645.3
75.0839 75.0959 635(24) 0.001754 592.7 651.6
75.1338 75.1458 702(25) 0.001568 592.4 661.0
75.1839 75.1959 700(25) 0.001576 592.1 675.1
75.2200 75.2320 704(26) 0.001535 591.9 689.1
75.2700 75.2820 764(27) 0.001414 591.6 715.3
75.3200 75.3320 772(27) 0.001404 591.3 750.8
75.3701 75.3821 798(27) 0.001359 591.0 797.0
75.4201 75.4321 842(28) 0.001279 590.7 854.5
75.4700 75.4820 950(30) 0.001134 590.4 922.8
75.5202 75.5322 1037(31) 0.001032 590.1 1000.6
75.5700 75.5820 1004(31) 0.001074 589.8 1083.2
75.6200 75.6320 1134(33) 0.000943 589.5 1166.2
75.6700 75.6820 1258(34) 0.000845 589.2 1242.7
75.7200 75.7320 1352(36) 0.000788 589. 1305.
75.7700 75.7820 1359(36) 0.000786 589. 1348.
75.8202 75.8322 1362(36) 0.000783 588. 1368.
75.8701 75.8821 1417(36) 0.000752 588. 1363.
75.9200 75.9320 1390(36) 0.000763 588. 1335.
75.9699 75.9819 1307(35) 0.000814 587.5 1286.4
76.0201 76.0321 1199(33) 0.000895 587.2 1221.4
76.0701 76.0821 1149(33) 0.000933 586.9 1146.1
76.1201 76.1321 1083(32) 0.000998 586.6 1067.1
76.1702 76.1822 1080(32) 0.000995 586.3 990.0
76.2202 76.2322 997(30) 0.001081 586.0 919.4
76.2701 76.2821 940(29) 0.001150 585.7 857.8
76.3201 76.3321 918(29) 0.001174 585.4 805.7
76.3700 76.3820 923(29) 0.001173 585.1 763.1
76.4200 76.4320 892(29) 0.001221 584.9 729.0
76.4696 76.4816 835(29) 0.001213 584.6 702.3
76.5196 76.5316 793(28) 0.001269 584.3 681.4
76.5696 76.5816 818(29) 0.001222 584.0 665.5
76.6197 76.6317 792(28) 0.001284 583.7 653.4
76.6697 76.6817 754(27) 0.001326 583.4 644.3
76.7196 76.7316 734(27) 0.001383 583.1 637.7
76.7698 76.7818 683(26) 0.001463 582.9 632.8
76.8196 76.8316 679(26) 0.001495 582.6 629.3
76.8696 76.8816 657(25) 0.001554 582.3 627.2
76.9196 76.9316 616(24) 0.001669 582.0 625.9
76.9696 76.9816 658(25) 0.001554 581.7 625.3
77.0196 77.0316 651(25) 0.001572 581.4 625.3
77.0698 77.0818 631(25) 0.001615 581.2 626.0
77.1197 77.1317 600(24) 0.001706 580.9 627.2
77.1696 77.1816 613(25) 0.001666 580.6 629.0
77.2195 77.2315 582(24) 0.001764 580.3 631.6
77.2697 77.2817 644(25) 0.001564 580.0 635.4
77.3197 77.3317 652(25) 0.001554 579.7 640.7
77.3697 77.3817 614(25) 0.001646 579.5 648.4
77.4198 77.4318 682(26) 0.001500 579.2 659.8
77.4698 77.4818 632(25) 0.001622 578.9 676.3
77.5197 77.5317 692(26) 0.001469 578.6 700.2
77.5697 77.5817 754(27) 0.001348 578.3 734.0
77.6196 77.6316 777(28) 0.001311 578.1 780.3
77.6696 77.6816 794(28) 0.001285 577.8 841.6
77.7287 77.7407 942(30) 0.001079 577.5 935.0
77.7787 77.7907 1012(31) 0.001010 577.2 1031.7
77.8286 77.8406 1119(33) 0.000907 576.9 1142.0
77.8787 77.8907 1311(36) 0.000769 577. 1262.
77.9287 77.9407 1370(37) 0.000733 576. 1383.
77.9787 77.9907 1490(39) 0.000675 576. 1496.
78.0288 78.0408 1465(38) 0.000684 576. 1591.
78.0786 78.0906 1619(41) 0.000610 576. 1659.
78.1286 78.1406 1581(40) 0.000626 575. 1697.
78.1786 78.1906 1548(39) 0.000643 575. 1708.
78.2286 78.2406 1536(39) 0.000653 575. 1702.
78.2786 78.2906 1627(40) 0.000615 574. 1687.
78.3288 78.3408 1618(40) 0.000618 574. 1673.
78.3788 78.3908 1598(40) 0.000620 574. 1663.
78.4287 78.4407 1618(40) 0.000614 574. 1655.
78.4786 78.4906 1553(39) 0.000645 573. 1645.
78.5287 78.5407 1574(40) 0.000629 573. 1626.
78.5787 78.5907 1569(40) 0.000633 573. 1595.
78.6287 78.6407 1519(39) 0.000657 573. 1555.
78.6789 78.6909 1531(39) 0.000652 572. 1513.
78.7288 78.7408 1468(38) 0.000681 572. 1481.
78.7787 78.7907 1482(39) 0.000669 572. 1466.
78.8287 78.8407 1451(38) 0.000691 571. 1478.
78.8786 78.8906 1408(38) 0.000711 571. 1520.
78.9286 78.9406 1527(39) 0.000662 571. 1595.
78.9806 78.9926 1626(39) 0.000648 571. 1705.
79.0306 79.0426 1709(40) 0.000612 570. 1837.
79.0806 79.0926 1962(43) 0.000532 570. 1984.
79.1307 79.1427 2178(46) 0.000475 570. 2133.
79.1806 79.1926 2213(46) 0.000466 570. 2262.
79.2306 79.2426 2345(48) 0.000438 569. 2350.
79.2808 79.2928 2278(47) 0.000452 569. 2377.
79.3306 79.3426 2251(47) 0.000462 569. 2335.
79.3806 79.3926 2159(46) 0.000479 568. 2226.
79.4305 79.4425 2111(45) 0.000492 568. 2068.
79.4805 79.4925 1910(43) 0.000548 568. 1880.
79.5306 79.5426 1703(40) 0.000620 568. 1683.
79.5807 79.5927 1554(38) 0.000684 567. 1494.
79.6307 79.6427 1293(35) 0.000825 567.1 1327.2
79.6806 79.6926 1262(34) 0.000850 566.9 1188.1
79.7305 79.7425 1123(32) 0.000965 566.6 1078.8
79.7806 79.7926 1063(31) 0.001021 566.3 997.4
79.8307 79.8427 965(30) 0.001124 566.1 939.9
79.8807 79.8927 903(29) 0.001212 565.8 902.2
79.9308 79.9428 833(28) 0.001318 565.6 876.9
79.9808 79.9928 834(28) 0.001305 565.3 859.9
80.0307 80.0427 802(27) 0.001362 565.0 847.3
80.0807 80.0927 786(27) 0.001392 564.8 834.3
80.1306 80.1426 769(26) 0.001427 564.5 818.6
80.1806 80.1926 782(27) 0.001396 564.2 798.9
80.2200 80.2320 769(27) 0.001333 564.0 780.9
80.2700 80.2820 736(27) 0.001398 563.8 756.1
80.3200 80.3320 695(26) 0.001491 563.5 730.8
80.3701 80.3821 691(26) 0.001487 563.3 706.5
80.4200 80.4320 687(26) 0.001502 563.0 685.1
80.4700 80.4820 697(26) 0.001477 562.7 665.8
80.5202 80.5322 581(24) 0.001786 562.5 650.3
80.5700 80.5820 642(25) 0.001613 562.2 638.1
80.6199 80.6319 574(23) 0.001814 562.0 628.9
80.6699 80.6819 608(24) 0.001713 561.7 621.9
80.7199 80.7319 618(24) 0.001687 561.5 617.1
80.7699 80.7819 599(24) 0.001745 561.2 613.8
80.8201 80.8321 625(24) 0.001671 561.0 611.4
80.8701 80.8821 590(24) 0.001774 560.7 609.8
80.9200 80.9320 624(25) 0.001666 560.4 608.5
80.9699 80.9819 590(24) 0.001758 560.2 607.9
81.0200 81.0320 607(24) 0.001719 559.9 608.1
81.0700 81.0820 673(25) 0.001540 559.7 609.7
81.1201 81.1321 568(23) 0.001836 559.4 613.3
81.1702 81.1822 564(23) 0.001844 559.2 619.3
81.2202 81.2322 619(24) 0.001678 558.9 628.4
81.2701 81.2821 613(24) 0.001670 558.7 640.8
81.3201 81.3321 641(25) 0.001613 558.4 656.8
81.3699 81.3819 597(24) 0.001743 558.2 676.0
81.4200 81.4320 668(25) 0.001557 557.9 697.8
81.4665 81.4785 739(26) 0.001449 557.7 719.1
81.5165 81.5285 756(27) 0.001408 557.4 741.3
81.5665 81.5785 747(27) 0.001411 557.2 760.3
81.6166 81.6286 727(26) 0.001474 556.9 773.9
81.6665 81.6785 721(26) 0.001487 556.7 779.9
81.7165 81.7285 746(26) 0.001437 556.4 777.6
81.7667 81.7787 771(27) 0.001389 556.2 767.8
81.8165 81.8285 770(27) 0.001402 555.9 753.0
81.8664 81.8784 750(26) 0.001429 555.7 736.0
81.9164 81.9284 742(26) 0.001451 555.4 719.6
81.9664 81.9784 759(27) 0.001420 555.2 706.4
82.0165 82.0285 686(25) 0.001559 555.0 698.4
82.0666 82.0786 697(25) 0.001552 554.7 697.1
82.1166 82.1286 715(26) 0.001506 554.5 703.8
82.1665 82.1785 720(26) 0.001483 554.2 719.1
82.2164 82.2284 699(25) 0.001548 554.0 742.9
82.2665 82.2785 756(27) 0.001410 553.7 774.7
82.3165 82.3285 762(27) 0.001395 553.5 812.5
82.3666 82.3786 843(28) 0.001268 553.2 853.5
82.4167 82.4287 809(27) 0.001323 553.0 893.7
82.4667 82.4787 904(29) 0.001178 552.7 928.5
82.5166 82.5286 954(30) 0.001115 552.5 953.4
82.5666 82.5786 926(29) 0.001156 552.3 965.5
82.6164 82.6284 995(31) 0.001071 552.0 963.4
82.6665 82.6785 897(29) 0.001196 551.8 947.3
82.7191 82.7311 900(29) 0.001160 551.5 917.0
82.7691 82.7811 864(29) 0.001210 551.3 878.8
82.8191 82.8311 783(27) 0.001332 551.0 834.8
82.8692 82.8812 782(27) 0.001345 550.8 791.0
82.9192 82.9312 763(27) 0.001369 550.6 750.0
82.9691 82.9811 722(26) 0.001458 550.3 714.8
83.0193 83.0313 697(26) 0.001503 550.1 685.4
83.0691 83.0811 679(25) 0.001565 549.9 663.4
83.1191 83.1311 698(26) 0.001509 549.6 648.7
83.1691 83.1811 694(26) 0.001518 549.4 641.0
83.2191 83.2311 627(24) 0.001689 549.1 640.3
83.2691 83.2811 603(24) 0.001745 548.9 645.6
83.3193 83.3313 635(24) 0.001673 548.7 658.1
83.3692 83.3812 655(25) 0.001608 548.4 676.9
83.4192 83.4312 694(26) 0.001522 548.2 701.4
83.4691 83.4811 692(26) 0.001527 548.0 731.0
83.5192 83.5312 725(26) 0.001444 547.7 764.4
83.5692 83.5812 793(27) 0.001324 547.5 799.6
83.6192 83.6312 830(28) 0.001257 547.3 834.1
83.6693 83.6813 863(29) 0.001211 547.0 864.9
83.7193 83.7313 865(29) 0.001220 546.8 889.7
83.7692 83.7812 854(29) 0.001216 546.6 907.0
83.8192 83.8312 911(29) 0.001152 546.3 917.6
83.8691 83.8811 934(30) 0.001112 546.1 922.6
83.9191 83.9311 937(30) 0.001122 545.9 923.2
83.9801 83.9921 916(31) 0.001012 545.6 919.1
84.0301 84.0421 905(31) 0.001019 545.3 911.3
84.0801 84.0921 881(31) 0.001053 545.1 903.7
84.1302 84.1422 894(31) 0.001033 544.9 898.9
84.1802 84.1922 919(32) 0.001005 544.7 903.6
84.2301 84.2421 878(31) 0.001056 544.4 923.9
84.2803 84.2923 969(33) 0.000930 544.2 966.2
84.3301 84.3421 1008(33) 0.000915 544.0 1034.7
84.3801 84.3921 1100(35) 0.000834 543.7 1132.7
84.4301 84.4421 1309(38) 0.000698 544. 1259.
84.4801 84.4921 1438(40) 0.000637 543. 1410.
84.5301 84.5421 1618(42) 0.000558 543. 1575.
84.5803 84.5923 1890(46) 0.000479 543. 1741.
84.6302 84.6422 1985(47) 0.000452 543. 1889.
84.6801 84.6921 2162(49) 0.000410 542. 2000.
84.7301 84.7421 2075(48) 0.000429 542. 2059.
84.7802 84.7922 2238(50) 0.000398 542. 2060.
84.8302 84.8422 2132(49) 0.000417 542. 2008.
84.8802 84.8922 2068(48) 0.000432 541. 1919.
84.9303 84.9423 1858(45) 0.000485 541. 1808.
84.9803 84.9923 1771(44) 0.000511 541. 1692.
85.0302 85.0422 1687(43) 0.000536 541. 1585.
85.0802 85.0922 1623(42) 0.000558 541. 1493.
85.1301 85.1421 1544(41) 0.000587 540. 1418.
85.1801 85.1921 1404(39) 0.000655 540. 1355.
85.2220 85.2340 1347(42) 0.000575 540. 1308.
85.2720 85.2840 1239(40) 0.000621 540. 1254.
85.3220 85.3340 1198(39) 0.000652 540. 1200.
85.3721 85.3841 1136(38) 0.000687 539. 1148.
85.4221 85.4341 1112(38) 0.000699 539. 1099.
85.4720 85.4840 1046(36) 0.000751 539. 1058.
85.5222 85.5342 1019(36) 0.000774 539. 1023.
85.5720 85.5840 1022(36) 0.000773 538. 997.
85.6220 85.6340 1055(37) 0.000744 538. 975.
85.6720 85.6840 990(35) 0.000807 538. 955.
85.7220 85.7340 966(35) 0.000812 538. 936.
85.7720 85.7840 829(32) 0.000964 537.6 916.2
85.8222 85.8342 889(33) 0.000906 537.3 899.6
85.8721 85.8841 870(33) 0.000922 537.1 889.4
85.9220 85.9340 855(33) 0.000931 536.9 888.9
85.9720 85.9840 947(34) 0.000848 536.7 900.3
86.0220 86.0340 981(35) 0.000811 536. 924.
86.0721 86.0841 1004(36) 0.000786 536. 959.
86.1221 86.1341 1121(38) 0.000701 536. 1000.
86.1722 86.1842 1029(36) 0.000770 536. 1042.
86.2222 86.2342 1063(37) 0.000740 536. 1077.
86.2721 86.2841 1092(37) 0.000719 535. 1097.
86.3221 86.3341 1084(37) 0.000732 535. 1096.
86.3720 86.3840 1122(38) 0.000705 535. 1073.
86.4220 86.4340 1080(37) 0.000732 535. 1030.
86.4537 86.4657 1082(39) 0.000643 535. 995.
86.5037 86.5157 886(36) 0.000782 534. 934.
86.5536 86.5656 881(35) 0.000797 534. 870.
86.6037 86.6157 750(33) 0.000940 534.0 808.8
86.6537 86.6657 816(34) 0.000857 533.8 754.3
86.7037 86.7157 729(32) 0.000966 533.6 708.2
86.7538 86.7658 701(32) 0.001003 533.4 671.3
86.8037 86.8157 599(29) 0.001196 533.2 643.7
86.8536 86.8656 634(30) 0.001125 533.0 623.2
86.9036 86.9156 564(28) 0.001259 532.7 609.1
86.9536 86.9656 579(28) 0.001234 532.5 600.0
87.0036 87.0156 604(29) 0.001170 532.3 595.0
87.0538 87.0658 627(30) 0.001141 532.1 593.6
87.1038 87.1158 590(29) 0.001196 531.9 595.6
87.1537 87.1657 631(30) 0.001113 531.7 601.6
87.2036 87.2156 612(29) 0.001154 531.5 612.3
87.2537 87.2657 607(29) 0.001174 531.3 629.8
87.3037 87.3157 632(30) 0.001123 531.1 655.4
87.3537 87.3657 659(30) 0.001076 530.9 690.9
87.4039 87.4159 718(32) 0.000982 530.7 737.5
87.4538 87.4658 850(35) 0.000831 530.5 795.1
87.5037 87.5157 903(36) 0.000777 530. 863.
87.5537 87.5657 963(37) 0.000730 530. 937.
87.6036 87.6156 1007(38) 0.000695 530. 1011.
87.6536 87.6656 1038(39) 0.000670 530. 1080.
87.7065 87.7185 1085(39) 0.000665 529. 1134.
87.7566 87.7686 1089(39) 0.000664 529. 1160.
87.8065 87.8185 1153(40) 0.000615 529. 1155.
87.8566 87.8686 1070(38) 0.000676 529. 1120.
87.9066 87.9186 1010(38) 0.000711 529. 1062.
87.9566 87.9686 969(37) 0.000743 528. 990.
88.0067 88.0187 852(34) 0.000845 528.3 913.7
88.0566 88.0686 738(32) 0.000988 528.1 840.7
88.1065 88.1185 734(32) 0.001007 527.9 774.8
88.1565 88.1685 686(30) 0.001078 527.7 719.3
88.2065 88.2185 668(30) 0.001110 527.5 675.2
88.2565 88.2685 604(29) 0.001210 527.3 642.3
88.3067 88.3187 602(29) 0.001221 527.1 619.3
88.3566 88.3686 578(28) 0.001294 526.9 604.7
88.4066 88.4186 597(28) 0.001242 526.7 596.8
88.4565 88.4685 551(27) 0.001350 526.5 594.3
88.5066 88.5186 552(27) 0.001353 526.3 595.8
88.5566 88.5686 559(27) 0.001333 526.1 600.2
88.6066 88.6186 592(28) 0.001262 525.9 606.2
88.6568 88.6688 649(30) 0.001136 525.7 612.8
88.7067 88.7187 664(30) 0.001109 525.5 618.5
88.7566 88.7686 633(30) 0.001141 525.3 621.8
88.8066 88.8186 593(28) 0.001251 525.1 622.0
88.8565 88.8685 560(28) 0.001315 524.9 618.5
88.9065 88.9185 577(28) 0.001276 524.7 611.8
88.9835 88.9955 579(27) 0.001378 524.4 597.5
89.0335 89.0455 579(27) 0.001368 524.2 587.5
89.0835 89.0955 560(26) 0.001427 524.1 578.0
89.1336 89.1456 538(26) 0.001491 523.9 569.7
89.1835 89.1955 546(26) 0.001466 523.7 563.1
89.2335 89.2455 567(27) 0.001413 523.5 558.3
89.2837 89.2957 576(27) 0.001388 523.3 555.4
89.3335 89.3455 577(27) 0.001387 523.1 554.2
89.3834 89.3954 561(27) 0.001422 522.9 554.4
89.4334 89.4454 561(27) 0.001423 522.7 554.7
89.4835 89.4955 587(27) 0.001365 522.5 556.9
89.5335 89.5455 578(27) 0.001372 522.3 559.3
89.5836 89.5956 560(26) 0.001433 522.2 561.2
89.6336 89.6456 605(27) 0.001324 522.0 562.8
89.6835 89.6955 563(27) 0.001412 521.8 563.1
89.7334 89.7454 594(27) 0.001362 521.6 562.2
89.7835 89.7955 561(26) 0.001433 521.4 559.9
89.8335 89.8455 530(26) 0.001513 521.2 556.8
89.8836 89.8956 570(27) 0.001414 521.0 553.1
89.9337 89.9457 538(26) 0.001487 520.9 549.5
89.9837 89.9957 568(27) 0.001400 520.7 545.6
90.0336 90.0456 541(26) 0.001476 520.5 542.7
90.0836 90.0956 522(25) 0.001541 520.3 540.3
90.1334 90.1454 507(25) 0.001587 520.1 538.4
90.1835 90.1955 555(26) 0.001453 519.9 537.1
90.2352 90.2472 535(26) 0.001519 519.8 536.3
90.2852 90.2972 571(27) 0.001420 519.6 535.8
90.3352 90.3472 540(26) 0.001502 519.4 535.7
90.3853 90.3973 552(26) 0.001466 519.2 535.8
90.4353 90.4473 512(25) 0.001576 519.0 535.9
90.4852 90.4972 507(25) 0.001606 518.9 536.4
90.5354 90.5474 540(26) 0.001503 518.7 537.8
90.5852 90.5972 527(25) 0.001545 518.5 538.7
90.6352 90.6472 592(27) 0.001376 518.3 540.5
90.6852 90.6972 529(26) 0.001534 518.1 541.8
90.7352 90.7472 569(26) 0.001430 518.0 543.4
90.7852 90.7972 561(26) 0.001452 517.8 545.4
90.8354 90.8474 528(25) 0.001552 517.6 548.0
90.8853 90.8973 525(25) 0.001555 517.4 551.6
90.9353 90.9473 537(26) 0.001507 517.2 556.6
90.9852 90.9972 564(26) 0.001446 517.1 563.7
91.0353 91.0473 555(26) 0.001479 516.9 574.5
91.0853 91.0973 616(28) 0.001306 516.7 590.3
91.1353 91.1473 598(27) 0.001367 516.5 613.5
91.1855 91.1975 626(28) 0.001296 516.4 646.5
91.2354 91.2474 718(30) 0.001129 516.2 691.3
91.2853 91.2973 741(30) 0.001088 516.0 749.6
91.3353 91.3473 835(32) 0.000964 515.8 821.9
91.3852 91.3972 967(35) 0.000830 515.7 906.6
91.4352 91.4472 1110(37) 0.000723 516. 1000.
91.4814 91.4934 1187(39) 0.000653 515. 1088.
91.5314 91.5434 1305(41) 0.000592 515. 1177.
91.5814 91.5934 1350(42) 0.000571 515. 1247.
91.6315 91.6435 1321(41) 0.000585 515. 1287.
91.6814 91.6934 1343(42) 0.000577 515. 1288.
91.7314 91.7434 1308(41) 0.000587 514. 1251.
91.7815 91.7935 1141(38) 0.000682 514. 1183.
91.8314 91.8434 1085(37) 0.000720 514. 1096.
91.8813 91.8933 990(36) 0.000793 514. 1003.
91.9313 91.9433 866(33) 0.000912 513.8 911.1
91.9813 91.9933 841(33) 0.000936 513.6 828.2
92.0313 92.0433 757(31) 0.001051 513.5 758.2
92.0815 92.0935 721(30) 0.001104 513.3 702.4
92.1315 92.1435 679(29) 0.001168 513.1 661.0
92.1814 92.1934 669(29) 0.001182 513.0 632.6
92.2313 92.2433 614(28) 0.001301 512.8 615.6
92.2814 92.2934 603(27) 0.001327 512.6 608.5
92.3314 92.3434 593(27) 0.001339 512.5 610.8
92.3814 92.3934 606(28) 0.001320 512.3 622.3
92.4316 92.4436 598(27) 0.001332 512.1 643.9
92.4816 92.4936 658(29) 0.001205 512.0 676.4
92.5315 92.5435 741(31) 0.001064 511.8 719.8
92.5815 92.5935 832(32) 0.000947 511.6 775.5
92.6313 92.6433 857(33) 0.000918 511.5 840.8
92.6814 92.6934 1012(36) 0.000780 511. 913.
92.7199 92.7319 1021(36) 0.000769 511. 970.
92.7699 92.7819 1084(37) 0.000734 511. 1040.
92.8199 92.8319 1155(38) 0.000691 511. 1097.
92.8700 92.8820 1203(39) 0.000658 511. 1131.
92.9200 92.9320 1206(39) 0.000656 511. 1137.
92.9699 92.9819 1184(39) 0.000671 510. 1116.
93.0201 93.0321 1122(38) 0.000708 510. 1072.
93.0699 93.0819 1076(37) 0.000744 510. 1016.
93.1199 93.1319 895(33) 0.000897 509.9 953.8
93.1699 93.1819 939(34) 0.000859 509.7 891.2
93.2199 93.2319 867(33) 0.000930 509.6 831.5
93.2699 93.2819 781(31) 0.001041 509.4 776.8
93.3201 93.3321 736(30) 0.001106 509.3 728.0
93.3700 93.3820 734(30) 0.001091 509.1 686.4
93.4200 93.4320 722(30) 0.001117 509.0 651.6
93.4699 93.4819 611(27) 0.001343 508.8 623.5
93.5200 93.5320 615(28) 0.001318 508.6 601.3
93.5700 93.5820 584(27) 0.001388 508.5 584.0
93.6200 93.6320 643(28) 0.001269 508.3 571.0
93.6701 93.6821 550(26) 0.001491 508.2 561.3
93.7201 93.7321 591(27) 0.001376 508.0 554.2
93.7700 93.7820 575(27) 0.001409 507.9 549.3
93.8200 93.8320 560(26) 0.001452 507.7 545.8
93.8699 93.8819 568(27) 0.001424 507.5 543.5
93.9199 93.9319 559(26) 0.001451 507.4 542.0
93.9595 93.9715 520(26) 0.001531 507.3 541.3
94.0095 94.0215 512(25) 0.001557 507.1 541.0
94.0595 94.0715 564(27) 0.001413 507.0 540.9
94.1096 94.1216 559(26) 0.001433 506.8 541.2
94.1596 94.1716 550(26) 0.001445 506.7 542.1
94.2095 94.2215 540(26) 0.001461 506.5 543.1
94.2597 94.2717 565(27) 0.001403 506.4 544.6
94.3095 94.3215 591(27) 0.001347 506.2 546.6
94.3595 94.3715 563(27) 0.001419 506.1 549.3
94.4095 94.4215 580(27) 0.001375 505.9 552.6
94.4595 94.4715 496(25) 0.001603 505.8 556.9
94.5095 94.5215 561(26) 0.001425 505.6 562.3
94.5597 94.5717 584(27) 0.001370 505.5 569.2
94.6096 94.6216 571(27) 0.001391 505.3 577.8
94.6595 94.6715 629(28) 0.001257 505.2 589.1
94.7094 94.7214 618(28) 0.001278 505.0 604.4
94.7596 94.7716 709(30) 0.001122 504.9 625.8
94.8096 94.8216 647(29) 0.001222 504.7 655.8
94.8596 94.8716 692(29) 0.001155 504.6 698.2
94.9097 94.9217 706(30) 0.001125 504.4 757.6
94.9597 94.9717 836(33) 0.000940 504.3 838.3
95.0096 95.0216 891(34) 0.000886 504.1 943.6
95.0596 95.0716 1169(39) 0.000663 504. 1076.
95.1095 95.1215 1325(41) 0.000584 504. 1231.
95.1595 95.1715 1539(45) 0.000503 504. 1404.
95.2181 95.2301 1709(49) 0.000419 504. 1614.
95.2681 95.2801 1831(51) 0.000389 503. 1778.
95.3181 95.3301 1894(52) 0.000376 503. 1904.
95.3681 95.3801 1996(53) 0.000354 503. 1974.
95.4181 95.4301 1945(52) 0.000365 503. 1977.
95.4681 95.4801 1877(51) 0.000379 503. 1911.
95.5182 95.5302 1658(48) 0.000432 503. 1788.
95.5681 95.5801 1523(46) 0.000476 503. 1627.
95.6180 95.6300 1329(43) 0.000550 502. 1451.
95.6680 95.6800 1277(42) 0.000573 502. 1277.
95.7180 95.7300 1061(38) 0.000696 502. 1119.
95.7680 95.7800 1047(38) 0.000709 502. 985.
95.8182 95.8302 833(33) 0.000897 501.8 877.0
95.8682 95.8802 797(33) 0.000939 501.7 795.8
95.9181 95.9301 711(31) 0.001051 501.5 737.5
95.9680 95.9800 714(31) 0.001052 501.4 697.6
96.0181 96.0301 670(30) 0.001123 501.3 671.0
96.0681 96.0801 591(28) 0.001259 501.1 653.7
96.1181 96.1301 717(31) 0.001041 501.0 642.6
96.1683 96.1803 644(29) 0.001165 500.8 635.7
96.2182 96.2302 633(29) 0.001186 500.7 632.0
96.2682 96.2802 592(28) 0.001250 500.6 630.5
96.3181 96.3301 581(28) 0.001287 500.4 630.3
96.3680 96.3800 631(29) 0.001182 500.3 629.6
96.4180 96.4300 636(29) 0.001186 500.2 628.3
96.4548 96.4668 536(26) 0.001522 500.1 625.7
96.5048 96.5168 605(27) 0.001348 499.9 619.7
96.5547 96.5667 605(27) 0.001355 499.8 610.7
96.6048 96.6168 593(27) 0.001349 499.7 599.6
96.6548 96.6668 563(26) 0.001438 499.5 587.8
96.7048 96.7168 561(26) 0.001455 499.4 576.4
96.7549 96.7669 573(26) 0.001426 499.3 566.1
96.8048 96.8168 533(26) 0.001531 499.1 557.8
96.8547 96.8667 535(26) 0.001490 499.0 551.7
96.9047 96.9167 518(25) 0.001576 498.9 548.1
96.9547 96.9667 555(26) 0.001472 498.7 547.0
97.0047 97.0167 495(25) 0.001656 498.6 548.6
97.0549 97.0669 527(25) 0.001576 498.5 552.5
97.1049 97.1169 547(26) 0.001497 498.3 558.8
97.1548 97.1668 588(27) 0.001388 498.2 566.4
97.2047 97.2167 603(27) 0.001367 498.1 575.2
97.2548 97.2668 635(28) 0.001300 497.9 583.8
97.3048 97.3168 604(27) 0.001360 497.8 591.4
97.3548 97.3668 584(27) 0.001419 497.7 596.5
97.4050 97.4170 564(26) 0.001448 497.6 598.6
97.4549 97.4669 581(27) 0.001420 497.4 597.5
97.5048 97.5168 590(27) 0.001391 497.3 594.2
97.5548 97.5668 609(27) 0.001349 497.2 590.1
97.6047 97.6167 619(28) 0.001321 497.0 585.7
97.6547 97.6667 622(28) 0.001320 496.9 583.0
97.7148 97.7268 619(26) 0.001434 496.8 581.9
97.7648 97.7768 607(26) 0.001458 496.6 582.9
97.8147 97.8267 612(26) 0.001449 496.5 585.2
97.8648 97.8768 545(25) 0.001631 496.4 588.9
97.9148 97.9268 599(26) 0.001477 496.3 592.6
97.9648 97.9768 570(25) 0.001557 496.1 596.4
98.0149 98.0269 615(26) 0.001435 496.0 600.7
98.0648 98.0768 611(26) 0.001456 495.9 606.1
98.1147 98.1267 604(26) 0.001472 495.8 613.0
98.1647 98.1767 678(28) 0.001311 495.6 621.8
98.2147 98.2267 668(27) 0.001329 495.5 632.3
98.2647 98.2767 752(29) 0.001182 495.4 643.9
98.3149 98.3269 793(30) 0.001121 495.3 656.1
98.3648 98.3768 794(30) 0.001110 495.2 668.2
98.4148 98.4268 868(31) 0.001014 495.0 680.7
98.4647 98.4767 903(32) 0.000981 494.9 694.9
98.5148 98.5268 878(32) 0.001005 494.8 712.9
98.5648 98.5768 988(34) 0.000887 494.7 735.7
98.6148 98.6268 941(33) 0.000938 494.5 763.8
98.6650 98.6770 951(33) 0.000928 494.4 796.0
98.7149 98.7269 1076(35) 0.000811 494. 829.
98.7648 98.7768 1042(35) 0.000838 494.2 860.0
98.8148 98.8268 1022(34) 0.000859 494.1 884.1
98.8647 98.8767 1044(34) 0.000841 493.9 898.9
98.9147 98.9267 946(33) 0.000933 493.8 903.4
98.9836 98.9956 949(33) 0.000902 493.7 894.4
99.0336 99.0456 912(33) 0.000941 493.5 879.6
99.0836 99.0956 918(33) 0.000936 493.4 860.0
99.1337 99.1457 918(33) 0.000935 493.3 839.8
99.1837 99.1957 893(32) 0.000957 493.2 822.0
99.2336 99.2456 872(32) 0.000981 493.1 808.1
99.2838 99.2958 814(31) 0.001058 493.0 797.8
99.3336 99.3456 797(30) 0.001087 492.8 789.2
99.3836 99.3956 811(31) 0.001065 492.7 780.1
99.4336 99.4456 724(29) 0.001200 492.6 768.7
99.4836 99.4956 727(29) 0.001189 492.5 754.2
99.5336 99.5456 713(29) 0.001224 492.4 736.6
99.5838 99.5958 710(29) 0.001226 492.3 716.4
99.6337 99.6457 628(27) 0.001391 492.2 695.0
99.6837 99.6957 601(26) 0.001444 492.0 673.9
99.7336 99.7456 656(27) 0.001328 491.9 655.4
99.7837 99.7957 640(27) 0.001368 491.8 641.4
99.8337 99.8457 659(28) 0.001316 491.7 633.8
99.8837 99.8957 627(27) 0.001396 491.6 634.4
99.9339 99.9459 600(26) 0.001457 491.5 645.3
99.9838 99.9958 658(27) 0.001323 491.4 668.5
100.0340 100.0460 683(28) 0.001267 491.3 706.6
100.0840 100.0960 764(30) 0.001137 491.1 760.8
100.1340 100.1460 864(32) 0.001000 491.0 834.7
100.1840 100.1960 944(33) 0.000917 490.9 927.3
100.2300 100.2420 1075(37) 0.000739 491. 1029.
100.2800 100.2920 1243(40) 0.000630 491. 1154.
100.3300 100.3420 1366(42) 0.000571 491. 1285.
100.3800 100.3920 1478(43) 0.000530 490. 1413.
100.4300 100.4420 1544(45) 0.000502 490. 1524.
100.4800 100.4920 1659(46) 0.000468 490. 1607.
100.5300 100.5420 1586(45) 0.000491 490. 1652.
100.5800 100.5920 1534(44) 0.000511 490. 1650.
100.6300 100.6420 1502(44) 0.000523 490. 1596.
100.6800 100.6920 1324(41) 0.000596 490. 1497.
100.7300 100.7420 1243(40) 0.000637 490. 1369.
100.7800 100.7920 1132(38) 0.000705 490. 1228.
100.8300 100.8420 997(35) 0.000803 490. 1090.
100.8800 100.8920 916(34) 0.000877 489.4 964.2
100.9300 100.9420 848(33) 0.000935 489.3 856.6
100.9800 100.9920 755(31) 0.001069 489.2 769.3
101.0300 101.0420 663(29) 0.001226 489.1 701.9
101.0800 101.0920 607(27) 0.001332 489.0 652.1
101.1300 101.1420 633(28) 0.001276 488.9 616.6
101.1800 101.1920 571(27) 0.001422 488.8 592.1
101.2300 101.2420 592(27) 0.001360 488.7 575.3
101.2800 101.2920 576(27) 0.001412 488.6 564.1
101.3300 101.3420 540(26) 0.001499 488.5 556.7
101.3800 101.3920 527(26) 0.001521 488.4 551.5
101.4300 101.4420 559(26) 0.001457 488.3 548.1
101.4750 101.4870 519(25) 0.001606 488.2 545.9
101.5250 101.5370 511(25) 0.001646 488.1 544.5
101.5750 101.5870 507(25) 0.001643 488.0 543.8
101.6250 101.6370 531(25) 0.001587 487.9 543.9
101.6750 101.6870 523(25) 0.001576 487.8 545.0
101.7250 101.7370 523(25) 0.001601 487.7 547.1
101.7750 101.7870 519(25) 0.001614 487.6 550.7
101.8250 101.8370 560(26) 0.001503 487.5 556.6
101.8750 101.8870 567(26) 0.001466 487.4 565.6
101.9250 101.9370 604(27) 0.001389 487.3 579.3
101.9750 101.9870 603(27) 0.001406 487.2 599.3
102.0250 102.0370 656(28) 0.001288 487.1 627.9
102.0750 102.0870 635(28) 0.001311 487.0 667.2
102.1250 102.1370 683(29) 0.001223 486.9 719.0
102.1750 102.1870 765(31) 0.001065 486.8 784.2
102.2250 102.2370 919(33) 0.000901 486.7 862.1
102.2750 102.2870 1037(35) 0.000802 487. 950.
102.3250 102.3370 1114(37) 0.000738 486. 1042.
102.3750 102.3870 1170(38) 0.000707 486. 1130.
102.4250 102.4370 1181(38) 0.000701 486. 1204.
102.4750 102.4870 1257(39) 0.000652 486. 1254.
102.5250 102.5370 1263(39) 0.000648 486. 1272.
102.5750 102.5870 1195(39) 0.000674 486. 1257.
102.6250 102.6370 1134(37) 0.000729 486. 1215.
102.6750 102.6870 1083(36) 0.000761 486. 1155.
102.7200 102.7320 1005(34) 0.000877 485.7 1094.9
102.7700 102.7820 974(33) 0.000902 485.6 1031.4
102.8200 102.8320 942(33) 0.000941 485.6 979.7
102.8700 102.8820 1007(34) 0.000865 485.5 945.8
102.9200 102.9320 953(33) 0.000928 485.4 931.8
102.9700 102.9820 951(33) 0.000927 485.3 936.1
103.0200 103.0320 1112(36) 0.000784 485. 954.
103.0700 103.0820 1036(34) 0.000851 485.1 978.8
103.1200 103.1320 1006(34) 0.000875 485.0 1001.4
103.1700 103.1820 993(33) 0.000893 484.9 1012.6
103.2200 103.2320 973(33) 0.000913 484.8 1005.4
103.2700 103.2820 933(32) 0.000951 484.7 977.3
103.3200 103.3320 813(30) 0.001083 484.6 931.9
103.3700 103.3820 769(29) 0.001165 484.5 876.2
103.4200 103.4320 704(28) 0.001276 484.4 817.4
103.4700 103.4820 712(28) 0.001263 484.4 761.2
103.5200 103.5320 680(28) 0.001321 484.3 711.7
103.5700 103.5820 608(26) 0.001480 484.2 671.7
103.6200 103.6320 618(26) 0.001458 484.1 641.4
103.6700 103.6820 629(26) 0.001426 484.0 621.4
103.7200 103.7320 591(26) 0.001529 483.9 611.6
103.7700 103.7820 621(26) 0.001449 483.8 612.4
103.8200 103.8320 637(27) 0.001406 483.7 623.9
103.8700 103.8820 673(27) 0.001334 483.6 647.1
103.9200 103.9320 725(29) 0.001231 483.6 683.2
103.9670 103.9790 756(28) 0.001244 483.5 729.5
104.0170 104.0290 884(30) 0.001079 483.4 791.9
104.0670 104.0790 936(32) 0.001003 483.3 866.2
104.1170 104.1290 1080(34) 0.000861 483.2 948.8
104.1670 104.1790 1081(34) 0.000870 483.1 1033.4
104.2170 104.2290 1121(35) 0.000836 483.0 1111.2
104.2670 104.2790 1213(36) 0.000768 483. 1170.
104.3170 104.3290 1234(36) 0.000758 483. 1201.
104.3670 104.3790 1142(35) 0.000828 482.8 1196.0
104.4170 104.4290 1131(34) 0.000841 482.7 1160.5
104.4670 104.4790 981(32) 0.000964 482.6 1103.6
104.5170 104.5290 960(32) 0.000988 482.5 1035.6
104.5670 104.5790 938(31) 0.001017 482.4 964.3
104.6170 104.6290 843(30) 0.001141 482.4 895.0
104.6670 104.6790 780(28) 0.001234 482.3 830.7
104.7170 104.7290 696(27) 0.001392 482.2 773.9
104.7670 104.7790 660(26) 0.001470 482.1 726.1
104.8170 104.8290 623(25) 0.001549 482.0 687.9
104.8670 104.8790 628(25) 0.001546 481.9 659.2
104.9170 104.9290 635(26) 0.001520 481.9 639.1
104.9670 104.9790 600(25) 0.001595 481.8 627.1
105.0170 105.0290 607(25) 0.001580 481.7 622.5
105.0670 105.0790 595(25) 0.001632 481.6 625.2
105.1170 105.1290 583(25) 0.001661 481.5 635.9
105.1670 105.1790 604(25) 0.001594 481.5 656.4
105.2050 105.2170 624(25) 0.001662 481.4 679.9
105.2550 105.2670 668(25) 0.001554 481.3 724.1
105.3050 105.3170 757(27) 0.001354 481.2 786.2
105.3560 105.3680 850(29) 0.001208 481.1 870.7
105.4060 105.4180 941(30) 0.001090 481.1 975.1
105.4550 105.4670 1058(32) 0.000967 481.0 1096.2
105.5060 105.5180 1268(35) 0.000799 481. 1236.
105.5550 105.5670 1412(37) 0.000718 481. 1373.
105.6050 105.6170 1550(39) 0.000650 481. 1500.
105.6550 105.6670 1615(40) 0.000620 481. 1596.
105.7050 105.7170 1543(39) 0.000655 481. 1645.
105.7550 105.7670 1571(39) 0.000645 481. 1636.
105.8060 105.8180 1450(38) 0.000700 480. 1570.
105.8560 105.8680 1353(36) 0.000754 480. 1463.
105.9050 105.9170 1298(36) 0.000780 480. 1335.
105.9550 105.9670 1086(33) 0.000943 480.2 1195.6
106.0050 106.0170 1063(32) 0.000964 480.1 1062.2
106.0560 106.0680 896(30) 0.001143 480.1 941.8
106.1060 106.1180 789(28) 0.001315 480.0 844.7
106.1560 106.1680 729(27) 0.001422 479.9 770.3
106.2060 106.2180 706(26) 0.001470 479.8 717.8
106.2560 106.2680 702(26) 0.001478 479.7 685.1
106.3060 106.3180 661(25) 0.001578 479.7 668.9
106.3550 106.3670 713(26) 0.001460 479.6 665.7
106.4050 106.4170 681(26) 0.001533 479.5 671.7
106.4640 106.4760 745(27) 0.001423 479.4 685.6
106.5140 106.5260 754(27) 0.001398 479.4 698.6
106.5640 106.5760 763(27) 0.001389 479.3 708.5
106.6140 106.6260 705(26) 0.001488 479.2 711.8
106.6640 106.6760 690(26) 0.001528 479.1 706.9
106.7140 106.7260 742(26) 0.001427 479.1 694.3
106.7650 106.7770 707(26) 0.001500 479.0 675.6
106.8140 106.8260 693(25) 0.001540 478.9 654.9
106.8640 106.8760 693(26) 0.001527 478.8 633.3
106.9140 106.9260 688(25) 0.001546 478.8 613.3
106.9640 106.9760 678(25) 0.001573 478.7 596.2
107.0140 107.0260 706(26) 0.001514 478.6 582.4
107.0650 107.0770 660(25) 0.001597 478.6 571.9
107.1150 107.1270 657(25) 0.001634 478.5 564.7
107.1640 107.1760 635(24) 0.001676 478.4 560.2
107.2140 107.2260 669(25) 0.001589 478.3 557.8
107.2640 107.2760 588(23) 0.001815 478.3 557.6
107.3140 107.3260 633(24) 0.001680 478.2 559.7
107.3640 107.3760 620(24) 0.001723 478.1 564.6
107.4150 107.4270 622(24) 0.001720 478.1 572.9
107.4650 107.4770 607(24) 0.001759 478.0 584.9
107.5140 107.5260 638(24) 0.001669 477.9 601.2
107.5640 107.5760 642(25) 0.001650 477.9 622.8
107.6140 107.6260 680(25) 0.001573 477.8 649.7
107.6640 107.6760 631(24) 0.001706 477.7 681.8
107.7210 107.7330 676(25) 0.001659 477.6 724.5
107.7710 107.7830 751(26) 0.001485 477.6 765.6
107.8210 107.8330 814(27) 0.001373 477.5 809.8
107.8710 107.8830 913(29) 0.001211 477.4 855.3
107.9210 107.9330 939(29) 0.001179 477.4 899.9
107.9710 107.9830 895(28) 0.001246 477.3 939.7
108.0210 108.0330 885(28) 0.001253 477.2 969.9
108.0710 108.0830 992(30) 0.001126 477.2 985.6
108.1210 108.1330 938(29) 0.001187 477.1 985.1
108.1710 108.1830 944(29) 0.001187 477.0 971.0
108.2210 108.2330 915(29) 0.001224 477.0 948.3
108.2710 108.2830 911(29) 0.001229 476.9 922.2
108.3210 108.3330 974(30) 0.001146 476.8 898.0
108.3710 108.3830 924(29) 0.001213 476.8 880.1
108.4210 108.4330 896(28) 0.001244 476.7 871.5
108.4710 108.4830 919(29) 0.001218 476.6 875.1
108.5210 108.5330 868(28) 0.001293 476.6 891.5
108.5710 108.5830 938(29) 0.001187 476.5 920.6
108.6210 108.6330 965(29) 0.001159 476.4 961.5
108.6710 108.6830 1072(31) 0.001037 476.4 1012.2
108.7210 108.7330 1065(31) 0.001042 476.3 1068.9
108.7710 108.7830 1166(33) 0.000947 476.2 1125.3
108.8210 108.8330 1146(32) 0.000967 476.2 1172.6
108.8710 108.8830 1240(33) 0.000892 476.1 1201.2
108.9210 108.9330 1196(33) 0.000927 476.0 1205.0
108.9580 108.9700 1191(34) 0.000883 476.0 1191.7
109.0080 109.0200 1250(35) 0.000837 475.9 1157.1
109.0580 109.0700 1107(32) 0.000950 475.9 1113.3
109.1080 109.1200 1029(31) 0.001021 475.8 1071.5
109.1580 109.1700 962(30) 0.001079 475.8 1043.7
109.2080 109.2200 1001(31) 0.001059 475.7 1038.9
109.2580 109.2700 1005(31) 0.001048 475.6 1063.4
109.3080 109.3200 1093(32) 0.000967 475.6 1119.2
109.3580 109.3700 1223(34) 0.000847 475.5 1204.0
109.4080 109.4200 1395(37) 0.000746 475. 1311.
109.4580 109.4700 1469(38) 0.000711 475. 1426.
109.5080 109.5200 1609(39) 0.000646 475. 1534.
109.5580 109.5700 1712(41) 0.000608 475. 1614.
109.6080 109.6200 1682(40) 0.000619 475. 1650.
109.6580 109.6700 1736(41) 0.000592 475. 1633.
109.7080 109.7200 1557(39) 0.000666 475. 1565.
109.7580 109.7700 1488(38) 0.000702 475. 1458.
109.8080 109.8200 1338(36) 0.000776 475. 1327.
109.8580 109.8700 1179(33) 0.000892 474.9 1188.9
109.9080 109.9200 1033(31) 0.001019 474.8 1056.0
109.9580 109.9700 933(30) 0.001137 474.8 937.5
110.0080 110.0200 807(28) 0.001312 474.7 838.5
110.0580 110.0700 770(27) 0.001373 474.7 760.6
110.1080 110.1200 760(27) 0.001405 474.6 703.0
110.1580 110.1700 667(25) 0.001615 474.5 663.1
110.2040 110.2160 661(25) 0.001570 474.5 639.4
110.2540 110.2660 584(24) 0.001768 474.4 624.8
110.3040 110.3160 629(25) 0.001648 474.4 618.8
110.3550 110.3670 630(25) 0.001648 474.3 617.9
110.4040 110.4160 543(23) 0.001924 474.3 619.4
110.4540 110.4660 629(25) 0.001654 474.2 621.2
110.5050 110.5170 632(25) 0.001647 474.1 620.8
110.5540 110.5660 613(24) 0.001699 474.1 617.5
110.6040 110.6160 581(24) 0.001809 474.0 611.5
110.6540 110.6660 548(23) 0.001894 474.0 603.9
110.7040 110.7160 581(24) 0.001808 473.9 595.9
110.7540 110.7660 566(23) 0.001864 473.9 588.8
110.8050 110.8170 548(23) 0.001924 473.8 583.4
110.8550 110.8670 538(23) 0.001956 473.7 580.5
110.9040 110.9160 528(23) 0.001968 473.7 579.3
110.9540 110.9660 563(23) 0.001872 473.6 580.8
111.0040 111.0160 565(23) 0.001872 473.6 583.4
111.0540 111.0660 564(23) 0.001860 473.5 587.2
111.1050 111.1170 586(24) 0.001794 473.5 591.2
111.1550 111.1670 586(24) 0.001794 473.4 594.2
111.2050 111.2170 587(24) 0.001768 473.4 595.2
111.2550 111.2670 616(24) 0.001688 473.3 593.3
111.3050 111.3170 630(25) 0.001658 473.2 588.3
111.3540 111.3660 581(24) 0.001809 473.2 580.9
111.4040 111.4160 561(23) 0.001884 473.1 571.9
111.4700 111.4820 548(23) 0.001840 473.1 559.1
111.5200 111.5320 535(23) 0.001881 473.0 550.0
111.5700 111.5820 526(23) 0.001910 473.0 542.0
111.6200 111.6320 527(23) 0.001910 472.9 535.7
111.6700 111.6820 556(24) 0.001800 472.9 531.2
111.7200 111.7320 520(23) 0.001936 472.8 529.0
111.7700 111.7820 497(22) 0.002038 472.7 529.3
111.8200 111.8320 525(23) 0.001941 472.7 532.3
111.8700 111.8820 559(23) 0.001815 472.6 538.2
111.9200 111.9320 536(23) 0.001885 472.6 547.5
111.9700 111.9820 571(24) 0.001782 472.5 560.1
112.0200 112.0320 570(24) 0.001776 472.5 575.4
112.0700 112.0820 549(23) 0.001853 472.4 592.5
112.1200 112.1320 573(24) 0.001771 472.4 610.3
112.1700 112.1820 609(24) 0.001667 472.3 626.5
112.2200 112.2320 630(25) 0.001605 472.3 638.7
112.2700 112.2820 609(25) 0.001650 472.2 644.7
112.3200 112.3320 630(25) 0.001590 472.2 643.7
112.3700 112.3820 601(24) 0.001684 472.1 636.5
112.4200 112.4320 598(24) 0.001689 472.1 624.6
112.4700 112.4820 600(25) 0.001652 472.0 610.1
112.5200 112.5320 568(24) 0.001777 472.0 595.0
112.5700 112.5820 534(23) 0.001890 471.9 580.7
112.6200 112.6320 617(25) 0.001643 471.9 568.8
112.6700 112.6820 563(24) 0.001805 471.8 560.0
112.7420 112.7540 543(23) 0.001855 471.7 554.2
112.7920 112.8040 574(24) 0.001764 471.7 555.6
112.8420 112.8540 557(23) 0.001822 471.6 562.3
112.8930 112.9050 539(23) 0.001844 471.6 575.1
112.9430 112.9550 604(24) 0.001667 471.5 594.5
112.9920 113.0040 648(25) 0.001543 471.5 620.7
113.0430 113.0550 709(27) 0.001422 471.5 655.9
113.0920 113.1040 803(28) 0.001244 471.4 697.0
113.1420 113.1540 792(28) 0.001270 471.4 745.2
113.1920 113.2040 864(29) 0.001162 471.3 797.5
113.2420 113.2540 936(31) 0.001069 471.3 850.4
113.2920 113.3040 950(31) 0.001047 471.2 899.6
113.3430 113.3550 1001(32) 0.001006 471.2 941.1
113.3930 113.4050 1007(32) 0.000987 471.1 970.7
113.4420 113.4540 1041(32) 0.000956 471.1 989.1
113.4920 113.5040 987(31) 0.001019 471.0 1001.1
113.5430 113.5550 993(31) 0.001011 471.0 1011.9
113.5930 113.6050 1037(32) 0.000961 470.9 1026.2
113.6430 113.6550 996(32) 0.001007 470.9 1047.2
113.6930 113.7050 1104(33) 0.000902 470.8 1074.8
113.7430 113.7550 1091(33) 0.000907 470.8 1105.2
113.7930 113.8050 1154(34) 0.000850 470.7 1130.5
113.8430 113.8550 1151(34) 0.000858 470.7 1141.4
113.8920 113.9040 1160(34) 0.000860 470.6 1131.1
113.9420 113.9540 1115(33) 0.000899 470.6 1097.9
113.9760 113.9880 1090(33) 0.000939 470.6 1064.2
114.0260 114.0380 1042(32) 0.000978 470.5 1003.0
114.0760 114.0880 883(29) 0.001165 470.5 934.0
114.1260 114.1380 856(29) 0.001204 470.4 863.3
114.1760 114.1880 778(27) 0.001331 470.4 797.8
114.2260 114.2380 742(27) 0.001395 470.3 741.2
114.2760 114.2880 665(25) 0.001570 470.3 696.2
114.3260 114.3380 672(25) 0.001555 470.2 664.1
114.3760 114.3880 680(25) 0.001541 470.2 645.1
114.4260 114.4380 649(25) 0.001605 470.2 639.3
114.4760 114.4880 658(25) 0.001592 470.1 646.5
114.5260 114.5380 656(25) 0.001606 470.1 666.4
114.5760 114.5880 667(25) 0.001580 470.0 698.5
114.6260 114.6380 701(26) 0.001491 470.0 741.6
114.6760 114.6880 804(28) 0.001289 469.9 793.7
114.7260 114.7380 823(28) 0.001273 469.9 851.0
114.7760 114.7880 905(29) 0.001151 469.8 908.2
114.8260 114.8380 993(31) 0.001040 469.8 959.0
114.8760 114.8880 993(31) 0.001043 469.7 995.2
114.9260 114.9380 952(30) 0.001090 469.7 1012.2
114.9760 114.9880 980(31) 0.001053 469.7 1006.5
115.0260 115.0380 923(30) 0.001117 469.6 979.6
115.0760 115.0880 868(29) 0.001197 469.6 936.2
115.1260 115.1380 798(28) 0.001298 469.5 882.4
115.1760 115.1880 741(27) 0.001415 469.5 824.3
115.2130 115.2250 728(26) 0.001436 469.5 781.7
115.2630 115.2750 666(25) 0.001561 469.4 727.9
115.3130 115.3250 671(25) 0.001565 469.4 681.0
115.3630 115.3750 569(23) 0.001853 469.3 642.6
115.4130 115.4250 573(23) 0.001836 469.3 613.0
115.4630 115.4750 572(23) 0.001839 469.2 591.7
115.5130 115.5250 555(23) 0.001895 469.2 578.1
115.5630 115.5750 540(23) 0.001961 469.2 571.6
115.6130 115.6250 547(23) 0.001937 469.1 571.9
115.6630 115.6750 543(23) 0.001954 469.1 579.9
115.7130 115.7250 554(23) 0.001919 469.0 595.0
115.7630 115.7750 587(23) 0.001814 469.0 618.7
115.8130 115.8250 647(25) 0.001635 468.9 652.3
115.8630 115.8750 719(26) 0.001472 468.9 696.3
115.9130 115.9250 777(27) 0.001352 468.9 750.7
115.9630 115.9750 791(27) 0.001332 468.8 813.9
116.0130 116.0250 907(29) 0.001157 468.8 882.6
116.0630 116.0750 1027(31) 0.001012 468.7 951.3
116.1130 116.1250 1034(31) 0.001010 468.7 1012.1
116.1630 116.1750 1036(32) 0.001004 468.7 1056.8
116.2130 116.2250 992(31) 0.001052 468.6 1079.5
116.2630 116.2750 983(31) 0.001059 468.6 1078.7
116.3130 116.3250 961(30) 0.001086 468.5 1057.2
116.3630 116.3750 882(29) 0.001186 468.5 1019.5
116.4130 116.4250 924(30) 0.001135 468.4 972.6
116.4630 116.4750 875(28) 0.001236 468.4 923.0
116.5130 116.5250 859(28) 0.001256 468.4 876.2
116.5630 116.5750 827(28) 0.001300 468.3 835.5
116.6130 116.6250 803(27) 0.001342 468.3 802.3
116.6630 116.6750 776(27) 0.001394 468.2 775.7
116.7130 116.7250 735(26) 0.001480 468.2 753.7
116.7640 116.7760 715(26) 0.001522 468.2 733.5
116.8130 116.8250 697(25) 0.001568 468.1 714.2
116.8630 116.8750 727(26) 0.001501 468.1 693.9
116.9130 116.9250 658(25) 0.001666 468.0 672.8
116.9630 116.9750 634(24) 0.001725 468.0 652.1
117.0130 117.0250 597(23) 0.001845 468.0 631.7
117.0640 117.0760 599(23) 0.001839 467.9 612.5
117.1130 117.1250 577(23) 0.001915 467.9 596.7
117.1630 117.1750 591(23) 0.001853 467.8 583.3
117.2130 117.2250 555(22) 0.001986 467.8 573.7
117.2630 117.2750 578(23) 0.001897 467.8 568.8
117.3130 117.3250 550(22) 0.001997 467.7 568.8
117.3630 117.3750 589(23) 0.001871 467.7 574.4
117.4140 117.4260 589(23) 0.001853 467.6 586.2
117.4640 117.4760 564(23) 0.001951 467.6 603.8
117.5130 117.5250 578(23) 0.001900 467.6 626.3
117.5630 117.5750 615(24) 0.001783 467.5 653.9
117.6130 117.6250 649(24) 0.001687 467.5 683.9
117.6630 117.6750 704(25) 0.001565 467.5 713.3
117.6990 117.7110 708(26) 0.001483 467.4 731.9
117.7490 117.7610 679(25) 0.001548 467.4 750.8
117.7980 117.8100 738(27) 0.001424 467.4 758.6
117.8490 117.8610 705(26) 0.001493 467.3 754.5
117.8990 117.9110 713(26) 0.001456 467.3 739.9
117.9490 117.9610 624(24) 0.001682 467.2 718.0
117.9990 118.0110 621(24) 0.001695 467.2 691.9
118.0480 118.0600 600(24) 0.001765 467.2 665.4
118.0980 118.1100 625(24) 0.001691 467.1 639.5
118.1480 118.1600 572(23) 0.001842 467.1 616.3
118.1980 118.2100 546(23) 0.001944 467.0 596.7
118.2480 118.2600 581(23) 0.001819 467.0 581.0
118.2990 118.3110 526(22) 0.002024 467.0 569.0
118.3490 118.3610 558(23) 0.001904 466.9 561.4
118.3990 118.4110 554(23) 0.001907 466.9 557.9
118.4480 118.4600 504(22) 0.002120 466.9 558.5
118.4990 118.5110 546(23) 0.001948 466.8 563.2
118.5490 118.5610 535(22) 0.001981 466.8 571.6
118.5990 118.6110 627(24) 0.001692 466.7 583.4
118.6490 118.6610 575(23) 0.001847 466.7 597.5
118.6990 118.7110 620(24) 0.001709 466.7 612.2
118.7490 118.7610 647(25) 0.001631 466.6 625.6
118.7990 118.8110 630(24) 0.001674 466.6 635.7
118.8480 118.8600 701(26) 0.001503 466.6 640.6
118.8980 118.9100 584(23) 0.001820 466.5 640.1
118.9440 118.9560 617(27) 0.001367 466.5 636.3
118.9940 119.0060 643(29) 0.001225 466.5 630.1
119.0440 119.0560 661(29) 0.001167 466.4 622.2
119.0940 119.1060 620(27) 0.001350 466.4 615.8
119.1440 119.1560 636(28) 0.001303 466.3 612.7
119.1940 119.2060 620(28) 0.001292 466.3 613.8
119.2450 119.2570 653(28) 0.001291 466.3 619.7
119.2940 119.3060 647(28) 0.001283 466.2 629.6
119.3440 119.3560 661(29) 0.001227 466.2 642.4
119.3940 119.4060 689(29) 0.001169 466.2 655.9
119.4440 119.4560 719(29) 0.001159 466.1 667.5
119.4940 119.5060 750(30) 0.001099 466.1 674.7
119.5450 119.5570 740(31) 0.001069 466.1 675.6
119.5940 119.6060 652(28) 0.001258 466.0 669.0
119.6440 119.6560 716(30) 0.001117 466.0 657.2
119.6940 119.7060 674(29) 0.001207 465.9 641.3
119.7440 119.7560 655(28) 0.001266 465.9 623.3
119.7940 119.8060 608(27) 0.001326 465.9 605.2
119.8440 119.8560 620(27) 0.001355 465.8 588.5
119.8950 119.9070 589(27) 0.001375 465.8 574.5
119.9450 119.9570 571(26) 0.001463 465.8 564.0
119.9940 120.0060 564(26) 0.001478 465.7 557.8
120.0440 120.0560 600(27) 0.001356 465.7 555.7
120.0940 120.1060 567(26) 0.001477 465.7 557.9
120.1440 120.1560 520(25) 0.001557 465.6 564.4
120.1960 120.2080 564(26) 0.001475 465.6 575.1
120.2460 120.2580 605(27) 0.001374 465.6 588.4
120.2960 120.3080 598(26) 0.001459 465.5 603.6
120.3460 120.3580 641(28) 0.001318 465.5 619.0
120.3960 120.4080 682(29) 0.001207 465.4 632.6
120.4460 120.4580 630(27) 0.001344 465.4 642.4
120.4970 120.5090 623(27) 0.001370 465.4 646.8
120.5460 120.5580 619(27) 0.001333 465.3 645.6
120.5960 120.6080 628(27) 0.001340 465.3 640.0
120.6460 120.6580 587(26) 0.001470 465.3 631.3
120.6960 120.7080 591(26) 0.001506 465.2 622.0
120.7460 120.7580 638(28) 0.001322 465.2 613.4
120.7960 120.8080 571(26) 0.001516 465.2 607.7
120.8460 120.8580 556(25) 0.001550 465.1 606.5
120.8960 120.9080 626(27) 0.001381 465.1 611.5
120.9460 120.9580 649(28) 0.001268 465.1 624.8
120.9960 121.0080 654(28) 0.001287 465.0 648.2
121.0460 121.0580 668(28) 0.001254 465.0 683.8
121.0960 121.1080 726(30) 0.001149 465.0 733.2
121.1470 121.1590 824(31) 0.001047 464.9 798.9
121.1970 121.2090 899(33) 0.000920 464.9 878.0
121.2460 121.2580 998(34) 0.000841 464.9 967.6
121.2960 121.3080 1115(37) 0.000745 465. 1067.
121.3460 121.3580 1195(37) 0.000721 465. 1167.
121.3960 121.4080 1199(37) 0.000715 465. 1256.
121.4480 121.4600 1237(34) 0.000848 464.7 1326.3
121.4980 121.5100 1299(35) 0.000801 465. 1363.
121.5480 121.5600 1278(35) 0.000821 464.6 1368.7
121.5980 121.6100 1286(35) 0.000806 465. 1346.
121.6480 121.6600 1151(33) 0.000909 464.6 1302.8
121.6980 121.7100 1206(34) 0.000867 464.5 1247.2
121.7480 121.7600 1139(33) 0.000914 464.5 1186.6
121.7980 121.8100 1112(33) 0.000946 464.5 1127.4
121.8480 121.8600 1049(32) 0.000999 464.4 1074.6
121.8980 121.9100 1030(31) 0.001028 464.4 1031.7
121.9480 121.9600 986(31) 0.001073 464.4 999.4
121.9980 122.0100 985(30) 0.001081 464.3 977.5
122.0480 122.0600 983(30) 0.001082 464.3 962.0
122.0980 122.1100 967(30) 0.001100 464.3 948.1
122.1480 122.1600 1071(32) 0.000985 464.2 931.1
122.1980 122.2100 980(30) 0.001089 464.2 907.9
122.2480 122.2600 957(30) 0.001116 464.2 877.9
122.2980 122.3100 905(29) 0.001165 464.1 842.6
122.3480 122.3600 848(28) 0.001266 464.1 804.5
122.3980 122.4100 839(28) 0.001271 464.1 766.3
122.4480 122.4600 820(28) 0.001300 464.0 730.3
122.4980 122.5100 778(27) 0.001351 464.0 698.3
122.5480 122.5600 686(25) 0.001559 464.0 671.4
122.5980 122.6100 682(25) 0.001572 463.9 650.3
122.6480 122.6600 720(26) 0.001493 463.9 635.6
122.7040 122.7160 666(25) 0.001554 463.9 626.8
122.7540 122.7660 704(26) 0.001468 463.8 626.2
122.8040 122.8160 643(25) 0.001618 463.8 632.9
122.8540 122.8660 672(25) 0.001543 463.8 647.6
122.9040 122.9160 716(26) 0.001445 463.7 671.6
122.9540 122.9660 677(26) 0.001529 463.7 706.7
123.0040 123.0160 770(27) 0.001341 463.7 754.6
123.0540 123.0660 807(28) 0.001285 463.6 816.9
123.1030 123.1150 847(29) 0.001217 463.6 892.9
123.1530 123.1650 1001(31) 0.001027 463.6 985.4
123.2030 123.2150 1038(32) 0.000990 463.5 1090.6
123.2530 123.2650 1140(33) 0.000901 463.5 1203.6
123.3040 123.3160 1336(36) 0.000761 463. 1318.
123.3540 123.3660 1444(38) 0.000704 463. 1421.
123.4040 123.4160 1637(40) 0.000612 463. 1504.
123.4530 123.4650 1641(40) 0.000615 463. 1560.
123.5040 123.5160 1678(41) 0.000600 463. 1585.
123.5540 123.5660 1681(41) 0.000595 463. 1576.
123.6040 123.6160 1636(40) 0.000616 463. 1535.
123.6540 123.6660 1512(39) 0.000666 463. 1470.
123.7040 123.7160 1458(38) 0.000691 463. 1387.
123.7540 123.7660 1282(36) 0.000792 463. 1296.
123.8040 123.8160 1209(35) 0.000840 463.1 1205.8
123.8530 123.8650 1115(33) 0.000913 463.1 1125.5
123.9030 123.9150 1044(32) 0.000984 463.1 1056.6
123.9490 123.9610 1024(32) 0.000981 463.0 1007.1
123.9990 124.0110 958(31) 0.001052 463.0 968.7
124.0490 124.0610 930(30) 0.001089 463.0 945.0
124.0990 124.1110 903(30) 0.001120 462.9 932.9
124.1490 124.1610 970(31) 0.001041 462.9 928.4
124.1990 124.2110 907(30) 0.001117 462.9 927.5
124.2500 124.2620 883(30) 0.001148 462.8 926.6
124.2990 124.3110 888(29) 0.001151 462.8 922.8
124.3490 124.3610 943(30) 0.001079 462.8 914.5
124.3990 124.4110 948(31) 0.001072 462.7 902.2
124.4490 124.4610 836(29) 0.001224 462.7 887.9
124.4990 124.5110 864(29) 0.001187 462.7 874.5
124.5500 124.5620 820(28) 0.001242 462.6 865.6
124.6000 124.6120 876(29) 0.001171 462.6 865.3
124.6490 124.6610 902(30) 0.001122 462.6 876.9
124.6990 124.7110 858(29) 0.001195 462.5 903.7
124.7490 124.7610 872(29) 0.001174 462.5 948.7
124.7990 124.8110 1047(32) 0.000967 462.5 1014.5
124.8490 124.8610 1080(33) 0.000941 462.4 1103.0
124.9000 124.9120 1184(34) 0.000854 462.4 1217.5
124.9500 124.9620 1297(36) 0.000774 462. 1353.
124.9990 125.0110 1458(38) 0.000686 462. 1506.
125.0490 125.0610 1603(40) 0.000618 462. 1681.
125.0990 125.1110 1902(44) 0.000517 462. 1871.
125.1490 125.1610 2094(46) 0.000469 462. 2071.
125.1860 125.1980 2411(52) 0.000369 462. 2220.
125.2360 125.2480 2474(53) 0.000357 462. 2411.
125.2860 125.2980 2620(54) 0.0003369 462. 2571.
125.3360 125.3480 2798(57) 0.0003117 462. 2676.
125.3860 125.3980 2755(56) 0.0003173 462. 2708.
125.4360 125.4480 2589(54) 0.0003389 462. 2661.
125.4860 125.4980 2364(52) 0.000374 462. 2546.
125.5360 125.5480 2245(50) 0.000397 462. 2377.
125.5860 125.5980 2109(49) 0.000424 462. 2177.
125.6360 125.6480 2012(48) 0.000443 462. 1964.
125.6860 125.6980 1814(45) 0.000496 462. 1755.
125.7360 125.7480 1592(42) 0.000571 462. 1560.
125.7860 125.7980 1519(41) 0.000606 462. 1386.
125.8360 125.8480 1343(38) 0.000683 462. 1240.
125.8860 125.8980 1205(36) 0.000769 462. 1122.
125.9360 125.9480 1107(35) 0.000834 461.7 1034.0
125.9860 125.9980 1064(34) 0.000884 461.7 972.9
126.0360 126.0480 953(32) 0.000981 461.6 935.3
126.0860 126.0980 933(31) 0.001009 461.6 916.5
126.1370 126.1490 882(31) 0.001065 461.6 910.9
126.1860 126.1980 978(32) 0.000953 461.5 912.3
126.2360 126.2480 903(31) 0.001038 461.5 913.7
126.2860 126.2980 975(32) 0.000959 461.5 910.0
126.3360 126.3480 907(31) 0.001028 461.4 897.7
126.3860 126.3980 864(30) 0.001079 461.4 876.2
126.4310 126.4430 904(30) 0.001087 461.4 850.0
126.4810 126.4930 839(29) 0.001178 461.4 815.6
126.5310 126.5430 773(28) 0.001281 461.3 778.5
126.5810 126.5930 680(26) 0.001466 461.3 741.3
126.6310 126.6430 677(26) 0.001451 461.3 705.9
126.6810 126.6930 694(27) 0.001417 461.2 673.7
126.7310 126.7430 625(25) 0.001581 461.2 645.2
126.7810 126.7930 685(26) 0.001441 461.2 621.0
126.8310 126.8430 607(25) 0.001650 461.1 601.0
126.8810 126.8930 556(24) 0.001759 461.1 585.1
126.9310 126.9430 605(25) 0.001654 461.1 572.9
126.9810 126.9930 594(24) 0.001700 461.0 563.8
127.0310 127.0430 534(23) 0.001842 461.0 557.3
127.0810 127.0930 581(24) 0.001723 461.0 553.2
127.1310 127.1430 527(23) 0.001895 460.9 551.2
127.1810 127.1930 568(24) 0.001770 460.9 551.3
127.2310 127.2430 553(23) 0.001829 460.9 552.9
127.2810 127.2930 583(24) 0.001715 460.8 557.9
127.3310 127.3430 592(24) 0.001698 460.8 566.4
127.3810 127.3930 564(24) 0.001717 460.8 579.2
127.4310 127.4430 626(25) 0.001589 460.7 597.5
127.4810 127.4930 627(25) 0.001559 460.7 622.2
127.5310 127.5430 620(25) 0.001573 460.7 654.7
127.5810 127.5930 690(26) 0.001442 460.6 695.5
127.6310 127.6430 708(27) 0.001407 460.6 744.6
127.6960 127.7080 857(29) 0.001223 460.5 819.2
127.7460 127.7580 895(29) 0.001154 460.5 881.4
127.7960 127.8080 1012(31) 0.001012 460.5 942.9
127.8460 127.8580 1049(32) 0.000984 460.4 997.4
127.8960 127.9080 1081(32) 0.000959 460.4 1038.5
127.9460 127.9580 1094(33) 0.000942 460.4 1061.8
127.9960 128.0080 1081(32) 0.000953 460.3 1066.3
128.0460 128.0580 1139(33) 0.000917 460.3 1053.7
128.0960 128.1080 1099(32) 0.000947 460.3 1027.6
128.1460 128.1580 984(31) 0.001065 460.2 992.4
128.1960 128.2080 1003(31) 0.001043 460.2 952.7
128.2460 128.2580 991(31) 0.001051 460.2 912.4
128.2960 128.3080 878(29) 0.001201 460.1 874.2
128.3460 128.3580 883(29) 0.001190 460.1 839.9
128.3960 128.4080 825(28) 0.001271 460.1 810.6
128.4460 128.4580 859(29) 0.001229 460.0 786.2
128.4960 128.5080 840(28) 0.001242 460.0 766.1
128.5460 128.5580 786(27) 0.001331 460.0 748.5
128.5960 128.6080 767(27) 0.001364 459.9 731.2
128.6460 128.6580 731(26) 0.001449 459.9 713.0
128.6960 128.7080 719(26) 0.001463 459.9 693.5
128.7460 128.7580 662(25) 0.001599 459.8 672.7
128.7960 128.8080 713(26) 0.001479 459.8 651.5
128.8460 128.8580 683(25) 0.001548 459.8 630.7
128.8960 128.9080 624(24) 0.001706 459.7 611.2
128.9730 128.9850 575(24) 0.001691 459.7 585.1
129.0230 129.0350 599(25) 0.001614 459.7 571.1
129.0730 129.0850 595(25) 0.001631 459.6 559.8
129.1230 129.1350 551(24) 0.001759 459.6 551.2
129.1730 129.1850 544(24) 0.001774 459.6 545.7
129.2230 129.2350 584(25) 0.001665 459.5 543.5
129.2730 129.2850 595(25) 0.001617 459.5 544.5
129.3230 129.3350 543(24) 0.001806 459.5 548.9
129.3730 129.3850 587(25) 0.001656 459.4 556.9
129.4230 129.4350 605(25) 0.001613 459.4 568.5
129.4730 129.4850 600(25) 0.001632 459.4 583.5
129.5230 129.5350 637(25) 0.001545 459.3 601.6
129.5730 129.5850 614(25) 0.001590 459.3 621.9
129.6230 129.6350 651(26) 0.001502 459.3 643.1
129.6730 129.6850 647(26) 0.001502 459.2 663.5
129.7230 129.7350 676(26) 0.001451 459.2 680.9
129.7730 129.7850 665(26) 0.001468 459.2 694.9
129.8230 129.8350 685(27) 0.001418 459.1 704.0
129.8730 129.8850 693(27) 0.001411 459.1 708.5
129.9230 129.9350 713(27) 0.001360 459.1 708.0
129.9730 129.9850 696(27) 0.001388 459.0 702.0
130.0230 130.0350 721(27) 0.001343 459.0 691.5
130.0730 130.0850 689(27) 0.001413 459.0 676.9
130.1230 130.1350 632(25) 0.001548 458.9 659.2
130.1730 130.1850 617(25) 0.001590 458.9 639.7
130.2230 130.2350 625(26) 0.001508 458.9 619.3
130.2730 130.2850 614(25) 0.001539 458.8 599.4
130.3230 130.3350 571(25) 0.001662 458.8 580.7
130.3730 130.3850 564(24) 0.001678 458.8 563.9
130.4230 130.4350 530(24) 0.001789 458.7 549.1
130.4730 130.4850 535(24) 0.001770 458.7 536.4
130.5230 130.5350 532(24) 0.001795 458.7 525.9
130.5730 130.5850 521(23) 0.001819 458.6 517.7
130.6220 130.6340 490(23) 0.001948 458.6 510.9
130.6720 130.6840 507(23) 0.001869 458.6 505.4
130.7220 130.7340 496(23) 0.001922 458.5 501.4
130.7720 130.7840 527(23) 0.001820 458.5 498.6
130.8230 130.8350 513(23) 0.001863 458.5 496.8
130.8730 130.8850 523(23) 0.001829 458.4 496.1
130.9230 130.9350 505(23) 0.001882 458.4 496.3
130.9720 130.9840 446(22) 0.002157 458.4 497.6
131.0230 131.0350 489(23) 0.001960 458.3 500.2
131.0730 131.0850 476(22) 0.002004 458.3 504.1
131.1230 131.1350 515(23) 0.001863 458.3 509.7
131.1730 131.1850 500(23) 0.001912 458.2 517.3
131.2230 131.2350 548(24) 0.001746 458.2 526.9
131.2730 131.2850 535(24) 0.001771 458.2 538.6
131.3230 131.3350 567(24) 0.001682 458.1 552.2
131.3720 131.3840 600(25) 0.001580 458.1 567.0
131.4230 131.4350 593(25) 0.001618 458.1 583.3
131.4550 131.4670 634(26) 0.001452 458.0 593.5
131.5050 131.5170 586(25) 0.001571 458.0 608.1
131.5540 131.5660 632(26) 0.001461 458.0 619.4
131.6050 131.6170 646(27) 0.001422 457.9 626.7
131.6550 131.6670 642(26) 0.001427 457.9 629.0
131.7050 131.7170 634(26) 0.001447 457.9 625.3
131.7550 131.7670 605(26) 0.001518 457.8 619.7
131.8050 131.8170 605(26) 0.001532 457.8 611.7
131.8540 131.8660 581(25) 0.001594 457.8 602.7
131.9040 131.9160 638(26) 0.001447 457.7 593.8
131.9540 131.9660 585(25) 0.001586 457.7 586.0
132.0040 132.0160 603(25) 0.001544 457.7 579.7
132.0550 132.0670 611(26) 0.001521 457.6 575.1
132.1050 132.1170 586(25) 0.001586 457.6 572.4
132.1550 132.1670 575(25) 0.001615 457.6 571.2
132.2040 132.2160 642(26) 0.001450 457.5 571.3
132.2550 132.2670 643(26) 0.001447 457.5 572.8
132.3050 132.3170 641(26) 0.001438 457.5 575.3
132.3550 132.3670 629(26) 0.001482 457.4 579.0
132.4050 132.4170 620(26) 0.001498 457.4 583.9
132.4550 132.4670 637(26) 0.001452 457.4 589.6
132.5050 132.5170 651(27) 0.001420 457.3 595.8
132.5550 132.5670 656(27) 0.001406 457.3 601.8
132.6040 132.6160 628(26) 0.001460 457.3 606.5
132.6550 132.6670 647(26) 0.001441 457.2 610.0
132.7020 132.7140 648(27) 0.001369 457.2 611.2
132.7520 132.7640 641(27) 0.001369 457.2 610.0
132.8020 132.8140 684(28) 0.001287 457.1 606.1
132.8520 132.8640 658(27) 0.001343 457.1 599.9
132.9020 132.9140 669(28) 0.001317 457.1 592.2
132.9520 132.9640 676(28) 0.001305 457.0 583.8
133.0020 133.0140 652(27) 0.001354 457.0 575.7
133.0520 133.0640 688(28) 0.001287 457.0 568.6
133.1020 133.1140 592(26) 0.001500 456.9 563.3
133.1520 133.1640 630(27) 0.001412 456.9 560.5
133.2020 133.2140 643(27) 0.001393 456.9 560.6
133.2520 133.2640 585(26) 0.001526 456.8 564.0
133.3020 133.3140 632(27) 0.001413 456.8 570.9
133.3520 133.3640 656(27) 0.001359 456.8 581.1
133.4020 133.4140 651(27) 0.001361 456.7 594.4
133.4520 133.4640 677(28) 0.001315 456.7 609.8
133.5020 133.5140 706(28) 0.001255 456.7 626.3
133.5520 133.5640 661(27) 0.001337 456.6 642.6
133.6020 133.6140 641(27) 0.001380 456.6 656.7
133.6520 133.6640 702(28) 0.001267 456.6 667.3
133.7020 133.7140 659(27) 0.001343 456.5 673.4
133.7520 133.7640 735(29) 0.001200 456.5 674.4
133.8020 133.8140 650(27) 0.001368 456.5 670.5
133.8520 133.8640 638(27) 0.001364 456.4 662.3
133.9020 133.9140 627(27) 0.001419 456.4 651.5
133.9690 133.9810 574(25) 0.001560 456.4 633.6
134.0190 134.0310 565(25) 0.001580 456.3 619.9
134.0690 134.0810 562(25) 0.001592 456.3 607.1
134.1190 134.1310 578(25) 0.001549 456.3 596.0
134.1690 134.1810 502(24) 0.001789 456.2 587.2
134.2190 134.2310 552(25) 0.001615 456.2 581.2
134.2690 134.2810 555(25) 0.001617 456.2 577.3
134.3190 134.3310 520(24) 0.001751 456.1 576.6
134.3690 134.3810 555(25) 0.001623 456.1 578.0
134.4190 134.4310 508(24) 0.001780 456.1 581.0
134.4690 134.4810 544(25) 0.001663 456.1 584.8
134.5190 134.5310 555(25) 0.001625 456.0 588.7
134.5690 134.5810 543(25) 0.001610 456.0 592.5
134.6190 134.6310 597(26) 0.001477 456.0 595.9
134.6690 134.6810 578(25) 0.001549 455.9 599.3
134.7190 134.7310 602(26) 0.001505 455.9 602.9
134.7690 134.7810 582(25) 0.001565 455.9 606.7
134.8190 134.8310 584(26) 0.001529 455.8 610.7
134.8690 134.8810 634(26) 0.001429 455.8 614.3
134.9190 134.9310 631(27) 0.001418 455.8 616.9
134.9690 134.9810 596(26) 0.001523 455.7 617.9
135.0190 135.0310 630(27) 0.001424 455.7 616.8
135.0690 135.0810 594(26) 0.001514 455.7 613.6
135.1190 135.1310 561(25) 0.001610 455.6 608.4
135.1690 135.1810 570(25) 0.001592 455.6 601.7
135.2170 135.2290 590(25) 0.001662 455.6 594.3
135.2670 135.2790 539(23) 0.001815 455.5 585.8
135.3170 135.3290 531(23) 0.001852 455.5 576.6
135.3670 135.3790 529(23) 0.001860 455.5 566.9
135.4170 135.4290 542(23) 0.001814 455.5 557.1
135.4670 135.4790 532(23) 0.001845 455.4 547.3
135.5170 135.5290 474(22) 0.002062 455.4 537.7
135.5670 135.5790 553(24) 0.001797 455.4 528.8
135.6170 135.6290 481(22) 0.002062 455.3 520.9
135.6670 135.6790 487(22) 0.002033 455.3 513.4
135.7170 135.7290 505(23) 0.001946 455.3 506.9
135.7670 135.7790 506(23) 0.001961 455.2 501.1
135.8170 135.8290 463(22) 0.002122 455.2 496.5
135.8670 135.8790 465(22) 0.002126 455.2 492.3
135.9170 135.9290 497(22) 0.001988 455.1 488.8
135.9670 135.9790 440(21) 0.002233 455.1 486.0
136.0170 136.0290 479(22) 0.002076 455.1 483.6
136.0670 136.0790 458(22) 0.002141 455.1 481.8
136.1170 136.1290 486(22) 0.002042 455.0 480.3
136.1680 136.1800 466(22) 0.002130 455.0 479.2
136.2170 136.2290 471(22) 0.002114 455.0 478.3
136.2670 136.2790 477(22) 0.002047 454.9 477.7
136.3170 136.3290 462(22) 0.002145 454.9 477.3
136.3670 136.3790 467(22) 0.002120 454.9 477.1
136.4170 136.4290 460(22) 0.002143 454.8 477.1
136.4530 136.4650 470(22) 0.002145 454.8 477.1
136.5030 136.5150 496(22) 0.002011 454.8 477.4
136.5530 136.5650 464(22) 0.002161 454.8 477.7
136.6030 136.6150 444(21) 0.002263 454.7 478.3
136.6530 136.6650 470(22) 0.002143 454.7 479.0
136.7030 136.7150 469(22) 0.002124 454.7 480.1
136.7530 136.7650 498(22) 0.002002 454.6 481.5
136.8030 136.8150 464(21) 0.002182 454.6 483.3
136.8530 136.8650 449(21) 0.002253 454.6 485.6
136.9030 136.9150 451(21) 0.002246 454.6 488.3
136.9530 136.9650 459(21) 0.002200 454.5 491.6
137.0030 137.0150 493(22) 0.002051 454.5 495.5
137.0530 137.0650 490(22) 0.002068 454.5 499.9
137.1030 137.1150 462(21) 0.002204 454.4 504.8
137.1530 137.1650 472(22) 0.002128 454.4 510.0
137.2030 137.2150 533(23) 0.001907 454.4 515.2
137.2530 137.2650 510(22) 0.001986 454.4 520.2
137.3030 137.3150 477(22) 0.002102 454.3 524.5
137.3530 137.3650 513(23) 0.001968 454.3 528.0
137.4030 137.4150 539(23) 0.001872 454.3 530.4
137.4530 137.4650 516(23) 0.001954 454.2 531.8
137.5030 137.5150 483(22) 0.002089 454.2 532.4
137.5530 137.5650 507(22) 0.001995 454.2 532.5
137.6030 137.6150 543(23) 0.001853 454.2 532.4
137.6530 137.6650 492(22) 0.002060 454.1 532.6
137.6900 137.7020 502(22) 0.001981 454.1 533.1
137.7400 137.7520 495(22) 0.002020 454.1 534.7
137.7900 137.8020 508(23) 0.001954 454.1 537.6
137.8410 137.8530 488(22) 0.002036 454.0 542.9
137.8910 137.9030 490(22) 0.002042 454.0 550.5
137.9400 137.9520 519(23) 0.001920 454.0 560.7
137.9910 138.0030 547(24) 0.001806 454.0 575.1
138.0400 138.0520 606(25) 0.001652 453.9 593.3
138.0900 138.1020 579(24) 0.001719 453.9 617.0
138.1400 138.1520 587(24) 0.001703 453.9 646.4
138.1900 138.2020 651(26) 0.001537 453.9 682.0
138.2400 138.2520 687(26) 0.001455 453.8 723.8
138.2910 138.3030 751(27) 0.001333 453.8 772.5
138.3410 138.3530 841(29) 0.001177 453.8 825.3
138.3910 138.4030 874(30) 0.001131 453.7 881.6
138.4400 138.4520 943(31) 0.001051 453.7 938.0
138.4910 138.5030 991(32) 0.000998 453.7 995.2
138.5410 138.5530 1035(32) 0.000948 453.7 1046.6
138.5910 138.6030 1031(32) 0.000960 453.6 1089.4
138.6410 138.6530 1138(34) 0.000865 453.6 1119.7
138.6910 138.7030 1084(33) 0.000908 453.6 1134.9
138.7410 138.7530 1148(34) 0.000851 453.6 1133.9
138.7910 138.8030 1102(33) 0.000893 453.6 1117.7
138.8400 138.8520 1128(34) 0.000867 453.5 1089.5
138.8900 138.9020 1023(32) 0.000966 453.5 1051.5
138.9370 138.9490 1055(34) 0.000854 453.5 1010.1
138.9870 138.9990 964(33) 0.000946 453.5 962.8
139.0370 139.0490 894(31) 0.001028 453.4 914.2
139.0870 139.0990 873(31) 0.001045 453.4 866.4
139.1370 139.1490 824(30) 0.001099 453.4 820.9
139.1870 139.1990 777(29) 0.001187 453.4 778.9
139.2370 139.2490 811(30) 0.001123 453.3 741.0
139.2870 139.2990 710(28) 0.001311 453.3 707.2
139.3370 139.3490 680(27) 0.001349 453.3 677.2
139.3870 139.3990 705(28) 0.001281 453.3 650.9
139.4370 139.4490 651(27) 0.001404 453.3 627.8
139.4870 139.4990 616(26) 0.001508 453.2 607.8
139.5370 139.5490 648(26) 0.001442 453.2 590.6
139.5870 139.5990 565(25) 0.001644 453.2 576.0
139.6370 139.6490 611(26) 0.001513 453.2 563.7
139.6870 139.6990 543(24) 0.001685 453.1 553.8
139.7370 139.7490 570(25) 0.001603 453.1 545.4
139.7870 139.7990 568(25) 0.001626 453.1 538.7
139.8370 139.8490 539(24) 0.001730 453.1 533.6
139.8870 139.8990 563(24) 0.001667 453.1 530.0
139.9370 139.9490 527(24) 0.001774 453.0 527.5
139.9870 139.9990 530(24) 0.001717 453.0 526.4
140.0370 140.0490 516(24) 0.001779 453.0 526.6
140.0870 140.0990 544(24) 0.001695 453.0 528.2
140.1370 140.1490 538(24) 0.001742 453.0 531.3
140.2090 140.2210 514(24) 0.001794 452.9 539.0
140.2590 140.2710 527(24) 0.001739 452.9 546.8
140.3090 140.3210 540(24) 0.001692 452.9 556.8
140.3590 140.3710 550(25) 0.001629 452.9 569.2
140.4090 140.4210 576(25) 0.001564 452.9 584.2
140.4590 140.4710 590(26) 0.001532 452.8 601.6
140.5090 140.5210 582(25) 0.001557 452.8 621.4
140.5590 140.5710 658(27) 0.001382 452.8 643.1
140.6090 140.6210 631(26) 0.001444 452.8 666.4
140.6590 140.6710 688(28) 0.001311 452.8 689.8
140.7090 140.7210 739(28) 0.001239 452.7 712.6
140.7590 140.7710 764(29) 0.001177 452.7 733.7
140.8090 140.8210 760(29) 0.001196 452.7 752.2
140.8590 140.8710 799(30) 0.001133 452.7 767.6
140.9090 140.9210 804(30) 0.001124 452.7 779.5
140.9590 140.9710 805(30) 0.001136 452.7 787.5
141.0090 141.0210 789(29) 0.001153 452.7 791.3
141.0590 141.0710 790(29) 0.001157 452.6 791.0
141.1090 141.1210 742(29) 0.001223 452.6 786.4
141.1590 141.1710 758(29) 0.001187 452.6 778.2
141.2090 141.2210 768(29) 0.001184 452.6 767.0
141.2590 141.2710 695(28) 0.001305 452.6 753.4
141.3090 141.3210 719(28) 0.001269 452.6 738.5
141.3590 141.3710 700(28) 0.001282 452.5 722.6
141.4090 141.4210 696(28) 0.001297 452.5 706.5
141.4580 141.4700 695(27) 0.001398 452.5 690.9
141.5080 141.5200 675(26) 0.001430 452.5 675.5
141.5580 141.5700 745(28) 0.001309 452.5 661.4
141.6080 141.6200 725(27) 0.001336 452.5 648.9
141.6580 141.6700 657(26) 0.001482 452.5 638.8
141.7080 141.7200 653(26) 0.001493 452.5 631.1
141.7580 141.7700 665(26) 0.001463 452.4 626.4
141.8080 141.8200 662(26) 0.001444 452.4 625.0
141.8580 141.8700 622(25) 0.001575 452.4 627.2
141.9080 141.9200 678(26) 0.001447 452.4 633.4
141.9580 141.9700 604(25) 0.001629 452.4 644.0
142.0080 142.0200 674(26) 0.001458 452.4 659.3
142.0580 142.0700 724(27) 0.001349 452.4 679.5
142.1080 142.1200 758(28) 0.001283 452.4 704.7
142.1580 142.1700 777(28) 0.001246 452.4 735.0
142.2080 142.2200 725(27) 0.001350 452.3 770.2
142.2580 142.2700 809(29) 0.001204 452.3 809.4
142.3080 142.3200 848(30) 0.001146 452.3 851.8
142.3580 142.3700 882(30) 0.001102 452.3 896.8
142.4080 142.4200 893(30) 0.001087 452.3 943.3
142.4580 142.4700 942(31) 0.001029 452.3 989.8
142.5080 142.5200 1054(33) 0.000913 452.3 1034.7
142.5580 142.5700 1092(34) 0.000882 452.3 1075.9
142.6080 142.6200 1151(35) 0.000834 452.3 1110.9
142.6580 142.6700 1179(35) 0.000814 452.3 1137.4
142.6940 142.7060 1194(35) 0.000801 452. 1150.
142.7440 142.7560 1218(36) 0.000785 452. 1159.
142.7940 142.8060 1188(35) 0.000807 452. 1157.
142.8440 142.8560 1220(36) 0.000786 452. 1146.
142.8940 142.9060 1206(36) 0.000793 452. 1128.
142.9440 142.9560 1198(35) 0.000797 452. 1104.
142.9940 143.0060 1170(35) 0.000817 452.2 1076.9
143.0440 143.0560 1190(35) 0.000805 452. 1048.
143.0940 143.1060 1119(34) 0.000855 452.2 1017.1
143.1440 143.1560 1038(33) 0.000932 452.2 985.6
143.1940 143.2060 999(32) 0.000974 452.2 953.6
143.2440 143.2560 1005(32) 0.000966 452.2 921.5
143.2940 143.3060 915(31) 0.001062 452.2 889.6
143.3440 143.3560 828(29) 0.001176 452.2 858.1
143.3940 143.4060 806(29) 0.001209 452.2 827.4
143.4440 143.4560 883(30) 0.001105 452.2 797.6
143.4940 143.5060 773(28) 0.001271 452.2 769.1
143.5440 143.5560 779(28) 0.001250 452.2 742.1
143.5940 143.6060 755(28) 0.001295 452.2 717.1
143.6440 143.6560 704(27) 0.001395 452.2 694.0
143.6940 143.7060 689(27) 0.001420 452.2 673.2
143.7440 143.7560 678(26) 0.001436 452.2 654.8
143.7940 143.8060 634(25) 0.001548 452.2 638.7
143.8440 143.8560 611(25) 0.001610 452.2 625.0
143.8940 143.9060 547(24) 0.001808 452.2 613.6
143.9420 143.9540 597(24) 0.001712 452.2 604.9
143.9920 144.0040 533(23) 0.001922 452.2 598.0
144.0420 144.0540 592(24) 0.001730 452.2 593.2
144.0920 144.1040 608(24) 0.001671 452.2 590.6
144.1420 144.1540 586(24) 0.001746 452.2 590.2
144.1920 144.2040 511(22) 0.002000 452.2 592.1
144.2420 144.2540 584(24) 0.001745 452.2 596.6
144.2920 144.3040 579(24) 0.001776 452.2 603.8
144.3420 144.3540 581(24) 0.001768 452.3 614.1
144.3920 144.4040 654(25) 0.001570 452.3 627.9
144.4420 144.4540 653(25) 0.001576 452.3 645.5
144.4920 144.5040 631(25) 0.001630 452.3 667.3
144.5420 144.5540 654(25) 0.001575 452.3 693.7
144.5920 144.6040 661(25) 0.001559 452.3 724.8
144.6420 144.6540 736(27) 0.001384 452.3 760.7
144.6920 144.7040 788(28) 0.001300 452.3 801.5
144.7420 144.7540 806(28) 0.001269 452.3 846.7
144.7920 144.8040 882(30) 0.001147 452.3 895.9
144.8420 144.8540 887(29) 0.001151 452.3 948.2
144.8920 144.9040 915(30) 0.001113 452.3 1002.2
144.9420 144.9540 1004(31) 0.001011 452.3 1056.3
144.9920 145.0040 1067(33) 0.000945 452.4 1108.2
145.0420 145.0540 1130(33) 0.000893 452.4 1155.4
145.0920 145.1040 1164(34) 0.000864 452.4 1195.5
145.1420 145.1540 1186(34) 0.000852 452.4 1226.2
145.2050 145.2170 1259(36) 0.000782 452. 1249.
145.2550 145.2670 1213(35) 0.000814 452.4 1253.8
145.3050 145.3170 1195(35) 0.000827 452.4 1246.6
145.3550 145.3670 1251(36) 0.000786 452. 1229.
145.4050 145.4170 1219(35) 0.000807 452. 1201.
145.4550 145.4670 1260(36) 0.000782 452. 1166.
145.5050 145.5170 1192(35) 0.000819 452.5 1124.7
145.5550 145.5670 1115(33) 0.000892 452.5 1079.7
145.6050 145.6170 1052(33) 0.000943 452.5 1032.3
145.6550 145.6670 1011(32) 0.000982 452.5 984.3
145.7050 145.7170 961(31) 0.001033 452.6 936.7
145.7550 145.7670 981(31) 0.001016 452.6 890.8
145.8050 145.8170 830(29) 0.001205 452.6 847.1
145.8550 145.8670 812(28) 0.001238 452.6 806.4
145.9050 145.9170 804(28) 0.001243 452.6 769.0
145.9550 145.9670 795(28) 0.001264 452.7 735.0
146.0050 146.0170 697(26) 0.001446 452.7 704.5
146.0550 146.0670 715(27) 0.001396 452.7 677.3
146.1050 146.1170 688(26) 0.001467 452.7 653.3
146.1550 146.1670 680(26) 0.001485 452.8 632.2
146.2050 146.2170 697(26) 0.001444 452.8 613.9
146.2550 146.2670 655(26) 0.001535 452.8 598.1
146.3050 146.3170 590(24) 0.001715 452.8 584.6
146.3550 146.3670 603(24) 0.001671 452.8 573.1
146.4050 146.4170 624(25) 0.001623 452.9 563.4
146.4540 146.4660 577(24) 0.001785 452.9 555.4
146.5040 146.5160 579(24) 0.001770 452.9 548.5
146.5540 146.5660 581(24) 0.001786 452.9 542.7
146.6040 146.6160 561(23) 0.001848 453.0 537.9
146.6540 146.6660 547(23) 0.001890 453.0 533.8
146.7040 146.7160 559(23) 0.001845 453.0 530.5
146.7540 146.7660 577(24) 0.001791 453.1 527.7
146.8040 146.8160 566(23) 0.001837 453.1 525.3
146.8540 146.8660 541(23) 0.001924 453.1 523.0
146.9040 146.9160 487(22) 0.002126 453.2 521.6
146.9540 146.9660 519(22) 0.001997 453.2 520.5
147.0040 147.0160 521(22) 0.002009 453.2 519.6
147.0540 147.0660 515(22) 0.002005 453.3 519.1
147.1040 147.1160 538(23) 0.001944 453.3 518.9
147.1540 147.1660 527(23) 0.001970 453.3 519.0
147.2040 147.2160 514(22) 0.002035 453.4 519.3
147.2540 147.2660 543(23) 0.001927 453.4 520.0
147.3040 147.3160 584(24) 0.001771 453.4 520.9
147.3540 147.3660 503(22) 0.002079 453.5 522.3
147.4040 147.4160 494(22) 0.002114 453.5 524.1
147.4540 147.4660 556(23) 0.001874 453.5 526.3
147.5040 147.5160 539(23) 0.001936 453.6 529.1
147.5540 147.5660 533(23) 0.001948 453.6 532.6
147.6040 147.6160 568(23) 0.001834 453.7 537.0
147.6540 147.6660 535(23) 0.001944 453.7 542.3
147.6960 147.7080 547(23) 0.001948 453.7 547.8
147.7460 147.7580 627(24) 0.001702 453.8 555.7
147.7960 147.8080 589(24) 0.001788 453.8 565.3
147.8460 147.8580 627(24) 0.001696 453.9 577.1
147.8960 147.9080 618(24) 0.001715 453.9 591.2
147.9460 147.9580 621(24) 0.001712 453.9 608.3
147.9960 148.0080 662(25) 0.001603 454.0 628.5
148.0460 148.0580 662(25) 0.001621 454.0 652.2
148.0960 148.1080 697(26) 0.001523 454.1 679.8
148.1460 148.1580 673(25) 0.001585 454.1 711.5
148.1960 148.2080 722(26) 0.001483 454.2 747.2
148.2460 148.2580 770(27) 0.001387 454.2 787.1
148.2960 148.3080 872(29) 0.001223 454.3 830.8
148.3460 148.3580 845(28) 0.001260 454.3 877.9
148.3960 148.4080 911(29) 0.001154 454.4 927.5
148.4460 148.4580 973(30) 0.001091 454.4 978.7
148.4960 148.5080 1020(31) 0.001036 454.5 1029.8
148.5460 148.5580 1097(32) 0.000959 454.5 1079.3
148.5960 148.6080 1084(32) 0.000976 454.6 1125.0
148.6460 148.6580 1091(32) 0.000967 454.6 1165.1
148.6960 148.7080 1193(34) 0.000881 454.7 1197.8
148.7460 148.7580 1207(34) 0.000867 454.7 1222.1
148.7960 148.8080 1259(35) 0.000832 454.8 1237.2
148.8460 148.8580 1217(34) 0.000863 454.9 1243.5
148.8960 148.9080 1257(35) 0.000834 454.9 1241.5
148.9440 148.9560 1182(35) 0.000815 455.0 1232.8
148.9940 149.0060 1200(35) 0.000804 455. 1218.
149.0440 149.0560 1172(35) 0.000823 455.1 1199.0
149.0940 149.1060 1238(36) 0.000779 455. 1177.
149.1440 149.1560 1167(35) 0.000827 455.2 1152.5
149.1940 149.2060 1098(34) 0.000881 455.3 1127.2
149.2440 149.2560 1108(34) 0.000872 455.3 1101.5
149.2940 149.3060 1046(33) 0.000933 455.4 1076.3
149.3440 149.3560 1008(32) 0.000964 455.5 1052.1
149.3940 149.4060 1039(33) 0.000936 455.5 1029.5
149.4440 149.4560 1024(32) 0.000951 455.6 1009.1
149.4940 149.5060 953(31) 0.001019 455.7 991.0
149.5440 149.5560 934(31) 0.001047 455.7 975.1
149.5940 149.6060 942(31) 0.001029 455.8 961.4
149.6440 149.6560 954(31) 0.001016 455.9 949.3
149.6940 149.7060 900(30) 0.001084 455.9 938.3
149.7440 149.7560 876(30) 0.001117 456.0 927.7
149.7940 149.8060 889(30) 0.001099 456.1 917.0
149.8440 149.8560 881(30) 0.001116 456.2 905.6
149.8940 149.9060 876(30) 0.001110 456.2 893.5
149.9440 149.9560 881(30) 0.001116 456.3 880.3
149.9940 150.0060 865(30) 0.001129 456.4 866.1
150.0440 150.0560 841(29) 0.001165 456.5 851.0
150.0940 150.1060 809(29) 0.001215 456.5 835.3
150.1440 150.1560 769(28) 0.001266 456.6 819.0
150.1800 150.1920 777(28) 0.001265 456.7 807.2
150.2300 150.2420 744(28) 0.001317 456.7 790.9
150.2800 150.2920 803(29) 0.001216 456.8 774.9
150.3300 150.3420 785(28) 0.001251 456.9 759.3
150.3800 150.3920 743(27) 0.001324 457.0 744.4
150.4300 150.4420 731(27) 0.001338 457.1 730.2
150.4800 150.4920 711(27) 0.001389 457.2 716.9
150.5300 150.5420 705(27) 0.001403 457.2 704.7
150.5800 150.5920 732(27) 0.001353 457.3 693.5
150.6300 150.6420 720(27) 0.001374 457.4 683.5
150.6800 150.6920 704(27) 0.001409 457.5 674.8
150.7300 150.7420 647(26) 0.001534 457.6 667.3
150.7800 150.7920 644(25) 0.001546 457.7 661.0
150.8300 150.8420 656(26) 0.001515 457.8 655.9
150.8800 150.8920 619(25) 0.001606 457.9 652.0
150.9300 150.9420 596(24) 0.001681 458.0 649.1
150.9800 150.9920 631(25) 0.001582 458.1 647.2
151.0300 151.0420 647(26) 0.001508 458.1 646.2
151.0800 151.0920 605(25) 0.001646 458.2 646.0
151.1300 151.1420 591(24) 0.001694 458.3 646.8
151.1800 151.1920 616(25) 0.001601 458.4 648.4
151.2300 151.2420 622(25) 0.001596 458.5 650.9
151.2800 151.2920 598(24) 0.001669 458.6 654.4
151.3300 151.3420 603(25) 0.001655 458.7 659.0
151.3800 151.3920 602(25) 0.001650 458.8 664.8
151.4340 151.4460 648(25) 0.001550 458.9 672.4
151.4840 151.4960 618(25) 0.001614 459.1 680.9
151.5340 151.5460 654(26) 0.001534 459.2 690.8
151.5850 151.5970 650(25) 0.001545 459.3 702.3
151.6350 151.6470 674(26) 0.001484 459.4 715.0
151.6840 151.6960 716(27) 0.001388 459.5 728.8
151.7350 151.7470 688(26) 0.001453 459.6 744.2
151.7840 151.7960 715(27) 0.001406 459.7 759.9
151.8340 151.8460 668(26) 0.001505 459.8 776.6
151.8840 151.8960 769(28) 0.001301 459.9 793.6
151.9340 151.9460 788(28) 0.001266 460.0 810.4
151.9840 151.9960 813(28) 0.001235 460.1 826.7
152.0350 152.0470 771(28) 0.001311 460.3 842.3
152.0850 152.0970 795(28) 0.001266 460.4 856.3
152.1340 152.1460 810(28) 0.001235 460.5 868.7
152.1840 152.1960 866(29) 0.001159 460.6 879.8
152.2340 152.2460 862(29) 0.001162 460.7 889.7
152.2850 152.2970 857(29) 0.001166 460.9 898.7
152.3350 152.3470 868(29) 0.001159 461.0 906.7
152.3850 152.3970 911(30) 0.001096 461.1 914.4
152.4350 152.4470 967(31) 0.001031 461.2 922.0
152.4850 152.4970 913(30) 0.001092 461.4 929.9
152.5350 152.5470 947(31) 0.001053 461.5 938.2
152.5840 152.5960 906(30) 0.001104 461.6 947.0
152.6340 152.6460 1023(32) 0.000975 461.7 956.4
152.6920 152.7040 987(32) 0.000975 461.9 967.7
152.7420 152.7540 1031(33) 0.000930 462.0 977.4
152.7920 152.8040 1002(32) 0.000963 462.1 986.8
152.8420 152.8540 1010(32) 0.000954 462.3 995.4
152.8920 152.9040 968(32) 0.000996 462.4 1002.6
152.9420 152.9540 942(31) 0.001023 462.6 1008.0
152.9920 153.0040 1021(33) 0.000937 462.7 1011.0
153.0420 153.0540 1062(33) 0.000911 462.8 1011.4
153.0920 153.1040 993(32) 0.000973 463.0 1008.9
153.1420 153.1540 970(32) 0.001000 463.1 1003.5
153.1920 153.2040 1009(32) 0.000961 463.3 995.1
153.2420 153.2540 917(31) 0.001061 463.4 984.1
153.2920 153.3040 950(31) 0.001024 463.5 970.6
153.3420 153.3540 999(32) 0.000970 463.7 955.1
153.3920 153.4040 913(31) 0.001058 463.8 938.0
153.4420 153.4540 892(30) 0.001090 464.0 919.8
153.4920 153.5040 862(30) 0.001129 464.1 900.7
153.5420 153.5540 940(31) 0.001027 464.3 881.1
153.5920 153.6040 829(29) 0.001181 464.4 861.2
153.6420 153.6540 828(29) 0.001178 464.6 841.4
153.6920 153.7040 813(29) 0.001196 464.7 821.6
153.7420 153.7540 781(28) 0.001247 464.9 802.2
153.7920 153.8040 744(28) 0.001303 465.1 783.3
153.8420 153.8540 773(28) 0.001262 465.2 764.9
153.8920 153.9040 704(27) 0.001391 465.4 747.3
153.9400 153.9520 741(28) 0.001306 465.5 731.0
153.9900 154.0020 646(26) 0.001498 465.7 714.8
154.0390 154.0510 672(26) 0.001448 465.9 699.7
154.0900 154.1020 686(27) 0.001420 466.0 684.8
154.1400 154.1520 685(27) 0.001420 466.2 671.1
154.1900 154.2020 666(26) 0.001463 466.4 658.2
154.2400 154.2520 641(26) 0.001519 466.5 646.1
154.2900 154.3020 621(25) 0.001573 466.7 634.9
154.3390 154.3510 565(24) 0.001738 466.9 624.8
154.3890 154.4010 590(25) 0.001655 467.0 615.3
154.4390 154.4510 614(25) 0.001597 467.2 606.7
154.4890 154.5010 573(24) 0.001723 467.4 598.9
154.5400 154.5520 593(25) 0.001659 467.6 592.0
154.5900 154.6020 593(24) 0.001669 467.8 586.0
154.6400 154.6520 566(24) 0.001719 467.9 580.9
154.6890 154.7010 592(24) 0.001669 468.1 576.6
154.7400 154.7520 540(24) 0.001809 468.3 573.1
154.7900 154.8020 534(23) 0.001839 468.5 570.4
154.8400 154.8520 559(24) 0.001752 468.7 568.6
154.8900 154.9020 550(24) 0.001791 468.9 567.4
154.9400 154.9520 590(25) 0.001659 469.0 567.0
154.9900 155.0020 605(25) 0.001621 469.2 567.3
155.0400 155.0520 560(24) 0.001739 469.4 568.2
155.0890 155.1010 582(24) 0.001687 469.6 569.5
155.1390 155.1510 531(23) 0.001868 469.8 571.4
155.1920 155.2040 578(24) 0.001680 470.0 573.9
155.2420 155.2540 525(23) 0.001839 470.2 576.6
155.2920 155.3040 592(25) 0.001638 470.4 579.5
155.3420 155.3540 536(24) 0.001809 470.6 582.5
155.3920 155.4040 585(25) 0.001639 470.8 585.6
155.4420 155.4540 550(24) 0.001762 471.0 588.6
155.4920 155.5040 596(25) 0.001625 471.2 591.3
155.5420 155.5540 564(24) 0.001723 471.4 593.8
155.5920 155.6040 579(24) 0.001677 471.6 595.9
155.6420 155.6540 636(26) 0.001523 471.9 597.5
155.6920 155.7040 595(25) 0.001640 472.1 598.6
155.7420 155.7540 595(25) 0.001631 472.3 599.2
155.7920 155.8040 646(26) 0.001513 472.5 599.3
155.8420 155.8540 608(25) 0.001600 472.7 598.9
155.8920 155.9040 602(25) 0.001609 472.9 598.2
155.9420 155.9540 617(25) 0.001578 473.2 597.1
155.9920 156.0040 618(25) 0.001580 473.4 595.7
156.0420 156.0540 607(25) 0.001589 473.6 594.2
156.0920 156.1040 643(26) 0.001518 473.8 592.5
156.1420 156.1540 651(26) 0.001495 474.1 590.8
156.1920 156.2040 658(26) 0.001475 474.3 589.1
156.2420 156.2540 627(25) 0.001546 474.5 587.5
156.2920 156.3040 653(26) 0.001483 474.7 586.0
156.3420 156.3540 630(26) 0.001531 475.0 584.8
156.3920 156.4040 628(25) 0.001549 475.2 583.7
156.4400 156.4520 629(25) 0.001571 475.4 583.0
156.4900 156.5020 653(26) 0.001503 475.7 582.4
156.5400 156.5520 702(27) 0.001401 475.9 582.2
156.5900 156.6020 648(26) 0.001521 476.2 582.2
156.6400 156.6520 667(26) 0.001470 476.4 582.6
156.6900 156.7020 641(26) 0.001528 476.6 583.2
156.7410 156.7530 644(26) 0.001525 476.9 584.0
156.7900 156.8020 652(26) 0.001523 477.1 585.1
156.8400 156.8520 694(27) 0.001421 477.4 586.4
156.8900 156.9020 673(26) 0.001469 477.6 587.9
156.9400 156.9520 672(26) 0.001467 477.9 589.5
156.9900 157.0020 660(26) 0.001502 478.2 591.2
157.0410 157.0530 627(25) 0.001580 478.4 593.0
157.0900 157.1020 677(26) 0.001462 478.7 594.9
157.1400 157.1520 647(26) 0.001526 478.9 596.9
157.1900 157.2020 696(27) 0.001414 479.2 599.0
157.2400 157.2520 673(26) 0.001475 479.5 601.2
157.2900 157.3020 664(26) 0.001480 479.7 603.6
157.3400 157.3520 666(26) 0.001484 480.0 606.1
157.3910 157.4030 660(26) 0.001502 480.3 608.8
157.4410 157.4530 618(25) 0.001601 480.5 611.6
157.4900 157.5020 698(27) 0.001407 480.8 614.6
157.5400 157.5520 621(25) 0.001591 481.1 617.8
157.5900 157.6020 664(26) 0.001491 481.4 621.1
157.6400 157.6520 634(25) 0.001567 481.6 624.5
157.6790 157.6910 701(28) 0.001300 481.9 627.3
157.7290 157.7410 647(27) 0.001396 482.1 630.9
157.7790 157.7910 694(28) 0.001309 482.4 634.5
157.8290 157.8410 700(28) 0.001296 482.7 638.0
157.8790 157.8910 695(28) 0.001312 483.0 641.4
157.9290 157.9410 643(27) 0.001415 483.3 644.6
157.9790 157.9910 709(28) 0.001273 483.6 647.5
158.0290 158.0410 655(27) 0.001390 483.9 650.1
158.0790 158.0910 643(27) 0.001399 484.2 652.3
158.1290 158.1410 644(27) 0.001399 484.5 654.0
158.1790 158.1910 691(28) 0.001317 484.8 655.3
158.2290 158.2410 630(26) 0.001458 485.1 656.1
158.2790 158.2910 696(28) 0.001317 485.4 656.5
158.3290 158.3410 661(27) 0.001377 485.7 656.4
158.3790 158.3910 651(27) 0.001401 486.0 656.1
158.4290 158.4410 691(28) 0.001311 486.3 655.4
158.4790 158.4910 612(26) 0.001499 486.6 654.5
158.5290 158.5410 634(27) 0.001421 486.9 653.4
158.5790 158.5910 621(26) 0.001474 487.3 652.2
158.6290 158.6410 612(26) 0.001491 487.6 651.0
158.6790 158.6910 647(27) 0.001421 487.9 649.8
158.7290 158.7410 588(26) 0.001521 488.2 648.7
158.7790 158.7910 628(26) 0.001453 488.5 647.8
158.8290 158.8410 601(26) 0.001519 488.9 647.1
158.8790 158.8910 655(27) 0.001402 489.2 646.7
158.9320 158.9440 623(26) 0.001435 489.6 646.6
158.9820 158.9940 618(27) 0.001408 489.9 646.9
159.0320 159.0440 630(27) 0.001418 490.2 647.5
159.0830 159.0950 626(26) 0.001439 490.6 648.5
159.1330 159.1450 651(27) 0.001380 490.9 650.0
159.1820 159.1940 581(25) 0.001552 491.2 651.8
159.2330 159.2450 620(26) 0.001455 491.6 654.1
159.2820 159.2940 611(26) 0.001439 491.9 656.7
159.3320 159.3440 623(26) 0.001450 492.3 659.7
159.3820 159.3940 633(26) 0.001428 492.6 663.2
159.4320 159.4440 633(26) 0.001437 493.0 667.1
159.4820 159.4940 663(27) 0.001363 493.3 671.3
159.5330 159.5450 646(27) 0.001396 493.7 676.0
159.5830 159.5950 602(26) 0.001509 494.1 680.9
159.6330 159.6450 662(27) 0.001370 494.4 686.0
159.6820 159.6940 680(27) 0.001335 494.8 691.2
159.7330 159.7450 677(27) 0.001325 495.2 696.7
159.7830 159.7950 640(27) 0.001404 495.5 702.2
159.8330 159.8450 603(26) 0.001463 495.9 707.7
159.8830 159.8950 684(28) 0.001322 496.3 713.0
159.9330 159.9450 661(27) 0.001363 496.6 718.1
159.9830 159.9950 658(27) 0.001371 497.0 722.8
160.0330 160.0450 688(28) . . .
160.0820 160.0940 624(27) . . .
160.1320 160.1440 712(28) . . .
160.1910 160.2030 620(29) . . .
160.2410 160.2530 661(29) . . .
160.2910 160.3030 666(30) . . .
160.3410 160.3530 710(31) . . .
160.3910 160.4030 683(30) . . .
160.4410 160.4530 675(30) . . .
160.4910 160.5030 715(31) . . .
160.5410 160.5530 622(29) . . .
160.5910 160.6030 674(30) . . .
160.6410 160.6530 672(30) . . .
160.6910 160.7030 660(30) . . .
160.7410 160.7530 679(30) . . .
160.7910 160.8030 596(28) . . .
160.8410 160.8530 661(29) . . .
160.8910 160.9030 614(29) . . .
160.9410 160.9530 643(29) . . .
160.9910 161.0030 626(29) . . .
161.0410 161.0530 662(29) . . .
161.0910 161.1030 638(29) . . .
161.1410 161.1530 628(28) . . .
161.1910 161.2030 607(28) . . .
161.2410 161.2530 682(30) . . .
161.2910 161.3030 617(28) . . .
161.3410 161.3530 641(29) . . .
161.3910 161.4030 688(30) . . .
161.4470 161.4590 628(35) . . .
161.4970 161.5090 622(35) . . .
161.5470 161.5590 706(37) . . .
161.5970 161.6090 690(36) . . .
161.6470 161.6590 607(34) . . .
161.6970 161.7090 636(35) . . .
161.7470 161.7590 644(35) . . .
161.7970 161.8090 702(37) . . .
161.8470 161.8590 677(36) . . .
161.8970 161.9090 712(37) . . .
161.9470 161.9590 639(35) . . .
161.9970 162.0090 680(37) . . .
162.0470 162.0590 732(37) . . .
162.0970 162.1090 673(36) . . .
162.1470 162.1590 733(37) . . .
162.1970 162.2090 721(37) . . .
162.2470 162.2590 724(37) . . .
162.2970 162.3090 712(37) . . .
162.3470 162.3590 696(36) . . .
162.3970 162.4090 751(38) . . .
162.4470 162.4590 706(37) . . .
162.4970 162.5090 756(38) . . .
loop_
_refln_index_h
_refln_index_k
_refln_index_l
_refln_observed_status
_refln_F_squared_meas
_refln_F_squared_calc
_refln_phase_calc
_refln_d_spacing
_gsas_i100_meas
0 1 0 o 0.290 0.192 0.00 5.45546 3.60
1 0 0 o 0.000 0.002 0.00 5.08192 0.00
0 1 1 o 0.136 0.153 180.00 3.78966 1.65
1 1 0 o 0.622 0.752 0.00 3.71851 7.26
1 1 -1 o 8.967 8.642 0.00 3.16334 76.56
1 1 1 o 7.583 7.959 180.00 2.92641 55.73
0 2 0 o 0.056 0.028 0.00 2.72773 0.18
0 0 2 o 0.001 0.000 180.00 2.63411 0.00
2 0 0 o 2.415 2.321 180.00 2.54096 6.79
1 0 -2 o 2.767 2.326 180.00 2.45435 7.28
0 2 1 o 0.007 0.006 180.00 2.42229 0.04
1 2 0 o 0.696 0.539 0.00 2.40340 3.52
0 1 2 o 1.669 1.493 0.00 2.37208 8.24
2 1 0 o 0.050 0.047 0.00 2.30337 0.23
1 1 -2 o 2.402 2.531 0.00 2.23827 10.65
1 0 2 o 6.278 6.612 0.00 2.23786 13.91
1 2 -1 o 6.441 6.789 180.00 2.23198 28.40
2 1 -1 o 1.392 1.475 180.00 2.19435 5.95
1 2 1 o 13.281 13.316 180.00 2.14388 54.38
1 1 2 o 5.155 5.549 180.00 2.07043 19.81
2 1 1 o 0.771 0.723 0.00 2.03552 2.87
2 0 -2 o 32.614 33.202 180.00 1.94135 55.78
0 2 2 o 19.359 20.363 0.00 1.89483 63.42
2 2 0 o 31.566 27.688 180.00 1.85925 100.00
2 1 -2 o 3.074 2.795 180.00 1.82900 9.46
1 2 -2 o 1.970 1.882 180.00 1.82451 6.04
0 3 0 o 0.048 0.047 0.00 1.81849 0.07
2 2 -1 o 3.835 3.636 0.00 1.80048 11.48
2 0 2 o 33.699 32.817 180.00 1.73375 47.25
1 2 2 o 0.368 0.358 0.00 1.73012 1.03
0 3 1 o 5.106 5.040 180.00 1.71896 14.11
1 3 0 o 2.322 2.337 180.00 1.71217 6.37
2 2 1 o 6.863 6.973 180.00 1.70959 18.79
3 0 0 o 1.085 1.187 180.00 1.69397 1.46
0 1 3 o 1.925 2.179 180.00 1.67161 5.07
2 1 2 o 3.033 3.036 180.00 1.65232 7.84
1 3 -1 o 5.833 5.805 180.00 1.64681 14.99
1 1 -3 o 16.160 16.034 180.00 1.64102 41.28
3 1 0 o 0.002 0.002 180.00 1.61778 0.00
1 3 1 o 3.543 3.776 0.00 1.61046 8.77
3 1 -1 o 8.689 7.344 0.00 1.59544 21.18
2 2 -2 o 1.556 0.542 0.00 1.58167 3.74
1 1 3 o 2.127 2.668 0.00 1.53964 4.89
3 0 -2 o 2.271 2.411 0.00 1.50397 2.52
3 1 1 o 7.953 8.420 180.00 1.50181 17.58
0 3 2 o 2.040 2.186 0.00 1.49651 4.48
2 3 0 o 2.039 2.076 180.00 1.47880 4.40
0 2 3 o 7.912 7.916 0.00 1.47655 17.02
2 1 -3 o 0.785 0.767 180.00 1.47083 1.68
2 2 2 o 0.524 0.536 0.00 1.46321 1.11
1 3 -2 o 3.023 3.132 0.00 1.46113 6.40
1 2 -3 o 1.826 1.870 180.00 1.45534 3.84
3 1 -2 o 10.193 10.075 180.00 1.44988 21.32
2 3 -1 o 0.785 0.772 180.00 1.44870 1.64
3 2 0 o 0.003 0.003 0.00 1.43905 0.01
3 2 -1 o 11.658 11.676 0.00 1.42326 23.70
1 3 2 o 2.709 2.693 0.00 1.41128 5.44
2 3 1 o 0.000 0.000 180.00 1.40008 0.00
1 2 3 o 0.000 0.154 180.00 1.38323 0.00
0 4 0 o 0.460 0.483 0.00 1.36387 0.44
3 0 2 o 5.491 5.469 180.00 1.35691 5.20
3 2 1 o 5.843 5.832 0.00 1.35560 11.05
2 2 -3 o 0.030 0.022 0.00 1.33268 0.05
2 1 3 o 0.283 0.210 0.00 1.33242 0.52
2 3 -2 o 0.053 0.045 180.00 1.32718 0.10
0 4 1 o 9.309 8.717 0.00 1.32034 16.96
1 4 0 o 1.813 1.591 180.00 1.31725 3.29
0 0 4 o 12.043 10.486 0.00 1.31706 10.93
3 2 -2 o 0.038 0.033 180.00 1.31704 0.07
3 1 2 o 0.429 0.370 0.00 1.31679 0.78
1 0 -4 o 2.058 1.216 180.00 1.31133 1.86
1 4 -1 o 16.695 17.541 180.00 1.28679 29.36
0 1 4 o 13.448 14.023 0.00 1.28027 23.49
1 1 -4 o 4.138 4.289 0.00 1.27501 7.19
4 0 0 o 46.822 47.630 0.00 1.27048 40.48
1 4 1 o 9.008 9.082 180.00 1.26922 15.56
0 3 3 o 1.512 1.538 180.00 1.26322 2.59
3 1 -3 o 2.717 2.991 180.00 1.25928 4.64
2 3 2 o 0.047 0.056 180.00 1.25484 0.08
1 3 -3 o 0.158 0.180 180.00 1.24986 0.27
1 0 4 o 0.603 0.692 0.00 1.24141 0.51
3 3 0 o 3.224 3.477 180.00 1.23950 5.40
4 1 0 o 0.029 0.030 0.00 1.23737 0.05
4 1 -1 o 0.288 0.292 0.00 1.23514 0.48
3 3 -1 o 4.091 4.362 180.00 1.22937 6.79
2 0 -4 o 6.572 6.836 0.00 1.22718 5.44
2 2 3 o 0.618 0.643 180.00 1.22714 1.02
3 2 2 o 4.158 4.379 180.00 1.21490 6.80
0 4 2 o 3.773 3.849 180.00 1.21115 6.15
1 1 4 o 0.159 0.162 180.00 1.21047 0.26
1 3 3 o 24.386 23.054 180.00 1.20329 39.42
2 4 0 o 7.719 7.243 0.00 1.20170 12.46
4 0 -2 o 0.149 0.142 180.00 1.19839 0.12
2 1 -4 o 9.871 9.455 180.00 1.19726 15.86
1 4 -2 o 5.208 5.104 0.00 1.19216 8.33
0 2 4 o 3.857 3.715 180.00 1.18604 6.13
2 4 -1 o 1.853 1.790 180.00 1.18538 2.94
3 3 1 o 5.573 5.395 0.00 1.18497 8.85
1 2 -4 o 0.135 0.135 0.00 1.18185 0.21
4 1 1 o 0.022 0.022 0.00 1.17620 0.04
4 1 -2 o 0.697 0.735 0.00 1.17048 1.09
2 3 -3 o 11.331 12.195 180.00 1.16957 17.74
3 2 -3 o 0.084 0.091 0.00 1.16929 0.13
1 4 2 o 0.069 0.085 0.00 1.16462 0.11
3 3 -2 o 1.263 1.508 0.00 1.15896 1.96
2 4 1 o 0.102 0.122 0.00 1.15830 0.16
4 2 0 o 0.029 0.023 180.00 1.15169 0.04
4 2 -1 o 0.720 0.594 0.00 1.14989 1.11
3 1 3 o 15.993 15.076 0.00 1.13074 24.20
1 2 4 o 1.648 1.572 0.00 1.12990 2.49
2 2 -4 o 10.231 9.393 180.00 1.11914 15.33
2 0 4 o 6.961 6.385 0.00 1.11893 5.22
2 4 -2 o 2.320 2.061 180.00 1.11599 3.47
4 2 1 o 0.369 0.338 0.00 1.10187 0.55
3 0 -4 o 0.015 0.014 180.00 1.10166 0.01
4 2 -2 o 17.334 17.084 0.00 1.09717 25.55
4 0 2 o 0.159 0.157 180.00 1.09698 0.12
2 3 3 o 6.686 6.715 0.00 1.09628 9.85
2 1 4 o 9.744 9.817 180.00 1.09611 14.35
0 5 0 o 1.945 2.022 0.00 1.09109 1.43
3 3 2 o 1.507 1.767 0.00 1.08752 2.21
3 1 -4 o 1.704 1.611 180.00 1.07986 2.48
0 4 3 o 0.118 0.103 180.00 1.07716 0.17
4 1 2 o 1.178 1.017 0.00 1.07545 1.71
2 4 2 o 3.283 2.132 180.00 1.07194 4.76
1 4 -3 o 1.154 0.795 180.00 1.06884 1.67
0 5 1 o 1.265 0.901 0.00 1.06842 1.83
4 1 -3 o 4.731 3.432 0.00 1.06820 6.84
1 5 0 o 4.569 3.703 0.00 1.06678 6.60
0 3 4 o 0.094 0.077 0.00 1.06668 0.14
3 2 3 o 1.524 1.442 0.00 1.06424 2.20
1 3 -4 o 1.878 1.844 180.00 1.06363 2.71
3 4 0 o 1.564 1.633 180.00 1.06234 2.25
3 4 -1 o 7.936 7.955 0.00 1.05594 11.39
3 3 -3 o 19.248 20.268 0.00 1.05445 27.61
1 5 -1 o 0.027 0.030 0.00 1.05041 0.04
4 3 0 o 0.028 0.028 0.00 1.04148 0.04
1 5 1 o 5.085 5.118 180.00 1.04078 7.25
4 3 -1 o 8.827 8.986 0.00 1.04015 12.58
1 4 3 o 3.700 3.802 180.00 1.03927 5.27
1 1 -5 o 0.978 0.988 0.00 1.03640 1.39
2 2 4 o 9.016 9.579 180.00 1.03522 12.82
0 1 5 o 0.175 0.193 0.00 1.03453 0.25
3 4 1 o 14.689 14.741 0.00 1.02740 20.83
1 3 4 o 2.072 2.353 180.00 1.02529 2.94
3 2 -4 o 0.352 0.414 0.00 1.02149 0.50
4 2 2 o 16.191 16.896 0.00 1.01776 22.89
2 4 -3 o 7.990 8.346 0.00 1.01732 11.30
2 3 -4 o 1.618 1.690 180.00 1.01722 2.29
5 0 0 o 0.490 0.511 0.00 1.01638 0.35
4 2 -3 o 5.037 4.139 180.00 1.01160 7.11
3 4 -2 o 0.149 0.107 0.00 1.01031 0.21
0 5 2 o 0.522 0.322 180.00 1.00804 0.74
4 3 1 o 2.154 2.004 180.00 1.00421 3.04
2 5 0 o 0.462 0.456 180.00 1.00257 0.65
5 1 -1 o 8.727 8.628 0.00 1.00223 12.30
4 3 -2 o 1.516 1.472 0.00 1.00065 2.14
5 1 0 o 2.458 2.370 0.00 0.99919 3.46
2 1 -5 o 0.576 0.565 180.00 0.99748 0.81
1 5 -2 o 14.222 14.039 180.00 0.99701 20.04
2 5 -1 o 7.436 7.283 180.00 0.99304 10.48
1 1 5 o 20.590 20.172 180.00 0.99250 29.01
3 0 4 o 3.655 4.137 180.00 0.98725 2.58
5 0 -2 o 0.060 0.072 180.00 0.98631 0.04
1 2 -5 o 0.538 0.631 0.00 0.98447 0.76
0 2 5 o 1.698 1.806 180.00 0.98287 2.39
1 5 2 o 0.127 0.137 180.00 0.98073 0.18
2 5 1 o 3.087 3.459 0.00 0.97695 4.36
3 3 3 o 0.091 0.097 0.00 0.97547 0.13
3 1 4 o 1.280 1.161 0.00 0.97147 1.81
2 4 3 o 14.148 14.073 180.00 0.96797 20.02
4 0 -4 o 8.778 8.189 0.00 0.97068 6.21
5 1 -2 o 4.950 4.638 0.00 0.97057 7.00
4 1 3 o 1.294 1.379 180.00 0.96295 1.83
5 1 1 o 6.122 6.683 180.00 0.96237 8.68
3 4 2 o 4.405 4.918 0.00 0.96193 6.25
4 1 -4 o 9.443 10.107 0.00 0.95567 13.44
5 2 -1 o 4.211 4.559 180.00 0.95504 6.00
2 3 4 o 1.587 1.690 180.00 0.95298 2.26
5 2 0 o 2.131 2.272 0.00 0.95242 3.04
2 5 -2 o 0.028 0.031 180.00 0.95116 0.04
2 2 -5 o 0.279 0.302 0.00 0.95093 0.40
0 4 4 o 5.412 6.490 0.00 0.94742 7.75
1 2 5 o 0.005 0.007 180.00 0.94661 0.01
1 4 -4 o 0.444 0.540 180.00 0.94528 0.64
3 3 -4 o 3.512 3.454 180.00 0.94224 5.05
4 3 2 o 1.685 1.475 0.00 0.93931 2.43
3 4 -3 o 3.423 2.991 0.00 0.93881 4.94
4 3 -3 o 3.237 3.324 0.00 0.93446 4.69
3 1 -5 o 18.486 18.965 0.00 0.92985 26.94
4 4 0 o 0.582 0.598 0.00 0.92963 0.85
4 4 -1 o 3.459 3.495 180.00 0.92868 5.05
3 2 4 o 0.027 0.027 180.00 0.92832 0.04
5 2 -2 o 0.738 0.696 180.00 0.92753 1.08
0 5 3 o 8.228 7.363 180.00 0.92677 12.04
2 5 2 o 0.013 0.012 180.00 0.92345 0.02
2 1 5 o 0.191 0.178 0.00 0.92315 0.28
1 5 -3 o 11.582 11.184 180.00 0.92146 17.08
4 2 3 o 10.481 10.092 0.00 0.92088 15.47
5 2 1 o 8.699 8.411 180.00 0.92036 12.85
1 4 4 o 3.336 3.363 180.00 0.91806 4.95
3 5 0 o 4.587 4.654 0.00 0.91728 6.81
4 2 -4 o 4.448 4.472 180.00 0.91450 6.64
5 0 2 o 11.248 11.264 0.00 0.91427 8.40
3 5 -1 o 4.492 4.433 0.00 0.91315 6.72
5 1 -3 o 13.090 12.900 180.00 0.91301 19.59
1 3 -5 o 34.482 33.961 180.00 0.91295 51.61
2 4 -4 o 0.785 0.764 0.00 0.91225 1.18
0 3 5 o 1.358 1.301 180.00 0.91167 2.04
0 6 0 o 17.030 16.370 180.00 0.90924 12.84
4 4 1 o 14.287 13.315 0.00 0.90283 21.85
4 4 -2 o 4.356 3.867 180.00 0.90024 6.71
1 5 3 o 0.917 0.845 180.00 0.90231 1.40
5 1 2 o 1.825 1.661 180.00 0.90170 2.80
0 6 1 o 3.973 3.865 180.00 0.89600 6.19
1 6 0 o 3.024 3.017 0.00 0.89503 4.72
3 5 1 o 0.093 0.093 180.00 0.89451 0.14
3 2 -5 o 0.007 0.007 180.00 0.89180 0.01
5 3 -1 o 4.357 3.999 180.00 0.88933 6.93
2 5 -3 o 0.022 0.018 0.00 0.88783 0.03
5 3 0 o 1.465 1.144 180.00 0.88721 2.35
2 3 -5 o 0.242 0.180 0.00 0.88601 0.39
2 2 5 o 1.691 1.253 180.00 0.88588 2.72
1 6 -1 o 2.689 1.939 180.00 0.88529 4.33
1 3 5 o 2.682 2.456 180.00 0.88251 4.37
1 0 -6 o 4.910 4.960 0.00 0.88205 4.01
3 4 3 o 0.625 0.669 0.00 0.88178 1.02
3 5 -2 o 0.009 0.007 180.00 0.88316 0.01
1 6 1 o 1.701 2.086 180.00 0.87951 2.80
0 0 6 o 4.748 5.679 180.00 0.87804 3.94
5 2 -3 o 0.667 0.891 180.00 0.87692 1.11
1 1 -6 o 0.860 1.248 180.00 0.87075 1.48
3 3 4 o 2.552 2.733 180.00 0.86763 4.46
5 3 -2 o 3.676 3.769 0.00 0.86699 6.44
0 1 6 o 7.887 8.039 0.00 0.86688 13.84
4 0 4 o 8.529 8.691 0.00 0.86688 7.48
5 2 2 o 0.750 0.764 0.00 0.86687 1.32
2 4 4 o 0.825 0.767 0.00 0.86506 1.46
4 3 3 o 0.018 0.018 180.00 0.86155 0.03
5 3 1 o 4.598 4.607 0.00 0.86113 8.36
2 0 -6 o 9.265 9.149 180.00 0.86036 8.47
0 6 2 o 1.239 1.185 180.00 0.85948 2.28
3 4 -4 o 3.628 3.485 180.00 0.85700 6.80
4 3 -4 o 0.037 0.035 0.00 0.85632 0.07
4 1 4 o 11.212 10.593 0.00 0.85614 21.15
2 6 0 o 6.111 5.766 0.00 0.85608 11.53
4 4 2 o 3.871 3.684 180.00 0.85479 7.38
2 5 3 o 0.976 0.945 180.00 0.85446 1.87
1 6 -2 o 0.077 0.083 180.00 0.85262 0.15
5 0 -4 o 0.184 0.200 180.00 0.85245 0.18
4 4 -3 o 1.282 1.347 0.00 0.85114 2.52
3 5 2 o 10.847 10.856 180.00 0.85030 21.52
2 6 -1 o 2.576 2.548 0.00 0.85013 5.12
2 1 -6 o 10.160 9.854 180.00 0.84985 20.25
4 1 -5 o 0.044 0.042 180.00 0.84956 0.09
1 0 6 o 0.600 0.559 180.00 0.84931 0.60
6 0 0 o 0.430 0.359 180.00 0.84699 0.44
3 1 5 o 1.081 1.085 180.00 0.84241 2.34
1 6 2 o 14.305 14.377 180.00 0.84237 30.96
5 1 -4 o 6.800 6.851 0.00 0.84223 14.74
6 1 -1 o 2.506 2.558 180.00 0.84124 5.50
1 2 -6 o 0.037 0.039 0.00 0.83927 0.08
1 1 6 o 0.166 0.172 0.00 0.83920 0.37
0 5 4 o 2.953 3.045 180.00 0.84022 6.58
1 5 -4 o 0.669 0.709 0.00 0.83873 1.52
2 6 1 o 4.794 4.949 180.00 0.83997 10.71
3 3 -5 o 1.513 1.714 0.00 0.83760 3.50
0 2 6 o 8.685 9.279 0.00 0.83580 20.69
6 1 0 o 0.227 0.258 0.00 0.83696 0.53
1 4 -5 o 0.354 0.363 180.00 0.83479 0.86
3 5 -3 o 0.436 0.446 0.00 0.83420 1.07
6 0 -2 o 22.097 22.618 180.00 0.83419 27.08
2 3 5 o 1.578 1.649 180.00 0.83269 3.98
0 4 5 o 2.035 2.092 0.00 0.83381 5.02
5 1 3 o 3.462 2.954 0.00 0.82983 9.28
4 5 0 o 2.261 1.658 0.00 0.82774 6.38
5 3 -3 o 0.031 0.034 0.00 0.82523 0.09
4 2 4 o 4.245 4.009 180.00 0.82616 12.53
4 5 -1 o 0.074 0.059 180.00 0.82707 0.21
6 1 -2 o 0.786 0.899 180.00 0.82460 2.44
