#------------------------------------------------------------------------------
#$Date: 2021-04-15 11:37:01 +0300 (Thu, 15 Apr 2021) $
#$Revision: 264196 $
#$URL: file:///home/coder/svn-repositories/cod/cif/1/56/18/1561813.cif $
#------------------------------------------------------------------------------
#
# This file is available in the Crystallography Open Database (COD),
# http://www.crystallography.net/
#
# All data on this site have been placed in the public domain by the
# contributors.
#
data_1561813
loop_
_publ_author_name
'Takayuki, Hashimoto'
'Yamane, Hisanori'
'Becker, Nils'
'Dronskowski, Richard'
_publ_section_title
;
 Synthesis and crystal structure of Ba26B12Si5N27 containing [Si2]
 dumbbells
;
_journal_name_full               'Journal of Solid State Chemistry'
_journal_page_first              390
_journal_page_last               396
_journal_paper_doi               10.1016/j.jssc.2015.07.022
_journal_volume                  230
_journal_year                    2015
_chemical_formula_moiety
;
B8 N16, B16 N32, 16(B N2), B8
N16, 1.25(Si16),
6.000(N2), 104(Ba)
;
_chemical_formula_structural     Ba26N3(Si5)(BN2)12
_chemical_formula_sum            'B12 Ba26 N27 Si5'
_chemical_formula_weight         4219.28
_chemical_name_systematic
;
tridecabarium hexaboron tetrasilicon tetradecanitrogen
;
_space_group_crystal_system      orthorhombic
_space_group_IT_number           43
_space_group_name_Hall           'F 2 -2d'
_space_group_name_H-M_alt        'F d d 2'
_atom_sites_solution_primary     direct
_atom_sites_solution_secondary   difmap
_cell_angle_alpha                90
_cell_angle_beta                 90
_cell_angle_gamma                90
_cell_formula_units_Z            4
_cell_length_a                   17.6942(4)
_cell_length_b                   34.1437(6)
_cell_length_c                   10.04098(18)
_cell_measurement_reflns_used    23077
_cell_measurement_temperature    293(2)
_cell_measurement_theta_max      27.54
_cell_measurement_theta_min      3.315
_cell_volume                     6066.2(2)
_computing_cell_refinement       'RAPID-AUTO (Rigaku/MSC, 2005)'
_computing_data_collection       'RAPID-AUTO (Rigaku/MSC, 2005)'
_computing_data_reduction        'RAPID-AUTO (Rigaku/MSC, 2005)'
_computing_molecular_graphics    'VESTA (Momma & Izumi, 2008)'
_computing_publication_material  'SHELXL-2014 (Sheldrick, 2014)'
_computing_structure_refinement  'SHELXL-2014 (Sheldrick, 2014)'
_computing_structure_solution    'SIR2004 (Burla et al., 2005)'
_diffrn_ambient_temperature      293(2)
_diffrn_detector_area_resol_mean 10.0
_diffrn_measured_fraction_theta_full 0.997
_diffrn_measured_fraction_theta_max 0.998
_diffrn_measurement_device_type  'Rigaku RAXIS-RAPID II'
_diffrn_measurement_method       \w
_diffrn_radiation_monochromator  graphite
_diffrn_radiation_source         'fine-focus sealed tube'
_diffrn_radiation_type           MoK\a
_diffrn_radiation_wavelength     0.71075
_diffrn_reflns_av_R_equivalents  0.0376
_diffrn_reflns_av_unetI/netI     0.0243
_diffrn_reflns_Laue_measured_fraction_full 0.997
_diffrn_reflns_Laue_measured_fraction_max 0.998
_diffrn_reflns_limit_h_max       22
_diffrn_reflns_limit_h_min       -22
_diffrn_reflns_limit_k_max       44
_diffrn_reflns_limit_k_min       -44
_diffrn_reflns_limit_l_max       12
_diffrn_reflns_limit_l_min       -13
_diffrn_reflns_number            24017
_diffrn_reflns_point_group_measured_fraction_full 0.997
_diffrn_reflns_point_group_measured_fraction_max 0.998
_diffrn_reflns_theta_full        25.242
_diffrn_reflns_theta_max         27.473
_diffrn_reflns_theta_min         3.317
_exptl_absorpt_coefficient_mu    16.686
_exptl_absorpt_correction_T_max  0.576
_exptl_absorpt_correction_T_min  0.080
_exptl_absorpt_correction_type   numerical
_exptl_absorpt_process_details
;
(NUMABS; Higashi, 1999)
;
_exptl_crystal_colour            black
_exptl_crystal_density_diffrn    4.620
_exptl_crystal_density_method    'not measured'
_exptl_crystal_description       platelet
_exptl_crystal_F_000             7100
_exptl_crystal_size_max          0.305
_exptl_crystal_size_mid          0.234
_exptl_crystal_size_min          0.035
_refine_diff_density_max         0.855
_refine_diff_density_min         -0.683
_refine_diff_density_rms         0.150
_refine_ls_abs_structure_details
;
 Flack x determined using 1543 quotients [(I+)-(I-)]/[(I+)+(I-)]
 (Parsons, Flack and Wagner, Acta Cryst. B69 (2013) 249-259).
;
_refine_ls_abs_structure_Flack   0.02(2)
_refine_ls_extinction_coef       .
_refine_ls_extinction_method     none
_refine_ls_goodness_of_fit_ref   1.066
_refine_ls_matrix_type           full
_refine_ls_number_parameters     174
_refine_ls_number_reflns         3466
_refine_ls_number_restraints     1
_refine_ls_restrained_S_all      1.066
_refine_ls_R_factor_all          0.0174
_refine_ls_R_factor_gt           0.0168
_refine_ls_shift/su_max          0.001
_refine_ls_shift/su_mean         0.000
_refine_ls_structure_factor_coef Fsqd
_refine_ls_weighting_details
'w=1/[\s^2^(Fo^2^)+(0.0122P)^2^+46.5292P] where P=(Fo^2^+2Fc^2^)/3'
_refine_ls_weighting_scheme      calc
_refine_ls_wR_factor_gt          0.0382
_refine_ls_wR_factor_ref         0.0384
_reflns_Friedel_coverage         0.892
_reflns_Friedel_fraction_full    0.998
_reflns_Friedel_fraction_max     0.998
_reflns_number_gt                3391
_reflns_number_total             3466
_reflns_threshold_expression     'I > 2\s(I)'
_cod_data_source_file            JSSC-2015-230-390.cif
_cod_data_source_block           1
_cod_database_code               1561813
_shelx_space_group_comment
;
The symmetry employed for this shelxl refinement is uniquely defined
by the following loop, which should always be used as a source of
symmetry information in preference to the above space-group names.
They are only intended as comments.
;
_exptl_absorpt_special_details
; 
The crystal was sealed in a glass capirary with Ar gas. 
;
_iucr_refine_instruction_details
;
TITL Fdd2 No.43  Ba26N3(Si5)(BN2)12
CELL   0.71075 17.6942 34.1437 10.04098   90.000   90.000   90.000
ZERR   4        0.0004  0.0006  0.00018    0.000    0.000    0.000
LATT   -4
SYMM   -X,-Y,+Z
SYMM   1/4-X,1/4+Y,1/4+Z
SYMM   3/4+X,3/4-Y,1/4+Z
SFAC     B   N  Si  Ba
UNIT    48 108  20 104
L.S. 8
ACTA
EADP N11 N12
EADP N21 N22
WGHT      0.0122     46.5292 
FVAR       0.01684
BA1   4    0.087307    0.254598    0.086403    11.00000    0.02495    0.01996 =
         0.02177   -0.00076    0.00604   -0.00230
BA2   4    0.108058    0.084074    0.108419    11.00000    0.02158    0.02631 =
         0.02486   -0.00175   -0.00465   -0.00116
BA3   4    0.133371    0.171155    0.359862    11.00000    0.03407    0.02473 =
         0.02686   -0.00414   -0.00484    0.00421
BA4   4    0.169137    0.057414    0.488669    11.00000    0.02505    0.02627 =
         0.02256    0.00202    0.00204   -0.00132
BA5   4    0.244762    0.170174    0.018080    11.00000    0.02315    0.02406 =
         0.03504    0.00439   -0.00114   -0.00208
BA6   4    0.332646    0.058323    0.008486    11.00000    0.02380    0.02469 =
         0.02137   -0.00122    0.00111   -0.00145
BA7   4    0.000000    0.000000    0.328570    10.50000    0.01752    0.02839 =
         0.02565    0.00000    0.00000    0.00152
 
SI1   3    0.052537    0.354172    0.035897    10.62500    0.02735    0.02481 =
         0.02556   -0.00675   -0.00089   -0.00381
SI2   3    0.245410    0.646728    0.148367    10.62500    0.03281    0.02909 =
         0.03178   -0.01031   -0.00073    0.00397
B1    1    0.033296    0.156627    0.034175    11.00000    0.02036    0.01604 =
         0.01882    0.00302    0.00151    0.00731
B2    1    0.189357    0.000109    0.190302    11.00000    0.01673    0.01687 =
         0.01904   -0.00079   -0.00609   -0.00021
B3    1    0.000000    0.000000   -0.001001    10.50000    0.01071    0.01806 =
         0.01442    0.00000    0.00000    0.00260
B4    1    0.000000    0.000000    0.619142    10.50000    0.01897    0.01137 =
         0.01574    0.00000    0.00000    0.00017
N11   2    0.088293    0.337174    0.097536    10.18750    0.01872
N12   2    0.063885    0.337585    0.130726    10.18750    0.01872
N21   2    0.032831    0.082550    0.342560    10.18750    0.01211
N22   2    0.009530    0.080311    0.321701    10.18750    0.01211
N3    2    0.075043    0.502434    0.115226    11.00000    0.01996    0.05276 =
         0.02166   -0.00041    0.00095   -0.00249
N4    2    0.091662    0.175229    0.088909    11.00000    0.02764    0.02424 =
         0.04260   -0.00452   -0.01160    0.00201
N5    2    0.097433    0.246607    0.553650    11.00000    0.02402    0.05408 =
         0.02066    0.00114   -0.00158   -0.00113
N6    2    0.228392    0.114933    0.232517    11.00000    0.02632    0.03016 =
         0.04251    0.00003   -0.01225    0.00266
N7    2    0.229873    0.001932    0.079478    11.00000    0.02456    0.05196 =
         0.02361   -0.00273    0.00517   -0.00379
N8    2    0.253877    0.211423    0.247130    11.00000    0.05017    0.02795 =
         0.07491   -0.00370   -0.02359    0.00346
HKLF 4
END  
;
_shelx_res_file
;

    shelx.res created by SHELXL-2014/7


TITL Fdd2 No.43  Ba26N3(Si5)(BN2)12
CELL   0.71075 17.6942 34.1437 10.04098   90.000   90.000   90.000
ZERR   4        0.0004  0.0006  0.00018    0.000    0.000    0.000
LATT   -4
SYMM   -X,-Y,+Z
SYMM   1/4-X,1/4+Y,1/4+Z
SYMM   3/4+X,3/4-Y,1/4+Z
SFAC     B   N  Si  Ba
UNIT    48 108  20 104
L.S. 8
ACTA
EADP N11 N12
EADP N21 N22
WGHT    0.012200   46.529198
FVAR       0.01684
BA1   4    0.087307    0.254598    0.086403    11.00000    0.02495    0.01996 =
         0.02177   -0.00076    0.00604   -0.00230
BA2   4    0.108058    0.084074    0.108419    11.00000    0.02158    0.02631 =
         0.02486   -0.00175   -0.00465   -0.00116
BA3   4    0.133371    0.171155    0.359862    11.00000    0.03407    0.02473 =
         0.02686   -0.00414   -0.00484    0.00421
BA4   4    0.169137    0.057414    0.488669    11.00000    0.02505    0.02627 =
         0.02256    0.00202    0.00204   -0.00132
BA5   4    0.244762    0.170174    0.018080    11.00000    0.02315    0.02406 =
         0.03504    0.00439   -0.00114   -0.00208
BA6   4    0.332646    0.058323    0.008486    11.00000    0.02380    0.02469 =
         0.02137   -0.00122    0.00111   -0.00145
BA7   4    0.000000    0.000000    0.328570    10.50000    0.01752    0.02839 =
         0.02565    0.00000    0.00000    0.00152
SI1   3    0.052537    0.354173    0.035897    10.62500    0.02735    0.02481 =
         0.02556   -0.00675   -0.00089   -0.00381
SI2   3    0.245410    0.646728    0.148367    10.62500    0.03281    0.02909 =
         0.03178   -0.01031   -0.00073    0.00397
B1    1    0.033296    0.156627    0.034175    11.00000    0.02037    0.01604 =
         0.01882    0.00302    0.00151    0.00731
B2    1    0.189356    0.000109    0.190302    11.00000    0.01673    0.01687 =
         0.01904   -0.00078   -0.00609   -0.00021
B3    1    0.000000    0.000000   -0.001002    10.50000    0.01071    0.01806 =
         0.01442    0.00000    0.00000    0.00260
B4    1    0.000000    0.000000    0.619142    10.50000    0.01897    0.01137 =
         0.01574    0.00000    0.00000    0.00017
N11   2    0.088293    0.337174    0.097535    10.18750    0.01872
N12   2    0.063885    0.337586    0.130728    10.18750    0.01872
N21   2    0.032833    0.082550    0.342560    10.18750    0.01210
N22   2    0.009530    0.080311    0.321701    10.18750    0.01210
N3    2    0.075043    0.502434    0.115226    11.00000    0.01995    0.05276 =
         0.02166   -0.00041    0.00095   -0.00248
N4    2    0.091662    0.175229    0.088908    11.00000    0.02764    0.02424 =
         0.04261   -0.00452   -0.01160    0.00201
N5    2    0.097433    0.246607    0.553650    11.00000    0.02402    0.05408 =
         0.02065    0.00114   -0.00159   -0.00113
N6    2    0.228392    0.114933    0.232518    11.00000    0.02632    0.03016 =
         0.04251    0.00003   -0.01225    0.00266
N7    2    0.229873    0.001932    0.079478    11.00000    0.02456    0.05196 =
         0.02361   -0.00273    0.00517   -0.00379
N8    2    0.253877    0.211422    0.247130    11.00000    0.05017    0.02795 =
         0.07491   -0.00370   -0.02359    0.00347
HKLF 4

END

WGHT      0.0123     46.5120

REM Highest difference peak  0.855,  deepest hole -0.683,  1-sigma level  0.150
Q1    1   0.3123  0.0416  0.0362  11.00000  0.05    0.86
Q2    1   0.1007  0.0647  0.1375  11.00000  0.05    0.81
Q3    1   0.1603  0.1813  0.3287  11.00000  0.05    0.73
Q4    1   0.2390  0.1811  0.0688  11.00000  0.05    0.70
Q5    1   0.3100  0.0670 -0.0438  11.00000  0.05    0.70
Q6    1   0.1183  0.2443  0.1240  11.00000  0.05    0.68
Q7    1   0.1220  0.1535  0.3253  11.00000  0.05    0.59
Q8    1   0.1582  0.1597  0.4008  11.00000  0.05    0.58
Q9    1   0.0463  0.3776 -0.0414  11.00000  0.05    0.58
Q10   1   0.1866  0.0586  0.5542  11.00000  0.05    0.55
Q11   1   0.2209  0.1569  0.0019  11.00000  0.05    0.55
Q12   1   0.1801  0.0434  0.4550  11.00000  0.05    0.53
Q13   1   0.3628  0.0457 -0.0416  11.00000  0.05    0.52
Q14   1   0.2876  0.6253  0.2782  11.00000  0.05    0.48
Q15   1   0.1904  0.1281  0.0738  11.00000  0.05    0.47
Q16   1   0.1478  0.3153  0.1691  11.00000  0.05    0.47
Q17   1   0.1260  0.0684  0.0631  11.00000  0.05    0.46
Q18   1   0.2515  0.1807 -0.0283  11.00000  0.05    0.45
Q19   1   0.3005  0.0481 -0.0488  11.00000  0.05    0.45
Q20   1   0.0722  0.0423  0.1736  11.00000  0.05    0.44
;
_shelx_res_checksum              8926
_shelx_hkl_file
;
   0   6   0    5.85    0.49
   0   6   0    8.00    1.05
   0  -6   0    5.10    0.47
   0  -6   0    7.71    0.96
   0   8   0  458.96   23.68
   0   8   0  504.94   24.37
   0  -8   0  486.66   23.90
   0  -8   0  477.97   22.63
   0 -10   0    0.33    0.60
   0  10   0    0.39    0.80
   0  10   0    0.40    0.66
   0 -10   0    0.38    0.69
   0 -12   0 1987.92  172.53
   0 -12   0 2061.41  169.93
   0  12   0 2283.45  188.73
   0  12   0 1969.58  173.51
   0  14   0    0.22    0.48
   0 -14   0    0.04    0.45
   0 -14   0    0.22    0.72
   0  14   0   -0.12    0.46
   0  16   0  708.42   39.54
   0 -16   0  647.64   36.00
   0 -16   0  707.62   38.75
   0  16   0  657.98   37.46
   0  18   0    1.02    0.80
   0 -18   0    0.55    0.48
   0 -18   0   -0.27    0.47
   0  18   0   -0.02    0.50
   0  20   0   45.21    2.30
   0 -20   0   43.79    2.28
   0  20   0   51.24    2.56
   0 -20   0   48.02    2.36
   0 -22   0    1.19    0.64
   0  22   0    0.29    1.12
   0 -22   0    1.19    0.62
   0  22   0    0.66    0.60
   0  24   0  382.29   19.26
   0  24   0  355.36   17.30
   0 -24   0  404.88   19.38
   0 -24   0  347.03   17.45
   0 -26   0   -0.12    0.51
   0  26   0   -0.21    0.55
   0 -26   0   -0.24    0.54
   0  26   0    0.75    0.44
   0 -28   0    1.04    1.10
   0  28   0    2.54    0.71
   0  28   0    0.65    0.55
   0 -28   0    0.67    1.14
   0  30   0    0.08    0.39
   0  30   0   -0.10    0.51
   0 -30   0    0.02    0.53
   0 -30   0    0.68    0.47
   0  32   0    0.41    0.53
   0  32   0    0.92    0.40
   0 -32   0    0.20    0.47
   0 -32   0   -0.42    0.54
   0 -34   0    0.56    0.91
   0  34   0    0.29    0.60
   0 -34   0    0.34    0.62
   0  34   0    3.02    0.74
   0 -36   0  476.80   26.24
   0  36   0  497.49   27.29
   0  36   0  470.36   24.97
   0 -36   0  559.49   28.87
   0  38   0    0.75    0.41
   0 -38   0    0.01    0.61
   0  38   0    0.89    0.57
   0 -38   0    0.87    0.50
   0 -40   0    7.32    0.81
   0  40   0    6.67    0.92
   0  40   0    5.71    0.65
   0 -42   0    0.00    0.84
   0  42   0   -0.04    0.33
   0  42   0   -0.16    0.79
   0 -42   0    0.36    0.41
   0 -44   0  106.60    4.40
   0  44   0   84.47    4.46
   0  44   0   95.43    4.64
   0 -44   0   91.96    4.66
  -2   4   0    1.18    0.08
  -2   4   0    1.50    0.10
  -2  -4   0    1.15    0.13
   2   4   0    1.55    0.19
   2  -4   0    1.22    0.07
  -2  -4   0    1.45    0.20
   2   4   0    0.96    0.12
   2  -4   0    1.32    0.10
   2   6   0   66.57    2.21
   2  -6   0   65.90    1.42
   2   6   0   65.84    2.92
  -2  -6   0   68.54    1.86
   2  -6   0   65.89    1.67
   2  -6   0   65.57    1.65
  -2  -6   0   65.99    2.22
   2  -6   0   67.91    1.47
  -2  -8   0    2.22    0.79
  -2  -8   0    2.68    0.49
   2  -8   0    1.94    0.37
   2  -8   0    1.98    0.38
   2   8   0    2.18    0.45
   2  -8   0    1.75    0.27
   2  -8   0    2.96    0.24
   2   8   0    2.25    0.69
   2  10   0  202.79   12.01
  -2  10   0  198.99    7.73
  -2  10   0  195.61    7.56
   2 -10   0  205.33    7.53
  -2 -10   0  212.90   10.25
   2  10   0  211.08    8.07
  -2 -10   0  213.01   13.24
   2 -10   0  196.00    7.49
  -2 -12   0  102.79    4.17
  -2  12   0   97.87    3.35
  -2 -12   0  105.62    5.36
   2 -12   0  107.07    4.14
   2 -12   0   95.92    3.78
  -2  12   0   97.04    3.80
   2  12   0  100.69    5.03
   2  12   0  103.09    3.97
  -2 -14   0   33.36    1.81
   2  14   0   33.77    1.70
  -2 -14   0   37.17    2.49
   2  14   0   35.24    2.29
   2 -14   0   31.93    1.63
   2 -14   0   35.93    1.81
  -2  14   0   33.88    1.69
  -2  14   0   33.55    1.46
   2 -16   0    0.70    0.95
   2  16   0   -0.22    1.40
  -2  16   0    1.25    0.50
  -2  16   0    0.54    0.55
  -2 -16   0    0.65    0.60
   2 -16   0    0.60    0.53
  -2 -16   0    0.17    0.76
   2  16   0    0.34    0.55
   2  18   0  416.07   23.30
  -2  18   0  529.66   26.21
   2 -18   0  440.68   22.66
  -2  18   0  480.31   24.87
  -2 -18   0  480.98   28.29
   2  18   0  456.36   23.44
   2 -18   0  449.60   21.88
  -2 -18   0  421.64   21.92
   2 -20   0    0.93    0.53
   2  20   0    0.78    0.71
  -2 -20   0    0.64    0.76
  -2  20   0    0.56    0.74
   2  20   0    1.22    0.80
   2 -20   0    1.04    0.66
  -2 -20   0    0.41    0.69
  -2  20   0    1.21    0.58
  -2 -22   0   11.87    1.49
   2  22   0   13.10    1.64
   2 -22   0   14.55    1.18
   2 -22   0   14.04    1.46
   2  22   0   12.93    1.54
  -2 -22   0   15.32    1.63
  -2  22   0   15.25    1.22
  -2  22   0   14.79    1.54
   2  24   0  114.83    5.77
   2  24   0  112.14    7.75
   2 -24   0  110.66    5.39
   2 -24   0  119.59    4.99
  -2 -24   0  124.57    6.01
  -2  24   0  122.93    5.86
  -2  24   0  121.12    4.97
  -2 -24   0  103.81    5.36
   2 -26   0  228.18   10.85
  -2  26   0  242.61   11.89
  -2  26   0  251.53   12.00
  -2 -26   0  255.61   11.96
   2 -26   0  244.49   10.54
   2  26   0  231.79   11.58
   2  26   0  220.24   11.03
  -2 -26   0  211.16   10.62
   2 -28   0   11.17    1.26
   2  28   0   10.32    2.05
  -2  28   0   11.38    1.32
   2  28   0   11.23    1.38
  -2 -28   0    6.98    1.34
  -2  28   0   12.26    0.93
  -2 -28   0   12.13    2.25
   2 -28   0   10.75    0.98
  -2  30   0   18.17    2.32
   2  30   0   18.28    1.60
   2  30   0   16.34    1.40
  -2 -30   0   19.59    1.59
  -2 -30   0   17.00    1.53
   2 -30   0   19.19    1.20
   2 -30   0   17.39    1.43
  -2  30   0   18.03    1.07
   2 -32   0    0.28    0.39
  -2  32   0    0.16    0.34
  -2 -32   0    0.07    0.55
   2 -32   0    0.02    0.82
  -2 -32   0    0.18    0.92
   2  32   0    1.00    0.93
   2  32   0    0.41    0.47
  -2  32   0    0.25    0.52
   2 -34   0   28.80    1.42
  -2 -34   0   22.70    1.80
  -2  34   0   29.00    1.82
   2  34   0   24.15    1.54
   2 -34   0   24.65    1.70
  -2 -34   0   31.79    1.84
   2  34   0   25.24    1.84
  -2  34   0   26.08    1.81
   2 -36   0   55.52    2.87
   2  36   0   55.83    2.65
  -2 -36   0   53.90    3.03
   2 -36   0   63.85    2.55
  -2  36   0   59.36    3.06
  -2 -36   0   66.71    3.13
  -2  36   0   58.86    2.35
   2  36   0   59.31    3.12
  -2 -38   0   22.27    1.54
   2  38   0   18.58    1.26
   2 -38   0   20.19    1.55
  -2 -38   0   20.12    1.59
  -2  38   0   21.57    1.55
  -2  38   0   20.59    1.05
   2  38   0   21.32    2.43
   2 -38   0   22.87    1.21
   2  40   0   10.14    1.16
   2  40   0    9.94    0.90
  -2 -40   0   12.04    1.10
   2 -40   0   10.93    1.12
   2 -40   0   10.94    0.87
   2 -40   0   10.05    1.14
   2 -42   0    0.62    0.36
  -2 -42   0    0.55    0.58
   2  42   0    1.11    0.64
   2 -42   0    1.01    0.60
   2  42   0    1.10    0.46
  -2 -42   0   -0.01    0.67
   2 -42   0   -0.01    1.03
   2 -42   0    0.64    0.45
   2 -44   0   -0.01    0.48
   2 -44   0    0.00    0.50
  -2 -44   0   -0.56    0.45
  -2 -44   0    0.01    0.54
   2 -44   0   -0.06    0.34
   2  44   0    0.46    0.36
   2  44   0   -0.21    0.50
   2 -44   0    0.33    0.45
   4   0   0  363.69   14.40
   4   0   0  363.49   15.17
  -4   0   0  356.29   13.38
  -4   0   0  371.09   14.24
  -4   2   0    1.68    0.22
   4  -2   0    1.82    0.26
   4  -2   0    1.74    0.24
   4   2   0    1.90    0.27
  -4  -2   0    3.09    0.38
   4   2   0    1.92    0.40
  -4   2   0    2.13    0.23
  -4  -2   0    1.72    0.27
   4   4   0    1.55    0.86
   4   4   0    2.03    0.33
   4  -4   0    1.48    0.23
  -4  -4   0    1.17    0.33
  -4   4   0    1.17    0.19
  -4   4   0    1.13    0.23
  -4  -4   0    1.36    0.86
  -4   6   0    0.59    0.29
   4  -6   0    1.08    0.27
  -4  -6   0    0.87    0.38
  -4   6   0    0.53    0.25
   4  -6   0    0.59    0.20
  -4  -6   0    0.64    0.59
   4   6   0    0.72    0.38
   4   6   0    1.17    0.54
  -4   8   0  360.97   13.23
  -4  -8   0  350.77   14.71
  -4   8   0  354.32   13.97
  -4  -8   0  347.74   16.50
   4  -8   0  350.79   13.08
   4   8   0  335.05   15.43
   4  -8   0  358.91   14.25
   4   8   0  361.64   14.99
   4  10   0   26.12    1.21
   4 -10   0   24.73    0.95
   4 -10   0   25.10    0.67
  -4 -10   0   26.96    3.21
   4 -10   0   25.27    0.99
  -4 -10   0   26.08    1.32
   4  10   0   25.58    1.69
   4 -12   0   61.01    1.57
   4  12   0   59.06    2.82
   4 -12   0   58.16    1.48
  -4 -12   0   61.91    3.15
   4 -12   0   58.97    1.90
  -4 -12   0   63.16    2.33
   4 -12   0   58.70    1.92
   4  12   0   60.25    2.92
   4  14   0    0.56    0.63
   4  14   0   -0.21    0.59
  -4 -14   0    0.08    0.73
   4 -14   0    0.44    0.22
   4 -14   0    0.35    0.17
   4 -14   0    0.52    0.31
  -4 -14   0    0.21    0.43
   4 -14   0    0.41    0.32
   4 -16   0   32.77    1.27
  -4 -16   0   35.03    1.77
  -4 -16   0   34.67    2.64
   4 -16   0   30.70    1.45
   4  16   0   33.26    1.55
   4  16   0   30.99    2.18
   4 -16   0   31.10    1.43
   4 -16   0   30.32    0.95
   4 -18   0   12.95    1.02
   4  18   0   13.48    1.09
   4 -18   0   12.25    1.04
   4 -18   0   11.54    0.60
  -4 -18   0   13.46    1.97
  -4 -18   0   13.03    1.25
   4 -18   0   13.87    1.53
   4  18   0   11.93    1.63
  -4 -20   0    1.26    1.22
   4  20   0    1.89    0.72
   4  20   0    1.01    1.14
   4 -20   0    3.01    0.41
   4 -20   0    0.95    0.75
   4 -20   0    2.15    0.68
  -4 -20   0    1.92    0.86
   4 -20   0    1.12    0.69
  -4 -22   0   29.01    2.75
   4 -22   0   24.56    1.23
   4 -22   0   24.32    1.87
   4 -22   0   26.56    1.71
  -4 -22   0   24.08    2.22
   4 -22   0   25.68    2.10
   4  22   0   26.14    4.61
   4  22   0   26.78    1.99
   4 -24   0    3.81    0.82
  -4 -24   0    0.80    1.06
   4 -24   0    1.04    0.97
   4 -24   0    0.36    0.95
  -4 -24   0    0.56    0.95
   4  24   0    0.99    0.87
   4  24   0    3.81    1.11
   4 -24   0    0.93    0.49
   4 -26   0    3.00    0.62
   4  26   0    2.46    2.09
   4  26   0    2.94    1.92
   4 -26   0    3.54    1.08
  -4 -26   0    3.30    1.11
   4 -26   0    2.93    1.66
  -4 -26   0    3.64    1.20
   4 -26   0    3.59    1.25
   4 -28   0   64.18    3.65
   4  28   0   60.38    3.87
  -4 -28   0   54.92    3.53
   4 -28   0   67.05    4.14
   4  28   0   63.57    3.78
   4 -28   0   64.43    2.61
  -4 -28   0   68.81    5.83
   4 -28   0   60.73    3.55
  -4 -30   0   30.94    2.40
   4 -30   0   37.16    1.63
   4 -30   0   32.11    2.22
   4  30   0   32.69    3.77
  -4 -30   0   39.42    2.59
   4 -30   0   37.29    1.65
   4 -30   0   40.38    2.60
   4  30   0   35.34    3.82
   4 -32   0    0.56    0.37
   4 -32   0    0.71    0.37
   4  32   0    0.05    0.66
  -4 -32   0    0.59    0.70
   4 -32   0    0.25    0.67
   4 -32   0    0.43    0.59
   4  32   0    1.65    0.70
  -4 -32   0    0.36    0.68
  -4 -34   0    7.06    1.09
   4  34   0    5.91    1.80
   4 -34   0    5.81    0.58
   4 -34   0    5.63    0.95
  -4 -34   0    5.64    1.09
   4  34   0    4.69    1.61
   4 -34   0    5.51    1.72
   4 -34   0    5.43    0.62
   4 -36   0   30.95    1.95
   4 -36   0   34.77    2.03
  -4 -36   0   34.95    2.21
   4  36   0   29.55    1.98
   4  36   0   32.96    2.25
   4 -36   0   31.63    1.36
   4 -36   0   33.04    2.14
  -4 -36   0   29.99    2.17
   4  38   0    1.02    1.09
  -4 -38   0    0.00    1.35
   4 -38   0    2.32    0.63
   4 -38   0    1.27    1.13
   4 -38   0    1.71    0.44
   4  38   0    2.29    0.79
   4 -38   0    2.07    0.73
  -4 -38   0    2.17    0.77
   4  40   0   12.33    1.38
   4  40   0   10.33    1.12
   4 -40   0   11.19    1.21
   4 -40   0   13.14    1.27
   4 -40   0   12.45    0.74
  -4 -40   0   11.04    1.41
   4 -40   0   13.87    0.82
  -4 -40   0   13.49    1.33
   4 -42   0   21.19    1.70
   4  42   0   23.61    1.89
   4 -42   0   25.95    1.22
   4 -42   0   22.51    1.11
  -4 -42   0   24.71    1.82
   4 -42   0   24.87    1.80
  -4 -42   0   21.78    1.94
   4  42   0   22.38    2.34
   6   0   0    0.71    0.44
   6   0   0    0.39    0.34
  -6   0   0    0.47    0.37
  -6   0   0    0.77    0.30
   6  -2   0 1421.25   95.22
   6   2   0 1348.29   92.76
  -6  -2   0 1387.23   92.03
   6   2   0 1448.41   96.20
  -6   2   0 1462.95   96.76
   6  -2   0 1445.92   95.81
  -6   2   0 1388.98   91.65
  -6  -2   0 1403.85   95.34
   6   4   0    3.17    0.71
  -6  -4   0    3.12    0.67
   6   4   0    3.21    0.50
  -6  -4   0    3.58    0.47
   6  -4   0    3.51    0.43
  -6   4   0    3.07    0.33
  -6   4   0    3.13    0.61
   6  -4   0    2.75    0.41
  -6   6   0    0.45    0.19
  -6   6   0    0.62    0.24
  -6  -6   0    0.49    0.51
  -6  -6   0    0.49    0.35
   6   6   0    1.75    0.36
   6  -6   0    0.30    0.27
   6  -6   0    1.16    0.26
   6   6   0    0.59    0.52
   6   8   0    1.39    0.53
   6   8   0    1.14    0.38
  -6  -8   0    1.02    1.00
  -6  -8   0    1.06    0.38
   6  -8   0    0.87    0.38
  -6   8   0    0.97    0.25
   6  -8   0    0.89    0.28
  -6   8   0    1.50    0.17
   6 -10   0    8.40    0.37
   6  10   0   11.13    1.11
  -6 -10   0    8.87    0.70
  -6  10   0    8.45    0.31
  -6 -10   0    9.48    1.08
  -6  10   0    7.87    0.47
   6 -10   0    8.05    0.53
   6  10   0    7.94    0.94
   6 -12   0    5.53    0.31
  -6  12   0    5.27    0.45
  -6 -12   0    6.83    1.13
   6  12   0    6.03    0.94
   6 -12   0    5.71    0.49
  -6  12   0    5.82    0.28
   6  12   0    5.82    0.61
  -6 -12   0    6.48    1.08
   6  14   0  491.84   23.32
  -6 -14   0  483.10   26.10
   6 -14   0  494.30   22.93
   6 -14   0  495.50   22.81
  -6 -14   0  489.27   23.59
   6  14   0  464.42   24.29
   6 -14   0  514.79   22.02
   6 -14   0  470.78   20.99
   6  16   0    1.05    0.90
   6 -16   0    1.33    0.40
   6 -16   0    0.92    0.40
   6  16   0    1.49    0.82
  -6 -16   0    2.42    1.05
  -6 -16   0    1.58    0.62
   6 -16   0    1.75    0.74
   6 -16   0    1.91    0.24
  -6 -18   0  756.03   43.48
   6 -18   0  711.07   36.72
  -6 -18   0  765.42   48.82
   6 -18   0  773.38   40.54
   6  18   0  704.96   43.80
   6 -18   0  738.28   41.50
   6  18   0  760.24   42.83
   6 -18   0  734.71   40.98
  -6 -20   0   17.36    2.62
   6  20   0   15.39    1.97
   6 -20   0   15.23    0.85
   6 -20   0   14.82    1.25
  -6 -20   0   14.91    1.57
   6 -20   0   13.77    0.62
   6  20   0   14.64    1.30
   6 -20   0   13.83    1.12
   6 -22   0   37.94    2.13
  -6 -22   0   45.39    4.16
   6 -22   0   44.37    2.79
   6  22   0   38.49    5.26
   6 -22   0   37.13    3.37
   6 -22   0   35.59    1.75
   6  22   0   38.55    2.33
  -6 -22   0   40.67    2.68
   6 -24   0   18.27    1.55
   6 -24   0   19.90    2.08
  -6 -24   0   21.69    2.71
   6 -24   0   17.49    0.83
  -6 -24   0   18.34    3.25
   6  24   0   20.44    2.68
   6 -24   0   17.70    1.70
   6  24   0   18.51    2.52
   6 -26   0    3.09    0.43
  -6 -26   0    3.93    1.45
   6  26   0    4.26    2.53
   6 -26   0    3.12    0.72
   6 -26   0    3.48    1.04
   6 -26   0    3.03    0.90
  -6 -26   0    2.30    1.15
   6  26   0    3.48    0.98
  -6 -28   0    0.50    0.84
   6 -28   0    0.46    0.63
   6 -28   0   -0.39    0.73
   6  28   0   -0.07    0.87
   6 -28   0    0.12    0.28
   6 -28   0    0.39    0.60
  -6 -28   0    0.30    0.74
   6  28   0    0.45    0.67
   6  30   0   39.20    2.81
  -6 -30   0   36.80    2.76
   6 -30   0   42.76    2.35
   6 -30   0   39.41    2.59
   6 -30   0   39.99    1.57
   6 -30   0   42.58    3.16
  -6 -30   0   45.32    4.70
   6  30   0   37.54    4.90
   6 -32   0    6.67    1.15
   6 -32   0    6.77    0.61
   6 -32   0    7.08    1.49
  -6 -32   0    4.57    1.26
   6  32   0    6.96    1.32
  -6 -32   0    8.27    1.33
   6 -32   0    6.32    0.60
   6  32   0    6.68    1.40
   6 -34   0  119.74    4.31
   6 -34   0  115.11    4.33
  -6 -34   0   99.22    7.80
   6 -34   0  108.74    5.57
   6  34   0  108.08    6.01
   6  34   0  102.74    7.94
  -6 -34   0  123.44    6.22
   6 -34   0  120.32    6.45
   6 -36   0   17.49    0.89
  -6 -36   0   15.99    2.77
   6 -36   0   16.07    1.51
   6 -36   0   19.07    1.79
  -6 -36   0   18.59    1.77
   6 -36   0   15.90    0.87
   6  36   0   13.45    1.72
   6  36   0   16.37    1.78
   6 -38   0   77.00    2.86
   6  38   0   72.14    4.25
   6 -38   0   84.72    3.52
  -6 -38   0   70.04    4.15
   6  38   0   69.21    5.47
   6 -38   0   73.57    5.23
   6 -38   0   82.28    4.33
  -6 -38   0   84.38    4.38
   6  40   0    1.06    0.81
   6  40   0    0.18    0.68
   6 -40   0    1.12    0.65
   6 -40   0    1.04    0.72
  -6 -40   0    0.54    1.25
  -6 -40   0    1.41    0.80
   6 -42   0    9.95    1.17
  -6 -42   0    9.43    1.37
   6 -42   0   10.18    2.04
   6  42   0   11.11    1.43
   6  42   0    7.82    1.92
  -6 -42   0    8.42    1.43
  -8   0   0  322.06   12.93
   8   0   0  314.64   14.71
   8   0   0  318.53   12.58
  -8   0   0  315.62   12.34
  -8   2   0   50.86    1.65
  -8  -2   0   50.47    1.90
   8  -2   0   49.75    1.64
  -8   2   0   49.24    1.56
   8  -2   0   50.14    1.89
   8   2   0   50.89    1.76
  -8  -2   0   48.89    1.64
   8   2   0   52.54    2.15
  -8  -4   0  107.34    3.56
  -8   4   0  111.57    3.43
   8  -4   0  110.14    3.57
  -8  -4   0  115.48    4.30
  -8   4   0  108.20    3.38
   8  -4   0  110.54    3.78
   8   4   0  109.71    3.72
   8   4   0  112.44    4.40
   8  -6   0    8.06    0.56
  -8  -6   0    7.72    0.91
   8   6   0    9.03    0.93
   8  -6   0    8.45    0.59
  -8   6   0    8.60    0.43
   8   6   0    8.40    0.68
  -8  -6   0    9.03    0.64
  -8   6   0    7.79    0.50
  -8  -8   0    5.05    0.85
   8  -8   0    4.58    0.44
  -8   8   0    3.91    0.40
  -8   8   0    4.79    0.31
   8  -8   0    4.68    0.46
   8   8   0    4.53    0.79
  -8  -8   0    4.53    0.56
   8   8   0    4.51    0.59
  -8 -10   0   46.88    1.90
   8 -10   0   47.56    1.69
   8 -10   0   45.32    1.46
  -8  10   0   48.70    1.30
   8  10   0   49.87    2.79
  -8 -10   0   49.32    2.63
   8  10   0   45.33    2.44
  -8  10   0   47.06    1.55
  -8 -12   0  716.83   38.73
   8  12   0  679.56   39.35
   8  12   0  735.52   41.63
  -8 -12   0  687.76   40.29
   8 -12   0  706.22   36.07
  -8  12   0  744.37   37.91
   8 -12   0  733.68   38.66
  -8  12   0  712.33   37.30
   8  14   0    2.63    1.05
  -8 -14   0    2.55    1.87
  -8  14   0    2.48    0.43
  -8  14   0    2.44    0.40
   8  14   0    2.03    1.54
  -8 -14   0    2.33    0.65
   8 -14   0    1.92    0.32
   8 -14   0    3.55    0.47
   8 -16   0  128.19    4.08
  -8  16   0  126.59    4.67
   8  16   0  131.93    5.40
   8 -16   0  134.12    5.07
   8  16   0  128.95    6.57
  -8 -16   0  132.73    5.67
  -8 -16   0  136.09    7.65
   8 -18   0    9.72    1.34
   8  18   0   11.34    1.13
  -8 -18   0   11.02    2.18
   8  18   0    9.53    1.66
  -8 -18   0   11.56    1.26
   8 -18   0   10.52    0.92
   8 -18   0    8.88    0.52
   8 -18   0   11.02    0.50
   8 -20   0  253.41   10.91
  -8 -20   0  267.39   15.93
   8 -20   0  246.59    9.27
   8 -20   0  270.86   11.81
  -8 -20   0  266.42   15.32
   8  20   0  262.27   11.90
   8 -20   0  266.13    9.93
   8  20   0  250.95   13.81
   8  22   0   37.62    3.24
   8 -22   0   36.67    2.05
  -8 -22   0   39.33    4.22
   8  22   0   38.05    2.21
   8 -22   0   35.09    1.21
   8 -22   0   36.92    1.92
  -8 -22   0   38.87    2.60
   8 -22   0   38.36    1.37
   8  24   0  439.29   26.43
   8 -24   0  464.80   21.88
   8 -24   0  439.87   23.19
   8 -24   0  436.42   22.47
   8  24   0  442.13   23.05
  -8 -24   0  496.05   30.70
   8 -24   0  412.19   18.64
  -8 -24   0  440.88   24.05
   8 -26   0    2.21    0.32
   8 -26   0    1.47    0.81
   8 -26   0    1.07    0.70
  -8 -26   0    2.36    1.43
  -8 -26   0    1.58    0.96
   8 -26   0    1.41    0.53
   8  26   0    1.23    1.24
   8  26   0    1.05    0.80
   8  28   0   32.29    3.42
  -8 -28   0   34.22    3.29
   8 -28   0   32.62    2.09
  -8 -28   0   31.57    2.61
   8  28   0   34.15    3.41
   8 -28   0   33.29    2.36
   8 -28   0   38.06    1.78
   8 -28   0   31.23    1.15
  -8 -30   0   17.20    2.16
  -8 -30   0   21.09    2.44
   8 -30   0   19.39    0.85
   8 -30   0   21.45    2.04
   8 -30   0   19.37    1.70
   8  30   0   20.00    2.65
   8  30   0   20.16    1.81
   8 -30   0   20.56    1.11
   8 -32   0  118.03    4.28
   8 -32   0  117.78    6.09
   8  32   0  116.03    7.35
  -8 -32   0  112.92    6.52
  -8 -32   0  134.95    7.29
   8 -32   0  126.03    9.71
   8 -32   0  127.34    4.64
   8  32   0  123.17    6.57
   8 -34   0   30.16    1.24
  -8 -34   0   28.12    2.57
   8  34   0   27.93    2.59
   8 -34   0   30.98    2.38
   8 -34   0   31.72    1.26
  -8 -34   0   32.38    4.24
   8  34   0   30.17    2.90
   8 -34   0   35.61    4.87
   8 -36   0   21.49    1.91
   8 -36   0   20.79    0.96
   8 -36   0   21.86    0.94
   8 -36   0   23.19    3.93
   8  36   0   19.51    2.24
  -8 -36   0   18.95    2.07
  -8 -36   0   23.04    2.19
   8  36   0   20.83    2.22
   8  38   0    0.31    0.71
  -8 -38   0   -0.04    0.69
   8  38   0    0.07    0.73
   8 -38   0    0.61    0.74
  -8 -38   0   -0.10    0.71
   8 -38   0   -0.08    0.61
   8 -40   0   13.73    1.52
  -8 -40   0   12.37    1.78
  -8 -40   0   14.97    1.80
   8 -40   0   15.68    1.83
   8  40   0   14.25    1.76
   8  40   0   13.93    1.87
  10   0   0    0.03    0.41
  10   0   0   -0.10    0.32
 -10   0   0    0.26    0.28
  10  -2   0   22.58    1.09
  10   2   0   21.68    1.44
  10   2   0   22.03    1.13
  10  -2   0   22.41    1.29
 -10  -2   0   21.04    0.98
 -10  -2   0   22.74    1.86
 -10   2   0   21.48    0.97
 -10   2   0   21.07    0.95
  10   4   0   39.76    2.20
  10  -4   0   39.44    1.76
 -10  -4   0   39.90    1.90
  10   4   0   39.49    1.72
  10  -4   0   39.29    1.56
 -10   4   0   38.90    1.38
 -10  -4   0   41.68    1.61
 -10   4   0   39.39    1.43
  10  -6   0  358.85   15.82
  10   6   0  346.03   16.69
  10  -6   0  360.13   15.37
 -10  -6   0  359.80   16.71
 -10   6   0  355.20   14.91
 -10  -6   0  353.90   15.30
  10   6   0  359.99   15.75
 -10   6   0  368.39   15.05
  10   8   0    4.67    0.71
 -10   8   0    4.28    0.50
  10   8   0    5.02    1.63
  10  -8   0    4.09    0.59
 -10  -8   0    4.26    0.65
 -10   8   0    4.39    0.38
 -10  -8   0    4.72    0.94
  10  -8   0    3.86    0.58
  10  10   0  186.20    7.53
 -10 -10   0  183.83    8.64
  10 -10   0  188.09    7.11
  10 -10   0  184.56    8.11
 -10  10   0  178.53    6.59
 -10  10   0  181.10    6.03
  10  10   0  177.94    8.38
 -10 -10   0  179.55    7.22
 -10  12   0    0.29    0.20
  10  12   0    0.46    0.49
 -10 -12   0    0.64    0.78
 -10  12   0    0.38    0.32
  10  12   0    0.11    0.71
  10 -12   0   -0.07    0.39
  10 -12   0    0.30    0.32
 -10 -12   0    0.16    0.48
 -10  14   0   29.52    1.95
  10 -14   0   29.00    1.22
 -10  14   0   29.19    0.93
 -10 -14   0   29.48    1.81
  10 -14   0   30.32    1.52
  10  14   0   30.75    2.52
 -10 -14   0   31.79    4.55
  10  14   0   31.08    1.80
  10  16   0   43.86    3.51
  10 -16   0   44.40    2.04
 -10 -16   0   44.65    3.73
  10  16   0   42.46    3.15
  10 -16   0   42.71    1.56
 -10 -16   0   44.37    2.40
 -10  16   0   45.00    1.67
 -10  16   0   43.16    1.82
  10 -18   0  380.69   16.63
 -10 -18   0  393.46   19.58
  10 -18   0  398.34   18.93
 -10  18   0  392.03   18.17
 -10 -18   0  391.41   23.15
  10  18   0  395.67   19.33
 -10  18   0  411.10   16.96
  10  18   0  388.37   21.64
  10  20   0    0.82    1.07
  10  20   0    1.77    0.71
  10 -20   0    1.14    0.26
 -10 -20   0    1.09    0.77
  10 -20   0    1.32    0.57
  10 -20   0    1.01    0.55
 -10 -20   0    1.82    1.39
  10 -20   0    1.09    0.51
 -10 -22   0   12.30    2.66
 -10 -22   0   13.87    1.49
  10 -22   0   12.18    0.65
  10  22   0   12.55    2.01
  10 -22   0   13.19    0.87
  10  22   0   12.68    1.30
  10 -22   0   13.14    1.16
  10 -22   0   11.76    0.99
  10 -24   0    0.70    0.44
 -10 -24   0   -0.12    0.65
  10 -24   0    0.22    0.24
  10  24   0    0.17    0.58
  10 -24   0    0.11    0.24
 -10 -24   0   -0.08    1.19
  10 -24   0    0.27    0.51
  10  24   0    0.64    0.88
 -10 -26   0  180.73   11.33
  10 -26   0  151.48    5.36
 -10 -26   0  158.32    7.95
  10  26   0  155.12    7.24
  10 -26   0  153.80    6.83
  10 -26   0  157.99    9.05
  10 -26   0  164.89    6.00
  10  26   0  156.56    9.35
  10 -28   0   35.62    2.42
  10  28   0   33.91    3.54
  10 -28   0   35.82    1.27
  10 -28   0   41.07    1.72
  10 -28   0   36.09    2.13
 -10 -28   0   40.59    4.00
  10  28   0   35.98    2.36
 -10 -28   0   36.82    2.77
  10 -30   0   48.24    3.18
  10  30   0   52.42    4.41
  10 -30   0   47.76    1.66
  10 -30   0   55.56    2.28
  10 -30   0   47.32    2.73
  10  30   0   48.05    2.98
 -10 -30   0   55.38    4.39
 -10 -30   0   49.92    3.45
  10 -32   0   11.35    0.78
 -10 -32   0   12.68    2.07
  10 -32   0   10.75    1.35
  10 -32   0   10.87    0.61
 -10 -32   0   13.21    1.77
  10  32   0   12.02    2.30
  10 -32   0   11.40    1.71
  10  32   0   11.43    1.50
  10 -34   0    9.20    0.57
 -10 -34   0   11.35    1.87
  10 -34   0   10.83    1.43
 -10 -34   0   10.03    1.67
  10 -34   0    9.83    0.62
  10  34   0   10.43    2.00
  10  34   0    9.17    1.53
  10 -34   0    9.22    1.85
  10 -36   0    3.27    1.55
 -10 -36   0    2.49    1.25
  10  36   0    4.15    1.44
  10 -36   0    3.19    1.06
  10  36   0    2.94    1.21
 -10 -36   0    4.20    1.33
  10 -38   0   30.80    3.71
  10  38   0   28.98    3.08
 -10 -38   0   25.95    2.77
  10  38   0   29.38    4.34
  10 -38   0   34.20    3.48
 -10 -38   0   36.13    4.57
 -12   0   0  809.24   46.16
 -12   0   0  834.85   47.94
  12   0   0  801.58   47.93
  12   0   0  841.99   48.08
 -12  -2   0    4.05    0.61
 -12  -2   0    3.95    0.72
  12   2   0    3.05    0.72
 -12   2   0    2.71    0.57
  12   2   0    2.79    0.94
  12  -2   0    2.65    0.84
  12   4   0  218.89   10.37
  12  -4   0  229.34    9.34
  12  -4   0  225.08   11.87
 -12  -4   0  225.26   11.71
  12   4   0  224.51    9.40
 -12   4   0  222.52    8.59
 -12  -4   0  214.45    8.76
 -12   4   0  217.79    8.63
 -12  -6   0    0.62    0.62
  12  -6   0    0.51    0.52
  12  -6   0    0.32    0.48
  12   6   0    0.26    0.55
  12   6   0    0.44    0.74
 -12   6   0    0.35    0.38
 -12  -6   0    0.39    0.46
 -12   6   0    0.88    0.32
 -12   8   0    6.96    0.53
 -12  -8   0    7.48    0.86
 -12   8   0    7.07    0.66
  12   8   0    7.42    0.95
  12   8   0    7.68    1.29
  12  -8   0    7.21    0.81
 -12  -8   0    7.13    1.24
  12  -8   0    8.58    1.46
  12 -10   0    0.90    0.86
 -12 -10   0    1.00    0.98
  12  10   0    1.35    0.87
 -12  10   0    1.08    0.30
 -12  10   0    1.04    0.42
  12  10   0    1.09    0.63
  12 -10   0    1.08    0.51
 -12 -10   0    0.78    0.86
 -12  12   0   29.94    1.44
 -12 -12   0   30.73    2.60
 -12 -12   0   30.56    1.79
 -12  12   0   28.92    1.36
  12 -12   0   29.65    2.27
  12  12   0   29.25    2.99
  12  12   0   31.47    2.52
  12 -12   0   29.70    1.57
 -12 -14   0    2.16    0.76
 -12  14   0    2.18    0.31
 -12 -14   0    2.44    1.23
 -12  14   0    2.10    0.50
  12  14   0    2.67    0.78
  12  14   0    1.95    1.12
  12 -14   0    2.30    0.63
  12 -14   0    2.54    0.54
  12  16   0  464.33   23.77
  12 -16   0  463.25   22.98
 -12  16   0  453.42   22.04
  12 -16   0  458.53   23.38
  12  16   0  434.83   25.05
 -12 -16   0  452.03   26.66
 -12 -16   0  451.85   23.26
 -12  16   0  469.76   20.74
 -12 -18   0   20.95    2.74
  12  18   0   20.77    1.66
  12 -18   0   21.20    1.06
  12 -18   0   21.18    1.42
 -12  18   0   22.35    0.76
 -12 -18   0   22.34    2.82
  12  18   0   21.06    2.34
 -12  18   0   20.25    1.21
 -12 -20   0  203.37    9.43
  12  20   0  205.89    9.21
  12 -20   0  213.42    9.12
 -12  20   0  185.05    7.79
  12 -20   0  200.71    7.61
 -12 -20   0  214.64   12.58
  12  20   0  197.18   10.82
  12  22   0    1.17    0.62
  12 -22   0    0.59    0.44
 -12 -22   0    0.49    1.23
 -12 -22   0    0.73    0.65
  12 -22   0    0.34    0.21
  12  22   0    1.50    0.95
  12 -22   0   -0.03    0.86
  12 -22   0    0.86    0.50
  12 -24   0    0.57    0.60
  12 -24   0    1.06    0.40
 -12 -24   0    0.85    1.45
 -12 -24   0    1.49    0.78
  12  24   0    0.79    0.67
  12  24   0    0.82    1.80
  12 -24   0    1.19    0.32
  12 -24   0    0.91    0.50
  12 -26   0    6.59    0.50
  12 -26   0    4.32    0.82
  12  26   0    5.13    1.07
  12 -26   0    6.09    0.96
 -12 -26   0    6.80    2.04
 -12 -26   0    7.71    2.27
  12 -26   0    5.92    0.45
  12  26   0    7.24    1.67
 -12 -28   0    0.53    0.81
  12 -28   0    0.30    0.90
  12 -28   0   -0.04    0.68
 -12 -28   0    0.55    1.44
  12  28   0    4.61    1.91
  12  28   0    0.20    0.68
  12 -28   0    0.73    0.28
  12 -28   0    0.85    0.51
  12 -30   0   22.91    1.73
 -12 -30   0   22.55    2.29
  12 -30   0   26.26    3.31
  12  30   0   23.54    3.16
 -12 -30   0   27.85    3.48
  12 -30   0   26.58    1.26
  12  30   0   24.11    1.99
  12 -30   0   24.14    1.37
  12 -32   0   77.78    6.60
  12 -32   0   73.14    3.93
 -12 -32   0   82.93    6.04
  12  32   0   76.40    6.33
  12  32   0   74.42    4.28
 -12 -32   0   73.90    4.72
 -12 -34   0    0.80    1.20
  12  34   0   -0.21    1.37
  12 -34   0    1.59    1.24
  12  34   0    0.99    0.87
  12 -34   0    1.14    1.03
 -12 -34   0    0.87    1.02
 -12 -36   0   68.76    4.92
  12 -36   0   71.92    4.35
  12 -36   0   79.62    5.80
  12  36   0   71.02    4.67
  12  36   0   66.81    5.86
 -12 -36   0   80.66    5.61
 -14   0   0    0.81    0.44
  14   0   0    0.04    0.52
  14   0   0   -0.21    0.65
 -14   0   0    0.23    0.42
  14  -2   0   18.30    1.38
 -14   2   0   17.24    1.80
  14  -2   0   19.44    1.68
  14   2   0   18.66    1.46
  14   2   0   18.18    1.78
 -14  -2   0   20.62    1.33
 -14  -2   0   18.65    1.24
 -14   2   0   18.63    1.15
 -14   4   0    0.07    0.35
 -14  -4   0   -0.16    0.48
  14  -4   0    0.14    0.77
  14   4   0    0.19    0.48
  14  -4   0    0.02    0.52
 -14   4   0   -0.00    0.32
 -14  -4   0   -0.32    0.41
  14   4   0   -0.16    0.63
  14  -6   0  137.73    6.20
 -14  -6   0  138.10    5.67
 -14   6   0  136.62    5.32
  14   6   0  140.55    6.13
  14  -6   0  144.43    6.01
 -14  -6   0  141.01    6.34
 -14   6   0  136.39    5.05
  14   6   0  138.71    9.49
  14  -8   0    3.80    1.35
  14  -8   0    3.63    0.77
 -14   8   0    4.13    0.62
  14   8   0    3.54    1.15
  14   8   0    4.39    0.91
 -14   8   0    3.49    0.48
 -14  -8   0    3.81    0.77
 -14  -8   0    3.44    1.02
  14  10   0   68.04    4.25
 -14  10   0   68.51    2.74
  14  10   0   70.99    3.46
  14 -10   0   68.48    3.14
 -14 -10   0   67.56    4.39
 -14  10   0   70.01    2.39
  14 -10   0   72.34    4.36
 -14 -10   0   71.20    3.94
 -14 -12   0    3.53    1.99
  14 -12   0    3.62    0.69
  14 -12   0    4.36    0.73
 -14  12   0    3.66    0.40
  14  12   0    4.12    0.89
 -14  12   0    4.05    0.59
 -14 -12   0    3.53    0.81
  14  12   0    3.56    1.21
 -14 -14   0    5.59    1.38
  14 -14   0    5.62    1.29
  14  14   0    4.98    0.95
  14 -14   0    5.20    0.69
  14  14   0    2.48    1.31
 -14  14   0    5.88    1.02
 -14  14   0    4.77    0.40
 -14 -14   0    4.28    1.46
 -14 -16   0   13.07    1.95
  14 -16   0   13.12    0.90
  14 -16   0   12.62    1.07
 -14  16   0   11.61    0.88
 -14 -16   0   11.08    1.25
  14  16   0   13.30    1.28
 -14  16   0   11.76    0.55
  14  16   0   14.89    1.79
  14  18   0    0.47    0.90
 -14  18   0    0.39    0.21
 -14 -18   0    0.48    0.61
  14 -18   0    0.17    0.84
 -14  18   0    0.44    0.41
  14 -18   0    0.89    0.39
  14  18   0    0.49    0.61
 -14 -18   0    1.17    1.05
 -14  20   0    2.26    0.56
 -14 -20   0    2.78    0.84
  14 -20   0    2.15    0.68
 -14 -20   0    2.60    1.48
  14 -20   0    2.46    0.80
 -14  20   0    2.90    0.45
  14  20   0    0.72    2.05
  14  20   0    2.46    0.80
  14  22   0    1.33    0.78
  14 -22   0    2.24    0.27
  14 -22   0    1.87    0.67
 -14 -22   0    1.61    1.54
  14  22   0    1.63    1.22
  14 -22   0    2.07    0.56
  14 -22   0    1.68    0.45
 -14 -22   0    1.12    0.81
  14 -24   0    6.36    0.39
 -14 -24   0    7.42    3.73
 -14 -24   0    7.11    1.19
  14 -24   0    6.24    1.29
  14  24   0    6.58    1.12
  14  24   0    7.62    1.77
  14 -24   0    6.76    1.61
  14 -24   0    5.97    0.59
  14 -26   0   44.28    1.71
  14 -26   0   39.99    2.16
 -14 -26   0   49.37    7.96
  14 -26   0   44.16    2.57
 -14 -26   0   43.82    2.93
  14 -26   0   44.99    1.45
  14  26   0   43.87    2.70
  14  26   0   44.73    3.97
  14 -28   0   23.92    1.07
  14 -28   0   23.89    1.61
 -14 -28   0   23.57    2.26
 -14 -28   0   26.77    6.57
  14 -28   0   23.49    1.97
  14  28   0   25.02    3.14
  14 -28   0   23.91    0.96
 -14 -30   0   23.71    2.41
  14  30   0   23.79    2.07
  14 -30   0   25.79    2.18
  14  30   0   24.19    3.36
 -14 -30   0   27.51    6.29
  14 -30   0   24.22    2.67
  14  32   0    6.08    2.17
 -14 -32   0    6.06    1.48
  14  32   0    5.69    1.26
  14 -32   0    4.91    1.05
 -14 -32   0    6.70    3.76
  14 -32   0    5.30    1.39
 -14 -34   0   13.29    2.26
  14 -34   0   17.44    2.30
  14 -34   0   15.24    1.64
 -14 -34   0   18.41    2.96
  14  34   0   13.89    1.96
  14  34   0   24.23    5.37
 -16   0   0    7.47    0.82
  16   0   0    8.80    1.01
 -16   0   0    7.43    0.81
  16   0   0    7.23    1.22
 -16  -2   0   22.21    1.41
 -16  -2   0   22.37    1.33
  16  -2   0   23.44    1.56
  16  -2   0   21.65    1.80
  16   2   0   21.37    1.95
  16   2   0   22.92    1.59
 -16   2   0   22.36    1.22
 -16   2   0   22.03    1.28
 -16  -4   0   21.17    1.37
 -16  -4   0   26.61    1.53
  16  -4   0   22.23    1.51
  16  -4   0   20.68    1.73
 -16   4   0   20.52    1.10
  16   4   0   20.50    3.12
  16   4   0   22.17    1.60
 -16   4   0   20.84    1.22
  16  -6   0    1.37    0.56
 -16   6   0    0.10    0.31
  16   6   0    0.23    0.70
 -16   6   0   -0.05    0.40
  16   6   0    0.40    0.56
 -16  -6   0    0.59    0.46
  16  -6   0    0.16    0.84
 -16  -6   0   -0.02    0.56
  16   8   0    1.72    1.03
  16  -8   0    2.51    0.69
 -16  -8   0    2.15    0.68
 -16  -8   0    4.28    0.86
  16   8   0    2.71    0.78
 -16   8   0    2.62    0.41
  16  -8   0    2.09    0.74
 -16   8   0    2.24    0.54
  16  10   0    7.16    1.05
  16 -10   0    5.97    1.49
 -16  10   0    6.94    0.73
 -16 -10   0    5.83    1.17
 -16 -10   0    5.99    0.93
  16  10   0    6.99    1.38
  16 -10   0    5.97    0.94
 -16  10   0    7.66    0.53
 -16  12   0   42.05    1.48
  16 -12   0   43.57    2.22
  16  12   0   44.61    3.21
  16  12   0   43.48    2.49
 -16  12   0   41.30    1.89
 -16 -12   0   44.33    2.94
  16 -12   0   42.90    2.18
 -16 -12   0   42.08    2.28
  16 -14   0   25.60    2.51
 -16  14   0   25.67    0.97
 -16 -14   0   25.13    1.69
  16  14   0   26.53    1.88
  16 -14   0   26.04    2.32
 -16  14   0   23.57    1.34
  16  14   0   24.18    2.54
 -16 -14   0   26.08    2.35
  16  16   0   22.74    2.45
 -16 -16   0   21.97    1.69
  16 -16   0   23.40    1.38
 -16 -16   0   23.37    2.44
  16  16   0   25.45    2.84
  16 -16   0   23.27    1.55
 -16  16   0   22.33    0.85
 -16  16   0   21.30    1.28
  16  18   0    0.11    0.65
  16 -18   0    1.10    0.43
 -16 -18   0    1.94    1.01
  16  18   0    0.38    0.98
 -16  18   0    0.03    0.37
 -16 -18   0    0.35    0.62
 -16  18   0    0.40    0.43
  16 -18   0    0.47    0.56
 -16  20   0   38.48    1.26
  16  20   0   40.89    2.49
  16  20   0   42.32    5.54
 -16  20   0   39.23    1.94
 -16 -20   0   40.08    6.16
  16 -20   0   39.99    1.83
 -16 -20   0   41.01    2.53
  16 -20   0   40.99    2.27
  16  22   0    1.66    0.80
  16  22   0    1.06    1.26
 -16  22   0    1.59    0.26
 -16  22   0    1.56    0.56
  16 -22   0    1.27    0.48
 -16 -22   0    2.04    0.84
 -16 -22   0    1.93    1.47
  16 -22   0    1.19    0.70
 -16 -24   0   39.90    4.39
  16 -24   0   36.38    2.29
  16  24   0   34.28    2.45
  16 -24   0   32.63    1.89
  16  24   0   34.73    3.76
 -16 -24   0   35.51    2.56
  16 -24   0   37.35    1.56
  16 -24   0   34.55    1.62
 -16 -26   0   42.78    5.07
  16 -26   0   38.79    1.32
  16 -26   0   36.64    2.10
  16 -26   0   37.96    1.70
  16 -26   0   39.70    3.80
 -16 -26   0   38.66    2.85
  16  26   0   37.25    2.61
  16  26   0   38.71    4.02
 -16 -28   0   12.48    3.33
  16  28   0   11.71    2.58
  16 -28   0   10.54    1.84
  16 -28   0   12.47    1.52
  16  28   0   11.73    1.57
 -16 -28   0    9.04    2.74
 -16 -30   0    0.51    1.77
  16  30   0    0.28    0.77
  16 -30   0    0.54    0.60
  16 -30   0    0.95    0.82
  16  30   0    0.90    2.28
 -16 -30   0    0.12    0.91
 -18   0   0    0.19    0.64
  18   0   0    2.58    0.90
  18   0   0    0.14    0.79
 -18   0   0    3.15    0.92
  18   2   0  413.44   26.30
 -18   2   0  412.80   20.44
  18  -2   0  417.97   23.08
 -18  -2   0  418.92   21.29
  18   2   0  437.01   25.05
 -18  -2   0  423.36   21.26
 -18   2   0  419.38   20.99
  18  -2   0  447.07   22.74
 -18   4   0   25.72    1.33
  18  -4   0   26.78    2.08
 -18  -4   0   23.55    2.56
  18  -4   0   26.17    1.96
  18   4   0   25.33    1.93
 -18   4   0   25.18    1.59
 -18  -4   0   24.91    1.72
  18   4   0   24.36    2.30
 -18   6   0  109.27    4.50
  18   6   0  106.55    5.92
 -18  -6   0  109.12    5.01
  18   6   0  111.67    5.20
 -18   6   0  104.45    4.90
  18  -6   0  113.08    5.05
  18  -6   0  108.94    7.14
 -18  -6   0  108.43    4.82
  18   8   0   28.05    4.05
  18   8   0   27.61    2.03
 -18  -8   0   28.14    2.75
  18  -8   0   29.39    1.92
 -18   8   0   27.84    1.59
  18  -8   0   29.86    2.03
 -18  -8   0   28.78    2.02
 -18   8   0   27.13    1.23
 -18 -10   0    9.47    1.10
 -18  10   0    9.47    0.90
 -18  10   0    8.42    0.65
  18  10   0    9.95    1.26
 -18 -10   0   10.01    1.36
  18 -10   0    9.05    1.11
  18 -10   0    9.28    1.17
  18  10   0    9.98    1.66
 -18 -12   0   -0.12    0.56
 -18  12   0    0.24    0.28
 -18  12   0    0.33    0.45
  18 -12   0    0.17    0.57
  18 -12   0    0.98    0.55
  18  12   0    0.47    0.90
 -18 -12   0    0.67    0.74
  18  12   0    0.07    0.64
  18  14   0  238.02   13.64
  18 -14   0  249.45   13.67
  18 -14   0  244.84   13.32
 -18 -14   0  244.69   13.13
 -18 -14   0  247.44   11.83
 -18  14   0  238.60   10.68
  18  14   0  247.75   12.11
 -18  14   0  239.60    9.67
  18 -16   0   36.99    2.28
  18  16   0   39.94    3.87
  18 -16   0   37.88    2.99
 -18  16   0   36.35    1.34
 -18 -16   0   36.13    4.93
 -18  16   0   36.87    1.91
  18  16   0   36.70    3.43
 -18 -16   0   37.03    2.40
  18  18   0   13.25    2.15
 -18 -18   0   11.40    2.08
  18 -18   0   11.81    1.31
 -18  18   0   11.71    0.61
  18  18   0   11.25    1.48
 -18 -18   0   11.28    1.39
  18 -18   0   11.15    1.07
 -18  18   0   11.63    1.02
 -18 -20   0    8.98    1.35
  18  20   0    9.20    1.36
  18  20   0    9.43    2.02
 -18  20   0    9.52    0.96
  18 -20   0    9.37    0.95
 -18 -20   0   10.58    2.13
 -18  20   0    9.09    0.77
  18 -20   0    9.42    1.22
  18  22   0   30.99    3.45
 -18  22   0   28.13    1.02
  18  22   0   28.08    2.26
 -18 -22   0   28.48    2.26
 -18  22   0   27.37    1.70
 -18 -22   0   31.31    3.66
  18 -22   0   29.68    1.62
 -18 -24   0    3.60    2.03
  18  24   0    2.63    2.95
 -18 -24   0    2.98    1.10
  18 -24   0    3.45    0.77
  18  24   0    3.31    1.09
  18 -24   0    3.97    0.99
  18 -26   0   12.82    1.91
  18  26   0   10.72    1.67
 -18 -26   0   12.27    2.79
 -18 -26   0   12.57    3.31
  18  26   0   14.39    2.72
  18 -26   0   13.00    2.53
  20   0   0    2.78    0.86
 -20   0   0    3.40    0.71
  20   0   0    2.70    1.04
 -20   0   0    2.23    0.62
 -20   2   0    4.43    0.68
 -20  -2   0    4.90    0.85
 -20   2   0    5.04    0.82
 -20  -2   0    5.89    0.77
  20  -2   0    6.44    1.01
  20   2   0    5.55    1.05
  20   2   0    4.75    1.27
  20  -2   0    5.94    1.17
  20   4   0    0.52    0.67
  20  -4   0    0.40    0.75
 -20  -4   0    0.13    0.54
 -20   4   0    0.64    0.39
 -20   4   0    0.84    0.51
  20  -4   0    0.47    1.07
 -20  -4   0    0.45    0.55
  20   4   0    0.18    0.85
  20   6   0    0.41    0.60
  20   6   0   -0.68    0.78
  20  -6   0    0.62    0.56
 -20   6   0    0.19    0.44
 -20   6   0    0.10    0.32
  20  -6   0    0.30    0.62
 -20  -6   0   -0.17    0.48
 -20  -6   0   -0.16    0.51
  20   8   0   26.56    2.67
 -20   8   0   24.43    1.20
  20   8   0   26.65    3.25
 -20   8   0   26.30    2.38
  20  -8   0   27.65    2.10
  20  -8   0   26.79    3.04
 -20  -8   0   25.88    1.98
 -20  -8   0   27.28    1.85
  20  -8   0   26.68    3.02
 -20 -10   0   13.43    1.32
 -20  10   0   12.06    1.12
  20 -10   0   12.73    1.39
 -20  10   0   12.50    1.18
 -20 -10   0   13.04    1.56
  20  10   0   13.13    2.06
  20 -10   0   13.13    1.44
  20  10   0   12.71    1.58
  20  12   0   52.45    4.21
  20 -12   0   58.97    3.17
  20 -12   0   53.85    3.09
 -20 -12   0   54.64    3.52
 -20  12   0   52.27    2.01
 -20 -12   0   55.81    4.37
  20  12   0   57.26    4.95
 -20  12   0   54.22    2.62
 -20 -14   0    3.69    0.92
  20 -14   0    3.17    0.93
 -20  14   0    3.35    0.44
 -20 -14   0    3.18    2.04
 -20  14   0    3.41    1.17
  20  14   0    1.48    1.47
  20  14   0    3.34    1.04
  20 -14   0    2.89    1.41
 -20  16   0   13.25    1.15
 -20 -16   0   11.99    2.04
  20 -16   0   13.89    1.49
  20  16   0   13.54    1.64
 -20 -16   0   13.99    1.49
  20 -16   0   13.61    2.13
 -20  16   0   12.50    0.71
  20  16   0   13.39    2.37
  20 -18   0    1.06    1.01
 -20  18   0    0.57    0.28
  20  18   0    0.54    0.82
 -20 -18   0    0.81    1.12
  20 -18   0    0.38    0.73
 -20  18   0    0.90    0.54
  20  18   0    0.13    2.08
 -20 -18   0    0.65    1.25
  20 -20   0    1.88    0.76
  20  20   0    3.61    1.64
 -20  20   0    3.26    0.71
  20 -20   0    3.07    0.95
 -20 -20   0    2.85    1.02
  20  20   0    2.81    1.06
 -20 -20   0    2.47    1.60
 -20  20   0    2.62    0.36
  22   0   0   -0.00    0.64
  22   0   0   -0.09    1.26
 -22   0   0    0.01    0.50
 -22   0   0    0.13    0.41
 -22   2   0    8.76    0.88
  22  -2   0    7.68    1.63
 -22   2   0    8.46    1.12
  22   2   0    8.90    1.76
  22   2   0    9.48    1.43
 -22  -2   0    8.62    1.05
  22  -2   0   11.20    2.32
 -22  -2   0   10.22    1.18
 -22   4   0    0.96    0.45
 -22  -4   0    0.81    0.69
 -22   4   0    0.30    0.62
  22  -4   0    0.62    0.89
 -22  -4   0    1.04    0.63
  22   4   0    1.27    1.06
  22  -4   0    0.87    0.79
  22   4   0    0.57    0.83
  22  -6   0    8.39    1.31
 -22   6   0    6.76    1.04
 -22   6   0    6.64    1.16
 -22  -6   0    8.30    1.15
 -22  -6   0    6.89    1.15
  22   6   0    7.63    1.40
  22  -6   0    7.75    1.43
  22   6   0    7.80    1.81
  22   8   0    5.33    1.71
  22   8   0    5.54    1.26
 -22  -8   0    4.66    1.05
  22  -8   0    6.94    1.19
 -22   8   0    4.55    0.63
 -22  -8   0    5.71    1.12
 -22   8   0    4.91    0.91
  22  -8   0    6.70    1.24
 -22 -10   0    0.59    1.00
 -22  10   0    0.10    0.82
 -22  10   0    0.05    0.32
 -22 -10   0   -0.12    0.68
  22 -10   0    0.38    0.67
  22  10   0   -0.12    0.97
  22  10   0    0.72    0.74
  22 -10   0   -0.01    0.67
 -22 -12   0    0.63    1.24
  22  12   0    0.34    0.74
  22  12   0    1.43    1.02
 -22  12   0    0.13    0.32
 -22 -12   0    0.38    0.64
 -22  12   0   -0.27    0.51
  22 -12   0    0.29    1.13
   1  -5   1   51.77    1.45
   1  -5   1   57.11    1.00
   1   5  -1   57.78    1.75
  -1  -5  -1   56.43    4.03
  -1  -5  -1   55.53    1.15
   1   5  -1   54.20    1.22
   1  -5  -1   52.34    1.11
   1   5   1   60.05    2.98
  -1  -5   1   55.35    1.26
  -1   5  -1   49.65    1.38
   1   5   1   53.72    1.28
  -1  -5   1   58.91    1.77
   1  -5  -1   52.87    1.30
   1  -7   1    4.52    0.33
   1  -7   1    5.05    0.61
  -1  -7  -1    5.72    1.52
  -1  -7  -1    5.02    0.33
  -1   7   1    5.15    0.46
   1   7  -1    4.14    0.63
   1   7  -1    4.52    0.81
  -1   7   1    4.73    0.54
   1   7   1    7.40    1.79
   1  -7  -1    4.71    0.45
  -1  -7   1    4.50    0.80
  -1   7  -1    5.86    0.29
   1  -7  -1    4.28    0.40
  -1  -7   1    5.50    0.40
   1   7   1    4.24    0.32
  -1   7  -1    4.81    0.60
  -1  -9  -1   11.90    2.30
  -1   9   1   11.21    1.59
   1   9  -1   10.27    0.71
   1   9  -1   11.54    1.47
  -1  -9  -1   10.54    1.18
  -1   9   1   11.00    0.77
   1  -9   1   11.23    0.91
   1  -9   1   10.85    1.15
   1  -9  -1   10.06    0.94
   1   9   1   10.80    0.70
  -1   9  -1    9.49    1.14
  -1  -9   1   11.86    0.80
   1  -9  -1    9.83    0.88
  -1   9  -1   11.60    1.63
  -1  -9   1   10.17    1.44
   1   9   1   11.08    2.41
   1 -11   1  217.21   10.00
  -1 -11  -1  230.38    8.87
   1 -11   1  235.79    8.44
   1  11  -1  240.89   11.48
  -1 -11  -1  211.09   11.82
  -1  11   1  225.44    9.97
   1  11  -1  220.34    8.52
  -1  11   1  228.40    9.42
   1 -11  -1  231.04   12.35
   1  11   1  221.22   12.40
  -1  11  -1  199.95   10.25
  -1 -11   1  234.10    9.04
   1  11   1  230.81    8.97
  -1 -11   1  215.07   10.23
  -1  11  -1  226.79   12.89
   1 -11  -1  210.94    8.83
  -1  13   1   56.34    2.99
  -1 -13  -1   57.23    2.24
   1 -13   1   55.11    2.00
  -1 -13  -1   59.02    5.21
   1  13  -1   56.31    2.23
  -1  13   1   60.96    2.65
   1  13  -1   58.09    3.09
   1 -13   1   51.28    2.81
   1  13   1   57.61    2.37
  -1 -13   1   51.21    2.78
  -1  13  -1   56.15    2.26
   1 -13  -1   54.14    2.30
   1  13   1   53.95    3.53
  -1 -13   1   57.19    2.29
   1 -13  -1   60.42    4.41
  -1  13  -1   61.57    3.09
   1  15  -1    1.32    1.08
  -1 -15  -1    0.58    0.72
  -1  15   1    0.84    0.55
   1 -15   1    0.87    0.69
   1  15  -1    0.51    0.49
   1 -15   1    0.66    1.06
  -1 -15  -1    0.56    0.80
  -1  15   1    0.67    1.36
   1  15   1    1.41    0.82
  -1  15  -1    1.99    0.69
   1 -15  -1    0.39    0.71
  -1 -15   1    0.36    0.60
   1 -15  -1    0.70    0.43
  -1 -15   1    0.60    0.84
  -1  15  -1    0.52    0.42
   1  15   1    0.93    1.26
  -1 -17  -1  267.17   12.75
   1 -17   1  296.29   11.91
   1 -17   1  259.98   12.44
  -1  17   1  284.73   12.56
   1  17  -1  267.45   12.24
   1  17  -1  268.16   12.68
  -1 -17  -1  248.26   10.88
  -1  17   1  328.91   19.93
  -1 -17   1  280.78   12.20
  -1  17  -1  264.47   11.13
  -1  17  -1  291.56   15.95
   1 -17  -1  282.92   13.81
   1  17   1  262.64   11.72
  -1 -17   1  236.02   11.30
   1 -17  -1  249.88   10.81
   1  17   1  252.30   12.46
   1 -19   1  105.94    5.02
  -1 -19  -1   98.62    4.22
  -1 -19  -1  110.09    5.22
   1  19  -1  110.29    5.18
  -1  19   1  119.56    7.88
  -1  19   1  113.25    6.13
   1  19  -1  110.49    5.22
   1 -19   1  117.60    4.36
  -1 -19   1   99.94    4.70
  -1 -19   1  117.60    5.01
   1 -19  -1  103.83    4.26
   1  19   1  109.90    6.06
   1  19   1  104.44    5.00
   1 -19  -1  111.62    5.57
  -1  19  -1  109.84    5.23
  -1  19  -1  106.07    4.06
   1 -21   1   40.20    2.52
   1 -21   1   46.20    2.07
   1  21  -1   39.74    2.50
  -1  21   1   43.58    2.28
  -1 -21  -1   44.81    2.71
   1  21  -1   42.33    4.09
  -1 -21  -1   39.34    3.28
  -1  21   1   45.21    2.72
   1  21   1   41.47    2.57
  -1 -21   1   47.78    2.62
  -1  21  -1   41.98    1.85
  -1  21  -1   45.87    2.66
   1 -21  -1   42.17    2.69
   1 -21  -1   40.45    2.04
   1  21   1   44.18    2.31
  -1 -21   1   39.65    2.49
   1  23  -1  102.84    5.19
   1  23  -1   98.27    4.80
  -1 -23  -1   93.48    4.39
  -1  23   1  105.52    4.67
  -1 -23  -1  107.35    7.28
   1 -23   1   94.81    4.83
  -1  23   1  103.94    4.92
   1 -23   1  110.24    4.30
  -1 -23   1  115.16    6.97
  -1  23  -1   98.72    4.92
  -1 -23   1   91.50    4.68
   1  23   1   95.92    6.38
   1  23   1   98.57    6.04
   1 -23  -1   93.68    4.14
   1 -23  -1  105.27    5.12
  -1  23  -1  105.73    5.13
  -1  25   1  120.22    5.24
   1  25  -1  109.51    6.72
  -1  25   1  115.83    5.32
  -1 -25  -1  123.54    5.94
  -1 -25  -1  105.32    4.97
   1  25  -1  118.21    5.89
   1 -25   1  126.33    6.31
   1 -25   1  107.17    5.39
   1 -25  -1  107.57    4.72
  -1 -25   1  103.10    5.27
  -1  25  -1  118.29    5.82
   1  25   1  111.74    5.29
   1  25   1  114.86    5.23
  -1 -25   1  130.06    7.50
  -1  25  -1  109.45    4.30
   1 -25  -1  118.53    5.51
  -1  27   1   63.51    3.09
  -1 -27  -1   64.23    3.42
   1 -27   1   66.79    2.84
   1 -27   1   58.06    3.31
   1  27  -1   57.99    2.94
  -1  27   1   61.05    2.98
  -1 -27  -1   58.65    3.04
   1  27  -1   64.07    5.15
   1 -27  -1   54.84    2.76
  -1 -27   1   68.16    3.29
   1 -27  -1   63.35    3.31
   1  27   1   59.07    3.07
   1  27   1   62.39    3.13
  -1 -27   1   55.54    3.35
  -1  27  -1   58.56    3.21
  -1  27  -1   61.87    3.46
  -1 -29  -1   29.46    3.16
  -1  29   1   26.62    1.66
   1 -29   1   26.32    1.96
   1  29  -1   27.69    2.07
  -1  29   1   28.15    2.61
  -1 -29  -1   26.11    1.77
   1 -29   1   32.00    1.56
   1  29  -1   27.09    1.60
  -1 -29   1   26.48    2.02
   1 -29  -1   26.11    1.61
  -1  29  -1   26.52    1.28
   1 -29  -1   27.75    2.92
   1  29   1   27.73    1.75
  -1  29  -1   30.21    3.13
   1  29   1   26.96    2.66
  -1 -29   1   33.14    1.88
   1 -31   1    1.00    0.70
   1 -31   1    1.36    0.82
  -1 -31  -1    1.37    0.61
   1  31  -1    1.30    0.51
  -1 -31  -1    1.20    0.68
  -1  31   1    1.35    0.53
   1  31  -1    1.27    0.72
  -1  31   1    1.35    0.57
   1 -31  -1    1.50    0.62
  -1  31  -1    1.00    0.39
   1  31   1    1.61    0.56
   1 -31  -1    1.25    0.58
   1  31   1    1.55    0.61
  -1 -31   1    0.97    0.73
  -1  31  -1    1.49    0.70
  -1 -31   1    1.94    0.61
  -1 -33  -1   57.32    3.98
  -1  33   1   63.57    2.93
   1 -33   1   71.52    2.73
  -1 -33  -1   67.77    3.18
   1 -33   1   57.64    3.13
   1  33  -1   58.43    2.54
  -1  33   1   60.26    2.67
   1  33  -1   62.86    4.66
   1  33   1   58.32    2.76
   1 -33  -1   58.44    2.79
  -1  33  -1   63.12    3.29
   1  33   1   62.80    2.98
   1 -33  -1   64.65    2.93
  -1  33  -1   61.13    2.31
  -1 -33   1   72.45    4.10
  -1 -33   1   58.48    3.18
   1  35  -1   16.49    1.11
   1 -35   1   21.40    1.18
   1 -35   1   16.81    1.55
  -1 -35  -1   19.86    1.51
  -1 -35  -1   17.28    1.39
  -1  35   1   17.98    1.19
  -1  35   1   18.52    1.34
   1  35  -1   19.87    1.61
  -1  35  -1   17.53    0.94
  -1 -35   1   20.24    1.32
   1  35   1   18.85    1.95
   1 -35  -1   18.79    1.33
   1 -35  -1   20.09    1.40
  -1 -35   1   18.20    1.64
   1  35   1   17.78    1.41
  -1  35  -1   17.92    1.58
  -1  37   1   12.31    1.07
   1  37  -1   10.90    0.84
  -1  37   1   13.25    1.40
   1 -37   1   14.16    1.39
  -1 -37  -1   12.61    1.18
   1 -37   1   11.25    1.30
  -1 -37  -1   11.64    1.12
   1  37  -1   11.79    1.32
  -1 -37   1    9.72    1.34
  -1  37  -1   11.02    1.28
   1 -37  -1   13.49    1.08
  -1  37  -1    9.96    1.11
   1 -37  -1   12.26    1.10
   1  37   1   11.12    0.99
   1  37   1   11.47    1.11
  -1 -37   1   13.57    1.05
  -1 -39  -1    6.38    0.98
   1  39  -1    8.46    1.13
   1  39  -1    7.71    0.71
  -1 -39  -1    8.14    1.64
   1 -39   1    8.09    1.12
  -1  39   1    8.53    0.92
  -1  39   1    7.46    0.77
   1 -39   1    9.37    0.76
   1  39   1    7.36    1.48
   1  39   1    8.03    0.83
  -1 -39   1    8.17    1.14
  -1  39  -1    8.16    1.08
  -1  39  -1    7.72    0.60
   1 -39  -1    9.54    0.90
  -1 -39   1    9.01    1.38
   1 -39  -1    7.81    0.94
   1  41  -1    7.29    0.67
  -1  41   1    6.65    0.74
  -1 -41  -1    9.18    1.00
   1  41  -1    8.17    1.09
   1 -41   1    8.46    1.15
  -1 -41  -1    6.46    0.99
   1 -41   1    0.00    1.82
  -1  41   1    8.25    0.92
   1 -41  -1    7.80    0.91
   1 -41  -1    8.50    0.88
   1  41   1    7.85    0.91
  -1  41  -1    7.54    0.91
   1  41   1    6.28    0.79
  -1  41  -1    7.19    1.08
  -1 -41   1   -0.00    1.85
   1 -43   1    7.92    1.21
   1 -43   1    9.37    0.75
  -1 -43  -1    8.06    1.03
   1  43  -1    7.80    1.16
   1  43  -1    7.19    0.70
  -1 -43  -1    8.04    1.05
   1  43   1    7.30    0.84
   1 -43  -1    8.72    0.94
   1  43   1    7.77    0.98
   1 -43  -1    7.07    1.00
  -1  43  -1    7.11    0.61
  -1 -43   1    8.45    0.87
  -1  43  -1    7.77    1.16
  -1 -43   1    6.60    1.21
  -3   1   1    9.06    0.31
   3  -1   1    9.36    0.45
  -3  -1  -1    8.36    0.28
   3  -1   1    8.85    0.28
   3   1  -1    8.28    0.31
  -3   1   1    8.88    0.24
   3   1  -1    9.17    0.36
  -3  -1  -1    8.87    0.52
   3  -1  -1    8.99    0.40
  -3   1  -1    8.27    0.34
   3   1   1    9.41    0.64
  -3  -1   1    9.65    0.30
   3  -1  -1    8.39    0.34
  -3  -1   1    9.07    0.35
  -3   1  -1    8.65    0.29
   3   1   1    9.33    0.28
  -3  -3  -1   77.30    1.90
   3   3  -1   78.68    2.12
  -3  -3  -1   77.08    4.13
  -3   3   1   74.53    1.87
   3  -3   1   74.88    1.91
  -3   3   1   74.83    1.69
   3   3  -1   77.78    2.20
   3  -3   1   76.36    2.20
   3  -3  -1   76.98    1.76
  -3  -3   1   73.82    2.01
  -3   3  -1   76.40    2.28
  -3  -3   1   75.48    2.12
   3   3   1   75.65    3.14
   3   3   1   75.07    1.87
   3  -3  -1   76.11    1.95
  -3   3  -1   78.73    1.74
   3  -5   1  372.17   13.45
   3  -5   1  368.03   14.27
  -3   5   1  362.11   13.72
  -3   5   1  358.28   13.08
   3   5  -1  369.67   14.72
  -3  -5  -1  345.98   17.58
  -3  -5  -1  372.20   14.15
   3   5  -1  353.22   14.27
  -3  -5   1  367.20   16.27
   3   5   1  343.87   17.29
  -3   5  -1  375.65   12.92
   3  -5  -1  366.21   13.40
   3  -5  -1  356.66   13.63
  -3  -5   1  363.45   14.58
   3   5   1  364.62   13.91
  -3   5  -1  367.11   14.20
   3   7  -1  717.95   37.76
  -3  -7  -1  683.57   43.86
   3  -7   1  747.57   34.23
  -3   7   1  722.82   35.48
   3  -7   1  755.33   38.66
  -3   7   1  745.75   37.25
   3   7  -1  766.27   40.24
  -3  -7  -1  751.01   37.89
   3  -7  -1  725.17   35.65
   3   7   1  769.08   40.63
  -3   7  -1  741.94   33.84
   3  -7  -1  710.50   35.74
  -3  -7   1  740.71   39.12
   3   7   1  708.10   50.55
  -3   7  -1  728.56   37.38
  -3  -7   1  760.19   39.93
   3  -9   1  674.12   31.60
   3   9  -1  671.99   37.05
   3  -9   1  653.17   32.84
   3  -9   1  650.05   32.57
  -3  -9  -1  625.37   40.66
   3  -9   1  641.21   28.04
  -3  -9  -1  644.27   31.78
   3   9  -1  634.85   32.43
   3   9   1  675.69   34.89
  -3  -9   1  655.98   33.96
   3  -9  -1  617.99   31.54
   3  -9  -1  646.35   30.79
  -3  -9   1  654.36   33.83
   3  -9  -1  631.64   30.26
   3  -9  -1  651.09   31.55
   3   9   1  613.97   38.66
   3  11  -1  535.17   26.55
   3 -11   1  546.90   23.22
   3 -11   1  559.37   27.45
  -3 -11  -1  578.36   35.08
   3 -11   1  622.80   28.87
   3  11  -1  585.35   29.20
  -3 -11  -1  588.81   28.00
   3 -11   1  559.74   27.61
   3 -11  -1  570.28   26.39
   3 -11  -1  574.60   26.90
   3 -11  -1  542.86   26.88
  -3 -11   1  580.68   29.34
   3 -11  -1  561.79   26.26
   3  11   1  590.98   27.95
  -3 -11   1  566.79   28.53
   3  11   1  540.76   33.59
   3 -13   1  168.19    5.95
   3 -13   1  157.81    6.02
   3 -13   1  160.54    4.52
  -3 -13  -1  168.86    8.57
   3  13  -1  154.59    5.87
   3 -13   1  156.35    5.95
   3  13  -1  163.84    6.37
  -3 -13  -1  166.13    5.82
  -3 -13   1  169.36    6.73
   3 -13  -1  156.24    5.30
   3  13   1  155.20    8.45
   3 -13  -1  157.11    5.40
   3 -13  -1  153.46    5.33
  -3 -13   1  163.52    6.46
   3  13   1  165.00    5.68
   3 -13  -1  148.51    5.12
  -3 -15  -1   35.74    2.28
  -3 -15  -1   33.76    2.65
   3 -15   1   30.96    1.64
   3  15  -1   33.08    1.62
   3 -15   1   33.05    1.58
   3  15  -1   35.54    1.86
  -3 -15   1   32.33    1.84
  -3  15  -1   31.93    0.88
   3 -15  -1   31.14    1.31
   3 -15  -1   34.65    2.06
   3 -15  -1   32.00    1.30
   3 -15  -1   31.96    1.37
  -3 -15   1   29.50    1.97
   3  15   1   32.16    1.36
   3  15   1   29.40    2.67
  -3  15  -1   31.88    1.71
  -3 -17  -1  299.30   15.06
   3 -17   1  314.62   12.00
   3  17  -1  298.66   15.99
   3  17  -1  281.56   12.75
  -3 -17  -1  303.49   12.88
   3 -17   1  280.69   14.84
   3  17   1  292.67   12.38
   3 -17  -1  283.99   12.34
   3 -17  -1  283.76   12.24
  -3  17  -1  284.91   13.33
   3 -17  -1  272.29   11.66
   3  17   1  273.00   14.80
  -3  17  -1  305.19   11.48
  -3 -17   1  287.08   13.94
  -3 -17   1  298.19   16.10
   3 -17  -1  304.83   14.96
   3  19  -1  429.93   22.19
   3  19  -1  398.63   20.31
  -3 -19  -1  420.06   20.40
   3 -19   1  404.19   20.76
  -3 -19  -1  418.96   22.27
   3 -19   1  456.26   19.55
   3 -19  -1  430.25   23.81
   3 -19  -1  394.13   19.46
  -3  19  -1  442.62   20.39
   3  19   1  415.63   19.83
   3 -19  -1  392.47   19.44
  -3  19  -1  424.40   21.92
  -3 -19   1  436.81   25.47
  -3 -19   1  394.22   20.95
   3  19   1  385.14   21.76
   3 -19  -1  389.37   18.93
   3 -21   1   86.68    3.81
   3  21  -1   79.58    6.14
   3 -21   1   77.81    4.29
   3  21  -1   84.36    6.67
  -3 -21  -1   81.26    4.02
  -3 -21  -1   84.66    4.81
   3 -21  -1   89.59    4.53
   3 -21  -1   81.85    5.17
  -3  21  -1   88.19    4.74
  -3 -21   1   76.40    4.43
  -3 -21   1   86.83    4.70
  -3  21  -1   92.27    3.29
   3  21   1   83.49    3.95
   3  21   1   76.98    4.72
  -3 -23  -1   96.82    4.94
   3 -23   1  113.15    3.94
   3  23  -1   98.32    5.66
  -3 -23  -1  105.30    5.76
   3  23  -1  100.79    5.68
  -3  23   1  112.63    5.67
  -3  23   1  111.17    5.23
   3 -23   1   99.50    5.46
   3  23   1  100.65    4.98
  -3  23  -1  108.51    4.03
  -3 -23   1  114.33    6.02
  -3  23  -1  112.44    6.12
   3  23   1   98.05    5.58
   3 -23  -1  105.89    5.69
   3 -23  -1   96.40    4.62
  -3 -23   1   92.94    5.30
  -3  25   1  307.00   14.44
   3 -25   1  265.76   14.04
  -3 -25  -1  292.14   14.83
  -3 -25  -1  250.72   12.79
   3  25  -1  262.62   13.94
   3 -25   1  298.90   11.90
   3  25  -1  260.19   14.32
  -3  25  -1  298.65   13.47
   3  25   1  255.87   13.70
   3 -25  -1  254.62   12.18
   3 -25  -1  275.73   14.01
   3  25   1  273.43   13.63
  -3  25  -1  297.62   15.29
  -3 -25   1  309.02   18.63
  -3 -25   1  246.17   13.12
   3  27  -1  122.26    6.60
   3  27  -1  135.04    7.12
  -3 -27  -1  142.58    6.99
   3 -27   1  144.47    5.18
   3 -27   1  132.22    6.84
  -3 -27  -1  122.13    6.19
  -3 -27   1  148.06    9.48
   3 -27  -1  139.53    8.37
   3 -27  -1  123.91    5.65
  -3  27  -1  144.34    5.21
  -3 -27   1  119.03    6.46
  -3  27  -1  145.83    7.28
   3  27   1  131.30    6.47
   3  27   1  126.98    8.58
   3  29  -1   47.70    3.02
   3 -29   1   47.42    3.01
  -3 -29  -1   45.54    2.82
  -3 -29  -1   56.13    3.19
   3 -29   1   56.08    2.00
   3  29  -1   50.08    3.27
   3  29   1   48.57    2.92
   3 -29  -1   52.63    2.67
   3 -29  -1   48.52    2.48
  -3  29  -1   54.10    1.96
  -3 -29   1   45.98    4.72
   3 -29  -1   51.74    2.91
  -3 -29   1   57.91    3.16
   3  29   1   51.65    2.92
   3 -31   1  146.89    7.07
  -3 -31  -1  158.41    7.46
  -3 -31  -1  139.42    6.70
   3  31  -1  141.56    8.65
   3  31  -1  150.48    7.59
   3 -31   1  168.91    6.05
  -3 -31   1  168.07    7.55
   3  31   1  143.05    6.88
  -3 -31   1  132.95    6.92
   3  31   1  145.50    6.96
   3 -31  -1  162.38    6.87
  -3  31  -1  160.94    5.86
   3 -31  -1  156.69    6.57
   3 -31  -1  166.65    7.42
  -3  31  -1  165.32    7.81
   3 -31  -1  145.74    6.38
  -3 -33  -1   62.24    3.24
  -3 -33  -1   54.43    2.96
   3  33  -1   54.92    2.92
   3 -33   1   62.94    2.23
   3 -33   1   54.48    3.12
   3  33  -1   57.61    3.39
  -3  33  -1   61.14    2.11
   3 -33  -1   60.39    2.56
   3  33   1   52.71    2.85
   3 -33  -1   66.10    3.07
   3 -33  -1   62.99    2.73
   3  33   1   54.82    2.99
  -3 -33   1   50.52    3.14
   3 -33  -1   50.71    3.55
  -3 -33   1   63.78    3.14
  -3 -35  -1   17.45    1.55
   3 -35   1   15.39    0.77
   3  35  -1   14.80    1.94
   3 -35   1   16.28    0.88
   3 -35   1   15.83    1.51
  -3 -35  -1   15.04    1.38
   3  35  -1   13.75    2.55
   3 -35   1   14.57    1.44
   3 -35  -1   16.04    1.02
  -3 -35   1   16.37    1.37
  -3 -35   1   13.33    1.54
   3 -35  -1   16.12    1.16
   3 -35  -1   15.03    1.20
   3 -35  -1   17.23    1.32
   3  35   1   14.24    1.27
   3  35   1   14.87    1.35
   3  37  -1    1.61    0.78
  -3 -37  -1    1.31    0.72
   3  37  -1    0.59    0.57
   3 -37   1    1.51    0.39
   3 -37   1    1.41    1.19
   3 -37   1    1.21    0.73
  -3 -37  -1    0.97    0.66
   3 -37   1    2.00    0.33
  -3 -37   1    1.73    1.07
   3  37   1    0.83    0.98
   3 -37  -1    1.32    0.46
   3 -37  -1    0.89    0.94
  -3 -37   1    0.98    0.76
   3  37   1    1.29    0.65
   3 -37  -1    1.76    0.88
   3 -37  -1    1.93    0.61
   3 -39   1    6.29    0.57
   3 -39   1    5.88    0.74
   3  39  -1    5.27    0.76
   3  39  -1    5.84    1.09
   3 -39   1    5.39    1.00
  -3 -39  -1   -0.00    1.57
   3 -39   1    6.07    1.02
  -3 -39  -1    5.38    1.01
   3 -39  -1    6.29    0.83
  -3 -39   1    4.38    1.78
   3  39   1    4.90    0.92
   3  39   1    4.53    0.82
   3 -39  -1    5.40    0.86
   3 -39  -1    7.10    0.76
  -3 -39   1    6.84    0.89
   3 -39  -1    7.52    0.65
  -3 -41  -1   13.20    1.41
   3 -41   1   15.89    0.89
  -3 -41  -1   16.61    1.47
   3  41  -1   12.10    1.10
   3 -41   1   14.67    0.76
   3 -41   1   17.91    1.48
   3 -41   1   14.47    1.44
   3  41  -1   14.09    1.53
  -3 -41   1   17.55    1.30
   3 -41  -1   14.74    0.94
   3  41   1   12.69    2.04
   3  41   1   14.69    1.19
   3 -41  -1   15.24    1.21
   3 -41  -1   15.52    1.09
   3 -41  -1   14.25    1.28
  -3 -41   1   13.69    1.62
  -3 -43  -1   70.04    3.58
   3  43  -1   53.82    2.70
   3  43  -1   65.11    3.69
   3 -43   1   62.16    3.49
   3 -43   1   69.72    4.99
  -3 -43  -1   58.74    3.33
   3 -43  -1   66.56    3.24
  -3 -43   1   63.60    3.71
   3 -43  -1   62.90    2.63
   3  43   1   57.00    2.99
   3  43   1   62.96    3.26
  -3 -43   1   73.83    4.38
   3 -43  -1   70.52    2.89
   3 -43  -1   62.91    3.15
  -5   1   1  473.65   20.30
   5   1  -1  478.30   21.78
  -5  -1  -1  481.40   20.76
   5  -1   1  483.22   20.92
  -5  -1  -1  474.39   24.19
   5   1  -1  485.86   21.31
  -5   1   1  498.43   21.81
   5  -1   1  452.05   23.01
   5  -1  -1  485.01   20.97
  -5   1  -1  473.44   20.44
  -5   1  -1  464.33   20.55
   5   1   1  480.77   20.83
  -5  -1   1  485.81   21.59
  -5  -1   1  483.05   20.93
   5  -1  -1  471.79   21.08
   5   1   1  458.20   24.42
  -5  -3  -1   42.87    3.43
   5  -3   1   39.52    1.51
  -5   3   1   38.86    1.18
  -5   3   1   40.89    1.35
   5   3  -1   41.98    1.61
   5  -3   1   39.64    1.38
  -5  -3  -1   41.46    1.40
   5   3  -1   41.88    2.88
  -5  -3   1   39.55    1.49
   5   3   1   39.57    1.42
   5  -3  -1   42.84    1.31
   5  -3  -1   42.43    1.54
  -5   3  -1   42.65    1.92
  -5  -3   1   39.59    1.70
   5   3   1   40.16    2.31
  -5   3  -1   45.53    1.31
  -5  -5  -1  495.47   25.69
   5  -5   1  518.71   22.71
  -5  -5  -1  524.17   23.60
  -5   5   1  506.02   23.04
   5   5  -1  502.41   23.95
   5   5  -1  527.83   26.41
   5  -5   1  519.11   24.88
  -5   5   1  528.60   23.35
   5  -5  -1  529.26   23.22
  -5  -5   1  515.37   24.50
   5   5   1  481.65   25.21
  -5   5  -1  509.63   22.87
  -5   5  -1  521.34   21.92
   5  -5  -1  514.69   24.57
   5   5   1  510.23   23.06
  -5  -5   1  510.99   23.50
  -5   7   1  655.15   31.38
   5   7  -1  682.01   34.38
   5   7  -1  644.05   33.46
   5  -7   1  674.85   31.51
  -5  -7  -1  673.56   33.46
   5  -7   1  672.14   33.35
  -5   7   1  682.22   32.87
  -5  -7  -1  613.75   34.99
  -5   7  -1  651.89   32.19
  -5  -7   1  658.08   34.34
  -5   7  -1  669.70   31.01
   5  -7  -1  681.33   32.75
  -5  -7   1  660.91   33.44
   5   7   1  670.54   33.19
   5   7   1  616.50   34.94
   5  -7  -1  652.39   31.96
  -5  -9  -1  106.24    5.54
  -5   9   1  110.35    3.20
  -5   9   1  113.74    3.30
   5   9  -1  109.26    4.16
  -5  -9  -1  109.54    3.60
   5  -9   1  115.99    2.92
   5  -9   1  110.79    3.61
   5   9  -1  108.87    3.85
  -5   9  -1  108.98    3.51
  -5  -9   1  111.42    4.04
   5  -9  -1  110.52    3.79
   5   9   1  109.71    3.61
  -5  -9   1  110.19    4.28
   5  -9  -1  106.29    3.27
   5   9   1  110.04    5.34
  -5   9  -1  114.14    2.72
  -5 -11  -1  187.03    9.56
   5 -11   1  194.36    5.81
  -5  11   1  189.36    6.28
   5 -11   1  185.23    6.66
   5  11  -1  183.01    7.21
  -5  11   1  195.19    6.90
   5  11  -1  192.58    7.15
  -5 -11  -1  192.97    6.84
   5  11   1  188.84    6.69
  -5 -11   1  186.55    8.56
   5 -11  -1  184.62    6.17
  -5 -11   1  186.63    7.56
   5  11   1  184.40    8.89
   5 -11  -1  193.19    6.39
   5 -13   1  153.16    4.07
  -5 -13  -1  148.87    6.53
   5 -13   1  146.62    5.30
   5  13  -1  139.81    5.66
   5 -13   1  154.92    4.27
   5 -13   1  147.46    5.28
   5  13  -1  152.97    5.77
  -5 -13  -1  151.38    8.50
   5  13   1  148.74    5.26
  -5 -13   1  148.52    6.24
   5  13   1  151.21    7.84
   5 -13  -1  143.06    4.65
   5 -13  -1  148.14    4.85
  -5 -13   1  154.31    6.08
   5 -13  -1  148.96    4.73
   5 -13  -1  149.53    4.88
   5  15  -1  105.85    4.45
   5 -15   1  115.68    3.80
   5 -15   1  107.54    2.71
  -5 -15  -1  117.76    7.17
  -5 -15  -1  113.69    4.16
   5 -15   1  105.17    3.99
   5  15  -1  112.55    4.36
   5 -15   1  106.73    3.98
  -5 -15   1  111.88    4.70
   5 -15  -1  103.40    3.34
   5 -15  -1  112.17    3.50
  -5 -15   1  109.34    4.91
   5 -15  -1  111.89    3.68
   5  15   1  108.78    3.92
   5 -15  -1  108.82    4.25
   5  15   1  109.95    6.26
   5 -17   1  140.86    4.26
   5 -17   1  142.36    5.80
   5 -17   1  144.12    7.00
   5  17  -1  141.93    6.15
  -5 -17  -1  148.87    5.89
  -5 -17  -1  153.89    9.06
   5  17  -1  150.91    7.78
   5 -17   1  156.94    6.02
   5 -17  -1  145.54    5.04
  -5 -17   1  150.89    6.67
   5 -17  -1  145.75    5.27
   5 -17  -1  136.08    4.74
   5  17   1  145.48    5.58
  -5 -17   1  150.38    9.25
   5  17   1  147.70    8.54
   5 -17  -1  144.26    6.22
   5  19  -1  144.32    6.38
   5 -19   1  136.02    5.85
  -5 -19  -1  153.20    8.82
   5 -19   1  143.89    4.92
  -5 -19  -1  144.88    6.08
   5  19  -1  137.11    8.29
   5 -19   1  133.00    4.26
   5 -19   1  137.91    6.01
   5 -19  -1  137.78    6.56
  -5 -19   1  140.43    6.78
   5 -19  -1  143.64    5.32
   5 -19  -1  137.51    5.36
  -5 -19   1  145.16    7.31
   5 -19  -1  131.90    4.83
   5  19   1  139.58    8.71
   5  19   1  136.80    5.49
   5 -21   1   52.63    1.76
   5 -21   1   49.14    2.89
   5  21  -1   52.96    3.02
  -5 -21  -1   54.39    4.14
   5 -21   1   49.87    2.71
   5  21  -1   49.45    3.08
  -5 -21  -1   52.08    2.80
   5 -21   1   46.90    1.65
  -5 -21   1   51.32    3.42
   5 -21  -1   52.78    2.36
   5 -21  -1   49.48    2.39
   5  21   1   48.63    4.21
   5 -21  -1   50.08    2.41
   5  21   1   51.35    2.45
  -5 -21   1   53.26    3.70
   5 -21  -1   47.23    2.73
   5 -23   1   69.15    3.69
   5 -23   1   67.27    2.01
   5  23  -1   70.00    4.02
  -5 -23  -1   69.78    3.74
  -5 -23  -1   74.80    4.86
   5  23  -1   65.92    4.08
   5 -23   1   67.21    3.98
   5 -23   1   77.45    2.45
   5 -23  -1   65.06    2.74
  -5 -23   1   69.83    4.54
   5 -23  -1   68.70    3.31
   5 -23  -1   77.30    3.51
   5 -23  -1   69.41    3.41
  -5 -23   1   77.12    4.86
   5  23   1   71.97    4.82
   5  23   1   67.34    7.44
   5  25  -1   35.68    2.88
   5 -25   1   36.46    2.87
   5 -25   1   40.12    1.38
   5  25  -1   35.70    4.51
  -5 -25  -1   36.30    3.92
   5 -25   1   35.70    2.62
   5 -25   1   35.40    1.18
  -5 -25  -1   35.29    3.12
   5 -25  -1   39.25    2.47
   5  25   1   36.74    2.31
   5 -25  -1   33.63    2.42
   5 -25  -1   34.04    2.19
   5 -25  -1   33.05    1.76
   5  25   1   36.50    3.23
  -5 -25   1   36.26    3.08
  -5 -25   1   40.59    3.36
   5 -27   1   12.68    1.05
  -5 -27  -1   12.75    3.01
  -5 -27  -1   11.34    1.55
   5  27  -1   11.81    1.86
   5  27  -1   12.01    1.76
   5 -27   1   12.33    1.88
   5 -27   1   10.49    1.60
   5 -27   1   11.23    0.94
  -5 -27   1   13.44    1.86
   5 -27  -1   13.07    1.07
   5 -27  -1   14.00    1.49
   5  27   1   11.31    1.44
   5  27   1    9.99    1.83
   5 -27  -1   12.15    2.64
  -5 -27   1    8.99    1.79
   5 -27  -1   11.46    2.24
   5 -29   1  120.59    6.73
   5 -29   1  107.92    5.84
  -5 -29  -1   99.35    5.28
   5 -29   1  117.11    3.77
   5 -29   1  107.43    4.31
   5  29  -1  106.48    6.19
  -5 -29  -1  119.41    6.16
   5  29  -1  110.55    6.17
  -5 -29   1  119.31    8.28
   5 -29  -1  110.03    4.73
   5  29   1  102.51    5.40
   5 -29  -1  113.26    5.19
   5  29   1   98.72    5.72
  -5 -29   1   98.08    5.69
   5 -29  -1  105.50    5.10
   5 -29  -1  119.78    8.46
   5  31  -1   51.96    3.54
   5 -31   1   54.76    3.46
   5 -31   1   57.58    2.52
  -5 -31  -1   64.07    3.65
  -5 -31  -1   52.89    3.13
   5 -31   1   61.63    1.96
   5  31  -1   57.39    3.66
   5 -31   1   62.24    3.84
   5 -31  -1   63.46    5.46
   5  31   1   53.61    3.28
   5 -31  -1   60.19    2.78
   5  31   1   52.25    3.37
   5 -31  -1   55.02    2.82
  -5 -31   1   51.81    3.43
  -5 -31   1   62.01    5.11
   5 -31  -1   60.14    2.66
   5  33  -1   35.83    2.73
  -5 -33  -1   34.70    3.75
   5 -33   1   38.85    1.41
   5  33  -1   38.01    2.90
   5 -33   1   37.55    4.03
   5 -33   1   43.11    1.90
  -5 -33  -1   42.84    2.79
   5 -33   1   43.33    2.88
  -5 -33   1   43.26    2.67
  -5 -33   1   33.87    2.71
   5 -33  -1   43.37    3.98
   5 -33  -1   40.71    1.90
   5 -33  -1   38.40    2.13
   5  33   1   36.74    3.72
   5  33   1   34.29    2.51
   5 -33  -1   41.21    2.00
   5 -35   1   63.26    3.61
   5  35  -1   58.55    5.02
  -5 -35  -1   56.57    4.90
  -5 -35  -1   67.52    3.77
   5 -35   1   65.19    2.25
   5 -35   1   68.37    3.86
   5 -35   1   70.83    2.28
   5  35  -1   62.34    3.94
   5 -35  -1   69.74    2.92
   5 -35  -1   66.85    2.76
  -5 -35   1   60.07    3.69
   5  35   1   61.36    3.51
  -5 -35   1   68.67    3.64
   5  35   1   60.35    3.46
   5 -35  -1   61.80    3.02
   5 -35  -1   70.77    3.71
   5 -37   1   16.29    1.57
   5 -37   1   16.39    1.65
   5  37  -1   17.33    1.77
  -5 -37  -1   15.49    1.57
  -5 -37  -1   18.45    1.74
   5 -37   1   18.12    0.78
   5  37  -1   14.44    1.54
   5 -37   1   15.85    0.73
   5  37   1   14.35    2.33
   5 -37  -1   15.24    1.27
  -5 -37   1   13.61    2.80
   5 -37  -1   17.71    1.50
   5  37   1   14.22    2.40
   5 -37  -1   17.65    1.49
  -5 -37   1   16.89    1.55
   5 -37  -1   16.67    1.10
   5 -39   1   27.50    2.08
  -5 -39  -1   24.23    1.93
   5 -39   1   25.51    1.96
   5  39  -1   22.63    2.72
  -5 -39  -1   27.80    2.13
   5  39  -1   25.21    2.16
   5 -39  -1   23.99    1.57
   5 -39  -1   29.55    1.83
   5  39   1   24.92    1.91
   5  39   1   22.78    1.80
   5 -39  -1   25.69    1.28
  -5 -39   1   28.28    1.92
   5 -39  -1   27.83    2.02
  -5 -39   1   22.16    2.15
   5  41  -1   30.80    2.07
   5  41  -1   33.08    3.90
  -5 -41  -1   30.41    2.31
   5 -41   1   34.49    2.38
   5 -41   1   38.11    3.64
  -5 -41  -1   38.40    2.53
  -5 -41   1   41.54    3.40
   5 -41  -1   37.36    2.22
   5  41   1   31.28    2.12
   5 -41  -1   37.91    1.74
  -5 -41   1   32.82    2.62
   5 -41  -1   33.09    1.57
   5  41   1   32.79    3.36
   5 -41  -1   33.84    1.96
  -5 -43  -1   24.53    1.97
   5 -43   1   21.95    1.84
   5  43  -1   22.24    2.06
   5  43  -1   18.14    2.27
  -5 -43  -1   22.81    1.85
   5 -43   1   22.31    1.89
   5  43   1   20.49    1.76
   5 -43  -1   23.36    1.26
  -5 -43   1   21.02    2.08
   5 -43  -1   20.98    2.36
   5 -43  -1   21.26    1.15
  -5 -43   1   24.18    1.73
   5  43   1   18.56    1.62
   5 -43  -1   23.99    1.69
   7   1  -1   29.00    1.09
   7  -1   1   30.12    1.34
  -7   1   1   29.28    1.60
   7  -1   1   29.22    1.05
  -7  -1  -1   28.81    1.23
   7   1  -1   30.04    1.34
  -7   1   1   29.29    1.60
  -7  -1  -1   29.35    1.02
  -7   1   1   29.06    1.35
  -7  -1   1   27.90    1.00
   7  -1  -1   29.37    1.24
  -7   1  -1   28.88    1.00
  -7  -1   1   29.88    1.17
   7   1   1   28.75    1.41
  -7   1  -1   28.75    1.60
   7  -1  -1   29.49    1.05
   7   1   1   29.47    1.57
   7  -3   1    0.41    0.34
  -7   3   1    0.29    0.22
   7   3  -1    0.52    0.40
  -7  -3  -1    0.69    0.42
   7  -3   1    0.51    0.27
  -7  -3  -1    0.63    0.45
   7   3  -1    0.59    0.32
   7   3   1    0.51    0.29
   7  -3  -1    0.58    0.26
  -7   3  -1    0.53    0.25
  -7  -3   1    1.07    0.28
   7  -3  -1    0.31    0.31
  -7   3  -1    0.60    0.23
   7   3   1    0.31    0.48
  -7  -3   1    0.91    0.36
   7  -5   1   14.47    0.67
  -7   5   1   13.98    0.53
  -7   5   1   14.76    0.59
   7   5  -1   12.98    0.95
   7   5  -1   14.10    0.78
  -7  -5  -1   13.59    0.67
   7  -5   1   14.17    1.02
  -7  -5  -1   14.52    1.11
  -7  -5   1   14.16    0.90
  -7   5  -1   13.94    0.62
  -7  -5   1   13.16    0.73
   7  -5  -1   14.35    0.70
   7   5   1   14.37    1.16
   7   5   1   13.23    1.13
  -7   5  -1   13.77    0.48
   7  -5  -1   12.96    0.60
  -7  -7  -1   22.17    0.95
  -7  -7  -1   23.21    1.61
   7  -7   1   23.01    0.80
  -7   7   1   20.63    0.72
   7   7  -1   22.57    1.29
  -7   7   1   22.93    0.76
   7   7  -1   23.84    1.68
   7  -7   1   22.62    0.91
  -7  -7   1   23.62    2.03
   7  -7  -1   21.90    0.88
   7  -7  -1   22.03    0.80
  -7  -7   1   22.27    1.03
  -7   7  -1   22.19    0.84
   7   7   1   22.63    1.61
   7   7   1   22.44    0.98
  -7   7  -1   22.42    0.60
  -7  -9  -1   59.60    2.09
   7  -9   1   62.75    1.73
   7   9  -1   60.72    3.15
  -7   9   1   62.97    1.77
  -7  -9  -1   60.07    3.36
   7  -9   1   61.36    2.06
   7   9  -1   59.65    2.62
  -7   9   1   60.58    1.78
  -7  -9   1   60.78    2.66
   7   9   1   62.01    3.19
  -7  -9   1   62.34    2.32
   7  -9  -1   58.42    1.88
  -7   9  -1   59.47    1.95
   7   9   1   62.16    2.15
  -7   9  -1   60.92    1.45
   7  -9  -1   58.66    1.82
  -7 -11  -1   12.08    2.57
   7  11  -1    9.45    0.96
   7  11  -1    9.37    1.33
  -7  11   1    8.03    0.46
   7 -11   1    9.05    0.39
   7 -11   1    8.65    0.64
  -7 -11  -1    9.69    0.72
   7 -11  -1    9.37    0.52
   7  11   1    7.62    1.14
  -7 -11   1    7.79    0.82
  -7 -11   1    8.35    1.04
   7 -11  -1    9.57    0.53
  -7  11  -1    9.26    0.60
   7  11   1    7.27    1.32
  -7  11  -1    9.44    0.28
   7 -13   1   92.73    3.29
  -7 -13  -1   95.01    5.57
  -7 -13  -1   91.09    3.40
   7  13  -1   89.10    3.82
   7  13  -1   92.93    4.73
  -7  13   1   93.43    2.93
  -7  13   1   95.55    2.82
   7 -13   1   93.10    2.83
   7 -13  -1   90.54    2.96
   7  13   1   92.29    3.31
   7  13   1   92.32    4.96
   7 -13  -1   87.98    2.81
  -7 -13   1   95.82    3.81
  -7 -13   1   93.69    4.26
  -7  13  -1   93.33    2.29
  -7  13  -1   91.18    3.17
  -7  15   1   17.96    0.80
   7  15  -1   15.65    2.30
  -7  15   1   18.05    0.69
   7 -15   1   18.23    1.00
   7 -15   1   17.55    0.51
   7  15  -1   16.09    1.25
  -7 -15  -1   17.21    2.59
  -7 -15  -1   16.31    1.13
   7 -15   1   18.41    1.06
   7 -15   1   18.14    0.46
   7 -15  -1   16.40    0.75
  -7 -15   1   18.57    1.39
  -7 -15   1   16.43    1.68
   7  15   1   19.91    2.07
   7  15   1   17.81    1.06
   7 -15  -1   15.97    0.84
   7 -17   1   80.36    2.10
   7 -17   1   79.74    3.08
   7  17  -1   75.25    3.85
   7 -17   1   80.32    3.28
   7  17  -1   79.26    3.57
  -7 -17  -1   83.90    6.50
  -7 -17  -1   77.42    3.38
   7 -17   1   78.77    2.05
  -7 -17   1   78.97    4.50
   7 -17  -1   77.48    2.50
  -7 -17   1   80.50    3.96
   7 -17  -1   75.32    3.40
   7  17   1   79.07    3.22
   7 -17  -1   73.09    2.49
   7 -17  -1   76.66    2.78
   7  17   1   81.90    5.32
  -7 -19  -1   44.97    2.36
   7  19  -1   44.64    2.43
  -7 -19  -1   47.49    5.07
   7 -19   1   44.33    1.77
   7  19  -1   43.74    2.71
   7 -19   1   42.05    2.05
   7 -19   1   42.37    2.19
   7 -19   1   40.28    1.06
   7 -19  -1   44.10    1.86
   7 -19  -1   44.02    1.54
   7  19   1   42.46    3.15
   7  19   1   42.98    3.93
  -7 -19   1   41.07    2.78
  -7 -19   1   41.73    3.33
   7 -19  -1   40.60    1.75
   7 -19  -1   40.56    1.53
   7  21  -1   25.92    3.00
   7  21  -1   26.11    3.48
   7 -21   1   23.93    2.53
   7 -21   1   24.50    0.70
  -7 -21  -1   25.90    2.96
  -7 -21  -1   29.49    3.68
   7 -21   1   28.42    1.14
   7 -21   1   24.81    1.75
   7 -21  -1   25.36    1.43
  -7 -21   1   27.65    2.74
   7 -21  -1   25.91    2.07
   7 -21  -1   23.93    1.12
   7  21   1   25.17    1.63
  -7 -21   1   26.97    2.28
   7 -21  -1   25.07    1.69
   7  21   1   25.77    3.24
   7 -23   1    3.74    0.93
   7 -23   1    3.34    0.47
   7 -23   1    3.54    0.85
   7 -23   1    3.56    0.26
   7  23  -1    2.82    1.15
  -7 -23  -1    3.73    0.96
  -7 -23  -1    3.56    1.74
   7  23  -1    3.50    1.00
   7 -23  -1    3.80    0.75
   7  23   1    3.29    0.80
   7 -23  -1    3.27    0.69
  -7 -23   1    3.60    1.47
   7 -23  -1    3.51    0.49
  -7 -23   1    2.79    1.24
   7 -23  -1    3.33    0.99
   7  23   1    2.95    2.99
   7 -25   1  152.03    5.06
   7 -25   1  142.73    7.26
  -7 -25  -1  144.49    7.01
   7  25  -1  149.65    7.28
  -7 -25  -1  160.48    9.40
   7 -25   1  137.44    4.76
   7 -25   1  141.10    6.82
   7  25  -1  138.71    7.59
   7 -25  -1  140.86    6.29
   7 -25  -1  133.83    5.22
   7  25   1  142.48    6.45
  -7 -25   1  138.20   10.86
   7  25   1  140.34    9.19
   7 -25  -1  153.44    6.36
   7 -25  -1  146.63    6.69
  -7 -25   1  156.64    9.20
   7 -27   1    7.92    0.39
   7 -27   1    8.57    1.42
  -7 -27  -1    7.55    1.33
   7  27  -1    8.42    1.39
   7 -27   1    7.50    2.02
  -7 -27  -1   10.40    3.06
   7  27  -1    7.93    1.58
   7 -27   1    9.15    0.48
   7 -27  -1    7.79    1.04
  -7 -27   1    7.94    2.75
   7 -27  -1    8.17    1.88
   7  27   1    7.00    1.85
  -7 -27   1    9.10    1.85
   7 -27  -1    8.11    0.71
   7  27   1    7.44    1.78
   7 -27  -1    9.36    1.02
   7  29  -1   16.77    2.04
   7  29  -1   15.85    1.89
   7 -29   1   16.66    3.18
   7 -29   1   15.62    0.59
  -7 -29  -1   19.90    2.20
   7 -29   1   18.11    0.66
   7 -29   1   16.80    1.68
  -7 -29  -1   15.68    1.72
  -7 -29   1   20.85    2.17
   7  29   1   17.67    1.53
   7 -29  -1   18.42    2.20
   7 -29  -1   14.95    1.40
   7 -29  -1   17.69    1.71
   7  29   1   15.79    2.22
   7 -29  -1   15.08    0.98
  -7 -29   1   15.14    3.35
   7 -31   1    8.10    1.35
  -7 -31  -1    8.16    1.61
   7  31  -1    7.29    2.84
   7  31  -1   10.99    1.51
  -7 -31  -1    6.96    1.33
   7 -31   1    6.75    2.71
   7 -31   1    7.60    0.63
   7 -31   1    8.86    0.45
  -7 -31   1    6.69    2.56
   7 -31  -1   10.89    1.77
   7  31   1    7.53    1.24
  -7 -31   1    9.23    1.54
   7 -31  -1    8.22    0.76
   7 -31  -1    8.28    1.48
   7 -31  -1    7.18    1.12
   7  31   1    8.24    1.62
   7 -33   1   24.09    4.11
   7 -33   1   21.46    2.12
   7 -33   1   22.63    0.77
   7  33  -1   20.43    2.35
  -7 -33  -1   19.00    1.95
  -7 -33  -1   23.58    2.28
   7  33  -1   22.14    2.32
   7 -33   1   19.95    1.05
   7 -33  -1   22.40    1.24
   7 -33  -1   23.55    2.50
   7  33   1   20.03    2.21
   7 -33  -1   22.73    1.42
   7  33   1   20.32    1.97
   7 -33  -1   20.13    1.71
  -7 -33   1   24.84    2.18
   7 -35   1   33.84    1.48
   7  35  -1   32.09    4.36
  -7 -35  -1   29.92    2.44
   7 -35   1   34.81    2.65
  -7 -35  -1   37.33    2.80
   7 -35   1   37.81    4.51
   7  35  -1   32.51    2.84
   7 -35   1   37.37    1.14
   7  35   1   32.39    2.68
   7 -35  -1   33.65    1.64
   7 -35  -1   36.61    1.75
   7  35   1   33.27    2.59
   7 -35  -1   32.93    3.21
  -7 -35   1   29.85    4.25
   7 -35  -1   37.49    3.06
  -7 -35   1   36.23    3.99
   7  37  -1   13.13    1.78
  -7 -37  -1   14.45    1.61
   7 -37   1   14.81    1.89
  -7 -37  -1   18.59    2.97
   7  37  -1   15.08    1.90
   7 -37   1   15.66    1.74
   7 -37  -1   16.26    1.82
   7 -37  -1   14.54    0.95
   7 -37  -1   14.32    1.35
   7 -37  -1   16.00    1.02
  -7 -37   1   13.63    1.83
   7  37   1   14.85    1.65
   7  37   1   13.05    2.68
  -7 -37   1   16.67    1.71
  -7 -39  -1    3.58    1.10
   7  39  -1    2.01    1.03
   7 -39   1    3.29    0.99
  -7 -39  -1    3.24    1.00
   7 -39   1    3.33    1.07
   7  39  -1    4.31    1.17
   7  39   1    2.84    1.02
   7  39   1    2.62    0.99
   7 -39  -1    2.66    1.02
   7 -39  -1    3.52    0.55
  -7 -39   1    2.48    1.14
  -7 -39   1    4.26    1.00
   7 -39  -1    3.20    0.50
   7 -39  -1    3.67    1.26
   7  41  -1    4.10    1.17
  -7 -41  -1    6.17    1.32
   7 -41   1    6.74    1.26
   7 -41   1    5.42    1.19
  -7 -41  -1    7.41    1.21
   7  41  -1    6.19    1.39
   7  41   1    6.28    1.19
   7  41   1    5.08    1.86
  -7 -41   1    4.46    1.36
   7 -41  -1    6.28    0.92
  -7 -41   1    6.72    1.19
   7 -41  -1    6.05    1.85
  -9  -1  -1  494.15   23.33
   9  -1   1  485.65   22.34
   9   1  -1  482.74   23.28
   9   1  -1  495.35   24.35
  -9   1   1  488.80   22.19
   9  -1   1  493.37   24.08
  -9  -1  -1  493.19   22.55
  -9   1   1  499.98   23.04
  -9   1  -1  489.11   22.38
  -9  -1   1  487.63   22.76
  -9   1  -1  490.30   24.02
  -9  -1   1  485.21   22.11
   9   1   1  499.48   22.97
   9  -1  -1  500.42   22.86
   9   1   1  485.26   26.23
   9  -1  -1  502.33   23.92
  -9   3   1   39.32    1.97
   9   3  -1   38.23    1.87
  -9  -3  -1   39.07    1.80
  -9  -3  -1   38.27    1.47
   9  -3   1   40.05    1.55
   9  -3   1   38.16    1.68
  -9   3   1   38.49    1.34
   9   3  -1   39.31    1.63
  -9  -3   1   38.15    2.47
   9  -3  -1   41.13    1.47
   9   3   1   39.00    1.52
  -9   3  -1   39.30    1.32
   9  -3  -1   40.21    2.46
  -9   3  -1   40.92    1.49
  -9  -3   1   37.78    1.42
   9   3   1   38.72    2.01
   9  -5   1  277.40   10.87
  -9  -5  -1  273.82   10.75
   9  -5   1  276.23   11.06
  -9  -5  -1  263.49   11.50
  -9   5   1  272.49   10.31
  -9   5   1  283.07   10.78
   9   5  -1  278.53   11.22
   9   5  -1  271.19   11.71
  -9  -5   1  271.85   10.80
  -9   5  -1  277.71   10.23
   9   5   1  272.96   12.22
   9   5   1  266.19   12.10
  -9  -5   1  273.90   11.44
   9  -5  -1  279.41   10.75
  -9   5  -1  268.83   11.39
   9  -5  -1  273.51   11.01
  -9   7   1  583.45   28.20
  -9  -7  -1  570.73   30.68
  -9  -7  -1  601.18   29.71
   9   7  -1  608.34   30.43
   9   7  -1  583.15   33.21
  -9   7   1  614.76   29.66
   9  -7   1  588.76   29.02
   9  -7   1  602.11   29.77
  -9  -7   1  593.96   29.66
  -9   7  -1  589.74   28.94
  -9   7  -1  612.54   28.45
   9  -7  -1  612.66   29.82
  -9  -7   1  590.59   30.68
   9   7   1  585.67   29.19
   9  -7  -1  589.94   29.23
   9   7   1  554.57   30.71
   9  -9   1  384.72   16.77
  -9   9   1  391.88   16.20
  -9  -9  -1  383.53   16.80
   9  -9   1  382.83   16.14
   9   9  -1  370.67   17.77
  -9  -9  -1  370.78   18.81
   9   9  -1  391.36   17.47
  -9   9   1  375.16   15.73
   9   9   1  382.26   16.86
  -9   9  -1  390.30   15.25
  -9   9  -1  377.81   16.24
   9  -9  -1  388.91   16.55
  -9  -9   1  379.61   16.93
   9   9   1  355.74   18.33
   9  -9  -1  374.69   16.21
  -9  -9   1  374.28   17.69
  -9 -11  -1  143.18    7.44
   9 -11   1  143.36    5.50
   9  11  -1  137.97    6.22
   9 -11   1  137.65    5.14
   9  11  -1  142.00    5.66
  -9  11   1  142.64    4.65
  -9  11   1  139.79    4.74
  -9 -11  -1  141.34    6.60
  -9  11  -1  139.76    5.03
   9  11   1  139.94    7.05
   9 -11  -1  138.03    4.87
  -9 -11   1  137.86    5.53
  -9  11  -1  142.81    4.13
   9 -11  -1  143.88    5.06
   9  11   1  140.91    5.42
  -9 -11   1  144.81    6.59
   9 -13   1  100.59    3.84
   9  13  -1   97.54    6.45
  -9  13   1   96.84    3.29
   9 -13   1  100.73    3.15
  -9 -13  -1  102.48    6.25
  -9  13   1  102.81    3.19
  -9 -13  -1  100.95    3.96
   9  13  -1  105.31    5.79
   9  13   1   97.21    5.53
  -9 -13   1   96.79    4.17
   9 -13  -1  100.53    4.44
  -9  13  -1   98.87    3.62
   9  13   1   99.12    3.96
   9 -13  -1   96.81    3.40
  -9  13  -1  102.72    2.74
  -9 -13   1  101.49    5.19
   9 -15   1   54.44    1.66
   9  15  -1   50.68    3.06
  -9  15   1   52.55    1.67
  -9 -15  -1   53.19    2.50
  -9  15   1   51.71    1.87
   9  15  -1   56.11    2.70
  -9 -15  -1   57.26    7.46
   9 -15   1   53.27    2.31
   9 -15  -1   50.89    1.89
  -9  15  -1   57.02    2.22
   9 -15  -1   53.28    2.06
   9  15   1   53.85    2.44
   9  15   1   54.05    3.93
  -9 -15   1   52.42    2.79
  -9 -15   1   53.10    5.42
  -9  15  -1   54.33    1.59
   9  17  -1   40.35    2.35
   9 -17   1   41.25    2.03
  -9 -17  -1   40.65    4.46
   9 -17   1   39.36    1.84
   9  17  -1   39.34    2.71
  -9  17   1   40.19    1.34
   9 -17   1   40.69    1.23
  -9  17   1   40.00    1.57
   9 -17   1   41.33    1.04
  -9 -17  -1   41.33    2.19
  -9 -17   1   41.10    3.23
   9  17   1   40.62    5.61
   9 -17  -1   41.40    1.74
  -9 -17   1   40.54    2.51
   9 -17  -1   37.65    1.50
   9  17   1   40.54    2.05
  -9 -19  -1   41.54    2.28
   9 -19   1   41.46    2.13
   9  19  -1   41.04    2.39
   9 -19   1   38.98    2.86
   9  19  -1   38.97    4.36
  -9 -19  -1   44.95    4.84
   9 -19   1   42.15    1.10
   9 -19   1   39.20    1.57
  -9 -19   1   41.46    3.45
  -9 -19   1   41.51    2.64
   9  19   1   41.20    3.75
   9  19   1   40.54    3.18
   9 -19  -1   39.74    1.67
   9 -19  -1   41.33    1.84
   9 -19  -1   37.52    1.52
   9 -19  -1   42.64    1.92
   9  21  -1   13.08    1.75
  -9 -21  -1   13.92    1.40
   9 -21   1   15.72    0.56
   9 -21   1   12.29    1.14
   9 -21   1   15.24    0.81
  -9 -21  -1   16.13    3.36
   9  21  -1   13.70    1.50
   9 -21   1   12.84    1.29
  -9 -21   1   13.33    2.26
   9 -21  -1   13.03    0.80
   9  21   1   13.37    1.30
   9 -21  -1   14.70    1.08
  -9 -21   1   12.19    1.69
   9 -21  -1   14.13    0.74
   9 -21  -1   13.49    0.95
   9  21   1   16.47    4.12
   9 -23   1   56.80    1.62
   9  23  -1   59.92    3.80
  -9 -23  -1   61.38    3.24
   9 -23   1   58.12    3.06
   9  23  -1   60.53    3.30
   9 -23   1   65.08    2.04
  -9 -23  -1   70.63    6.34
   9 -23   1   58.01    2.84
   9  23   1   60.42    5.13
  -9 -23   1   59.93    4.72
   9 -23  -1   59.61    2.53
   9 -23  -1   60.92    2.72
   9  23   1   57.94    2.92
   9 -23  -1   55.57    2.10
   9 -23  -1   61.40    2.15
  -9 -23   1   60.25    3.72
   9  25  -1   46.55    3.27
   9 -25   1   44.64    2.68
   9 -25   1   51.31    1.76
   9 -25   1   44.06    1.53
  -9 -25  -1   44.32    4.12
   9 -25   1   45.37    2.44
   9  25  -1   47.75    2.83
  -9 -25  -1   50.67    4.77
  -9 -25   1   46.36    3.22
   9 -25  -1   48.08    1.84
   9 -25  -1   43.99    1.71
   9 -25  -1   46.37    2.19
   9  25   1   46.27    2.40
   9  25   1   49.08    4.55
  -9 -25   1   49.40    4.11
   9 -25  -1   42.64    3.26
   9  27  -1   45.89    2.92
  -9 -27  -1   48.22    2.86
   9  27  -1   46.88    3.36
   9 -27   1   45.19    1.26
  -9 -27  -1   48.94    4.34
   9 -27   1   44.43    3.76
   9 -27   1   46.63    2.89
   9 -27  -1   47.77    2.55
  -9 -27   1   50.05    4.14
   9 -27  -1   45.25    2.30
   9 -27  -1   46.06    2.35
   9  27   1   44.85    2.48
  -9 -27   1   46.92    3.34
   9 -27  -1   50.56    2.03
   9  27   1   46.18    4.38
   9 -29   1   73.95    4.45
  -9 -29  -1   81.50    8.28
   9 -29   1   73.38    3.98
   9  29  -1   75.32    4.89
   9  29  -1   75.05    4.28
   9 -29   1   73.85    2.14
   9 -29   1   82.56    2.36
  -9 -29  -1   75.02    4.16
   9 -29  -1   73.53    3.52
   9  29   1   72.19    5.53
  -9 -29   1   82.12    5.56
   9  29   1   73.75    3.74
   9 -29  -1   84.65    3.52
   9 -29  -1   74.54    2.81
   9 -29  -1   77.60    3.99
  -9 -29   1   73.36    4.80
   9 -31   1   27.84    2.22
  -9 -31  -1   30.89    3.01
  -9 -31  -1   29.62    2.37
   9  31  -1   28.10    2.44
   9 -31   1   30.97    0.87
   9 -31   1   27.51    0.84
   9  31  -1   27.10    2.86
   9 -31   1   28.86    2.68
  -9 -31   1   27.90    2.76
  -9 -31   1   32.70    2.98
   9  31   1   27.00    2.03
   9 -31  -1   29.53    2.34
   9 -31  -1   28.02    1.94
   9 -31  -1   33.22    2.72
   9 -31  -1   27.36    1.29
   9  31   1   28.04    3.13
   9 -33   1    8.54    1.79
  -9 -33  -1   10.42    1.80
   9 -33   1    8.67    0.54
  -9 -33  -1    9.34    1.49
   9  33  -1   10.88    1.62
   9 -33   1    7.52    1.42
   9 -33   1    7.82    0.55
   9  33  -1    9.55    1.91
  -9 -33   1    9.39    1.71
  -9 -33   1    9.40    1.73
   9 -33  -1   10.42    1.07
   9 -33  -1   10.11    1.20
   9  33   1    8.61    1.86
   9  33   1    8.00    1.29
   9 -33  -1   10.87    1.63
   9 -33  -1    9.16    0.72
   9  35  -1   66.01    4.95
   9 -35   1   76.41    5.35
  -9 -35  -1   74.24    4.66
   9  35  -1   65.35    4.50
  -9 -35  -1   62.72    4.04
   9 -35   1   63.04    4.18
  -9 -35   1   74.21    4.56
   9 -35  -1   70.73    3.05
   9 -35  -1   67.15    3.74
   9  35   1   66.24    6.72
   9 -35  -1   73.59    5.06
   9 -35  -1   67.50    2.73
  -9 -35   1   60.33    4.30
   9  35   1   65.41    4.00
  -9 -37  -1   19.96    2.20
   9  37  -1   16.70    2.25
   9 -37   1   22.70    2.49
  -9 -37  -1   15.29    1.95
   9  37  -1   21.66    2.35
   9 -37   1   16.64    3.32
   9  37   1   16.22    2.18
  -9 -37   1   17.76    2.17
   9 -37  -1   18.80    1.12
  -9 -37   1   21.27    2.10
   9 -37  -1   17.60    1.01
   9 -37  -1   21.62    2.72
   9  37   1   16.17    3.05
   9 -37  -1   16.70    1.67
  -9 -39  -1    1.30    1.04
   9 -39   1    1.11    1.09
   9  39  -1    0.26    1.06
   9  39  -1    1.93    1.03
   9 -39   1    1.16    0.96
  -9 -39  -1    1.96    0.91
   9  39   1    2.44    0.97
  -9 -39   1    0.96    0.97
   9 -39  -1    1.54    1.07
   9 -39  -1    0.75    1.18
   9  39   1    0.58    0.99
  -9 -39   1    1.14    1.03
  11  -1   1   57.71    2.78
 -11   1   1   59.14    3.17
 -11   1   1   57.13    2.07
  11  -1   1   58.68    2.37
 -11  -1  -1   55.70    2.97
 -11  -1  -1   56.16    2.38
  11   1  -1   57.32    2.38
  11   1  -1   55.72    2.74
  11  -1  -1   55.69    2.68
 -11   1  -1   54.95    2.12
  11   1   1   58.42    2.41
 -11   1  -1   54.67    3.01
 -11  -1   1   58.36    2.38
  11  -1  -1   56.71    2.32
 -11  -1   1   55.97    2.11
  11   1   1   58.49    4.26
 -11  -3  -1    8.17    0.96
  11   3  -1    7.57    0.87
 -11  -3  -1    7.37    0.71
  11  -3   1    9.57    0.80
 -11   3   1    8.11    0.62
  11  -3   1    8.58    1.61
  11   3  -1    9.26    1.83
 -11   3   1    8.15    1.13
  11   3   1    9.06    1.18
 -11   3  -1    7.57    0.63
  11  -3  -1    7.31    0.92
 -11  -3   1    9.20    0.73
 -11  -3   1    8.28    0.89
  11  -3  -1    7.92    0.77
 -11   3  -1    7.35    0.69
  11   3   1    7.55    0.85
 -11  -5  -1   15.03    0.98
  11  -5   1   15.72    1.03
  11   5  -1   14.78    1.45
  11   5  -1   15.30    1.90
 -11   5   1   14.70    0.80
 -11  -5  -1   14.63    1.37
  11  -5   1   14.18    1.14
 -11   5   1   14.98    1.29
 -11  -5   1   15.52    1.24
  11  -5  -1   14.30    1.16
  11  -5  -1   15.37    0.97
 -11   5  -1   14.84    0.89
  11   5   1   14.95    1.09
 -11   5  -1   14.27    1.15
  11   5   1   14.44    2.57
 -11  -5   1   14.10    0.99
 -11  -7  -1   56.18    3.09
  11  -7   1   55.87    3.44
 -11  -7  -1   55.85    2.29
  11  -7   1   55.73    2.32
 -11   7   1   54.76    2.63
  11   7  -1   53.56    3.07
 -11   7   1   53.05    1.92
  11   7  -1   56.57    2.57
 -11   7  -1   53.95    2.08
  11   7   1   55.85    2.45
 -11  -7   1   54.39    2.38
  11  -7  -1   55.84    2.40
  11   7   1   55.50    3.33
 -11   7  -1   54.99    1.74
 -11  -7   1   56.56    2.83
  11  -7  -1   56.98    2.24
  11   9  -1   30.21    2.24
  11  -9   1   31.54    1.48
 -11  -9  -1   29.92    1.56
  11   9  -1   30.22    1.81
 -11  -9  -1   30.45    2.42
 -11   9   1   28.40    1.20
 -11   9   1   29.28    1.15
 -11   9  -1   30.87    1.38
 -11  -9   1   29.40    2.12
  11   9   1   29.68    2.65
 -11  -9   1   29.31    2.53
 -11   9  -1   29.57    0.97
  11  -9  -1   31.20    1.42
  11  -9  -1   29.85    1.55
  11   9   1   29.95    2.55
 -11 -11  -1   28.77    1.60
  11 -11   1   29.41    1.55
  11 -11   1   29.74    2.06
  11  11  -1   29.92    2.24
  11  11  -1   29.57    1.85
 -11 -11  -1   29.52    2.66
 -11  11   1   28.25    1.19
 -11  11   1   28.43    1.10
 -11 -11   1   29.08    2.23
  11 -11  -1   29.18    1.46
  11  11   1   29.87    1.71
 -11  11  -1   29.42    0.90
 -11  11  -1   29.16    1.37
  11 -11  -1   29.91    2.13
 -11 -11   1   28.59    1.72
  11  11   1   29.04    2.63
 -11 -13  -1   14.82    1.19
 -11 -13  -1   16.26    2.16
 -11  13   1   13.81    0.81
 -11  13   1   14.36    0.69
  11  13  -1   15.38    1.65
  11 -13   1   13.78    1.09
  11  13  -1   14.51    1.34
  11 -13   1   14.32    0.86
 -11  13  -1   14.56    0.52
  11  13   1   14.75    1.26
 -11  13  -1   15.21    0.96
  11  13   1   13.71    2.04
 -11 -13   1   13.75    2.99
 -11 -13   1   14.13    1.34
  11 -13  -1   14.91    0.98
  11 -13  -1   14.95    1.55
 -11  15   1    0.52    0.33
  11  15  -1   -0.10    0.74
 -11 -15  -1    1.14    1.11
  11 -15   1    0.19    0.54
 -11  15   1    0.73    0.43
  11  15  -1    1.09    0.59
 -11 -15  -1    0.97    0.90
  11 -15   1    0.25    0.48
 -11  15  -1    0.23    0.16
  11  15   1    0.21    0.55
 -11 -15   1   -0.29    0.60
  11 -15  -1    1.15    0.38
 -11 -15   1    0.66    0.86
  11  15   1    0.09    0.96
  11 -15  -1    0.22    0.41
 -11  15  -1    0.28    0.41
 -11  17   1  104.90    3.91
 -11  17   1  106.96    3.51
  11 -17   1  108.36    4.54
  11  17  -1  102.46    5.55
 -11 -17  -1  102.14    4.64
 -11 -17  -1  104.19   11.60
  11  17  -1  103.75    4.89
  11 -17   1  107.92    3.59
  11 -17  -1  101.05    4.84
 -11  17  -1  105.17    2.98
 -11 -17   1  101.30    4.90
 -11 -17   1  110.73    6.46
  11 -17  -1  107.08    4.22
  11  17   1  105.36    4.66
 -11  17  -1  102.45    4.17
  11  17   1  103.61    6.71
 -11  19   1  112.42    3.71
  11 -19   1  114.48    4.92
  11 -19   1  112.74    3.65
  11  19  -1  106.68    5.93
 -11  19   1  109.19    4.16
 -11 -19  -1  111.07    8.33
  11 -19   1  115.24    3.27
 -11 -19  -1  108.68    4.94
  11 -19   1  109.56    4.51
  11  19  -1  108.87    5.21
  11  19   1  108.58    4.81
  11 -19  -1  108.39    4.37
 -11 -19   1  109.97    5.43
  11 -19  -1  104.54    3.93
 -11 -19   1  113.02    6.88
  11  19   1  108.75    7.00
 -11 -21  -1    5.29    2.17
  11 -21   1    3.81    1.20
  11 -21   1    4.07    1.43
  11 -21   1    4.61    0.28
  11  21  -1    4.58    0.98
  11  21  -1    4.46    1.22
  11 -21   1    4.44    0.63
 -11 -21  -1    4.37    0.95
  11 -21  -1    4.68    0.54
  11 -21  -1    4.83    0.70
 -11 -21   1    4.11    1.08
  11  21   1    3.69    1.68
  11 -21  -1    5.55    0.61
 -11 -21   1    4.60    1.56
  11  21   1    3.77    1.43
  11 -21  -1    4.59    0.68
  11 -23   1   20.27    1.52
  11  23  -1   18.71    2.05
  11 -23   1   19.95    0.73
 -11 -23  -1   21.96    3.71
  11 -23   1   19.30    1.31
  11  23  -1   20.24    1.73
 -11 -23  -1   19.57    1.63
  11 -23   1   20.93    0.67
 -11 -23   1   20.02    4.39
  11 -23  -1   18.58    1.12
  11  23   1   19.52    1.51
  11  23   1   21.38    4.50
  11 -23  -1   19.09    1.26
  11 -23  -1   20.67    0.86
  11 -23  -1   18.30    1.46
 -11 -23   1   19.28    3.05
  11  25  -1    3.19    0.93
  11 -25   1    2.29    0.87
  11 -25   1    4.35    0.74
  11  25  -1    2.81    1.18
  11 -25   1    3.66    0.35
  11 -25   1    3.44    0.30
 -11 -25  -1    2.82    0.93
 -11 -25  -1    3.50    2.08
  11  25   1    3.06    1.67
  11 -25  -1    3.12    0.70
  11 -25  -1    3.75    0.42
  11 -25  -1    3.59    0.60
 -11 -25   1    2.77    1.10
  11  25   1    2.79    0.81
  11 -25  -1    2.99    0.47
 -11 -25   1    2.56    2.67
  11 -27   1   50.90    2.74
  11  27  -1   51.41    3.88
  11 -27   1   55.22    1.92
 -11 -27  -1   59.87    5.34
 -11 -27  -1   52.12    4.61
  11  27  -1   53.68    4.62
  11 -27   1   58.24    1.90
  11 -27   1   51.15    3.11
  11  27   1   50.89    2.74
 -11 -27   1   55.46    7.54
  11 -27  -1   50.27    1.98
  11 -27  -1   51.15    2.46
  11  27   1   54.71    5.13
  11 -27  -1   52.16    2.74
  11 -27  -1   54.78    2.05
 -11 -27   1   54.54    3.65
 -11 -29  -1    3.70    1.07
  11 -29   1    3.11    1.85
 -11 -29  -1    3.47    1.80
  11 -29   1    4.17    0.44
  11 -29   1    3.88    0.91
  11  29  -1    3.93    1.10
  11 -29   1    4.69    0.51
  11  29  -1    3.70    1.37
  11 -29  -1    4.39    1.52
  11  29   1    2.78    0.94
  11 -29  -1    4.30    0.51
 -11 -29   1    5.00    1.34
  11 -29  -1    4.47    0.60
 -11 -29   1    4.45    2.97
  11  29   1    4.65    1.92
  11 -29  -1    4.65    0.77
 -11 -31  -1   43.95    3.04
  11  31  -1   43.26    5.82
  11 -31   1   47.81    3.35
  11  31  -1   44.52    4.66
 -11 -31  -1   50.35    6.62
  11 -31   1   46.04    2.82
  11 -31  -1   44.03    2.49
  11 -31  -1   43.17    1.80
  11 -31  -1   50.89    2.27
 -11 -31   1   55.97    6.59
  11  31   1   46.89    4.44
 -11 -31   1   44.07    3.65
  11 -31  -1   45.38    2.90
  11  31   1   46.45    2.77
  11  33  -1   13.72    1.87
  11 -33   1   15.12    2.09
  11  33  -1   17.38    2.42
 -11 -33  -1   15.94    2.40
 -11 -33  -1   15.75    1.82
  11 -33   1   14.21    2.58
 -11 -33   1   13.97    2.18
  11 -33  -1   15.31    1.86
  11 -33  -1   17.46    1.92
 -11 -33   1   18.40    3.89
  11 -33  -1   14.72    1.32
  11  33   1   14.71    4.21
  11  33   1   12.80    2.50
  11 -33  -1   13.41    1.44
  11  35  -1    2.90    2.15
  11 -35   1    0.93    1.19
 -11 -35  -1    1.84    1.17
 -11 -35  -1    1.49    0.94
  11  35  -1    1.02    1.02
  11 -35   1    0.56    0.88
 -11 -35   1    0.86    1.13
  11  35   1    0.67    0.83
  11 -35  -1    0.62    0.63
  11 -35  -1    0.42    1.08
  11  35   1    1.86    1.20
 -11 -35   1    1.30    1.09
  11 -35  -1    1.68    1.23
  11 -35  -1    0.98    0.94
  11 -37   1   29.05    2.69
  11 -37   1   35.79    3.74
  11  37  -1   26.22    3.39
  11  37  -1   30.92    3.05
 -11 -37  -1   32.94    3.23
 -11 -37  -1   28.59    2.67
  11 -37  -1   33.83    3.57
 -11 -37   1   34.62    3.15
  11  37   1   29.26    2.64
  11 -37  -1   30.03    2.35
  11  37   1   28.49    3.28
 -11 -37   1   27.16    3.02
 -13  -1  -1  149.04    7.65
  13   1  -1  149.56    6.91
 -13   1   1  146.03    5.70
 -13   1   1  149.78    6.02
  13  -1   1  148.69    7.03
  13  -1   1  152.74    7.95
  13   1  -1  152.25    6.28
 -13  -1  -1  147.46    5.79
 -13   1  -1  145.45    5.75
 -13  -1   1  145.37    5.68
  13  -1  -1  153.73    6.28
  13  -1  -1  146.42    6.83
 -13  -1   1  149.30    6.15
 -13   1  -1  148.14    5.79
  13   1   1  150.49    6.21
  13   1   1  145.60    7.08
 -13  -3  -1   30.23    1.60
  13   3  -1   28.53    2.23
 -13   3   1   30.17    1.44
 -13   3   1   31.96    1.47
  13  -3   1   31.13    2.03
  13   3  -1   29.97    1.86
  13  -3   1   32.99    1.78
 -13  -3  -1   29.27    1.83
 -13  -3   1   29.62    1.82
  13   3   1   30.51    1.79
 -13   3  -1   29.24    1.37
  13   3   1   29.35    2.33
 -13   3  -1   30.94    2.31
  13  -3  -1   29.37    1.95
 -13  -3   1   30.96    1.55
  13  -3  -1   30.15    1.67
  13  -5   1  119.77    5.29
  13  -5   1  120.04    4.96
 -13  -5  -1  123.43    5.00
 -13   5   1  121.02    5.56
  13   5  -1  127.60    7.09
 -13   5   1  118.22    4.48
 -13  -5  -1  125.69    5.70
  13   5  -1  124.61    6.07
 -13  -5   1  120.68    5.36
  13   5   1  122.53    5.22
 -13   5  -1  121.75    4.69
 -13  -5   1  119.56    4.87
  13  -5  -1  125.56    5.05
 -13   5  -1  121.99    4.34
  13  -5  -1  123.92    5.45
  13   5   1  119.86    8.76
  13   7  -1  175.06    7.58
  13  -7   1  178.50    7.30
 -13   7   1  171.39    6.43
 -13  -7  -1  173.61    8.22
  13  -7   1  175.77    7.61
  13   7  -1  172.82    8.49
 -13   7   1  167.01    6.48
 -13  -7  -1  170.56    6.98
  13  -7  -1  163.60    7.10
  13   7   1  172.81    7.34
 -13  -7   1  168.22    7.03
  13   7   1  171.83    8.92
 -13   7  -1  168.31    6.69
  13  -7  -1  179.04    7.19
 -13  -7   1  173.63    7.79
 -13   7  -1  170.38    6.07
  13   9  -1   14.59    1.38
  13  -9   1   15.02    1.18
 -13  -9  -1   14.19    1.73
  13   9  -1   14.23    1.69
 -13   9   1   14.40    0.83
 -13   9   1   13.88    0.89
 -13  -9  -1   14.21    1.18
  13  -9   1   14.32    1.20
  13   9   1   15.18    2.14
  13  -9  -1   13.33    1.23
  13  -9  -1   13.74    1.08
 -13   9  -1   13.64    0.67
 -13  -9   1   14.63    1.97
 -13  -9   1   16.26    1.54
  13   9   1   14.46    1.95
 -13   9  -1   13.11    0.99
  13 -11   1   61.87    3.73
  13  11  -1   64.29    3.20
 -13 -11  -1   62.95    4.08
 -13 -11  -1   62.21    4.02
  13 -11   1   62.35    2.81
  13  11  -1   63.12    3.75
 -13  11   1   60.78    2.35
 -13  11   1   61.94    2.83
  13 -11  -1   62.79    2.83
  13  11   1   59.46    4.17
 -13 -11   1   61.02    3.00
 -13 -11   1   63.59    5.48
  13  11   1   60.35    3.02
  13 -11  -1   62.96    2.69
 -13  11  -1   61.47    2.54
 -13  11  -1   61.14    1.90
  13  13  -1  169.96    8.59
  13  13  -1  177.90   10.17
 -13  13   1  177.89    7.28
  13 -13   1  177.34    7.02
 -13  13   1  170.17    6.66
 -13 -13  -1  171.49    7.38
 -13 -13  -1  176.34    9.76
 -13  13  -1  169.73    6.89
 -13 -13   1  175.88    8.97
 -13 -13   1  175.10    9.69
  13 -13  -1  171.28    7.09
  13  13   1  179.72    7.83
  13  13   1  160.02    9.45
 -13  13  -1  173.29    5.79
  13 -13  -1  180.68    7.35
 -13 -15  -1   19.40    2.62
  13  15  -1   19.92    1.68
 -13  15   1   19.90    1.04
  13 -15   1   21.09    1.45
  13  15  -1   19.11    2.04
  13 -15   1   20.37    1.10
 -13 -15  -1   20.27    2.34
 -13  15   1   20.25    0.85
  13  15   1   20.78    2.43
 -13  15  -1   18.14    1.86
 -13 -15   1   19.91    1.60
 -13  15  -1   18.77    0.65
  13  15   1   19.35    1.55
  13 -15  -1   18.61    1.97
  13 -15  -1   19.08    1.21
 -13 -15   1   20.60    2.16
  13  17  -1   17.23    1.97
 -13  17   1   17.68    1.00
 -13 -17  -1   18.99    2.71
  13  17  -1   18.14    1.57
 -13  17   1   18.43    0.79
 -13 -17  -1   22.09    1.47
  13 -17   1   19.13    2.15
  13 -17   1   19.32    1.45
 -13  17  -1   17.73    1.16
  13  17   1   17.58    2.40
  13 -17  -1   16.30    1.07
 -13  17  -1   17.91    0.81
 -13 -17   1   18.15    1.57
  13  17   1   19.13    1.44
 -13 -17   1   18.26    2.21
  13 -17  -1   18.04    1.20
 -13  19   1   69.66    3.46
  13  19  -1   67.06    4.22
  13 -19   1   71.74    3.26
 -13  19   1   71.65    2.30
  13  19  -1   69.49    4.99
  13 -19   1   71.61    3.06
 -13 -19  -1   68.02    3.31
 -13 -19  -1   68.80    5.65
  13  19   1   67.48    5.02
 -13  19  -1   68.34    1.88
  13 -19  -1   69.21    3.97
 -13 -19   1   75.18    7.25
 -13  19  -1   67.38    2.91
  13  19   1   72.70    3.37
  13 -19  -1   65.78    2.62
 -13 -19   1   69.54    3.61
  13  21  -1   22.00    1.76
 -13  21   1   21.48    0.84
  13 -21   1   22.06    0.65
 -13  21   1   19.26    1.12
  13 -21   1   22.48    0.93
  13 -21   1   21.30    1.56
  13  21  -1   22.54    2.19
  13 -21   1   19.66    1.33
 -13 -21  -1   20.98    1.63
 -13 -21  -1   21.73    3.42
  13 -21  -1   20.52    1.32
  13  21   1   22.89    2.76
 -13 -21   1   21.40    1.82
  13  21   1   21.13    1.54
  13 -21  -1   19.78    1.10
 -13 -21   1   20.77    2.72
  13  23  -1   31.74    2.18
 -13 -23  -1   31.05    4.49
  13  23  -1   29.64    2.74
  13 -23   1   31.07    1.14
  13 -23   1   29.96    2.52
  13 -23   1   31.50    0.90
  13 -23   1   30.35    3.03
 -13 -23  -1   30.89    2.10
 -13 -23   1   34.14    3.46
  13 -23  -1   28.91    1.49
  13  23   1   31.96    1.95
  13 -23  -1   31.04    1.75
  13  23   1   32.38    3.47
  13 -23  -1   31.07    1.15
 -13 -23   1   31.59    2.39
  13 -23  -1   29.75    1.98
  13  25  -1   69.69    4.71
  13 -25   1   75.16    2.37
  13 -25   1   74.30    3.81
  13 -25   1   67.94    3.24
 -13 -25  -1   69.12    3.80
  13 -25   1   74.82    2.18
 -13 -25  -1   78.70    7.46
  13  25  -1   72.57    3.94
  13 -25  -1   67.24    2.94
  13 -25  -1   67.21    2.65
  13 -25  -1   73.16    2.48
 -13 -25   1   79.89    5.94
  13 -25  -1   70.24    4.47
 -13 -25   1   72.52    6.09
  13  25   1   70.35    3.61
  13  25   1   72.29    5.81
  13 -27   1    0.93    0.80
  13  27  -1    1.21    0.83
  13 -27   1    1.14    0.27
  13  27  -1    1.25    1.15
  13 -27   1    1.21    0.24
 -13 -27  -1    1.31    1.78
  13 -27   1    1.17    0.65
 -13 -27  -1    1.17    0.81
  13 -27  -1    1.51    0.65
  13  27   1    1.40    0.72
  13 -27  -1    1.96    0.41
  13  27   1    0.62    1.48
 -13 -27   1    2.07    1.49
 -13 -27   1    0.98    0.94
  13 -27  -1    1.34    0.35
  13 -27  -1    1.18    0.54
 -13 -29  -1   12.68    3.05
  13 -29   1   11.99    2.17
  13 -29   1   21.50    1.75
  13  29  -1   14.69    2.70
  13  29  -1   15.72    2.22
 -13 -29  -1   11.26    1.69
 -13 -29   1   17.28    2.94
  13  29   1   13.37    1.43
  13  29   1   19.48    3.06
 -13 -29   1   14.69    1.94
  13 -29  -1   12.99    0.86
  13 -29  -1   13.64    1.43
  13 -29  -1   15.43    0.83
  13 -29  -1   13.94    1.18
  13  31  -1   37.57    3.73
  13 -31   1   39.30    3.01
  13  31  -1   37.99    2.83
 -13 -31  -1   40.84    2.85
 -13 -31  -1   41.04    4.33
  13 -31   1   37.63    2.46
  13  31   1   36.48    4.46
  13 -31  -1   36.29    2.15
  13 -31  -1   38.97    2.62
 -13 -31   1   37.08    3.21
  13  31   1   35.93    2.50
  13 -31  -1   36.73    1.63
 -13 -31   1   45.01    4.46
  13 -31  -1   41.22    2.41
  13 -33   1   20.03    2.37
  13  33  -1   19.29    3.37
 -13 -33  -1   21.58    2.99
  13 -33   1   17.95    1.81
  13  33  -1   15.75    2.79
 -13 -33  -1   17.35    2.06
  13 -33  -1   18.00    2.01
 -13 -33   1   20.67    3.00
 -13 -33   1   16.26    2.45
  13 -33  -1   16.64    1.55
  13  33   1   17.74    1.80
  13  33   1   16.50    3.08
 -13 -35  -1    0.80    0.98
  13 -35   1    1.44    1.96
  13  35  -1   -0.24    1.36
  13  35  -1    1.13    1.01
  13 -35   1    0.24    1.41
 -13 -35  -1    1.03    2.19
  13 -35  -1    0.64    1.69
  13 -35  -1    0.64    0.72
  13  35   1    0.91    1.40
 -13 -35   1    1.32    1.28
 -13 -35   1    1.48    1.18
  13  35   1    0.52    1.38
  15  -1   1    1.21    0.65
 -15  -1  -1    1.34    0.55
  15   1  -1    1.75    0.65
 -15   1   1    0.69    0.49
  15  -1   1    1.67    0.78
 -15  -1  -1    1.66    0.55
 -15   1   1    1.06    0.52
  15   1  -1    1.12    0.81
 -15  -1   1    0.87    0.52
 -15   1  -1    1.28    0.53
  15  -1  -1    1.70    0.78
 -15   1  -1    1.42    0.49
  15   1   1    1.28    0.65
  15   1   1    1.27    0.84
 -15  -1   1    1.74    0.96
  15  -1  -1    1.57    0.65
 -15  -3  -1   36.27    1.78
 -15   3   1   31.49    2.32
  15  -3   1   33.94    3.46
  15   3  -1   34.26    2.48
  15  -3   1   33.27    1.97
  15   3  -1   35.83    2.06
 -15   3   1   31.65    1.59
 -15  -3  -1   33.38    1.89
  15   3   1   31.43    2.53
  15  -3  -1   34.19    1.92
 -15   3  -1   33.14    1.48
  15  -3  -1   31.16    3.39
 -15  -3   1   32.59    1.73
 -15   3  -1   31.83    1.66
 -15  -3   1   33.08    1.89
  15   3   1   33.20    3.13
  15   5  -1  152.55    7.66
 -15   5   1  149.47    5.81
  15   5  -1  155.49    6.93
 -15  -5  -1  153.15    6.94
  15  -5   1  159.37    6.76
  15  -5   1  154.14    7.16
 -15   5   1  148.08    5.84
 -15  -5  -1  152.83    6.34
 -15  -5   1  153.32    6.76
 -15  -5   1  150.59    6.20
  15  -5  -1  150.58    6.97
 -15   5  -1  152.03    6.61
 -15   5  -1  148.64    7.38
  15   5   1  148.21    7.89
  15  -5  -1  159.21    6.63
  15   5   1  154.58    6.73
 -15  -7  -1  161.25    6.98
 -15   7   1  165.37    6.57
  15   7  -1  170.96    7.56
  15  -7   1  170.06    7.27
 -15   7   1  167.79    7.37
  15   7  -1  160.76    8.14
 -15  -7  -1  167.44    7.78
  15  -7   1  171.84    7.71
 -15  -7   1  172.92    7.72
 -15   7  -1  160.41    6.59
  15  -7  -1  169.17    7.17
  15  -7  -1  160.79    7.35
  15   7   1  171.79    7.46
  15   7   1  169.21    8.90
 -15   7  -1  162.33    6.82
 -15  -7   1  166.64    7.03
 -15  -9  -1   95.84    4.22
  15   9  -1   96.33    5.32
 -15   9   1   96.84    3.75
 -15  -9  -1  102.76    5.24
  15  -9   1  101.42    4.40
  15  -9   1  102.86    5.71
  15   9  -1  103.34    4.70
 -15   9   1  100.18    3.63
  15   9   1  101.46    8.23
  15  -9  -1   97.28    4.43
  15   9   1  101.45    4.55
 -15   9  -1   98.03    3.98
 -15  -9   1  102.70    6.75
 -15  -9   1  100.00    5.72
 -15   9  -1   98.08    3.94
  15  -9  -1  102.99    4.32
 -15  11   1  157.69    6.18
  15 -11   1  170.15    7.10
  15  11  -1  164.57    7.42
  15  11  -1  157.57   10.59
  15 -11   1  169.44    7.12
 -15  11   1  162.64    5.98
 -15 -11  -1  167.44    8.44
 -15 -11  -1  161.19    6.90
  15 -11  -1  169.07    8.47
 -15  11  -1  156.58    6.38
 -15 -11   1  160.02    6.94
  15  11   1  160.47    8.86
 -15 -11   1  165.88    7.93
  15 -11  -1  157.67    6.89
  15  11   1  166.37    7.31
 -15  11  -1  161.01    5.59
  15  13  -1   16.30    1.87
 -15 -13  -1   17.36    1.32
 -15  13   1   15.83    0.99
  15 -13   1   17.37    1.19
  15  13  -1   16.54    1.55
 -15 -13  -1   19.48    2.10
 -15  13   1   17.85    0.83
  15 -13   1   17.39    1.33
  15 -13  -1   19.94    1.24
  15 -13  -1   16.83    1.97
  15  13   1   17.89    2.22
  15  13   1   17.28    1.46
 -15  13  -1   17.45    0.68
 -15 -13   1   16.58    2.19
 -15  13  -1   16.53    1.13
 -15 -13   1   16.93    1.83
 -15 -15  -1   32.66    4.86
 -15 -15  -1   30.71    1.90
 -15  15   1   31.27    2.05
 -15  15   1   32.05    1.18
  15  15  -1   31.78    4.01
  15 -15   1   33.46    1.88
  15  15  -1   32.16    2.10
  15 -15   1   32.59    1.59
 -15 -15   1   33.27    2.02
  15  15   1   32.69    2.02
 -15 -15   1   33.48    4.11
  15 -15  -1   30.39    1.69
  15 -15  -1   31.40    2.54
 -15  15  -1   31.70    0.99
 -15  15  -1   30.63    1.60
  15  15   1   31.93    4.77
 -15  17   1   74.86    3.04
  15  17  -1   77.25    5.37
 -15  17   1   72.76    2.91
 -15 -17  -1   76.17    3.57
 -15 -17  -1   76.39    5.44
  15  17  -1   76.63    4.63
  15 -17   1   78.48    3.03
  15 -17   1   78.08    3.57
  15  17   1   72.83    5.25
  15 -17  -1   75.86    3.20
 -15  17  -1   76.04    3.21
 -15 -17   1   76.53    3.82
  15 -17  -1   76.56    3.32
 -15  17  -1   76.66    2.26
  15  17   1   76.22    3.69
 -15 -17   1   77.70    4.87
 -15  19   1   55.67    2.30
  15  19  -1   57.80    3.17
 -15  19   1   55.05    2.33
 -15 -19  -1   60.29    4.96
  15  19  -1   55.96    3.93
 -15 -19  -1   57.03    2.94
  15 -19   1   59.69    3.02
  15 -19   1   59.49    2.91
 -15 -19   1   53.94    3.10
  15 -19  -1   57.01    2.67
 -15 -19   1   59.97    4.22
  15 -19  -1   53.66    2.40
 -15  19  -1   56.51    2.56
  15  19   1   57.13    3.01
  15  19   1   55.90    4.63
 -15  19  -1   55.48    1.89
  15 -21   1   37.28    2.07
  15 -21   1   37.73    2.19
 -15  21   1   34.49    1.64
  15  21  -1   34.23    2.34
 -15 -21  -1   32.90    2.24
 -15  21   1   34.39    1.24
  15  21  -1   34.22    2.99
 -15 -21  -1   34.98    4.21
 -15 -21   1   35.20    2.48
  15  21   1   34.31    3.60
 -15  21  -1   33.66    1.85
 -15  21  -1   34.49    0.99
  15 -21  -1   33.12    2.39
  15 -21  -1   33.80    1.93
 -15 -21   1   37.07    3.40
  15  21   1   33.72    2.15
  15 -23   1   79.48    4.04
  15 -23   1   76.17    3.54
  15 -23   1   87.51    3.68
  15  23  -1   78.61    5.23
  15  23  -1   80.93    4.31
 -15 -23  -1   80.28    4.20
  15 -23   1   80.90    2.35
 -15 -23  -1   86.13    7.36
  15 -23  -1   78.20    3.67
 -15 -23   1   79.87    6.00
 -15 -23   1   78.70    4.40
  15 -23  -1   77.21    3.25
  15  23   1   78.50    6.17
  15  23   1   76.90    3.93
  15 -23  -1   81.30    2.72
  15 -23  -1   73.93    3.13
  15  25  -1   38.56    3.43
  15 -25   1   40.05    3.80
  15  25  -1   37.24    2.67
  15 -25   1   38.35    1.14
 -15 -25  -1   43.25    5.35
  15 -25   1   39.04    2.14
 -15 -25  -1   40.97    2.63
  15 -25   1   41.41    1.50
  15 -25  -1   37.27    1.75
  15  25   1   37.67    2.44
  15  25   1   37.66    6.78
 -15 -25   1   41.60    4.19
  15 -25  -1   36.28    2.66
  15 -25  -1   38.55    2.25
  15 -25  -1   40.52    1.43
 -15 -25   1   36.75    2.82
  15  27  -1   36.82    3.48
 -15 -27  -1   37.39    2.58
 -15 -27  -1   37.78    5.44
  15  27  -1   36.34    3.98
  15 -27   1   34.37    2.08
  15 -27   1   37.68    2.55
  15 -27  -1   33.84    1.85
 -15 -27   1   39.35    4.26
  15  27   1   33.26    4.35
  15 -27  -1   35.10    2.20
  15  27   1   33.67    2.35
  15 -27  -1   33.82    1.63
  15 -27  -1   35.87    1.35
 -15 -27   1   37.24    4.36
 -15 -29  -1   54.86    5.85
 -15 -29  -1   45.18    4.64
  15 -29   1   46.17    3.20
  15  29  -1   45.41    4.14
  15 -29   1   43.98    2.62
  15  29  -1   44.86    3.10
  15 -29  -1   44.14    2.36
  15  29   1   43.99    2.89
  15  29   1   46.95    5.26
 -15 -29   1   45.65    3.45
 -15 -29   1   50.82    5.24
  15 -29  -1   47.04    2.27
  15 -29  -1   44.18    2.00
  15 -29  -1   47.19    2.81
 -15 -31  -1   23.15    3.59
  15  31  -1   17.73    2.88
 -15 -31  -1   17.85    2.03
  15 -31   1   16.30    1.67
  15 -31   1   16.53    2.20
  15  31  -1   17.99    3.30
  15  31   1   20.32    3.61
 -15 -31   1   20.39    3.55
  15 -31  -1   18.28    1.87
  15 -31  -1   17.50    1.46
  15  31   1   18.85    1.81
 -15 -31   1   16.67    2.36
  15  33  -1   21.64    5.25
 -15 -33  -1   24.60    3.67
  15 -33   1   19.68    1.95
  15 -33   1   21.66    2.59
 -15 -33  -1   18.48    2.34
  15  33  -1   21.24    2.37
  15 -33  -1   21.52    2.24
 -15 -33   1   24.66    3.53
  15  33   1   19.80    3.76
  15 -33  -1   21.87    2.59
  15  33   1   22.07    3.22
 -15 -33   1   21.47    2.65
 -17  -1  -1   14.91    1.14
 -17   1   1   14.45    1.67
 -17  -1  -1   14.38    1.09
  17  -1   1   14.48    1.61
 -17   1   1   14.98    1.08
  17   1  -1   15.87    1.66
  17  -1   1   16.23    1.35
  17   1  -1   14.53    1.35
 -17   1  -1   16.05    1.15
 -17  -1   1   15.61    1.16
 -17  -1   1   15.09    1.10
  17  -1  -1   15.35    1.34
  17  -1  -1   16.11    1.59
 -17   1  -1   14.41    0.99
  17   1   1   17.82    2.74
  17   1   1   16.23    1.38
 -17  -3  -1    4.71    0.76
 -17   3   1    5.14    0.69
  17  -3   1    5.83    0.90
  17   3  -1    3.79    1.14
  17  -3   1    5.53    1.02
  17   3  -1    4.29    0.94
 -17   3   1    4.76    0.66
 -17  -3  -1    5.31    1.29
 -17  -3   1    4.75    0.82
  17  -3  -1    3.70    1.46
  17  -3  -1    4.61    1.01
  17   3   1    4.78    0.92
  17   3   1    5.95    1.19
 -17  -3   1    4.90    0.77
 -17   3  -1    4.53    0.58
 -17   3  -1    4.92    0.74
 -17  -5  -1    9.26    1.08
  17   5  -1    9.07    1.19
 -17   5   1    9.87    0.77
  17   5  -1    8.43    1.46
 -17  -5  -1    9.77    0.99
  17  -5   1   10.35    1.20
 -17   5   1    9.72    0.84
  17  -5   1    9.85    1.80
  17   5   1    9.69    1.56
  17  -5  -1   10.83    1.07
 -17   5  -1    9.03    0.69
  17  -5  -1   10.48    1.22
 -17  -5   1   10.24    1.57
  17   5   1    9.25    1.90
 -17   5  -1    8.49    0.90
 -17  -5   1    9.21    1.10
  17   7  -1    6.24    1.38
 -17  -7  -1    6.79    0.94
 -17   7   1    8.09    0.76
 -17   7   1    7.70    0.66
  17   7  -1    7.15    1.80
  17  -7   1    6.53    1.78
  17  -7   1    8.63    1.03
 -17  -7  -1    6.59    1.80
 -17   7  -1    7.64    0.82
 -17  -7   1    7.63    1.76
  17  -7  -1    7.52    0.96
 -17   7  -1    6.88    0.57
  17  -7  -1    7.77    1.09
  17   7   1    8.11    1.07
  17   7   1    7.79    1.53
 -17  -7   1    7.42    0.92
 -17  -9  -1   16.23    1.66
 -17   9   1   17.28    1.06
 -17  -9  -1   18.02    2.09
  17   9  -1   18.80    1.58
  17  -9   1   17.52    1.46
 -17   9   1   18.48    0.95
  17  -9   1   18.46    2.28
 -17  -9   1   18.80    1.59
 -17   9  -1   17.03    1.17
 -17   9  -1   16.05    0.79
 -17  -9   1   16.31    1.36
  17   9   1   18.53    1.53
  17  -9  -1   16.98    1.34
  17  -9  -1   15.59    1.44
  17   9   1   16.98    2.10
  17  11  -1   30.59    2.07
 -17 -11  -1   30.13    1.84
 -17  11   1   28.68    1.24
  17 -11   1   29.74    1.88
 -17 -11  -1   29.94    2.34
  17 -11   1   30.75    1.82
 -17  11   1   28.27    1.42
  17  11  -1   26.77    2.46
 -17 -11   1   30.52    2.22
 -17  11  -1   29.98    1.60
  17  11   1   30.36    3.07
 -17  11  -1   28.27    1.07
  17 -11  -1   28.50    1.83
  17  11   1   30.17    2.83
  17 -11  -1   31.63    1.79
 -17 -11   1   27.83    1.81
  17  13  -1   16.35    1.96
 -17 -13  -1   14.94    1.34
 -17  13   1   14.36    1.01
 -17  13   1   15.47    0.81
 -17 -13  -1   16.88    1.92
  17 -13   1   16.73    1.26
  17  13  -1   15.81    1.52
  17 -13   1   14.44    1.35
 -17  13  -1   15.74    1.14
 -17 -13   1   15.82    2.84
 -17 -13   1   13.28    2.21
  17 -13  -1   14.71    1.30
  17  13   1   16.59    1.49
 -17  13  -1   15.49    0.67
  17 -13  -1   15.85    1.29
  17  13   1   15.11    2.25
 -17  15   1   15.84    1.07
  17 -15   1   17.45    1.24
 -17  15   1   17.86    0.83
  17  15  -1   16.67    2.13
 -17 -15  -1   14.91    2.28
  17 -15   1   17.01    1.46
  17  15  -1   16.90    1.65
 -17 -15  -1   16.58    1.47
 -17 -15   1   18.81    1.51
  17  15   1   17.44    1.57
  17 -15  -1   17.10    2.09
 -17 -15   1   19.03    2.01
 -17  15  -1   16.91    1.21
 -17  15  -1   16.02    0.66
  17  15   1   17.67    2.41
  17 -15  -1   16.67    2.02
 -17  17   1   27.28    1.43
  17 -17   1   28.16    1.57
  17  17  -1   27.49    2.21
  17 -17   1   28.27    1.95
 -17 -17  -1   30.56    3.17
  17  17  -1   29.24    2.77
 -17  17   1   27.35    1.11
 -17 -17  -1   28.68    1.94
 -17  17  -1   27.91    1.23
  17  17   1   25.69    2.02
 -17  17  -1   28.60    1.65
  17 -17  -1   28.99    1.79
  17 -17  -1   29.00    1.67
 -17 -17   1   26.62    2.70
 -17 -17   1   27.95    2.01
  17  17   1   28.91    3.16
 -17  19   1   84.80    3.58
 -17  19   1   86.73    3.03
  17  19  -1   88.71    4.59
  17 -19   1   93.71    3.72
  17  19  -1   87.44    7.99
  17 -19   1   91.82    5.92
 -17 -19  -1   92.37    6.74
 -17 -19  -1   87.31    5.88
 -17 -19   1   91.18    5.83
  17 -19  -1   89.08    4.10
 -17 -19   1   87.43    6.33
  17  19   1   88.75    4.43
 -17  19  -1   88.49    3.89
  17  19   1   90.30    6.50
 -17  19  -1   86.82    2.69
  17 -19  -1   84.14    3.78
 -17 -21  -1    5.98    1.83
 -17  21   1    2.76    0.60
  17  21  -1    2.43    1.32
  17 -21   1    3.04    0.54
  17  21  -1    2.73    1.61
  17 -21   1    2.29    0.89
 -17  21   1    2.61    0.37
 -17 -21  -1    2.21    0.89
 -17 -21   1    3.45    1.44
 -17  21  -1    2.34    0.70
  17 -21  -1    2.63    0.65
  17  21   1    2.77    0.88
  17  21   1    3.02    1.58
  17 -21  -1    2.45    0.75
 -17  21  -1    3.04    0.42
 -17 -21   1    2.81    0.98
 -17 -23  -1   11.31    2.73
 -17  23   1    8.75    0.87
  17 -23   1    8.76    1.27
  17 -23   1    7.56    1.02
 -17 -23  -1    9.40    1.29
 -17  23   1    8.07    0.54
  17  23  -1    9.82    1.94
  17  23  -1    9.46    1.38
  17 -23  -1    8.75    1.10
 -17 -23   1    9.06    3.58
  17 -23  -1    8.58    0.88
 -17 -23   1    8.66    1.41
  17  23   1    7.02    1.24
  17  23   1    9.33    2.35
 -17 -25  -1   45.20    5.85
  17  25  -1   44.01    3.03
  17 -25   1   44.06    2.96
  17 -25   1   41.06    2.39
  17  25  -1   43.84    4.07
 -17 -25  -1   46.01    2.90
 -17 -25   1   45.60    7.41
  17 -25  -1   43.31    2.63
  17  25   1   42.03    4.86
  17 -25  -1   43.00    2.18
  17  25   1   42.18    2.78
  17 -25  -1   42.19    2.11
 -17 -25   1   43.71    3.14
  17 -25  -1   45.39    2.09
  17  27  -1    7.10    2.01
  17 -27   1    7.29    1.06
  17  27  -1    6.88    1.42
 -17 -27  -1    8.94    3.25
 -17 -27  -1    6.02    1.35
  17 -27   1    7.14    1.38
  17 -27  -1    7.77    0.89
  17  27   1    7.38    1.29
 -17 -27   1    6.88    2.47
  17  27   1    6.53    2.56
  17 -27  -1    7.05    0.54
  17 -27  -1    6.31    0.82
 -17 -27   1    7.17    2.51
  17 -27  -1    5.36    1.91
  17  29  -1    6.20    1.44
  17 -29   1    7.43    1.46
  17  29  -1    6.82    2.10
 -17 -29  -1    8.15    3.43
  17 -29   1    7.57    1.11
 -17 -29  -1    6.40    1.44
 -17 -29   1    7.74    2.68
 -17 -29   1    7.05    1.61
  17 -29  -1    4.91    0.96
  17  29   1    6.59    2.66
  17  29   1    8.58    1.31
  17 -29  -1    6.03    1.25
 -19   1   1    3.42    0.67
 -19  -1  -1    2.74    0.64
  19   1  -1    3.57    0.89
 -19   1   1    2.82    0.64
  19  -1   1    3.25    0.87
  19   1  -1    2.62    1.05
  19  -1   1    2.69    1.06
 -19  -1  -1    4.57    0.73
 -19   1  -1    3.35    0.72
 -19  -1   1    2.85    0.68
  19  -1  -1    3.28    1.03
  19  -1  -1    2.85    1.46
  19   1   1    2.31    0.88
 -19  -1   1    3.09    1.14
  19   1   1    3.14    1.11
 -19   1  -1    3.30    0.58
  19  -3   1    2.72    0.81
  19   3  -1    2.69    1.03
 -19   3   1    1.56    0.90
 -19   3   1    1.51    0.99
 -19  -3  -1    2.80    0.65
  19   3  -1    2.43    0.82
  19  -3   1    2.00    1.52
 -19  -3  -1    2.21    0.69
 -19  -3   1    1.87    0.66
  19  -3  -1    2.31    0.93
 -19   3  -1    3.48    0.69
  19   3   1    1.85    0.82
  19  -3  -1    1.80    0.77
  19   3   1    2.44    1.08
 -19   3  -1    2.28    0.49
 -19  -3   1    1.76    0.68
 -19  -5  -1    5.26    0.88
  19   5  -1    5.84    1.31
 -19   5   1    4.97    0.65
 -19   5   1    5.15    0.75
  19  -5   1    5.17    1.12
  19   5  -1    5.95    1.04
 -19  -5  -1    5.44    0.88
  19  -5   1    6.17    1.00
 -19  -5   1    6.12    0.86
 -19   5  -1    5.08    0.58
 -19   5  -1    4.43    0.80
  19   5   1    6.11    1.04
  19  -5  -1    5.41    1.57
  19   5   1    5.70    1.40
 -19  -5   1    5.69    1.49
  19  -5  -1    5.40    1.09
  19   7  -1    4.08    0.92
 -19  -7  -1    3.31    0.74
 -19   7   1    2.30    0.61
 -19  -7  -1    2.41    0.85
  19  -7   1    2.32    0.90
 -19   7   1    3.22    0.53
  19   7  -1    3.12    1.12
  19  -7   1    3.04    0.86
 -19   7  -1    3.51    1.12
 -19  -7   1    2.74    0.83
 -19   7  -1    2.35    0.71
  19   7   1    2.26    1.49
 -19  -7   1    3.14    0.76
  19  -7  -1    3.32    0.81
  19   7   1    2.31    1.22
  19  -7  -1    2.96    1.50
 -19  -9  -1   10.59    1.22
 -19   9   1   11.08    0.79
 -19   9   1   11.23    0.95
  19  -9   1   12.45    1.33
  19  -9   1   11.36    1.30
  19   9  -1   13.08    1.72
 -19  -9  -1   11.02    1.38
  19   9  -1   12.09    1.42
 -19  -9   1   10.96    1.20
  19   9   1   12.92    1.37
 -19  -9   1   10.98    1.37
 -19   9  -1   11.63    1.06
  19   9   1    9.69    1.93
  19  -9  -1   10.33    1.33
 -19   9  -1   10.87    0.67
  19  -9  -1   12.16    1.23
  19 -11   1   12.49    1.34
 -19  11   1   11.37    0.75
  19  11  -1   12.31    1.83
  19  11  -1   12.56    1.41
 -19 -11  -1   11.49    1.26
  19 -11   1   11.19    1.26
 -19 -11  -1   12.10    1.52
 -19  11   1   12.13    0.96
 -19 -11   1    9.87    1.25
 -19  11  -1   11.21    1.08
 -19 -11   1   10.86    1.51
  19 -11  -1   11.51    1.24
  19 -11  -1   12.13    1.31
 -19  11  -1   10.83    0.65
  19  11   1   10.35    1.40
  19  11   1   12.47    2.04
 -19 -13  -1   10.09    1.95
  19  13  -1   10.05    1.40
  19  13  -1   11.21    1.77
 -19  13   1    9.44    0.69
 -19  13   1    9.43    0.92
 -19 -13  -1   10.50    2.65
  19 -13   1   11.46    1.13
  19 -13   1   10.51    2.03
 -19 -13   1   10.58    1.56
 -19  13  -1    9.71    0.57
  19 -13  -1   10.37    1.21
 -19  13  -1   10.07    1.02
  19  13   1    9.63    3.32
  19 -13  -1   10.48    1.18
  19  13   1    9.88    1.36
 -19 -13   1   10.49    1.22
 -19 -15  -1    1.47    0.74
 -19 -15  -1    0.87    1.08
  19 -15   1    0.94    0.75
 -19  15   1    1.44    0.37
  19  15  -1    0.77    1.10
  19  15  -1    1.56    0.85
 -19  15   1    0.79    0.84
  19 -15   1    1.04    0.61
  19 -15  -1    0.96    0.67
 -19  15  -1    1.07    0.28
 -19  15  -1    1.60    0.58
  19 -15  -1    1.70    0.68
 -19 -15   1    1.81    0.96
  19  15   1    0.59    1.28
  19  15   1    1.36    0.80
 -19 -15   1    1.53    0.74
  19  17  -1   10.96    1.95
  19  17  -1    9.90    1.48
  19 -17   1   11.00    1.30
 -19 -17  -1    9.83    1.97
  19 -17   1    9.80    1.04
 -19  17   1    9.75    0.91
 -19  17   1    9.68    0.64
 -19 -17  -1    8.66    1.27
 -19 -17   1    9.80    1.78
  19 -17  -1   10.70    1.77
  19 -17  -1   10.65    1.21
 -19  17  -1    9.52    0.76
  19  17   1    9.83    1.38
  19  17   1   10.75    2.23
 -19  17  -1    7.58    1.04
 -19 -17   1    9.15    1.33
  19  19  -1   16.56    1.79
 -19 -19  -1   17.56    2.74
 -19  19   1   16.98    0.83
 -19  19   1   15.85    1.18
  19  19  -1   17.36    2.42
  19 -19   1   18.44    1.23
 -19 -19  -1   17.80    1.69
  19 -19   1   14.85    2.66
 -19 -19   1   14.90    1.75
  19  19   1   17.15    1.73
 -19 -19   1   16.91    3.90
  19  19   1   16.64    4.66
  19 -19  -1   15.80    1.40
 -19  19  -1   17.58    1.34
 -19  19  -1   15.95    0.67
  19 -19  -1   17.76    1.58
  19  21  -1    3.97    1.12
 -19  21   1    3.37    1.13
  19  21  -1    3.90    1.62
 -19  21   1    3.60    0.42
  19 -21   1    3.76    1.04
 -19 -21  -1    4.00    1.89
 -19 -21  -1    3.51    1.03
 -19 -21   1    3.13    1.10
 -19  21  -1    2.97    0.80
  19 -21  -1    3.66    0.91
  19  21   1    3.37    1.72
  19  21   1    3.65    1.89
  19 -21  -1    3.42    0.78
 -19 -21   1    3.22    1.70
  19  23  -1    5.63    1.34
 -19  23   1    4.78    0.82
 -19 -23  -1    4.49    1.24
  19  23  -1    4.81    3.15
 -19  23   1    6.11    0.50
  19 -23   1    4.36    1.23
 -19 -23  -1    4.63    2.40
  19  23   1    4.01    2.31
 -19 -23   1    5.91    2.07
  19 -23  -1    5.39    0.87
  19 -23  -1    4.64    1.07
  19  23   1    5.01    1.22
 -19 -23   1    4.73    1.31
  21   1  -1    8.87    1.55
  21   1  -1    8.97    2.11
  21  -1   1    8.32    1.58
 -21  -1  -1    7.93    1.08
 -21   1   1    8.25    1.42
  21  -1   1    7.57    1.28
 -21   1   1    7.68    1.00
 -21  -1  -1    7.96    1.41
  21   1   1    9.54    1.29
 -21  -1   1    7.86    1.03
  21  -1  -1    8.16    1.50
  21   1   1    9.55    1.67
 -21  -1   1    8.09    0.96
 -21   1  -1    8.76    1.06
  21  -1  -1    9.27    1.28
 -21   1  -1    7.77    0.81
 -21   3   1   31.46    1.87
  21   3  -1   35.70    2.42
 -21   3   1   30.54    1.67
  21   3  -1   34.49    4.33
  21  -3   1   34.52    3.61
 -21  -3  -1   33.58    2.12
  21  -3   1   32.16    2.76
 -21  -3  -1   32.60    1.89
  21   3   1   33.56    2.39
 -21   3  -1   32.88    2.00
  21   3   1   34.15    4.61
 -21  -3   1   32.08    1.95
  21  -3  -1   34.27    3.54
 -21   3  -1   29.73    1.50
 -21  -3   1   32.33    2.93
  21  -3  -1   33.34    2.62
  21   5  -1   24.56    3.21
 -21   5   1   22.90    2.32
  21   5  -1   24.23    2.41
 -21   5   1   22.35    1.94
  21  -5   1   21.97    1.97
  21  -5   1   22.33    2.21
 -21  -5  -1   24.23    1.73
 -21  -5  -1   23.81    2.58
 -21  -5   1   22.27    1.73
 -21   5  -1   22.53    1.63
 -21   5  -1   20.10    1.16
  21  -5  -1   24.37    3.36
  21  -5  -1   24.51    1.94
  21   5   1   23.80    2.00
 -21  -5   1   23.03    1.67
  21   5   1   23.31    2.61
 -21   7   1   40.39    1.91
 -21   7   1   41.92    2.21
 -21  -7  -1   41.87    2.58
  21  -7   1   44.91    3.00
  21   7  -1   42.39    2.93
  21  -7   1   42.72    4.22
 -21  -7  -1   41.40    2.56
  21   7  -1   43.32    3.45
  21  -7  -1   42.16    3.00
 -21  -7   1   42.12    2.54
  21  -7  -1   44.94    2.72
 -21   7  -1   42.79    2.39
 -21   7  -1   37.54    1.67
  21   7   1   42.51    3.78
  21   7   1   43.14    2.89
 -21  -7   1   43.26    2.67
 -21   9   1  104.87    4.27
  21  -9   1  113.52    5.89
 -21  -9  -1  111.95    5.74
 -21  -9  -1  114.02    5.57
 -21   9   1  106.52    4.80
  21  -9   1  113.43    5.72
  21   9  -1   98.22    9.20
  21   9  -1  114.20    8.08
 -21   9  -1  108.85    5.04
 -21  -9   1  110.87    5.37
  21   9   1  112.26    7.44
  21  -9  -1  117.94    5.69
  21  -9  -1  110.14    5.96
  21   9   1  113.61    5.85
 -21  -9   1  111.88    5.78
 -21   9  -1  102.04    4.00
  21 -11   1   10.70    1.52
 -21  11   1    9.51    1.08
 -21  11   1   10.05    0.79
  21  11  -1   11.46    1.56
 -21 -11  -1   10.92    2.22
 -21 -11  -1   11.94    2.57
  21  11  -1   12.66    2.00
  21 -11   1   12.12    2.29
 -21 -11   1   10.24    2.19
  21  11   1   10.73    1.54
  21  11   1    9.61    3.66
 -21 -11   1   10.73    1.60
  21 -11  -1   11.99    1.42
  21 -11  -1   11.26    1.46
 -21  11  -1   10.12    1.05
 -21  11  -1   12.87    1.20
 -21 -13  -1    4.28    1.06
  21 -13   1    3.91    1.66
 -21  13   1    5.18    0.78
 -21 -13  -1    4.77    1.35
  21  13  -1    3.88    1.62
  21  13  -1    5.31    1.25
 -21  13   1    4.80    0.57
  21 -13   1    5.04    1.12
  21 -13  -1    3.68    1.08
  21  13   1    5.87    2.00
  21  13   1    4.11    1.80
 -21  13  -1    4.71    0.74
 -21  13  -1    4.25    1.46
  21 -13  -1    4.49    1.74
 -21 -13   1    4.82    1.06
 -21 -13   1    4.85    1.29
 -21 -15  -1   11.12    1.39
 -21  15   1   10.39    1.57
  21 -15   1   10.40    2.00
  21  15  -1   10.79    2.16
 -21  15   1    8.66    0.72
  21  15  -1   11.18    1.61
 -21 -15  -1   10.41    1.88
  21 -15   1    9.42    1.49
 -21 -15   1    9.91    2.91
 -21 -15   1   10.61    1.41
  21 -15  -1   10.50    1.37
 -21  15  -1    9.37    1.16
  21  15   1    9.80    1.55
  21 -15  -1    9.40    1.34
 -21  15  -1   10.00    0.90
  21  15   1   10.66    2.43
 -21 -17  -1   50.11    4.64
 -21 -17  -1   49.13    4.29
 -21  17   1   46.10    2.44
  21 -17   1   48.28    3.71
  21  17  -1   46.93    4.41
  21  17  -1   51.41    3.45
 -21  17   1   46.84    1.89
  21 -17   1   52.47    3.29
 -21 -17   1   50.74    4.07
 -21 -17   1   47.38    4.72
  21  17   1   52.01    5.01
  21  17   1   49.65    5.11
 -21  17  -1   47.79    2.74
  21 -17  -1   50.62    4.30
  21 -17  -1   50.77    3.11
   0   0  -2    1.20    0.15
   0   0   2    1.76    0.20
   0   0  -2    1.36    0.12
   0   0   2    1.22    0.17
   0  -2  -2   53.00    1.43
   0   2  -2   54.17    1.21
   0   2  -2   58.29    1.98
   0  -2   2   54.95    1.48
   0  -2   2   54.46    1.80
   0   2   2   59.45    1.09
   0  -2  -2   52.93    1.45
   0  -4   2    1.38    0.15
   0  -4   2    2.12    0.92
   0   4   2    0.88    0.33
   0   4  -2    0.99    0.42
   0   4  -2    0.48    0.24
   0  -4  -2    2.19    0.34
   0  -6   2 1087.32   60.29
   0  -6   2  985.27   63.61
   0   6   2 1098.60   60.03
   0   6  -2 1091.03   60.63
   0   6  -2 1077.54   67.40
   0  -6  -2 1142.68   61.69
   0  -6  -2  944.33   57.60
   0   6   2  902.74   55.62
   0   8  -2    0.10    0.20
   0  -8   2    0.34    0.81
   0  -8  -2    0.29    0.16
   0  -8   2    0.48    0.18
   0   8   2    0.35    0.27
   0   8  -2    0.55    0.75
   0   8   2    2.25    0.61
   0  -8  -2    0.55    0.57
   0 -10  -2 1115.65   75.95
   0  10  -2 1200.56   72.58
   0  10   2 1207.78   76.26
   0  10  -2 1291.28   88.38
   0 -10   2 1212.42   73.29
   0 -10  -2 1258.42   77.64
   0  10   2 1081.88   75.09
   0 -10   2 1144.13   79.56
   0 -12   2    0.43    0.37
   0 -12  -2    0.62    0.73
   0  12   2    1.07    0.36
   0  12   2    1.93    0.80
   0 -12  -2    0.68    0.28
   0  12  -2    0.85    0.22
   0  12  -2    0.73    0.74
   0 -12   2    0.29    0.73
   0 -14   2   19.57    1.15
   0  14   2   22.26    2.40
   0 -14  -2   20.73    1.47
   0 -14   2   17.35    2.83
   0  14   2   23.63    1.13
   0  14  -2   22.32    0.83
   0 -14  -2   23.07    2.06
   0  14  -2   26.23    1.85
   0 -16   2    0.58    0.27
   0 -16  -2    0.57    0.82
   0 -16  -2    0.18    0.34
   0 -16   2   -0.13    0.63
   0  16  -2    0.21    0.32
   0  16   2    2.10    1.09
   0  16   2    0.16    0.64
   0  16  -2    0.57    0.66
   0 -18  -2  772.01   44.04
   0 -18  -2  817.84   53.40
   0 -18   2  784.15   48.16
   0  18   2  843.77   48.56
   0  18  -2  797.26   48.23
   0  18   2  844.14   56.38
   0  18  -2  842.21   51.64
   0 -18   2  861.69   47.09
   0 -20   2    0.35    0.38
   0  20  -2   -0.14    0.85
   0  20  -2    0.26    0.68
   0 -20  -2    0.37    1.62
   0  20   2   -0.01    0.43
   0 -20   2    0.41    0.66
   0  20   2    1.39    1.42
   0 -20  -2    0.64    0.41
   0  22   2   62.28    5.55
   0 -22  -2   55.85    3.57
   0 -22   2   62.23    2.58
   0  22  -2   55.92    2.73
   0  22  -2   63.63    3.59
   0 -22  -2   62.12    4.20
   0 -22   2   54.22    3.35
   0  22   2   58.57    2.59
   0  24   2   -0.20    0.44
   0  24   2    0.89    0.68
   0 -24   2    0.08    0.67
   0 -24  -2    0.47    0.45
   0  24  -2   -0.04    0.46
   0  24  -2   -0.43    0.69
   0 -24  -2    1.07    1.36
   0 -24   2    0.56    0.46
   0 -26  -2  470.71   26.24
   0  26   2  447.39   24.27
   0 -26  -2  419.76   21.33
   0 -26   2  500.00   24.23
   0  26   2  463.75   23.49
   0  26  -2  436.63   21.96
   0 -26   2  428.41   23.44
   0  26  -2  469.10   25.41
   0 -28  -2    0.50    1.17
   0  28   2   -0.01    0.56
   0 -28   2    0.16    0.65
   0  28   2   -0.04    0.43
   0  28  -2   -0.62    0.67
   0 -28   2    0.54    0.45
   0 -28  -2    0.34    0.45
   0  28  -2    0.23    0.39
   0  30  -2  180.30    7.36
   0  30  -2  197.89    9.51
   0 -30   2  219.32    8.61
   0 -30  -2  194.16    9.28
   0  30   2  180.99    8.42
   0 -30   2  177.21    8.76
   0 -30  -2  177.07    7.66
   0  30   2  194.00    8.32
   0  32  -2   -0.22    0.47
   0 -32  -2   -0.05    0.64
   0  32   2    0.14    0.72
   0  32   2   -0.30    0.37
   0 -32   2    0.00    0.35
   0 -32   2    0.01    0.54
   0  32  -2    0.26    0.55
   0 -32  -2    0.16    0.91
   0  34   2   60.37    2.84
   0 -34  -2   55.65    2.61
   0 -34  -2   62.93    3.24
   0  34  -2   56.31    2.21
   0 -34   2   72.01    3.54
   0  34  -2   62.70    3.40
   0 -34   2   61.47    4.82
   0  34   2   61.44    2.66
   0  36  -2    0.27    0.57
   0 -36   2    0.03    0.35
   0  36   2    0.20    0.39
   0  36  -2    0.36    0.28
   0 -36  -2   -0.03    0.41
   0 -36   2    0.20    0.60
   0  36   2   -0.09    0.44
   0  38   2    8.51    0.82
   0 -38   2    9.43    0.74
   0 -38   2    6.80    1.19
   0 -38  -2    6.05    0.84
   0  38   2    7.73    0.86
   0  38  -2    7.54    0.59
   0 -38  -2    8.37    1.05
   0  38  -2    7.89    1.11
   0 -40   2   -0.03    0.35
   0  40  -2    0.23    0.60
   0 -40  -2    0.13    0.53
   0 -40   2    0.31    1.03
   0 -40  -2   -0.01    0.45
   0  40   2    0.30    0.42
   0  40   2    0.03    0.44
   0  40  -2    0.53    0.28
   0  42   2   66.48    3.11
   0 -42  -2   64.78    3.18
   0  42  -2   72.29    5.42
   0 -42   2   82.13    3.04
   0  42  -2   63.98    3.08
   0 -42  -2   74.15    3.62
   0 -42   2   66.12    3.91
   0  42   2   64.64    3.15
   2   0   2  398.10   14.97
  -2   0   2  392.74   15.37
  -2   0  -2  376.77   17.93
  -2   0   2  398.82   14.94
   2   0  -2  415.37   15.82
   2   0   2  383.00   15.85
   2   0  -2  392.72   15.38
  -2   0  -2  385.31   14.63
  -2  -2  -2    3.48    0.19
   2   2  -2    4.31    0.31
   2  -2   2    3.45    0.42
  -2   2   2    3.19    0.32
  -2   2   2    3.16    0.22
  -2  -2  -2    4.84    1.99
   2   2  -2    3.92    0.38
   2  -2   2    3.18    0.26
   2  -2  -2    3.66    0.33
  -2   2  -2    3.89    0.55
  -2   2  -2    3.81    0.28
  -2  -2   2    3.27    0.33
   2   2   2    3.58    0.69
   2  -2  -2    3.53    0.28
  -2  -2   2    3.74    0.30
   2  -4   2    1.48    0.26
   2   4  -2    0.87    0.41
  -2  -4  -2    0.31    0.14
  -2   4   2    1.59    0.27
  -2   4   2    0.82    0.09
   2  -4   2    0.28    0.28
   2   4  -2    0.62    0.26
  -2  -4  -2    0.94    1.15
   2   4   2    0.21    0.83
   2   4   2    0.56    0.26
  -2  -4   2    0.97    0.25
  -2  -4   2    0.88    0.39
  -2   4  -2    0.47    0.10
   2  -4  -2    0.42    0.50
  -2   4  -2    0.54    0.24
   2  -6   2   30.00    1.25
  -2   6   2   31.66    1.18
  -2   6   2   30.49    0.57
   2   6  -2   29.42    1.75
  -2  -6  -2   28.15    0.77
  -2  -6  -2   32.11    3.95
   2   6  -2   27.18    1.09
   2  -6   2   29.50    1.29
  -2  -6   2   32.92    1.75
   2   6   2   33.77    3.30
   2  -6  -2   30.02    1.19
  -2   6  -2   28.99    0.59
   2   6   2   29.20    1.14
   2  -6  -2   28.21    0.53
  -2  -6   2   30.33    1.09
  -2  -8  -2  453.59   18.40
   2   8  -2  439.32   18.99
   2  -8   2  434.54   22.15
  -2  -8  -2  424.01   27.62
   2   8  -2  468.41   23.00
   2  -8   2  436.21   16.18
   2   8   2  434.44   27.65
  -2  -8   2  446.30   19.15
   2  -8  -2  433.59   17.34
   2   8   2  447.70   19.29
   2  -8  -2  447.44   17.69
   2  -8  -2  429.39   19.10
  -2   8  -2  436.06   19.98
   2  -8  -2  446.06   19.67
  -2  -8   2  458.85   25.72
   2  10  -2    5.32    0.48
  -2 -10  -2    4.50    0.38
  -2 -10  -2    5.85    2.02
   2  10  -2    5.62    1.08
   2 -10   2    4.89    0.16
   2 -10   2    4.84    0.77
   2  10   2    6.28    1.98
   2 -10  -2    4.75    0.39
  -2 -10   2    4.38    0.51
   2 -10  -2    4.33    0.61
  -2  10  -2    4.83    0.72
   2 -10  -2    5.41    0.57
   2 -10  -2    5.05    0.26
  -2 -10   2    5.27    1.06
   2  10   2    4.55    0.36
   2  12  -2   59.96    3.14
  -2 -12  -2   56.50    4.15
   2  12  -2   55.19    2.42
   2 -12   2   57.44    1.16
   2 -12   2   53.31    2.47
  -2 -12  -2   61.03    1.75
   2 -12  -2   56.21    1.55
   2  12   2   56.61    2.14
  -2  12  -2   55.68    1.54
   2 -12  -2   53.69    1.80
   2  12   2   58.05    4.04
   2 -12  -2   54.74    2.15
   2 -12  -2   57.42    2.10
  -2 -12   2   54.77    3.07
  -2 -12   2   56.41    2.54
  -2  12  -2   54.02    2.39
  -2  14   2    2.72    0.61
  -2 -14  -2    3.42    1.23
   2 -14   2    3.04    0.78
   2 -14   2    2.92    0.18
   2  14  -2    3.51    0.98
  -2  14   2    3.12    0.37
  -2 -14  -2    2.91    0.40
   2  14  -2    3.04    0.42
  -2 -14   2    3.33    0.48
  -2  14  -2    3.76    0.53
   2 -14  -2    3.36    0.58
  -2 -14   2    2.64    0.93
  -2  14  -2    3.12    0.75
   2 -14  -2    2.88    0.47
   2  14   2    2.88    0.38
   2  14   2    3.18    1.20
  -2  16   2   75.67    3.41
  -2 -16  -2   75.51    6.75
   2  16  -2   74.20    2.65
   2 -16   2   77.40    2.37
  -2  16   2   76.90    2.81
   2 -16   2   75.25    3.71
   2  16  -2   77.86    4.10
  -2 -16  -2   79.97    2.72
  -2 -16   2   78.03    2.87
  -2  16  -2   79.01    2.39
   2 -16  -2   73.54    3.55
  -2  16  -2   77.40    3.76
   2  16   2   77.22    4.40
   2  16   2   76.01    2.69
   2 -16  -2   78.94    3.40
  -2 -16   2   71.44    3.78
   2  18  -2   65.65    3.75
  -2 -18  -2   65.32    2.49
   2 -18   2   61.67    3.57
  -2 -18  -2   64.48    4.08
   2  18  -2   60.87    2.50
  -2  18   2   68.61    2.83
  -2  18   2   66.40    3.46
   2 -18   2   65.73    1.88
  -2  18  -2   65.00    2.06
  -2 -18   2   59.69    3.41
  -2  18  -2   68.95    3.71
   2 -18  -2   61.95    2.38
   2  18   2   66.42    3.59
   2  18   2   64.30    3.83
   2 -18  -2   67.52    3.42
  -2 -18   2   65.13    2.64
  -2 -20  -2    5.95    0.82
   2 -20   2    6.48    0.81
   2 -20   2    7.07    1.34
  -2  20   2    8.44    1.64
   2  20  -2    7.11    1.35
   2  20  -2    7.62    0.84
  -2  20   2    6.54    1.36
  -2 -20  -2    7.27    1.44
   2  20   2    5.87    0.87
  -2  20  -2    5.80    0.81
  -2  20  -2    6.87    1.36
  -2 -20   2    5.84    2.13
   2 -20  -2    6.55    1.16
   2 -20  -2    6.79    1.34
  -2 -20   2    7.31    1.46
   2  20   2    6.62    2.18
  -2  22   2   29.49    3.00
  -2  22   2   28.66    2.70
  -2 -22  -2   27.98    2.50
   2 -22   2   26.03    1.68
   2 -22   2   25.67    2.32
   2  22  -2   25.31    2.35
  -2 -22  -2   24.60    1.63
   2  22  -2   25.87    1.71
  -2  22  -2   25.38    1.01
  -2 -22   2   25.46    1.70
  -2  22  -2   26.90    2.33
  -2 -22   2   20.97    2.16
   2  22   2   25.47    2.15
   2 -22  -2   23.47    1.35
   2 -22  -2   25.58    2.57
   2  22   2   23.39    1.66
   2 -24   2    1.15    0.96
   2 -24   2    1.29    0.44
   2  24  -2    1.57    1.58
  -2  24   2    1.77    0.70
  -2 -24  -2    1.99    1.01
  -2  24   2    1.18    0.99
  -2 -24  -2    1.21    0.67
   2  24  -2    3.07    0.76
   2  24   2    1.30    1.08
  -2 -24   2    0.75    0.92
  -2  24  -2    1.53    0.93
  -2 -24   2    1.61    0.72
   2 -24  -2    1.27    0.52
  -2  24  -2    0.96    0.58
   2 -24  -2    1.70    1.12
   2  24   2    1.22    0.84
   2  24   2    1.45    1.12
   2  26  -2    0.82    1.25
   2 -26   2    0.26    0.83
   2 -26   2    0.68    0.69
  -2  26   2    0.45    0.60
  -2 -26  -2    0.08    0.61
  -2 -26  -2    0.03    0.85
   2  26  -2    0.75    0.83
  -2  26   2    0.89    0.78
   2  26   2    0.90    0.59
   2  26   2    0.08    0.72
   2 -26  -2    0.63    0.98
  -2 -26   2    1.75    0.68
  -2 -26   2    0.81    0.80
  -2  26  -2    0.82    0.30
   2 -26  -2    0.72    0.47
  -2  26  -2   -0.02    0.81
  -2  28   2   27.48    1.97
   2 -28   2   27.98    1.83
  -2  28   2   29.61    1.72
   2  28  -2   25.76    2.24
  -2 -28  -2   25.76    2.24
   2 -28   2   23.20    2.15
  -2 -28  -2   22.71    1.68
   2  28  -2   21.89    1.85
   2 -28  -2   22.08    1.36
  -2 -28   2   30.82    1.92
   2  28   2   25.76    2.56
  -2 -28   2   22.02    2.13
   2  28   2   24.12    2.94
   2 -28  -2   26.38    2.31
  -2  28  -2   25.73    1.42
  -2  28  -2   26.62    2.12
   2 -30   2   59.16    2.05
  -2 -30  -2   49.46    2.54
   2 -30   2   50.68    4.56
  -2  30   2   56.03    2.80
   2  30  -2   50.58    2.71
  -2 -30  -2   55.96    3.18
   2  30  -2   52.85    4.81
  -2  30   2   54.86    2.60
   2 -30  -2   54.97    3.16
  -2 -30   2   59.81    3.98
   2  30   2   51.01    2.50
  -2  30  -2   56.02    4.56
   2  30   2   48.58    2.73
  -2 -30   2   47.20    3.03
   2 -30  -2   50.68    3.11
  -2  30  -2   52.42    1.76
   2 -32   2    0.65    0.76
   2 -32   2    1.19    0.38
  -2 -32  -2    1.02    1.28
   2  32  -2    1.34    0.80
  -2 -32  -2    0.85    0.58
  -2  32   2    1.77    0.56
  -2  32   2    1.12    0.59
   2  32  -2    1.17    0.59
   2  32   2    0.71    0.91
   2 -32  -2    1.41    0.48
   2 -32  -2    1.66    0.70
  -2 -32   2    1.06    1.01
   2  32   2    1.25    0.63
  -2  32  -2    1.42    0.30
  -2  32  -2    0.95    0.76
  -2 -32   2    1.05    0.80
   2 -34   2   10.63    1.33
   2 -34   2   11.46    0.70
  -2 -34  -2    9.43    1.05
  -2  34   2   11.24    1.02
   2  34  -2   10.85    1.39
  -2 -34  -2   10.43    1.34
   2  34  -2    9.46    0.97
  -2  34  -2    9.96    0.57
  -2  34  -2   10.13    1.35
  -2 -34   2   11.36    1.04
  -2 -34   2   10.73    1.41
   2  34   2   10.42    0.99
   2 -34  -2    9.82    0.88
   2 -34  -2   10.70    1.23
   2  34   2   10.10    1.09
  -2 -36  -2   53.64    2.92
   2 -36   2   58.07    2.54
  -2 -36  -2   46.60    3.48
   2  36  -2   50.42    3.09
   2  36  -2   46.12    2.20
   2 -36   2   48.52    2.92
   2 -36  -2   46.50    2.20
   2  36   2   47.95    2.50
  -2  36  -2   48.51    1.67
   2 -36  -2   53.28    2.42
  -2 -36   2   57.31    2.51
   2 -36  -2   54.47    3.87
   2  36   2   48.75    2.41
  -2  36  -2   52.56    2.97
  -2 -36   2   46.57    2.99
   2 -36  -2   49.28    2.38
   2 -38   2    1.25    0.76
   2  38  -2    1.66    0.79
   2 -38   2    1.77    0.37
  -2 -38  -2    1.78    0.73
  -2 -38  -2    1.03    0.60
   2  38  -2    1.88    0.78
   2 -38  -2    1.00    0.52
   2  38   2    1.37    0.60
  -2  38  -2    1.20    0.29
   2 -38  -2    0.93    0.53
  -2 -38   2    1.98    0.54
  -2  38  -2    1.06    0.75
   2 -38  -2    1.27    0.52
  -2 -38   2    1.40    0.79
   2  38   2    1.86    0.54
   2 -38  -2    1.26    0.64
   2 -40   2   -0.07    0.82
  -2 -40  -2    0.00    0.66
   2  40  -2    1.74    0.50
   2 -40   2    2.80    0.40
   2 -40   2    2.56    0.83
  -2 -40  -2    2.84    0.79
   2  40  -2    2.42    0.86
   2 -40  -2    1.93    0.55
  -2 -40   2    2.53    0.93
  -2 -40   2    2.31    0.89
   2 -40  -2    2.18    0.58
   2  40   2    2.42    0.59
   2  40   2    1.97    0.65
   2 -40  -2    1.60    1.11
   2 -40  -2    1.49    0.57
   2 -42   2   49.12    2.89
   2  42  -2   44.20    2.92
  -2 -42  -2   47.70    3.92
   2 -42   2   40.76    2.87
  -2 -42  -2   40.72    2.37
   2  42   2   40.05    2.32
   2 -42  -2   45.91    3.13
   2  42   2   40.71    3.09
  -2 -42   2   41.93    2.96
   2 -42  -2   47.59    2.45
   2 -42  -2   42.07    2.18
  -2 -42   2   51.88    2.27
   2 -42  -2   44.00    2.90
   4   0   2    1.29    0.25
  -4   0   2    0.19    0.24
  -4   0  -2    0.79    1.20
   4   0  -2    0.46    0.35
   4   0   2    0.98    1.38
  -4   0  -2    0.22    0.24
  -4   0   2    0.45    0.32
   4   0  -2    0.52    0.28
   4   2  -2  320.34   12.83
  -4  -2  -2  310.13   16.97
  -4   2   2  325.92   12.70
  -4   2   2  315.11   12.10
   4  -2   2  328.04   12.53
   4   2  -2  333.37   14.56
  -4  -2  -2  324.90   12.15
   4  -2   2  329.45   17.00
   4  -2  -2  318.71   13.94
   4   2   2  310.92   20.60
  -4   2  -2  322.84   12.33
  -4   2  -2  318.52   13.19
   4  -2  -2  330.73   13.14
   4   2   2  329.10   12.35
  -4  -2   2  321.32   13.65
  -4  -2   2  329.15   13.01
   4  -4   2   33.42    1.18
  -4   4   2   33.23    1.21
  -4  -4  -2   32.79    1.04
   4  -4   2   36.33    2.96
   4   4  -2   33.39    1.44
  -4   4   2   31.84    0.79
   4   4  -2   32.65    1.43
  -4  -4  -2   36.80    4.09
   4  -4  -2   33.25    0.91
   4  -4  -2   32.53    1.28
  -4  -4   2   33.15    1.38
  -4   4  -2   33.07    1.17
  -4   4  -2   31.90    1.00
  -4  -4   2   33.26    2.12
   4   4   2   32.67    1.07
   4   4   2   34.56    4.34
   4  -6   2 1313.37   84.55
   4   6  -2 1338.02   86.92
  -4   6   2 1294.67   82.93
  -4  -6  -2 1152.95   95.07
   4   6  -2 1358.64   88.98
  -4  -6  -2 1348.85   84.99
  -4   6   2 1284.03   79.02
   4  -6   2 1289.87   81.05
   4   6   2 1329.09   83.70
  -4   6  -2 1303.02   83.93
  -4   6  -2 1325.37   79.87
   4  -6  -2 1353.92   83.37
  -4  -6   2 1335.66   86.50
  -4  -6   2 1320.51   86.17
   4   6   2 1066.40   86.85
   4  -6  -2 1259.98   81.30
  -4   8   2    3.39    0.32
  -4  -8  -2    4.96    2.01
   4   8  -2    3.33    0.53
  -4  -8  -2    3.29    0.35
   4   8  -2    3.98    0.61
  -4   8   2    3.27    0.38
   4  -8   2    3.22    0.45
   4   8   2    3.36    0.36
   4  -8  -2    2.66    0.42
  -4  -8   2    4.20    0.62
  -4  -8   2    3.18    0.52
   4  -8  -2    2.75    0.35
   4   8   2    3.82    1.60
   4 -10   2   69.92    2.40
  -4  10   2   72.15    1.82
   4  10  -2   74.58    2.79
   4 -10   2   69.39    2.42
  -4 -10  -2   70.85    5.20
   4  10  -2   68.73    2.39
  -4 -10  -2   72.44    2.12
  -4  10   2   71.26    2.19
   4  10   2   66.88    7.59
   4  10   2   71.42    2.08
  -4 -10   2   72.57    3.96
   4 -10  -2   72.19    1.80
   4 -10  -2   68.43    2.20
  -4 -10   2   71.17    2.52
  -4 -12  -2   12.24    0.62
  -4 -12  -2   14.77    2.09
   4 -12   2   13.56    0.82
   4  12  -2   12.39    0.81
   4  12  -2   12.57    1.02
   4 -12   2   11.33    0.83
   4  12   2   11.40    1.98
   4 -12  -2   12.30    0.69
  -4 -12   2   11.48    0.85
   4 -12  -2   12.28    0.46
  -4 -12   2   11.85    1.10
   4 -12  -2   12.48    0.44
   4  12   2   12.25    0.61
   4 -12  -2   12.48    1.03
  -4 -14  -2  226.01   12.22
   4  14  -2  235.92   10.07
   4 -14   2  220.44   10.42
   4  14  -2  226.14    8.91
  -4 -14  -2  236.21    8.66
   4 -14   2  212.30    8.84
   4  14   2  208.52   11.90
   4 -14  -2  233.73    8.79
   4 -14  -2  238.45    8.73
  -4 -14   2  229.28   10.21
   4  14   2  222.72    8.19
   4 -14  -2  223.51    8.66
   4 -14  -2  218.51    9.44
  -4 -14   2  235.42    9.46
  -4 -16  -2    8.68    1.72
   4 -16   2   10.32    0.22
   4 -16   2    9.07    1.64
   4 -16   2    8.69    1.00
   4  16  -2    8.90    0.81
  -4 -16  -2   10.41    0.73
   4 -16   2    9.52    0.18
   4  16  -2    9.97    1.17
   4 -16  -2    9.18    0.72
  -4 -16   2   10.13    0.96
   4 -16  -2    9.89    0.53
   4 -16  -2    8.82    0.62
  -4 -16   2   10.45    1.34
   4 -16  -2    9.32    0.75
   4  16   2    9.73    0.67
   4  16   2   10.06    1.74
   4 -18   2  291.81    9.95
   4 -18   2  287.06   13.92
   4 -18   2  329.23   11.04
   4  18  -2  293.40   13.04
   4  18  -2  311.29   15.25
  -4 -18  -2  289.21   15.98
  -4 -18  -2  317.36   13.35
   4 -18   2  300.99   14.35
   4  18   2  299.14   12.54
   4 -18  -2  300.92   12.92
   4  18   2  285.66   15.94
  -4 -18   2  303.12   15.56
   4 -18  -2  309.98   13.45
   4 -18  -2  285.76   12.61
  -4 -18   2  313.01   14.30
   4 -18  -2  309.56   12.64
   4 -20   2    8.87    0.28
   4 -20   2    8.48    1.38
  -4 -20  -2   11.10    1.79
   4  20  -2    9.20    1.01
   4  20  -2   12.09    1.61
  -4 -20  -2    9.84    0.96
   4 -20   2   10.09    2.17
   4 -20   2    9.66    0.37
   4 -20  -2    9.68    0.89
  -4 -20   2   10.51    1.24
   4 -20  -2   10.38    1.05
   4 -20  -2    8.64    0.99
   4  20   2    8.79    1.73
   4  20   2    9.11    0.85
   4 -20  -2    9.27    0.81
  -4 -20   2    9.30    2.80
   4  22  -2    6.05    0.98
   4 -22   2    6.10    0.30
   4 -22   2    7.40    1.38
   4 -22   2    7.48    0.40
   4  22  -2    6.99    1.51
   4 -22   2    8.58    1.32
  -4 -22  -2    5.58    0.95
  -4 -22  -2    6.42    1.59
  -4 -22   2    6.87    1.20
  -4 -22   2    6.47    2.58
   4  22   2    6.50    0.86
   4 -22  -2    7.47    1.52
   4 -22  -2    5.77    1.00
   4  22   2    7.83    1.53
   4 -22  -2    9.76    1.13
   4 -22  -2    6.42    1.40
   4  24  -2   35.91    3.07
   4 -24   2   34.74    3.06
   4 -24   2   35.05    1.02
  -4 -24  -2   35.62    3.02
   4  24  -2   31.44    3.44
   4 -24   2   34.66    2.76
  -4 -24  -2   34.93    2.11
   4 -24   2   38.20    1.18
   4  24   2   33.59    4.53
   4 -24  -2   34.36    1.96
  -4 -24   2   38.60    2.59
   4  24   2   34.26    2.04
   4 -24  -2   37.30    4.03
   4 -24  -2   33.65    2.30
  -4 -24   2   31.69    2.94
   4 -24  -2   35.17    2.16
   4 -26   2   79.13    2.35
   4 -26   2   75.06    4.83
  -4 -26  -2   68.32    4.48
   4 -26   2   68.09    4.39
  -4 -26  -2   69.49    3.55
   4  26  -2   67.02    3.79
   4 -26   2   68.66    2.09
   4  26  -2   69.43    4.50
   4  26   2   68.49    4.13
  -4 -26   2   77.60    4.19
   4 -26  -2   71.25    3.95
   4 -26  -2   65.78    3.03
   4 -26  -2   75.29    4.41
   4 -26  -2   69.17    3.90
   4  26   2   69.65    3.54
  -4 -26   2   62.29    4.31
  -4 -28  -2   12.43    1.38
   4  28  -2   11.89    1.57
   4 -28   2   13.40    0.59
   4 -28   2   14.21    1.88
   4  28  -2   13.34    1.79
   4 -28   2   13.69    0.96
   4 -28   2   11.56    1.78
  -4 -28  -2   11.90    1.79
   4  28   2   12.25    1.60
  -4 -28   2   13.93    1.60
   4 -28  -2   14.09    1.71
   4 -28  -2   16.21    1.07
   4 -28  -2   13.08    1.52
   4  28   2   12.76    1.39
   4 -28  -2   12.44    1.78
  -4 -28   2   11.29    1.76
   4 -30   2  118.14    3.87
   4  30  -2  118.36    6.50
   4 -30   2  113.66    6.20
   4 -30   2  127.71    4.58
   4  30  -2  112.96    8.16
  -4 -30  -2  125.65    6.36
   4 -30   2  128.68    6.64
  -4 -30  -2  109.26    6.98
   4 -30  -2  133.51    6.55
   4  30   2  111.01    7.62
   4 -30  -2  126.03    5.73
   4 -30  -2  128.16    6.53
   4  30   2  110.56    5.35
   4 -30  -2  111.14    4.67
  -4 -30   2  103.36    5.83
  -4 -30   2  130.44    6.07
   4 -32   2    3.28    1.09
   4 -32   2    3.59    1.11
   4 -32   2    4.83    0.38
   4 -32   2    4.11    0.34
   4  32  -2    3.83    1.00
   4  32  -2    3.25    1.87
  -4 -32  -2    3.05    1.81
  -4 -32  -2    2.92    0.85
  -4 -32   2    4.61    0.93
   4 -32  -2    3.73    0.96
   4 -32  -2    3.90    0.93
  -4 -32   2    2.98    1.09
   4 -32  -2    3.71    0.79
   4  32   2    3.76    0.94
   4  32   2    4.08    0.84
   4 -32  -2    3.25    0.62
  -4 -34  -2   14.38    1.38
   4 -34   2   18.74    1.70
   4 -34   2   16.28    0.97
   4 -34   2   15.57    0.86
   4  34  -2   15.06    1.76
  -4 -34  -2   16.65    1.65
   4 -34   2   14.26    1.63
   4  34  -2   12.19    1.49
  -4 -34   2   12.56    1.69
   4 -34  -2   16.92    1.42
   4  34   2   13.11    1.33
   4  34   2   14.47    1.42
  -4 -34   2   16.40    1.41
   4 -34  -2   14.67    1.04
   4 -34  -2   16.65    1.19
   4 -34  -2   15.40    1.43
   4 -36   2   22.99    0.82
   4 -36   2   19.88    2.88
  -4 -36  -2   18.46    1.53
   4 -36   2   23.18    1.89
   4  36  -2   18.57    1.97
   4 -36   2   20.63    0.75
   4  36  -2   16.64    2.40
  -4 -36  -2   20.35    1.85
   4  36   2   19.04    2.46
   4 -36  -2   17.81    1.19
  -4 -36   2   17.94    1.92
  -4 -36   2   21.73    1.57
   4 -36  -2   20.18    1.53
   4 -36  -2   22.09    2.38
   4 -36  -2   19.21    1.97
   4  36   2   18.35    1.49
   4 -38   2   66.05    3.78
   4 -38   2   76.81    5.48
  -4 -38  -2   72.98    5.45
  -4 -38  -2   64.10    3.25
   4  38  -2   59.60    3.21
   4  38  -2   68.24    3.97
   4 -38  -2   72.95    3.34
   4 -38  -2   71.72    4.39
   4 -38  -2   70.11    3.00
   4  38   2   65.47    3.26
   4  38   2   65.28    3.36
   4 -38  -2   63.81    2.86
  -4 -38   2   78.42    4.61
  -4 -38   2   65.89    5.58
  -4 -40  -2   18.18    1.53
   4 -40   2   22.43    1.86
   4  40  -2   16.84    1.41
   4 -40   2   20.90    1.86
  -4 -40  -2   22.63    1.89
   4  40  -2   18.78    1.95
  -4 -40   2   23.38    1.56
   4 -40  -2   22.55    1.45
   4 -40  -2   21.14    1.24
  -4 -40   2   19.01    1.99
   4  40   2   17.60    1.53
   4 -40  -2   18.10    1.29
   4 -40  -2   22.26    1.46
   4  40   2   19.41    1.50
   4  42  -2   30.08    1.90
   4 -42   2   42.73    2.60
  -4 -42  -2   37.79    2.66
   4 -42   2   34.63    2.55
  -4 -42  -2   33.84    2.18
   4  42  -2   37.51    2.77
   4 -42  -2   35.44    2.71
   4  42   2   35.94    2.10
   4 -42  -2   39.19    2.95
  -4 -42   2   42.80    2.20
   4 -42  -2   39.38    2.10
   4 -42  -2   36.02    1.80
   4  42   2   33.82    2.16
  -4 -42   2   34.75    2.78
  -6   0  -2 1074.05   65.72
   6   0   2 1097.64   64.87
   6   0   2  975.05   64.86
  -6   0  -2 1077.57   63.53
  -6   0   2 1055.22   62.52
   6   0  -2 1129.67   66.83
  -6   0   2 1081.15   64.57
   6   0  -2 1067.37   64.39
   6   2  -2    0.80    0.34
   6  -2   2    0.81    0.59
   6  -2   2    1.06    0.29
  -6   2   2    0.97    0.21
  -6  -2  -2    0.65    0.26
  -6  -2  -2    0.73    0.53
   6   2  -2    0.65    0.39
  -6   2   2    0.86    0.53
   6   2   2    1.00    0.28
  -6  -2   2    1.04    0.29
  -6   2  -2    0.85    0.32
  -6   2  -2    1.01    0.27
   6   2   2    1.62    0.79
   6  -2  -2    1.11    0.46
   6  -2  -2    0.62    0.36
  -6  -2   2    1.13    0.36
  -6   4   2   68.72    1.86
   6   4  -2   74.96    2.46
   6  -4   2   76.46    2.87
  -6  -4  -2   72.24    2.14
   6  -4   2   69.65    2.16
  -6  -4  -2   73.29    3.44
   6   4  -2   71.89    2.59
  -6   4   2   70.62    2.21
  -6   4  -2   71.31    1.96
  -6   4  -2   72.05    2.17
   6   4   2   72.71    4.18
  -6  -4   2   68.36    2.24
   6  -4  -2   71.82    2.37
   6  -4  -2   74.94    2.10
   6   4   2   72.13    2.81
  -6  -4   2   71.04    2.48
  -6   6   2   10.97    0.39
   6   6  -2   13.21    1.33
   6  -6   2   12.26    1.16
  -6  -6  -2   11.87    0.56
  -6  -6  -2   12.17    1.51
   6  -6   2   11.52    0.61
   6   6  -2   14.50    0.76
  -6   6   2   11.28    0.56
  -6   6  -2   11.98    0.36
  -6  -6   2   12.04    0.77
  -6  -6   2   10.67    0.72
   6  -6  -2   12.06    0.64
   6   6   2   11.01    0.58
  -6   6  -2   11.39    0.60
   6  -6  -2   12.31    0.46
   6   6   2   10.75    1.78
  -6   8   2  490.64   21.02
   6   8  -2  482.41   22.78
   6  -8   2  494.52   22.58
   6   8  -2  503.98   23.60
  -6  -8  -2  491.72   22.09
  -6   8   2  511.90   22.85
  -6  -8  -2  466.13   27.14
   6  -8   2  546.40   24.94
   6   8   2  500.89   22.41
   6  -8  -2  509.49   22.88
   6   8   2  471.92   27.70
  -6   8  -2  488.31   22.31
  -6  -8   2  487.59   22.79
  -6  -8   2  499.85   23.46
   6  -8  -2  482.59   22.03
  -6   8  -2  505.69   20.69
   6 -10   2   11.51    0.74
  -6 -10  -2   13.07    2.31
  -6  10   2   10.93    0.43
   6  10  -2   13.42    0.93
   6  10  -2   12.22    0.93
  -6 -10  -2   12.66    1.06
  -6  10   2   11.10    0.59
   6 -10   2   13.39    0.67
  -6  10  -2   12.12    0.73
   6 -10  -2   12.04    0.48
  -6 -10   2   10.96    1.54
   6  10   2   11.79    2.14
  -6  10  -2   12.04    0.21
  -6 -10   2   10.92    0.96
   6  10   2   11.56    0.67
   6 -12   2 1294.44   86.26
  -6 -12  -2 1334.54   89.42
  -6  12   2 1282.51   82.04
  -6 -12  -2 1214.00   95.99
   6 -12   2 1299.92   76.79
   6  12  -2 1252.00   84.27
   6 -12   2 1275.30   84.83
  -6 -12  -2 1331.03   88.76
  -6  12   2 1317.00   85.47
   6  12  -2 1312.64   88.28
   6 -12   2 1350.22   81.24
   6  12   2 1305.23   85.09
   6  12   2 1204.95   93.82
  -6 -12   2 1275.73   86.24
   6 -12  -2 1228.31   81.04
  -6 -12   2 1287.78   90.77
   6 -12  -2 1305.38   83.36
   6  14  -2    0.80    0.53
  -6 -14  -2    0.74    0.38
   6  14  -2    1.16    0.92
  -6 -14  -2    2.44    1.54
   6 -14   2    1.30    0.43
   6 -14   2    2.09    0.45
   6 -14  -2    0.95    0.24
   6 -14  -2    0.93    0.30
   6 -14  -2    1.01    0.42
   6  14   2    0.90    0.37
  -6 -14   2    1.22    0.62
   6  14   2    1.54    1.31
   6 -14  -2    0.79    0.34
  -6 -14   2    0.60    1.01
  -6 -16  -2  173.27   10.96
   6 -16   2  156.07    7.65
   6 -16   2  156.59    6.45
   6  16  -2  168.74    7.15
   6  16  -2  161.67    8.41
  -6 -16  -2  164.04    6.21
  -6 -16   2  164.58    7.52
   6 -16  -2  165.05    5.62
   6 -16  -2  154.64    5.75
   6  16   2  157.33    5.89
   6  16   2  153.22    9.83
   6 -16  -2  161.50    5.55
  -6 -16   2  165.64    7.32
   6 -16  -2  165.99    5.88
   6 -18   2   23.44    1.58
  -6 -18  -2   23.68    2.17
   6  18  -2   23.00    1.58
   6  18  -2   24.35    1.86
  -6 -18  -2   25.62    3.24
   6 -18   2   22.95    1.54
  -6 -18   2   23.98    2.13
   6 -18  -2   24.05    1.11
  -6 -18   2   24.40    1.94
   6  18   2   23.49    1.25
   6 -18  -2   22.70    1.02
   6  18   2   22.82    3.02
   6 -18  -2   22.63    1.20
   6 -18  -2   22.76    0.99
   6  20  -2  110.05    4.99
   6 -20   2  106.23    5.09
  -6 -20  -2  114.36    4.72
   6 -20   2  109.96    5.06
   6  20  -2  116.14    5.68
  -6 -20  -2  117.18    7.51
   6 -20  -2  111.05    4.15
  -6 -20   2  117.35    5.82
   6 -20  -2  103.43    4.12
   6 -20  -2  114.77    4.33
   6 -20  -2  112.10    4.04
  -6 -20   2  110.36    6.05
   6  20   2  108.84    4.36
   6  20   2  109.05    7.39
   6  22  -2    4.65    0.98
   6 -22   2    4.82    1.13
   6 -22   2    4.55    1.08
   6 -22   2    5.23    0.16
   6  22  -2    6.49    1.24
  -6 -22  -2    5.30    1.69
  -6 -22  -2    5.56    0.88
   6  22   2    4.98    1.73
   6 -22  -2    4.67    0.72
  -6 -22   2    5.85    2.17
   6 -22  -2    5.46    0.74
   6 -22  -2    5.05    0.66
  -6 -22   2    5.28    1.49
   6 -22  -2    4.92    0.70
   6  22   2    4.76    0.76
   6 -24   2  686.28   30.63
   6 -24   2  568.55   34.32
   6 -24   2  589.30   34.72
  -6 -24  -2  611.80   37.76
  -6 -24  -2  616.64   37.03
   6 -24   2  598.27   26.85
   6  24  -2  608.01   40.44
   6  24  -2  568.85   32.90
   6 -24  -2  635.62   34.91
   6 -24  -2  587.11   32.58
   6 -24  -2  605.32   35.32
   6  24   2  556.23   36.12
   6  24   2  601.44   33.03
   6 -24  -2  566.57   33.71
  -6 -24   2  588.27   36.70
  -6 -24   2  641.43   37.46
   6  26  -2    9.74    1.41
   6  26  -2    3.53    1.03
   6 -26   2    4.42    0.36
   6 -26   2    4.22    1.16
  -6 -26  -2    4.96    1.46
  -6 -26  -2    3.65    0.93
   6 -26   2    4.75    1.29
   6 -26  -2    5.36    0.84
  -6 -26   2    4.22    1.28
   6 -26  -2    3.54    0.81
   6 -26  -2    3.68    0.77
   6  26   2    4.64    1.42
   6  26   2    5.64    1.40
  -6 -26   2    3.28    1.48
   6 -26  -2    4.07    0.95
   6 -28   2  167.28   11.28
   6 -28   2  190.55    5.99
  -6 -28  -2  177.58    9.42
   6  28  -2  168.55   12.04
   6 -28   2  162.00    4.91
   6 -28   2  173.93   12.35
   6  28  -2  160.52    8.21
  -6 -28  -2  166.18    7.81
   6 -28  -2  177.40    8.33
  -6 -28   2  190.64    9.40
  -6 -28   2  154.56    8.80
   6 -28  -2  159.82    8.83
   6 -28  -2  161.23    7.34
   6  28   2  167.92    7.66
   6 -28  -2  186.48    8.76
   6  28   2  163.78    9.14
   6 -30   2   22.02    0.58
   6 -30   2   23.89    3.85
   6  30  -2   20.42    2.24
   6 -30   2   19.69    2.05
  -6 -30  -2   21.74    2.14
   6 -30   2   19.38    0.51
  -6 -30  -2   19.51    1.68
   6  30  -2   18.01    1.90
   6 -30  -2   19.64    1.40
   6  30   2   20.67    1.64
   6  30   2   18.17    3.25
   6 -30  -2   21.39    1.92
  -6 -30   2   23.18    2.07
   6 -30  -2   21.17    2.96
  -6 -30   2   19.94    2.19
   6 -30  -2   19.49    1.47
  -6 -32  -2   63.66    5.70
   6 -32   2   65.99    4.27
   6 -32   2   68.84    1.97
   6  32  -2   55.86    3.83
   6 -32   2   58.39    5.91
  -6 -32  -2   55.92    3.22
   6  32  -2   59.92    4.10
   6 -32   2   59.06    1.75
   6  32   2   57.88    4.61
  -6 -32   2   66.19    3.73
   6 -32  -2   57.83    2.73
   6  32   2   55.76    3.56
   6 -32  -2   67.14    3.81
   6 -32  -2   68.14    4.25
  -6 -32   2   54.26    3.86
   6 -32  -2   62.64    3.08
  -6 -34  -2    0.29    0.82
  -6 -34  -2    0.55    0.64
   6  34  -2    1.03    0.86
   6 -34   2    0.51    0.14
   6  34  -2    0.50    0.80
   6 -34   2    0.42    0.21
   6 -34   2    1.05    0.85
   6 -34   2    1.00    0.83
  -6 -34   2    0.63    1.20
   6 -34  -2    0.53    0.88
  -6 -34   2    0.59    1.18
   6 -34  -2    0.88    0.46
   6 -34  -2    1.12    0.65
   6  34   2    0.86    0.65
   6 -34  -2    0.54    0.49
  -6 -34   2   -0.98    1.40
   6  34   2    0.29    0.73
  -6 -36  -2   43.30    2.70
  -6 -36  -2   51.54    3.40
   6  36  -2   40.70    4.44
   6 -36   2   48.47    4.87
   6 -36   2   65.10    3.60
   6  36  -2   48.57    3.47
   6 -36  -2   51.97    2.69
  -6 -36   2   54.36    3.00
   6 -36  -2   50.07    3.18
   6  36   2   43.20    4.23
   6  36   2   46.41    2.78
  -6 -36   2   41.69    3.29
   6 -36  -2   56.50    3.33
   6 -36  -2   44.93    2.24
   6  38  -2    5.32    1.33
   6 -38   2    6.60    1.22
   6  38  -2    4.10    1.13
  -6 -38  -2    6.89    1.25
   6 -38   2    4.91    1.21
  -6 -38  -2    4.62    1.00
   6  38   2    5.88    1.05
   6  38   2    6.80    0.99
   6 -38  -2    5.00    1.37
   6 -38  -2    5.93    1.09
   6 -38  -2    5.62    1.14
  -6 -38   2    6.39    1.06
  -6 -38   2    4.66    1.30
   6 -38  -2    3.72    1.19
  -6 -40  -2   38.34    2.44
  -6 -40  -2   45.86    4.59
   6 -40   2   44.65    2.92
   6  40  -2   40.92    3.14
   6 -40   2   39.61    4.33
   6  40  -2   33.39    2.56
   6 -40  -2   40.77    1.95
   6 -40  -2   42.51    2.58
   6  40   2   37.22    2.56
  -6 -40   2   36.43    3.04
  -6 -40   2   47.56    2.64
   6  40   2   36.64    2.46
   6 -40  -2   44.45    2.22
   6 -40  -2   38.43    1.99
   6 -42   2   16.17    1.67
  -6 -42  -2   14.55    1.77
   6  42  -2   13.08    2.92
   6 -42   2   13.19    1.66
   6  42  -2   10.20    1.37
  -6 -42  -2   12.63    1.41
   6 -42  -2   13.77    0.98
  -6 -42   2   13.88    1.42
   6 -42  -2   13.81    1.36
  -6 -42   2   13.50    1.84
   6 -42  -2   15.01    1.14
   6  42   2   13.16    1.38
   6  42   2   11.09    1.41
   6 -42  -2   12.75    1.66
   8   0   2    0.40    0.31
  -8   0  -2    0.50    0.29
  -8   0   2    1.30    0.27
  -8   0  -2    0.10    0.39
   8   0   2    1.36    0.59
   8   0  -2    0.38    0.72
   8   0  -2    1.40    0.34
  -8   0   2    0.27    0.35
   8   2  -2  143.60    5.40
   8  -2   2  143.42    4.88
  -8  -2  -2  144.18    4.82
   8   2  -2  145.91    5.09
  -8   2   2  146.83    5.02
  -8  -2  -2  145.02    5.63
  -8   2   2  140.96    5.17
   8  -2   2  146.99    5.93
  -8   2  -2  144.01    4.80
   8   2   2  143.44    5.77
   8  -2  -2  147.81    4.96
  -8   2  -2  141.35    4.79
   8  -2  -2  142.10    5.22
  -8  -2   2  143.61    4.82
   8   2   2  151.13    8.67
  -8  -2   2  146.81    5.21
  -8   4   2   23.92    0.81
   8  -4   2   24.47    1.04
   8   4  -2   24.22    1.35
  -8   4   2   25.01    0.98
   8   4  -2   23.78    1.17
  -8  -4  -2   24.09    0.97
   8  -4   2   25.52    2.02
  -8  -4  -2   24.11    1.60
   8  -4  -2   24.19    1.14
   8   4   2   26.11    1.99
  -8   4  -2   24.45    1.25
   8  -4  -2   24.62    0.94
   8   4   2   23.48    1.04
  -8  -4   2   23.97    1.04
  -8   4  -2   23.01    0.97
  -8  -4   2   24.77    1.23
  -8   6   2  338.08   13.58
   8   6  -2  321.45   14.13
  -8   6   2  324.93   12.58
  -8  -6  -2  331.79   14.48
   8   6  -2  338.44   14.18
   8  -6   2  334.79   14.01
   8  -6   2  329.22   13.51
  -8  -6  -2  322.27   15.59
  -8  -6   2  326.05   13.56
   8   6   2  326.06   16.94
  -8  -6   2  331.45   14.16
   8   6   2  328.86   13.42
  -8   6  -2  329.92   13.39
   8  -6  -2  352.78   13.92
   8  -6  -2  325.99   13.65
  -8   6  -2  340.38   12.76
   8  -8   2    4.30    0.47
   8  -8   2    5.01    0.52
  -8  -8  -2    5.02    1.18
   8   8  -2    4.17    0.74
  -8   8   2    4.18    0.43
   8   8  -2    4.35    0.63
  -8  -8  -2    4.80    0.82
  -8   8   2    4.26    0.32
  -8   8  -2    4.40    0.38
   8   8   2    3.83    1.26
  -8   8  -2    4.18    0.50
   8  -8  -2    4.04    0.40
   8   8   2    4.27    0.51
  -8  -8   2    4.86    0.60
   8  -8  -2    4.06    0.52
  -8  -8   2    5.36    0.72
  -8  10   2   56.99    1.70
  -8  10   2   59.09    2.48
  -8 -10  -2   63.87    4.25
   8 -10   2   61.34    2.38
   8  10  -2   64.38    2.81
   8 -10   2   59.16    2.19
   8  10  -2   61.95    2.53
  -8 -10  -2   60.22    2.11
   8  10   2   60.75    4.19
  -8  10  -2   58.50    2.11
   8 -10  -2   58.62    2.13
   8  10   2   56.88    2.11
  -8  10  -2   60.78    1.56
   8 -10  -2   60.74    2.41
  -8 -10   2   59.04    2.47
  -8 -10   2   58.96    2.66
  -8  12   2    8.81    0.74
   8 -12   2   10.31    0.46
   8  12  -2    9.04    1.59
  -8  12   2    9.59    0.57
  -8 -12  -2   11.45    2.24
  -8 -12  -2    9.15    0.76
   8 -12   2    9.88    0.80
   8  12  -2    9.94    1.07
  -8 -12   2    9.42    1.64
  -8  12  -2    8.78    0.72
   8  12   2   10.39    2.04
   8  12   2    9.47    0.76
   8 -12  -2    8.72    1.10
  -8  12  -2    9.03    0.23
  -8 -12   2    9.60    1.11
   8 -12  -2    9.34    0.89
   8 -14   2  114.67    4.49
   8 -14   2  120.84    3.75
  -8  14   2  113.25    3.66
  -8 -14  -2  121.07   13.28
   8  14  -2  117.98    5.02
   8  14  -2  111.81    6.76
  -8  14   2  113.56    3.86
  -8 -14  -2  117.80    4.43
   8  14   2  117.67    7.69
   8 -14  -2  108.35    4.01
  -8  14  -2  114.07    4.36
  -8  14  -2  113.78    2.90
  -8 -14   2  114.70    5.06
   8  14   2  111.43    4.26
   8 -14  -2  115.24    4.57
  -8 -14   2  115.90    5.32
   8 -16   2   12.79    1.08
   8 -16   2   12.15    1.01
  -8  16   2   11.71    0.65
   8  16  -2   12.99    1.34
  -8  16   2   13.11    0.72
   8 -16   2   12.39    0.35
  -8 -16  -2   12.66    1.65
   8  16  -2   14.01    1.33
   8  16   2   12.02    2.70
   8 -16  -2   12.60    0.84
  -8 -16   2   11.71    1.51
   8 -16  -2   12.75    0.73
  -8 -16   2   12.29    1.43
   8  16   2   12.06    0.98
   8 -18   2  125.85    5.34
   8 -18   2  127.66    5.56
   8  18  -2  126.82    5.88
  -8 -18  -2  143.52   17.06
   8  18  -2  122.99    5.89
   8 -18   2  147.11    3.99
   8 -18   2  143.20    3.70
  -8 -18  -2  128.73    5.40
   8 -18  -2  129.15    4.66
   8  18   2  125.12    5.11
  -8 -18   2  131.22    6.51
   8  18   2  132.95   14.17
  -8 -18   2  134.22    6.78
   8 -18  -2  120.78    4.73
   8 -18  -2  127.82    4.66
   8 -18  -2  123.60    4.43
   8  20  -2    2.96    0.98
   8  20  -2    3.18    0.94
  -8 -20  -2    4.63    3.63
   8 -20   2    3.02    0.85
   8 -20   2    3.02    0.77
  -8 -20  -2    2.69    1.28
   8 -20  -2    5.27    0.86
   8  20   2    2.87    0.68
  -8 -20   2    3.19    1.20
   8 -20  -2    4.21    0.80
  -8 -20   2    2.46    1.15
   8  20   2    3.53    1.88
   8 -20  -2    2.17    0.95
   8 -20  -2    4.19    0.83
   8 -22   2    2.58    0.79
   8  22  -2    1.40    0.83
  -8 -22  -2    1.08    1.61
  -8 -22  -2    2.96    0.68
   8  22  -2    1.47    0.90
   8 -22   2    0.77    0.69
   8  22   2    0.83    0.60
   8 -22  -2    2.35    0.77
   8 -22  -2    1.58    0.50
   8  22   2    1.47    1.50
   8 -22  -2    1.32    0.75
  -8 -22   2    1.26    1.06
  -8 -22   2    1.10    1.06
   8 -22  -2    1.32    0.47
   8 -24   2   65.56    3.66
   8 -24   2   64.77    3.42
   8  24  -2   69.94    3.96
  -8 -24  -2   68.33    3.28
  -8 -24  -2   74.15    5.67
   8  24  -2   64.34    3.58
  -8 -24   2   71.37    4.51
   8 -24  -2   66.17    2.75
   8 -24  -2   64.70    2.71
   8 -24  -2   70.06    3.61
  -8 -24   2   67.62    4.51
   8 -24  -2   62.02    2.63
   8  24   2   63.83    8.23
   8  24   2   63.43    4.14
   8  26  -2   16.61    1.70
   8  26  -2   18.06    1.90
  -8 -26  -2   20.94    2.57
   8 -26   2   17.32    1.62
  -8 -26  -2   17.82    1.48
   8 -26   2   18.11    1.80
   8 -26  -2   18.44    1.21
   8  26   2   18.03    2.53
  -8 -26   2   19.83    2.19
   8 -26  -2   17.87    1.19
  -8 -26   2   16.84    2.25
   8  26   2   16.83    1.29
   8 -26  -2   16.40    1.10
   8 -26  -2   19.39    1.84
  -8 -28  -2   12.98    2.18
   8 -28   2   11.84    1.54
   8  28  -2   13.30    1.76
   8  28  -2   11.77    1.58
  -8 -28  -2   15.46    2.13
   8 -28   2   12.99    1.75
   8 -28  -2   14.40    1.81
   8 -28  -2   13.56    1.16
   8  28   2   12.89    1.18
   8  28   2   11.06    2.12
   8 -28  -2   13.05    1.54
  -8 -28   2   14.12    1.96
   8 -28  -2   13.68    1.12
  -8 -28   2   14.33    2.11
   8  30  -2   60.36    4.08
   8 -30   2   58.31    4.05
  -8 -30  -2   61.37    4.32
   8  30  -2   56.06    3.55
   8 -30   2   57.86    3.59
  -8 -30  -2   56.19    3.15
  -8 -30   2   69.29    4.29
   8 -30  -2   58.17    3.12
   8 -30  -2   62.04    3.06
   8  30   2   56.07    4.19
   8 -30  -2   52.73    3.40
   8  30   2   55.20    2.87
   8 -30  -2   55.88    2.79
  -8 -30   2   55.52    4.21
   8  32  -2    3.59    1.71
   8 -32   2    1.84    1.23
   8  32  -2    1.72    1.18
  -8 -32  -2    2.33    1.20
   8 -32   2    2.30    1.72
  -8 -32  -2    2.63    0.85
  -8 -32   2    2.42    1.20
   8 -32  -2    2.38    1.18
   8  32   2    2.48    1.12
   8  32   2    1.50    0.79
   8 -32  -2    2.04    0.83
  -8 -32   2    2.16    1.09
   8 -32  -2    1.88    0.94
   8 -32  -2    2.21    0.98
   8  34  -2   22.23    2.32
   8 -34   2   24.93    2.73
   8 -34   2   19.64    2.21
   8  34  -2   21.03    2.49
  -8 -34  -2   24.68    3.83
  -8 -34  -2   20.65    1.85
  -8 -34   2   19.06    2.36
   8 -34  -2   22.50    2.31
   8  34   2   20.03    2.22
  -8 -34   2   22.85    2.18
   8 -34  -2   23.71    1.87
   8 -34  -2   21.88    2.09
   8 -34  -2   20.92    1.56
   8  34   2   18.71    1.82
   8 -36   2   53.90    4.04
   8 -36   2   47.51    5.24
  -8 -36  -2   46.54    3.01
  -8 -36  -2   55.03    3.76
   8  36  -2   51.77    3.89
   8  36  -2   48.29    3.84
   8 -36  -2   60.16    4.53
  -8 -36   2   59.43    3.53
   8 -36  -2   54.71    2.92
   8 -36  -2   47.97    2.52
   8  36   2   47.20    3.49
  -8 -36   2   45.00    3.68
   8  36   2   47.02    4.45
   8 -38   2   19.67    2.22
   8 -38   2   17.82    2.13
   8  38  -2   15.32    2.06
  -8 -38  -2   19.14    2.14
  -8 -38  -2   15.71    1.68
   8  38  -2   18.60    2.24
   8 -38  -2   19.94    1.40
  -8 -38   2   19.32    1.90
   8 -38  -2   18.66    2.34
   8  38   2   16.48    1.76
   8 -38  -2   16.18    1.30
  -8 -38   2   16.97    2.19
   8 -38  -2   17.23    1.74
   8  38   2   17.21    1.90
   8  40  -2   13.10    1.87
   8 -40   2   18.07    2.03
   8  40  -2   13.86    2.12
  -8 -40  -2   15.91    2.03
   8 -40   2   14.83    2.98
  -8 -40  -2   14.05    1.61
   8 -40  -2   17.17    1.85
   8 -40  -2   16.69    1.86
  -8 -40   2   17.01    1.75
   8 -40  -2   15.27    1.05
   8 -40  -2   14.46    1.19
   8  40   2   13.58    2.68
   8  40   2   13.45    1.63
  -8 -40   2   11.66    2.04
  10   0   2  265.81   12.43
 -10   0  -2  272.67   10.82
 -10   0  -2  265.72   10.94
  10   0   2  271.13   10.87
  10   0  -2  283.32   12.70
 -10   0   2  275.16   12.48
 -10   0   2  260.49   10.24
  10   0  -2  272.50   11.77
 -10  -2  -2    3.26    0.51
 -10  -2  -2    2.98    0.70
  10  -2   2    3.98    0.84
 -10   2   2    4.67    0.46
  10   2  -2    3.75    0.79
  10   2  -2    3.77    0.61
 -10   2   2    3.89    0.56
  10  -2   2    4.81    0.58
 -10   2  -2    3.80    0.51
  10  -2  -2    4.01    0.69
  10   2   2    4.28    1.01
 -10   2  -2    3.97    0.51
 -10  -2   2    3.71    0.49
  10  -2  -2    3.67    0.94
  10   2   2    3.66    0.58
 -10  -2   2    4.18    0.64
  10  -4   2   10.41    0.78
 -10   4   2    9.82    0.58
  10   4  -2    9.50    1.09
 -10  -4  -2    8.24    0.71
 -10   4   2   10.19    0.72
 -10  -4  -2    8.39    1.09
  10  -4   2   10.67    1.07
  10   4  -2    9.48    0.87
  10  -4  -2    8.38    0.90
 -10   4  -2   12.10    0.76
 -10   4  -2    8.21    0.57
  10   4   2   10.10    0.80
  10  -4  -2    8.60    1.17
 -10  -4   2   10.73    0.92
  10   4   2   10.10    1.46
 -10  -4   2    9.67    0.75
 -10  -6  -2    1.72    0.45
  10  -6   2    1.84    0.48
 -10   6   2    1.23    0.32
  10   6  -2    1.64    0.56
 -10  -6  -2    2.34    0.80
  10   6  -2    1.43    0.69
  10  -6   2    1.34    0.94
 -10   6   2    1.19    0.40
  10   6   2    1.33    0.98
 -10   6  -2    1.39    0.42
 -10   6  -2    1.86    0.29
  10  -6  -2    1.65    0.72
 -10  -6   2    1.40    0.62
  10  -6  -2    1.69    0.90
  10   6   2    1.21    0.49
 -10  -6   2    1.28    0.49
  10  -8   2  114.65    4.32
 -10  -8  -2  112.27    4.16
 -10   8   2  111.18    3.70
  10   8  -2   99.78    4.77
 -10  -8  -2  116.83    8.45
  10  -8   2  116.59    4.35
 -10   8   2  113.69    4.82
  10   8  -2  118.12    4.74
  10   8   2  114.37    6.53
 -10   8  -2  112.28    4.10
 -10  -8   2  115.60    4.90
  10   8   2  112.05    4.27
  10  -8  -2  111.81    4.36
  10  -8  -2  116.53    5.00
 -10  -8   2  110.38    4.39
 -10   8  -2  114.08    3.38
 -10 -10  -2   14.18    1.64
 -10 -10  -2   15.44    2.16
 -10  10   2   14.83    0.71
  10  10  -2   14.68    1.28
 -10  10   2   14.76    1.26
  10  10  -2   13.45    1.49
  10 -10   2   15.55    0.92
  10 -10   2   15.17    1.07
 -10 -10   2   14.12    1.42
  10 -10  -2   13.91    1.01
  10 -10  -2   14.89    0.86
  10  10   2   14.30    1.08
 -10  10  -2   15.11    0.96
  10  10   2   15.99    2.28
 -10  10  -2   14.52    0.48
 -10 -10   2   14.17    1.19
 -10  12   2  114.98    4.55
  10 -12   2  120.13    4.08
  10  12  -2  118.22    5.60
 -10 -12  -2  122.08    7.79
  10  12  -2  119.81    5.06
 -10 -12  -2  117.16    4.57
  10 -12   2  120.23    4.72
 -10  12   2  118.27    4.08
  10 -12  -2  109.79    4.37
  10  12   2  116.02    4.70
  10  12   2  117.27    7.45
 -10  12  -2  115.95    5.59
 -10 -12   2  117.89    5.56
 -10  12  -2  118.83    3.25
 -10 -12   2  113.12    4.98
  10 -12  -2  118.46    4.22
  10  14  -2   15.93    1.34
  10 -14   2   14.14    1.08
 -10 -14  -2   13.81    1.09
 -10 -14  -2   15.35    2.83
 -10  14   2   12.75    0.76
  10  14  -2   12.30    1.51
 -10  14   2   13.79    0.69
  10 -14   2   13.26    1.11
  10 -14  -2   13.31    0.83
 -10  14  -2   13.32    0.36
 -10 -14   2   13.29    1.31
 -10  14  -2   12.20    1.00
  10  14   2   15.41    2.53
  10  14   2   12.42    1.12
  10 -14  -2   13.76    0.98
 -10 -14   2   12.77    2.63
  10 -16   2   17.75    1.04
  10  16  -2   17.76    1.75
  10 -16   2   16.61    1.32
 -10 -16  -2   21.50    3.49
 -10 -16  -2   18.40    1.29
 -10  16   2   16.22    0.82
 -10  16   2   16.31    0.85
  10  16  -2   18.53    1.57
 -10  16  -2   17.82    0.41
  10  16   2   15.35    1.26
 -10 -16   2   17.53    1.67
  10 -16  -2   17.77    0.97
 -10 -16   2   16.17    1.88
  10 -16  -2   16.81    1.72
  10  16   2   17.61    4.87
 -10  16  -2   17.47    1.21
  10  18  -2    3.51    0.91
  10 -18   2    3.10    0.43
  10 -18   2    2.61    0.23
 -10  18   2    2.46    0.44
 -10  18   2    3.11    0.45
  10  18  -2    3.26    0.95
  10 -18   2    2.08    0.67
 -10 -18  -2    2.58    0.72
 -10 -18  -2    3.01    2.28
  10 -18   2    2.90    0.77
  10  18   2    2.61    1.78
  10 -18  -2    3.18    0.57
 -10 -18   2    2.93    1.14
  10  18   2    2.34    0.69
 -10 -18   2    2.40    1.00
  10 -18  -2    3.66    0.52
 -10 -20  -2   20.46    3.98
  10  20  -2   15.31    1.59
  10 -20   2   14.62    0.52
  10 -20   2   13.21    1.18
  10 -20   2   13.55    2.18
  10 -20   2   14.92    0.56
 -10 -20  -2   14.69    1.27
  10  20  -2   16.15    2.67
  10 -20  -2   13.82    0.83
 -10 -20   2   14.25    1.74
  10  20   2   15.63    3.02
  10  20   2   14.13    1.19
  10 -20  -2   14.69    0.94
  10 -20  -2   13.76    0.98
 -10 -20   2   14.66    1.98
  10 -22   2   34.57    2.16
  10 -22   2   32.69    2.84
  10  22  -2   34.17    2.39
 -10 -22  -2   39.83    5.02
 -10 -22  -2   35.89    2.05
  10  22  -2   33.99    2.46
  10  22   2   36.71    6.88
  10  22   2   34.21    1.87
  10 -22  -2   36.43    1.62
  10 -22  -2   33.08    2.26
 -10 -22   2   35.49    4.77
  10 -22  -2   35.15    1.49
 -10 -22   2   33.86    2.69
  10 -22  -2   36.81    1.43
  10  24  -2   59.37    4.87
  10 -24   2   54.58    2.83
 -10 -24  -2   67.02    5.70
  10 -24   2   55.13    3.07
  10  24  -2   54.76    3.30
 -10 -24  -2   57.92    2.90
 -10 -24   2   59.93    6.27
  10  24   2   55.82    2.59
  10  24   2   55.73    5.18
  10 -24  -2   57.18    2.31
  10 -24  -2   60.04    2.19
 -10 -24   2   58.80    3.74
  10 -24  -2   53.41    2.22
  10 -24  -2   57.61    2.37
  10 -26   2   12.45    1.51
 -10 -26  -2   14.36    2.58
  10  26  -2   13.65    1.59
  10 -26   2   12.30    1.30
  10  26  -2   12.62    1.55
 -10 -26  -2   11.68    1.30
  10 -26  -2   12.78    0.98
  10 -26  -2   13.63    0.92
  10 -26  -2   12.59    0.83
 -10 -26   2   13.99    2.05
  10  26   2   10.95    1.14
  10  26   2   12.28    2.42
 -10 -26   2   12.05    1.87
  10 -26  -2   10.64    0.88
 -10 -28  -2    7.99    1.11
  10 -28   2    7.16    1.39
  10  28  -2    7.04    1.39
  10 -28   2    7.92    1.19
 -10 -28  -2    8.15    2.08
  10  28  -2    7.82    1.38
  10  28   2    7.91    2.02
  10 -28  -2    7.87    0.90
 -10 -28   2    8.32    1.81
  10 -28  -2    8.54    0.76
  10 -28  -2    7.10    0.84
 -10 -28   2    8.18    1.68
  10  28   2    7.31    0.95
  10 -28  -2    6.63    0.75
  10 -30   2    3.29    2.09
  10  30  -2    5.52    1.26
  10 -30   2    3.47    1.07
 -10 -30  -2    5.98    1.62
 -10 -30  -2    3.90    1.64
  10  30  -2    1.91    1.97
  10 -30  -2    4.43    0.64
  10 -30  -2    4.06    1.36
 -10 -30   2    4.25    1.49
  10  30   2    3.38    0.82
 -10 -30   2    3.56    1.55
  10  30   2    3.19    1.63
  10 -30  -2    4.91    0.71
  10 -30  -2    3.19    1.22
  10  32  -2    3.52    1.28
  10 -32   2    3.30    1.39
  10  32  -2    4.27    1.35
  10 -32   2    3.39    1.15
 -10 -32  -2    5.14    1.56
 -10 -32  -2    4.45    1.03
  10 -32  -2    4.24    0.95
  10 -32  -2    5.18    0.82
 -10 -32   2    5.01    1.49
 -10 -32   2    4.27    1.53
  10 -32  -2    3.24    0.82
  10  32   2    4.67    1.52
  10  32   2    4.24    0.91
  10 -32  -2    5.01    1.04
  10  34  -2   10.34    1.93
 -10 -34  -2   15.57    2.13
  10  34  -2   11.47    2.03
 -10 -34  -2   12.50    1.53
  10 -34   2   13.92    2.16
  10 -34   2   11.21    1.72
  10 -34  -2   11.73    1.49
 -10 -34   2   12.62    2.10
  10 -34  -2   13.61    1.34
  10  34   2   11.77    1.36
  10 -34  -2   12.12    1.24
  10 -34  -2   11.21    1.57
 -10 -34   2   13.24    3.20
  10  34   2    9.11    2.08
 -10 -36  -2   32.58    3.10
  10 -36   2   31.96    3.52
  10  36  -2   30.10    3.20
  10  36  -2   34.28    5.17
 -10 -36  -2   28.81    2.42
  10 -36   2   29.23    2.76
  10 -36  -2   31.28    2.90
 -10 -36   2   28.04    3.03
  10 -36  -2   29.48    2.01
  10  36   2   29.17    2.33
  10 -36  -2   35.70    2.28
  10  36   2   29.53    2.93
  10 -36  -2   31.51    2.35
 -10 -36   2   34.25    4.43
  10 -38   2   16.95    2.61
 -10 -38  -2   19.39    2.41
  10  38  -2   17.60    2.55
  10  38  -2   17.53    2.52
  10 -38   2   16.67    2.28
 -10 -38  -2   16.14    1.86
  10 -38  -2   18.37    2.61
 -10 -38   2   20.04    2.12
  10  38   2   15.16    1.90
  10 -38  -2   17.28    1.52
  10 -38  -2   17.70    1.14
  10  38   2   17.43    3.49
  10 -38  -2   19.53    1.52
 -10 -38   2   14.79    2.42
 -12   0  -2    0.85    0.43
 -12   0  -2   -0.07    0.48
  12   0  -2    0.35    0.88
  12   0  -2    1.12    0.64
 -12   0   2    0.44    0.39
  12   0   2    1.03    0.51
  12   0   2    0.16    1.28
 -12   0   2   -0.17    0.82
 -12  -2  -2  211.92    8.53
  12   2  -2  222.36    9.27
 -12  -2  -2  211.65    9.24
  12   2  -2  209.78    9.69
 -12   2   2  212.08    8.23
  12  -2   2  219.73   10.39
  12  -2   2  215.38    8.86
 -12   2   2  220.26    8.90
 -12   2  -2  208.81    8.41
  12  -2  -2  220.16    8.97
  12   2   2  220.27    9.04
 -12  -2   2  210.11    8.38
  12  -2  -2  216.25    9.71
 -12   2  -2  204.73    8.17
 -12  -2   2  222.82    9.34
  12   2   2  215.09   10.86
 -12  -4  -2   17.51    1.51
  12   4  -2   18.29    1.34
  12   4  -2   16.66    1.65
  12  -4   2   18.84    1.54
 -12  -4  -2   17.77    1.12
  12  -4   2   18.76    1.23
 -12   4   2   16.82    0.92
 -12   4   2   17.94    1.08
 -12   4  -2   16.61    0.89
  12  -4  -2   17.51    2.31
 -12  -4   2   17.06    1.35
  12  -4  -2   19.42    1.21
 -12  -4   2   17.24    1.11
  12   4   2   18.07    1.25
 -12   4  -2   17.76    1.08
  12   4   2   15.63    2.05
 -12  -6  -2   36.62    2.45
 -12   6   2   34.95    1.41
 -12  -6  -2   36.81    1.74
  12   6  -2   37.95    3.78
  12  -6   2   37.09    3.20
  12  -6   2   35.24    2.77
 -12   6   2   36.33    1.60
  12   6  -2   37.86    2.07
  12  -6  -2   36.62    2.01
 -12   6  -2   35.55    2.41
  12   6   2   34.70    2.83
 -12   6  -2   35.72    1.28
  12  -6  -2   38.23    1.77
 -12  -6   2   35.11    1.78
 -12  -6   2   36.22    2.08
  12   6   2   39.51    3.12
 -12  -8  -2   12.51    1.02
 -12   8   2   11.57    0.74
 -12  -8  -2   13.04    1.68
 -12   8   2   12.98    0.84
  12   8  -2   11.49    1.51
  12   8  -2   12.71    1.25
  12  -8   2   13.81    1.14
  12  -8   2   12.72    1.08
 -12  -8   2   12.37    1.10
  12   8   2   12.84    2.03
  12  -8  -2   12.18    0.96
 -12   8  -2   11.20    0.94
  12   8   2   12.74    1.09
 -12   8  -2   12.21    0.58
  12  -8  -2   11.68    1.14
 -12  -8   2   12.97    1.38
 -12  10   2  462.37   21.71
 -12 -10  -2  458.02   30.63
  12  10  -2  466.03   24.89
  12 -10   2  483.46   23.92
  12  10  -2  484.05   24.49
 -12  10   2  493.54   23.28
  12 -10   2  479.86   23.38
 -12 -10  -2  473.38   23.25
 -12 -10   2  474.53   24.70
  12  10   2  465.49   28.17
 -12  10  -2  463.00   22.63
 -12  10  -2  459.57   20.18
 -12 -10   2  466.20   23.41
  12 -10  -2  453.28   22.75
  12  10   2  472.81   23.40
  12 -10  -2  501.68   25.71
 -12 -12  -2    4.39    0.80
  12 -12   2    5.85    0.67
 -12  12   2    5.19    0.54
 -12  12   2    5.25    0.56
 -12 -12  -2    6.30    1.66
  12 -12   2    6.43    0.92
  12  12  -2    5.17    1.02
  12  12  -2    8.35    1.23
  12  12   2    5.62    1.78
 -12 -12   2    6.27    1.15
 -12 -12   2    5.61    1.55
 -12  12  -2    4.71    0.72
 -12 -12   2    4.26    1.55
 -12  12  -2    4.96    0.31
  12  12   2    5.26    0.86
  12 -12  -2    4.55    0.77
  12 -12  -2    4.18    0.69
  12 -14   2  210.00    9.17
  12  14  -2  213.11    9.58
 -12  14   2  212.05    8.19
  12  14  -2  208.79   10.33
 -12 -14  -2  200.55   12.61
  12 -14   2  215.77    8.26
 -12 -14  -2  218.52    9.24
 -12  14   2  200.71    7.83
  12  14   2  206.06    8.99
 -12  14  -2  206.71    8.68
  12 -14  -2  203.32    8.62
 -12  14  -2  215.04    7.01
 -12 -14   2  210.82   10.42
 -12 -14   2  205.91    9.42
  12  14   2  200.38   12.39
  12 -14  -2  215.45    8.60
 -12 -16  -2    9.66    1.03
  12 -16   2   10.70    0.67
 -12  16   2   10.18    0.68
 -12  16   2   10.21    0.68
 -12 -16  -2   11.76    2.61
  12  16  -2    9.86    1.31
  12  16  -2   10.24    1.52
  12 -16   2    9.89    1.13
 -12 -16   2    9.95    1.60
  12  16   2    9.70    2.35
  12 -16  -2   10.30    1.52
 -12  16  -2   10.38    0.34
 -12  16  -2   10.43    1.58
  12  16   2   11.31    1.11
 -12 -16   2   11.14    1.33
  12 -16  -2    9.98    0.85
 -12 -18  -2  200.19   13.62
 -12  18   2  187.51    7.26
 -12  18   2  192.92    7.27
  12  18  -2  180.33    9.12
  12  18  -2  193.73    8.97
  12 -18   2  205.97    7.07
 -12 -18  -2  191.27    8.32
  12 -18   2  191.66    8.42
  12  18   2  190.24   16.34
 -12  18  -2  191.73    6.15
 -12  18  -2  185.72    7.97
  12 -18  -2  191.51    7.65
 -12 -18   2  195.06   12.89
 -12 -18   2  183.11    8.77
  12  18   2  187.90    8.13
  12 -18  -2  174.65    7.37
 -12 -20  -2   13.58    3.26
  12  20  -2   12.25    1.42
  12 -20   2   13.37    0.49
  12 -20   2   12.68    0.44
 -12  20   2   11.99    0.77
  12 -20   2   11.36    1.08
 -12  20   2   13.33    0.72
 -12 -20  -2   12.75    1.18
  12  20  -2   11.64    2.54
  12 -20   2   12.00    1.25
  12 -20  -2   12.42    1.42
  12  20   2   10.56    2.52
 -12 -20   2   13.08    1.82
 -12 -20   2   12.13    1.50
  12  20   2   12.44    1.83
  12 -20  -2   10.81    0.92
  12 -22   2   58.25    2.88
  12 -22   2   64.64    1.56
  12 -22   2   61.15    3.17
  12 -22   2   68.68    1.88
 -12 -22  -2   64.13    4.31
  12  22  -2   63.08    3.69
  12  22  -2   61.95    3.48
 -12 -22  -2   71.35    7.14
 -12 -22   2   62.10    4.34
  12 -22  -2   64.76    2.27
  12 -22  -2   58.83    3.35
  12 -22  -2   59.37    2.34
  12 -22  -2   63.91    2.61
  12  22   2   60.29    2.87
 -12 -22   2   62.23    3.66
  12  22   2   62.22    5.76
  12 -24   2    6.11    1.10
  12 -24   2    7.18    0.94
  12  24  -2    6.66    1.32
  12  24  -2    6.24    1.21
 -12 -24  -2    5.27    1.03
 -12 -24  -2    7.38    2.80
  12 -24  -2    6.69    0.76
  12  24   2    6.06    0.94
  12 -24  -2    5.89    0.66
  12  24   2    8.71    3.92
 -12 -24   2    6.91    1.65
 -12 -24   2    7.26    2.27
  12 -24  -2    7.36    0.57
  12 -24  -2    6.10    0.71
 -12 -26  -2  393.77   25.58
  12  26  -2  347.90   19.50
  12  26  -2  363.90   19.18
  12 -26   2  358.04   19.03
  12 -26   2  340.81   17.83
 -12 -26  -2  364.87   18.53
  12 -26  -2  364.71   17.62
  12 -26  -2  362.90   19.29
  12  26   2  352.27   23.93
  12  26   2  341.40   16.99
 -12 -26   2  359.08   19.89
 -12 -26   2  379.81   22.09
  12 -26  -2  329.09   15.94
  12 -26  -2  345.70   16.63
 -12 -28  -2   11.97    2.42
  12 -28   2    8.80    1.41
  12 -28   2    8.60    1.17
  12  28  -2    8.41    1.54
  12  28  -2    8.63    1.44
 -12 -28  -2    8.23    1.22
  12 -28  -2    7.27    0.94
  12 -28  -2    7.54    0.79
  12 -28  -2    8.55    0.84
  12 -28  -2    8.71    1.10
  12  28   2    5.41    1.10
 -12 -28   2    9.94    1.64
  12  28   2    7.54    2.29
 -12 -28   2    9.43    1.97
 -12 -30  -2    1.06    0.84
  12 -30   2    2.07    1.04
 -12 -30  -2    1.30    1.55
  12 -30   2    2.52    0.84
  12  30  -2    3.12    1.12
  12  30  -2    2.61    1.04
  12 -30  -2    2.29    0.99
  12 -30  -2    1.70    0.69
  12  30   2    1.42    1.55
 -12 -30   2    3.03    1.22
  12 -30  -2    1.95    0.52
  12 -30  -2    2.66    0.82
  12  30   2    2.27    0.73
 -12 -30   2    1.31    1.40
  12 -32   2   10.17    1.85
  12  32  -2   10.81    1.86
  12  32  -2   11.97    1.81
  12 -32   2   10.50    1.52
 -12 -32  -2   10.67    2.37
 -12 -32  -2   13.30    2.36
  12 -32  -2   11.01    1.29
  12 -32  -2   12.38    1.54
 -12 -32   2   12.37    2.26
  12  32   2   10.92    2.34
  12 -32  -2   11.43    1.12
 -12 -32   2   12.41    2.13
  12  32   2   11.05    1.25
  12 -32  -2   10.82    0.91
  12  34  -2   30.52    3.20
 -12 -34  -2   34.58    3.63
  12 -34   2   32.14    4.01
  12  34  -2   29.32    3.01
  12 -34   2   34.93    3.27
 -12 -34  -2   30.32    2.51
  12  34   2   31.27    3.53
 -12 -34   2   36.23    3.40
  12 -34  -2   30.74    2.08
  12  34   2   30.31    2.24
  12 -34  -2   35.08    2.87
  12 -34  -2   31.03    2.38
  12 -34  -2   29.80    1.63
 -12 -34   2   31.63    3.45
 -12 -36  -2    5.66    1.86
  12  36  -2    6.48    1.81
  12  36  -2    6.75    1.75
  12 -36   2    4.59    1.46
 -12 -36  -2    6.52    1.34
  12 -36   2    6.31    1.95
  12 -36  -2    4.25    2.25
  12 -36  -2    5.53    0.76
  12 -36  -2    6.40    1.05
  12  36   2    5.63    1.81
  12 -36  -2    5.05    1.66
  12  36   2    6.38    1.19
 -12 -36   2    8.33    1.73
 -12 -36   2    5.36    1.83
 -14   0  -2  470.22   23.53
 -14   0  -2  472.95   23.83
  14   0  -2  501.40   25.09
  14   0   2  490.86   30.95
 -14   0   2  469.94   24.94
  14   0  -2  468.88   28.37
 -14   0   2  492.82   24.58
  14   0   2  490.63   27.21
 -14   2   2   19.99    1.15
  14  -2   2   22.74    1.49
  14   2  -2   15.50    1.77
 -14  -2  -2   17.55    1.40
 -14  -2  -2   18.09    1.99
  14   2  -2   16.67    1.51
 -14   2   2   17.24    1.28
  14  -2   2   16.80    1.90
 -14   2  -2   17.44    1.10
 -14   2  -2   20.84    1.27
  14  -2  -2   20.58    1.41
  14  -2  -2   18.04    1.73
 -14  -2   2   17.11    1.18
 -14  -2   2   17.83    1.38
  14   2   2   18.24    1.46
  14   2   2   16.71    2.03
 -14  -4  -2   22.38    1.36
 -14   4   2   21.33    1.12
 -14  -4  -2   22.71    1.68
  14  -4   2   22.24    1.86
  14  -4   2   22.49    1.51
  14   4  -2   23.23    1.62
  14   4  -2   23.17    3.18
 -14   4   2   22.72    1.26
 -14   4  -2   20.93    1.04
  14   4   2   22.15    1.53
 -14   4  -2   20.94    1.31
  14  -4  -2   18.70    1.71
 -14  -4   2   20.28    1.33
  14  -4  -2   23.44    1.44
 -14  -4   2   22.44    2.53
  14   4   2   21.55    2.33
 -14  -6  -2    4.54    0.71
 -14   6   2    4.10    0.53
  14   6  -2    3.29    1.05
  14   6  -2    3.12    0.87
  14  -6   2    4.11    0.89
  14  -6   2    3.87    1.32
 -14  -6  -2    3.26    0.97
 -14   6   2    3.29    0.59
 -14   6  -2    3.59    0.64
  14  -6  -2    3.17    0.89
  14   6   2    3.11    0.80
  14  -6  -2    3.55    0.71
 -14   6  -2    2.66    0.44
 -14  -6   2    3.69    0.90
  14   6   2    3.08    1.33
 -14  -6   2    3.20    0.71
 -14   8   2  131.92    4.99
 -14  -8  -2  135.81    6.88
  14   8  -2  131.93    6.67
 -14   8   2  138.83    5.23
  14  -8   2  139.99    7.87
  14   8  -2  143.06    8.19
 -14  -8  -2  136.03    5.61
  14  -8   2  140.50    5.90
  14   8   2  140.99    7.97
 -14   8  -2  136.08    5.53
  14   8   2  136.51    5.87
  14  -8  -2  136.28    6.12
 -14  -8   2  134.77    5.69
  14  -8  -2  142.40    5.70
 -14  -8   2  141.22    8.41
 -14   8  -2  133.40    4.52
 -14 -10  -2   35.15    1.87
 -14  10   2   33.76    1.43
 -14 -10  -2   35.47    2.78
 -14  10   2   34.87    1.48
  14 -10   2   35.41    1.97
  14  10  -2   36.20    2.22
  14 -10   2   36.21    2.83
  14  10  -2   33.69    2.63
  14  10   2   34.89    3.31
  14 -10  -2   33.73    1.95
 -14 -10   2   34.24    2.36
  14  10   2   33.47    2.03
 -14  10  -2   35.07    1.75
 -14  10  -2   33.66    1.10
  14 -10  -2   36.72    1.79
 -14 -10   2   33.71    2.00
 -14 -12  -2  178.61    9.05
  14 -12   2  179.07    7.75
  14 -12   2  185.27    7.52
 -14  12   2  170.51    6.62
  14  12  -2  175.66    8.72
 -14  12   2  178.66    7.71
  14  12  -2  183.28    8.24
 -14 -12  -2  175.36    9.62
 -14 -12   2  177.02    8.45
  14  12   2  179.77   10.61
  14 -12  -2  168.60    7.40
 -14  12  -2  173.37    7.19
 -14  12  -2  177.17    6.42
  14  12   2  178.45    7.71
 -14 -12   2  175.87    7.78
  14 -12  -2  183.93    7.42
  14 -14   2    6.33    0.88
  14 -14   2    5.92    0.69
  14  14  -2    6.03    1.21
 -14  14   2    5.72    0.55
 -14 -14  -2    4.93    1.64
 -14  14   2    4.97    0.87
  14  14  -2    6.23    1.03
 -14 -14  -2    5.98    0.85
  14  14   2    5.73    1.72
  14  14   2    4.91    0.89
 -14 -14   2    6.21    0.96
 -14  14  -2    4.97    0.74
  14 -14  -2    5.92    1.31
  14 -14  -2    5.55    0.70
 -14 -14   2    7.18    2.02
 -14  14  -2    5.48    0.31
 -14  16   2   31.05    1.33
  14  16  -2   33.04    2.45
 -14 -16  -2   30.68    3.63
 -14  16   2   32.79    1.80
  14  16  -2   35.49    2.17
  14 -16   2   34.39    1.44
  14 -16   2   34.02    1.95
 -14 -16  -2   33.13    1.86
  14 -16  -2   33.09    1.70
  14  16   2   32.93    3.54
 -14  16  -2   33.16    0.88
  14  16   2   31.95    1.88
 -14 -16   2   33.28    2.59
 -14  16  -2   32.64    1.70
 -14 -16   2   30.62    2.04
  14 -16  -2   33.59    1.60
 -14 -18  -2    2.67    1.56
 -14  18   2    1.63    0.60
  14  18  -2    1.81    0.80
  14  18  -2    1.85    0.95
  14 -18   2    1.35    1.12
 -14  18   2    1.88    0.41
  14 -18   2    2.11    0.37
 -14 -18  -2    1.99    0.65
 -14  18  -2    1.51    0.17
  14  18   2    1.63    1.47
 -14 -18   2    1.24    1.33
 -14  18  -2    1.72    0.59
 -14 -18   2    1.55    1.01
  14 -18  -2    2.30    0.56
  14 -18  -2    1.97    0.52
  14  18   2    1.25    0.67
 -14 -18   2    1.40    1.34
 -14 -20  -2   13.62    1.26
  14 -20   2   13.56    1.36
 -14  20   2   14.08    1.12
  14 -20   2   15.32    0.93
  14  20  -2   14.25    1.52
 -14  20   2   12.51    0.84
 -14 -20  -2   19.22    3.15
  14  20  -2   12.96    1.72
 -14 -20   2   14.50    1.94
 -14 -20   2   12.93    1.54
  14  20   2   14.86    4.34
 -14  20  -2    9.62    1.09
  14  20   2   12.94    1.24
  14 -20  -2   13.60    1.62
  14 -20  -2   14.15    1.03
 -14 -22  -2   53.10    4.09
 -14 -22  -2   54.09    6.33
  14 -22   2   53.44    1.30
  14  22  -2   54.63    3.21
  14 -22   2   51.67    2.62
  14 -22   2   58.51    1.62
  14  22  -2   51.43    3.57
  14 -22   2   54.98    3.05
  14 -22  -2   50.43    1.88
  14  22   2   53.75    5.33
  14  22   2   51.83    2.68
  14 -22  -2   54.00    2.41
 -14 -22   2   52.62    3.33
  14 -22  -2   47.89    2.27
 -14 -22   2   55.68    4.11
 -14 -24  -2   65.02    3.41
  14 -24   2   64.30    3.51
 -14 -24  -2   66.91    7.63
  14  24  -2   62.96    4.08
  14 -24   2   59.39    1.67
  14 -24   2   59.75    3.08
  14  24  -2   65.21    3.79
  14 -24   2   66.17    1.64
  14  24   2   61.19    4.41
  14 -24  -2   60.58    2.68
  14 -24  -2   64.50    2.91
  14  24   2   64.97    6.28
  14 -24  -2   60.26    3.29
 -14 -24   2   68.09    7.15
  14 -24  -2   63.47    2.87
 -14 -24   2   65.55    3.97
  14 -26   2    4.25    1.15
  14  26  -2    6.14    1.39
  14 -26   2    5.62    1.52
 -14 -26  -2    6.13    2.76
 -14 -26  -2    5.22    1.06
  14  26  -2    5.34    1.22
  14 -26  -2    5.59    0.83
 -14 -26   2    6.52    2.94
  14 -26  -2    5.69    0.54
  14 -26  -2    5.77    0.71
 -14 -26   2    4.92    2.30
  14 -26  -2    5.30    0.68
  14  26   2    5.75    2.31
  14  26   2    5.18    0.96
  14 -28   2    7.46    1.16
  14 -28   2    9.33    1.42
 -14 -28  -2   10.26    1.30
 -14 -28  -2   10.66    2.80
  14  28  -2    8.78    1.52
  14  28  -2    8.61    1.70
 -14 -28   2   10.27    2.18
  14 -28  -2    9.81    1.65
  14  28   2    8.99    1.14
  14 -28  -2    8.96    0.85
  14 -28  -2    8.89    0.68
 -14 -28   2   10.44    1.67
  14 -28  -2    8.13    0.86
  14  28   2   10.34    2.58
 -14 -30  -2    2.34    1.66
  14  30  -2    1.48    1.13
  14 -30   2    1.27    0.78
  14  30  -2    1.24    0.97
  14 -30   2    0.87    0.97
 -14 -30  -2    1.13    0.83
  14 -30  -2    1.01    0.67
  14 -30  -2    1.29    0.56
 -14 -30   2    2.16    1.45
  14  30   2    1.16    1.56
  14 -30  -2    1.16    0.51
  14 -30  -2    1.37    0.43
  14  30   2    1.61    1.21
 -14 -30   2    2.06    1.13
  14 -32   2    6.35    1.66
  14  32  -2    6.49    1.79
 -14 -32  -2    8.81    2.40
  14 -32   2    5.87    1.31
  14  32  -2    7.50    1.61
 -14 -32  -2    7.51    2.18
  14  32   2    8.10    2.38
  14 -32  -2    5.96    1.51
 -14 -32   2    7.82    2.33
  14 -32  -2    6.80    0.80
  14 -32  -2    7.62    1.17
 -14 -32   2    7.00    1.80
  14 -32  -2    8.18    0.79
  14  32   2    7.42    1.17
  14 -34   2   27.79    3.09
  14  34  -2   25.54    3.17
 -14 -34  -2   28.34    3.72
  14  34  -2   25.04    2.87
  14 -34   2   27.04    2.44
 -14 -34  -2   23.66    2.40
  14 -34  -2   26.14    2.31
 -14 -34   2   30.80    5.57
  14  34   2   27.51    3.73
  14  34   2   24.58    2.14
  14 -34  -2   25.95    1.87
 -14 -34   2   25.71    3.23
 -16   0   2    0.09    0.36
 -16   0  -2   -0.01    0.35
  16   0   2    0.19    0.48
  16   0  -2    0.12    0.47
 -16   0  -2    0.18    0.67
 -16   0   2   -0.16    0.39
  16   0   2    0.53    0.65
  16   0  -2    0.12    0.57
 -16  -2  -2   25.95    1.49
 -16  -2  -2   26.25    1.50
  16   2  -2   26.20    2.06
  16  -2   2   25.62    2.61
  16   2  -2   28.20    1.73
 -16   2   2   24.30    1.41
  16  -2   2   27.97    3.30
 -16   2   2   23.89    1.29
 -16   2  -2   24.99    1.22
 -16  -2   2   25.55    2.11
 -16   2  -2   26.70    1.46
 -16  -2   2   25.63    1.57
  16   2   2   25.53    1.66
  16  -2  -2   26.51    1.91
  16  -2  -2   27.39    1.64
  16   2   2   26.32    2.30
 -16  -4  -2    4.97    0.81
  16  -4   2    4.79    0.83
 -16  -4  -2    3.82    0.74
  16  -4   2    4.92    1.02
  16   4  -2    4.36    1.08
  16   4  -2    5.51    0.88
 -16   4   2    4.32    0.64
 -16   4   2    4.33    0.59
  16  -4  -2    4.17    0.78
 -16  -4   2    4.87    0.69
  16  -4  -2    4.11    1.58
 -16   4  -2    4.51    0.50
 -16   4  -2    4.14    0.70
  16   4   2    3.78    1.42
 -16  -4   2    3.34    0.80
  16   4   2    4.25    1.29
  16   6  -2   39.44    2.25
 -16   6   2   37.95    2.31
 -16  -6  -2   38.14    2.33
  16   6  -2   39.73    2.65
 -16   6   2   39.25    1.72
  16  -6   2   41.93    2.44
  16  -6   2   39.33    2.09
 -16  -6  -2   37.59    1.94
  16   6   2   39.71    3.20
 -16   6  -2   38.37    2.70
  16  -6  -2   36.92    2.28
  16  -6  -2   40.13    2.00
  16   6   2   39.26    2.14
 -16   6  -2   36.75    1.40
 -16  -6   2   39.87    2.23
 -16  -6   2   40.36    1.95
 -16  -8  -2    9.89    0.99
 -16   8   2    8.64    0.74
  16  -8   2    9.61    1.14
 -16   8   2    9.29    0.73
  16   8  -2   10.77    1.43
  16  -8   2    9.01    1.08
 -16  -8  -2    8.86    1.32
  16   8  -2   10.83    1.94
 -16   8  -2    9.59    0.91
  16   8   2   10.10    1.78
  16  -8  -2   10.03    1.16
 -16   8  -2    9.21    0.56
 -16  -8   2    9.35    0.96
  16   8   2    9.16    1.10
  16  -8  -2    9.21    0.98
 -16  -8   2    9.66    1.21
 -16 -10  -2    8.51    0.86
 -16  10   2    5.37    0.63
 -16 -10  -2    5.96    1.30
  16  10  -2    6.73    2.17
  16  10  -2    6.08    1.06
  16 -10   2    7.16    0.95
  16 -10   2    6.77    0.95
  16  10   2    6.21    1.70
  16 -10  -2    7.44    1.63
  16  10   2    6.87    1.61
 -16 -10   2    6.81    0.89
  16 -10  -2    7.09    0.82
 -16  10  -2    5.95    0.79
 -16  10  -2    6.35    0.68
 -16 -10   2    6.63    1.14
 -16 -12  -2    3.06    0.73
 -16  12   2    3.39    0.51
 -16 -12  -2    3.38    1.20
  16 -12   2    4.01    0.73
 -16  12   2    3.16    0.48
  16  12  -2    3.22    1.12
  16  12  -2    3.06    0.89
  16 -12   2    2.81    0.79
 -16 -12   2    3.09    0.77
  16  12   2    4.02    1.50
 -16  12  -2    3.31    1.10
  16 -12  -2    3.78    0.77
 -16  12  -2    3.56    0.31
  16  12   2    2.94    0.82
  16 -12  -2    3.53    0.67
 -16 -12   2    3.39    1.00
 -16 -14  -2   27.11    1.70
  16 -14   2   24.81    1.76
 -16  14   2   25.74    1.15
  16  14  -2   28.84    3.75
 -16  14   2   23.58    1.20
 -16 -14  -2   30.58    2.80
  16 -14   2   29.18    1.53
  16  14  -2   27.53    1.97
  16  14   2   23.01    5.06
 -16  14  -2   25.84    0.83
  16 -14  -2   27.39    1.71
 -16 -14   2   26.84    2.24
 -16 -14   2   27.98    1.83
  16  14   2   25.74    1.80
  16 -14  -2   28.03    1.54
 -16  14  -2   26.80    1.56
 -16 -16  -2   14.36    2.30
 -16  16   2   12.57    0.84
  16 -16   2   12.55    1.28
  16  16  -2   14.32    1.45
  16  16  -2   11.84    1.76
  16 -16   2   15.14    0.98
 -16  16   2   12.39    0.77
 -16 -16  -2   14.05    1.26
 -16 -16   2   11.35    1.75
  16 -16  -2   10.53    1.85
 -16  16  -2   13.04    1.12
 -16  16  -2   12.82    0.69
 -16 -16   2   12.12    1.40
  16  16   2   13.03    1.29
  16  16   2   12.68    2.50
  16 -16  -2   13.75    1.09
  16 -18   2   -0.16    0.59
 -16  18   2   -0.25    0.57
  16  18  -2   -0.60    0.82
 -16  18   2    0.03    0.29
  16  18  -2    0.03    0.65
 -16 -18  -2    0.49    0.56
 -16 -18  -2    0.30    1.18
  16 -18   2    0.44    0.33
 -16 -18   2    0.30    1.38
  16 -18  -2    0.32    0.48
  16 -18  -2    0.47    0.45
 -16  18  -2   -0.00    0.80
  16  18   2   -0.08    1.20
 -16  18  -2    0.73    0.24
 -16 -18   2    0.90    0.64
  16  18   2   -0.38    0.57
  16  20  -2   21.39    1.94
 -16 -20  -2   24.13    3.53
 -16  20   2   20.70    1.13
  16 -20   2   24.25    0.98
  16 -20   2   23.50    1.76
  16  20  -2   22.95    2.29
 -16 -20  -2   23.30    1.67
 -16  20   2   21.30    0.99
  16  20   2   25.42    5.46
  16 -20  -2   20.79    1.40
 -16 -20   2   21.71    1.88
  16 -20  -2   20.94    1.42
 -16  20  -2   22.53    1.52
 -16 -20   2   21.58    2.48
  16  20   2   20.24    1.69
 -16  20  -2   20.96    0.60
  16 -22   2    0.69    0.60
 -16 -22  -2    0.47    0.68
  16  22  -2    1.24    1.40
 -16 -22  -2   -0.76    1.77
  16 -22   2    1.37    0.73
 -16  22   2    0.88    0.43
  16  22  -2    1.20    1.00
 -16  22   2    1.06    0.33
 -16 -22   2    0.83    0.83
  16  22   2    1.06    0.65
  16 -22  -2    1.29    0.53
  16  22   2    2.27    1.52
  16 -22  -2    1.24    0.91
 -16 -22   2    0.54    1.13
  16 -24   2    3.38    0.94
 -16 -24  -2    2.45    2.33
  16  24  -2    1.90    1.20
  16  24  -2    3.00    1.00
  16 -24   2    2.08    1.22
 -16 -24  -2    2.33    0.82
  16  24   2    2.09    0.80
  16 -24  -2    2.45    0.42
  16  24   2    2.61    1.92
  16 -24  -2    2.71    0.64
  16 -24  -2    2.19    0.53
 -16 -24   2    2.76    1.06
 -16 -24   2    2.46    1.42
  16 -24  -2    1.85    0.68
  16 -26   2    5.12    2.00
  16 -26   2    5.57    0.96
 -16 -26  -2    7.13    3.16
  16  26  -2    5.24    2.12
  16  26  -2    3.98    1.55
 -16 -26  -2    5.87    1.10
 -16 -26   2    6.10    1.89
  16 -26  -2    4.40    1.25
  16  26   2    5.68    4.17
  16 -26  -2    5.04    0.69
  16 -26  -2    5.85    0.54
 -16 -26   2    4.97    1.40
  16  26   2    5.44    1.02
  16 -26  -2    5.28    0.90
 -16 -28  -2    8.09    2.87
  16 -28   2    5.35    1.29
  16  28  -2    4.41    1.61
  16  28  -2    5.56    1.34
 -16 -28  -2    4.06    1.16
  16 -28   2    5.11    1.02
  16 -28  -2    4.92    0.56
  16  28   2    3.06    1.71
  16 -28  -2    4.35    1.23
 -16 -28   2    4.44    2.01
  16 -28  -2    6.82    1.18
  16  28   2    3.80    2.46
 -16 -28   2    5.15    2.44
  16 -28  -2    4.80    0.96
  16 -30   2    4.43    1.31
  16 -30   2    3.27    1.04
 -16 -30  -2    4.10    2.50
  16  30  -2    3.62    1.64
  16  30  -2    5.43    2.17
 -16 -30  -2    4.55    1.84
  16 -30  -2    3.43    1.55
 -16 -30   2    4.01    2.03
  16 -30  -2    3.04    0.74
  16  30   2    4.01    1.02
  16 -30  -2    3.96    0.55
  16  30   2    3.62    2.24
  16 -30  -2    3.18    1.15
 -16 -30   2    3.87    1.50
 -18   0  -2   17.14    1.09
  18   0   2   17.55    1.97
 -18   0   2   15.95    1.15
  18   0  -2   16.82    1.78
 -18   0   2   19.18    1.27
  18   0   2   17.05    1.50
  18   0  -2   20.33    1.50
 -18   0  -2   16.78    1.31
 -18   2   2   12.77    1.52
  18   2  -2   11.55    2.57
 -18  -2  -2   11.85    1.14
  18   2  -2   13.33    1.30
  18  -2   2   11.70    1.29
 -18   2   2   11.02    0.99
 -18  -2  -2   11.37    1.03
  18  -2   2   11.06    1.60
 -18   2  -2   11.24    1.28
 -18  -2   2   11.81    1.05
 -18   2  -2   10.46    1.76
  18   2   2   15.73    1.80
 -18  -2   2   13.20    1.09
  18  -2  -2   10.60    1.48
  18  -2  -2   11.26    1.23
  18   2   2   12.41    1.28
 -18  -4  -2   78.53    3.50
 -18   4   2   75.11    3.12
  18   4  -2   83.67    5.43
  18   4  -2   76.99    4.40
 -18   4   2   75.55    4.15
 -18  -4  -2   76.60    3.50
  18  -4   2   79.04    3.81
  18  -4   2   79.87    4.33
 -18   4  -2   75.99    3.40
 -18  -4   2   77.17    3.39
  18  -4  -2   73.88    5.65
  18  -4  -2   79.33    3.68
  18   4   2   77.48    3.80
  18   4   2   80.47    5.09
 -18   4  -2   69.78    2.72
 -18  -4   2   80.15    3.74
 -18  -6  -2    2.60    0.74
 -18  -6  -2    2.68    0.77
  18   6  -2    1.77    1.06
  18   6  -2    1.83    0.85
  18  -6   2    2.07    1.49
 -18   6   2    2.09    0.55
 -18   6   2    1.91    0.55
  18  -6   2    2.02    0.81
 -18  -6   2    2.70    0.68
  18   6   2    2.80    1.22
 -18   6  -2    1.88    0.41
  18  -6  -2    1.99    0.74
  18  -6  -2    3.96    0.87
 -18   6  -2    2.40    0.69
  18   6   2    1.60    0.83
 -18  -6   2    1.81    0.79
 -18   8   2  169.88    7.02
 -18  -8  -2  176.25    7.86
  18   8  -2  187.30   10.67
  18  -8   2  183.15    8.41
  18  -8   2  183.32    8.83
 -18   8   2  172.48    7.07
  18   8  -2  177.48    9.17
 -18  -8  -2  173.42    8.52
 -18  -8   2  172.95    7.67
  18   8   2  182.18    8.25
  18   8   2  178.75   10.52
 -18   8  -2  173.95    7.68
  18  -8  -2  164.56    8.10
 -18   8  -2  160.34    6.14
  18  -8  -2  184.56    8.07
 -18  -8   2  180.58   10.44
 -18 -10  -2   16.14    1.38
 -18 -10  -2   16.96    1.75
  18  10  -2   17.89    1.60
 -18  10   2   15.08    1.04
  18  10  -2   15.62    1.96
 -18  10   2   15.97    1.49
  18 -10   2   15.55    1.50
  18 -10   2   16.87    1.49
  18  10   2   17.39    2.43
 -18 -10   2   15.69    1.64
 -18  10  -2   14.65    0.71
 -18  10  -2   16.39    1.29
  18 -10  -2   15.07    2.41
  18 -10  -2   16.40    1.37
  18  10   2   16.73    1.49
 -18 -10   2   14.36    1.38
  18  12  -2   59.35    3.29
 -18 -12  -2   59.08    3.85
 -18  12   2   56.97    2.39
 -18 -12  -2   58.39    2.97
  18  12  -2   58.51    5.80
  18 -12   2   61.90    3.11
 -18  12   2   57.47    2.26
  18 -12   2   60.32    3.11
  18  12   2   59.09    3.13
  18  12   2   61.71    4.87
 -18  12  -2   55.56    3.78
  18 -12  -2   54.68    3.06
 -18 -12   2   58.35    2.99
  18 -12  -2   60.56    2.84
 -18  12  -2   51.81    1.76
 -18 -12   2   58.91    3.50
 -18  14   2    3.63    0.59
 -18  14   2    4.34    0.51
  18 -14   2    4.03    0.92
  18  14  -2    3.53    1.24
 -18 -14  -2    2.60    1.37
  18  14  -2    4.81    1.01
  18 -14   2    3.69    0.78
 -18  14  -2    3.75    0.76
 -18 -14   2    3.87    0.91
  18  14   2    3.74    1.68
  18 -14  -2    3.58    0.85
  18 -14  -2    3.68    0.78
 -18  14  -2    3.25    0.33
  18  14   2    3.52    0.93
 -18 -14   2    4.74    1.90
 -18 -16  -2   64.15    4.94
 -18  16   2   59.71    2.53
  18  16  -2   59.89    4.26
  18  16  -2   63.70    3.61
 -18 -16  -2   65.03    3.32
 -18  16   2   63.41    2.42
  18 -16   2   69.92    3.00
  18 -16   2   66.55    3.50
 -18 -16   2   65.14    4.13
  18  16   2   65.12    5.53
 -18  16  -2   62.02    3.02
 -18 -16   2   63.64    3.44
  18 -16  -2   60.34    3.18
  18 -16  -2   66.72    4.30
  18  16   2   67.33    3.42
 -18  16  -2   61.04    2.23
 -18 -18  -2    1.05    0.67
 -18 -18  -2    1.15    1.30
 -18  18   2    0.70    0.44
  18 -18   2    1.37    0.72
  18  18  -2    1.23    0.78
 -18  18   2    0.36    0.36
  18  18  -2    0.75    0.98
  18 -18   2    0.67    0.69
 -18 -18   2    1.38    0.98
 -18  18  -2    0.81    0.20
  18 -18  -2    1.12    1.00
 -18  18  -2    0.68    0.60
  18 -18  -2    1.26    0.59
  18  18   2    1.16    0.71
 -18 -18   2    0.83    0.73
  18  18   2    0.28    1.44
 -18  20   2   69.04    2.60
 -18 -20  -2   73.96    6.37
  18  20  -2   70.22    4.11
  18 -20   2   72.29    3.90
  18  20  -2   67.52    4.79
 -18 -20  -2   70.95    5.14
 -18  20   2   67.15    2.88
 -18  20  -2   66.03    3.38
 -18 -20   2   68.65    4.00
 -18 -20   2   72.80    4.97
  18  20   2   69.31    3.75
  18 -20  -2   63.87    4.64
  18  20   2   69.08    9.83
  18 -20  -2   69.76    3.42
 -18  22   2    9.89    0.90
  18  22  -2   10.41    1.63
 -18 -22  -2   11.57    5.17
  18  22  -2    2.88    3.24
 -18  22   2   10.37    0.70
 -18 -22  -2    9.77    1.35
 -18 -22   2   10.62    2.12
  18  22   2    6.43    2.16
  18  22   2   10.68    2.89
  18 -22  -2    9.74    1.14
 -18 -22   2   11.02    1.62
  18 -24   2   71.34    4.24
 -18 -24  -2   67.27    4.00
 -18 -24  -2   74.56   12.87
  18  24  -2   68.56    5.29
  18  24  -2   72.04    4.45
  18 -24   2   66.92    3.63
 -18 -24   2   71.95    5.81
  18 -24  -2   67.51    3.08
  18  24   2   72.42    7.38
  18 -24  -2   71.66    2.72
  18  24   2   69.83    3.92
  18 -24  -2   68.22    3.49
 -18 -24   2   69.16    4.50
  18 -24  -2   73.82    3.67
  18 -26   2    2.51    1.05
  18 -26   2    1.11    0.82
 -18 -26  -2    1.46    4.31
  18  26  -2    2.60    1.10
  18  26  -2    2.79    1.41
 -18 -26  -2    2.65    0.95
 -18 -26   2    0.79    1.62
  18 -26  -2    1.54    0.69
  18 -26  -2    1.68    0.42
  18 -26  -2    2.34    0.94
  18  26   2    1.28    2.17
  18  26   2    2.02    0.90
 -18 -26   2    2.36    1.15
  18 -26  -2    1.41    0.78
  20   0  -2   -0.11    0.74
 -20   0   2    0.33    0.78
 -20   0  -2   -0.34    0.54
 -20   0   2    0.72    0.48
 -20   0  -2    0.49    0.40
  20   0   2    0.33    0.85
  20   0  -2    0.45    0.62
  20   0   2    0.07    0.63
 -20  -2  -2   47.29    2.31
 -20   2   2   48.88    2.33
 -20  -2  -2   50.44    2.58
  20  -2   2   51.79    3.61
  20   2  -2   49.64    3.38
  20   2  -2   52.05    2.92
 -20   2   2   49.83    2.34
  20  -2   2   51.31    2.91
 -20  -2   2   49.70    2.45
 -20   2  -2   47.71    2.54
  20  -2  -2   52.59    2.83
  20   2   2   51.94    5.78
  20   2   2   52.07    2.92
  20  -2  -2   45.96    3.18
 -20  -2   2   48.88    2.54
 -20   2  -2   44.62    1.98
 -20  -4  -2    3.08    0.81
 -20   4   2    4.18    0.65
 -20  -4  -2    3.27    0.72
 -20   4   2    2.99    0.65
  20   4  -2    2.50    1.89
  20  -4   2    3.70    0.92
  20  -4   2    2.32    1.12
  20   4  -2    3.47    0.93
  20   4   2    3.40    1.35
 -20   4  -2    2.65    0.76
  20   4   2    3.40    1.55
  20  -4  -2    3.14    1.04
  20  -4  -2    2.73    0.87
 -20  -4   2    3.56    0.80
 -20   4  -2    1.87    0.48
 -20  -4   2    3.47    0.74
 -20  -6  -2   22.34    1.71
 -20   6   2   23.44    1.40
  20  -6   2   24.07    1.93
  20  -6   2   25.00    2.23
 -20   6   2   23.29    1.37
  20   6  -2   23.02    2.37
  20   6  -2   25.83    1.98
 -20  -6  -2   23.60    1.72
 -20   6  -2   21.98    1.09
  20   6   2   24.72    2.87
 -20  -6   2   24.12    1.63
 -20   6  -2   24.76    1.64
  20  -6  -2   24.73    2.07
  20   6   2   25.25    1.93
  20  -6  -2   26.19    1.80
 -20  -6   2   24.10    1.83
 -20  -8  -2   16.20    1.55
  20  -8   2   15.41    2.58
 -20  -8  -2   16.68    1.42
 -20   8   2   15.51    1.11
  20   8  -2   14.88    2.08
  20   8  -2   17.15    1.66
  20  -8   2   16.30    1.75
 -20   8   2   15.55    1.04
 -20  -8   2   16.71    2.14
 -20   8  -2   14.40    1.18
  20   8   2   18.24    2.59
  20  -8  -2   15.93    1.66
 -20   8  -2   15.40    1.35
  20   8   2   16.03    2.59
  20  -8  -2   16.91    1.45
 -20  -8   2   15.98    1.58
  20  10  -2   12.61    2.79
 -20 -10  -2   10.56    2.28
 -20 -10  -2   10.36    1.19
  20 -10   2   10.49    1.37
 -20  10   2    9.18    0.87
  20  10  -2   11.00    1.40
  20 -10   2   10.38    1.33
 -20  10   2    8.88    0.80
 -20 -10   2    9.35    1.18
  20  10   2   10.57    2.26
  20 -10  -2   10.85    2.20
 -20  10  -2   10.09    1.10
  20  10   2    9.55    1.34
 -20  10  -2    8.68    0.57
  20 -10  -2   11.77    1.94
 -20 -10   2    9.96    1.36
 -20 -12  -2   -0.17    0.93
 -20 -12  -2    0.30    0.77
 -20  12   2    0.41    0.39
  20 -12   2    0.24    0.65
  20  12  -2    0.79    0.85
  20 -12   2   -0.23    0.61
  20  12  -2    0.36    0.68
 -20  12   2    0.26    0.57
 -20 -12   2    0.22    0.58
 -20  12  -2    0.12    0.24
  20  12   2    1.10    1.87
 -20  12  -2    0.32    0.84
  20 -12  -2    0.06    0.62
  20  12   2    0.37    0.64
  20 -12  -2    0.13    0.56
 -20 -12   2   -0.19    0.73
 -20 -14  -2   29.32    2.07
 -20 -14  -2   31.63    2.84
 -20  14   2   27.53    1.36
 -20  14   2   28.39    1.54
  20 -14   2   31.67    1.99
  20 -14   2   31.09    2.23
  20  14  -2   30.81    2.40
  20  14  -2   26.73    2.86
  20  14   2   29.74    3.76
 -20  14  -2   27.68    1.88
  20 -14  -2   28.02    2.13
  20  14   2   28.13    2.19
 -20  14  -2   27.01    1.38
  20 -14  -2   28.95    1.98
 -20 -14   2   31.02    2.57
 -20 -14   2   28.07    2.12
 -20 -16  -2    1.94    1.39
  20 -16   2    1.65    0.68
 -20  16   2    2.22    0.47
 -20  16   2    2.51    0.58
  20  16  -2    2.14    1.00
  20  16  -2    2.54    1.30
  20 -16   2    2.48    0.95
 -20 -16  -2    2.94    0.88
  20  16   2    3.06    1.77
 -20  16  -2    2.42    0.78
  20 -16  -2    2.19    0.86
  20  16   2    2.16    0.93
  20 -16  -2    2.40    0.80
 -20 -16   2    2.23    0.92
 -20 -16   2    3.01    1.19
 -20 -18  -2   10.89    2.38
 -20 -18  -2   15.75    2.47
 -20  18   2   10.97    0.99
 -20  18   2   11.53    0.81
  20  18  -2   11.70    2.18
  20  18  -2   11.21    1.71
  20 -18   2   11.61    1.63
  20  18   2   13.58    3.00
 -20  18  -2   11.67    1.29
  20 -18  -2   11.44    1.39
  20 -18  -2   11.83    1.35
  20  18   2   12.12    1.60
 -20 -18   2   15.28    2.07
 -20 -18   2   14.22    2.53
 -20 -20  -2   22.29    2.07
 -20 -20  -2   27.12    5.92
 -20  20   2   22.47    1.43
  20 -20   2   22.92    2.23
 -20  20   2   22.65    1.15
  20  20  -2   24.02    2.35
  20  20  -2   23.68    3.07
 -20 -20   2   26.52    4.73
  20  20   2   22.59    4.03
  20  20   2   23.12    2.13
  20 -20  -2   23.38    1.82
 -20 -20   2   24.94    2.22
 -20  20  -2   23.44    1.85
  20 -20  -2   25.13    1.87
  22   0   2   38.42    3.62
 -22   0   2   36.59    2.19
 -22   0  -2   36.27    2.38
  22   0  -2   36.99    3.14
  22   0  -2   39.67    2.70
  22   0   2   38.62    2.77
 -22   0   2   36.76    2.14
 -22   0  -2   35.07    1.85
  22  -2   2   20.28    3.98
 -22  -2  -2   18.79    1.67
 -22   2   2   18.72    1.43
  22   2  -2   18.00    2.29
 -22   2   2   18.21    1.40
  22   2  -2   19.61    3.08
  22  -2   2   19.69    3.07
 -22  -2  -2   17.78    1.34
  22   2   2   18.71    2.71
 -22  -2   2   19.48    2.38
 -22   2  -2   18.45    1.63
 -22   2  -2   15.66    1.11
  22  -2  -2   20.76    1.87
 -22  -2   2   19.47    1.52
  22  -2  -2   16.80    2.20
  22   2   2   18.93    3.14
 -22  -4  -2   14.06    2.03
 -22   4   2   14.27    1.25
 -22  -4  -2   14.22    1.50
  22  -4   2   15.23    3.44
  22   4  -2   12.11    2.11
 -22   4   2   13.77    1.17
  22  -4   2   15.02    1.74
  22   4  -2   15.89    1.76
  22   4   2   16.46    2.57
 -22  -4   2   13.31    1.37
 -22   4  -2   14.63    1.44
  22  -4  -2   14.60    1.93
  22  -4  -2   13.42    1.63
  22   4   2   15.53    1.70
 -22  -4   2   13.62    1.46
 -22   4  -2   14.00    0.92
 -22  -6  -2    1.06    0.71
 -22  -6  -2    1.77    0.78
 -22   6   2    1.34    0.60
 -22   6   2    1.52    0.55
  22  -6   2    1.35    0.90
  22   6  -2    1.48    1.90
  22   6  -2    1.32    1.54
  22  -6   2    0.02    1.74
  22   6   2    1.11    1.40
 -22  -6   2    0.76    0.71
 -22   6  -2    1.34    0.73
  22  -6  -2    0.18    0.99
  22  -6  -2    1.66    0.83
 -22   6  -2    1.30    0.40
 -22  -6   2    1.39    0.78
  22   6   2    1.73    1.52
 -22  -8  -2   30.02    2.19
 -22   8   2   28.30    1.71
 -22   8   2   28.26    1.56
  22  -8   2   30.55    4.19
  22   8  -2   32.34    2.96
  22   8  -2   30.74    2.47
 -22  -8  -2   29.10    2.20
  22  -8   2   31.28    2.42
 -22  -8   2   29.93    2.09
  22   8   2   32.40    3.75
 -22   8  -2   29.49    2.03
 -22   8  -2   25.14    1.23
  22   8   2   31.43    2.46
  22  -8  -2   28.00    2.52
 -22  -8   2   28.87    3.49
  22  -8  -2   31.93    3.46
 -22 -10  -2   14.55    1.78
 -22  10   2   13.88    1.17
  22 -10   2   15.30    1.79
 -22  10   2   13.71    1.04
 -22 -10  -2   17.03    2.51
  22 -10   2   17.43    2.94
  22  10  -2   13.27    2.25
  22  10  -2   15.00    1.88
 -22 -10   2   13.76    1.51
  22  10   2   14.94    4.72
 -22  10  -2   14.45    1.43
  22 -10  -2   17.09    2.85
  22  10   2   16.22    2.86
 -22  10  -2   11.81    0.77
  22 -10  -2   16.39    1.58
 -22 -10   2   15.46    1.77
  -1  -1  -3  461.94   21.31
   1  -1   3  467.73   20.58
   1  -1   3  483.08   20.27
  -1   1   3  481.33   21.22
   1   1  -3  486.51   21.01
  -1   1   3  484.80   21.47
  -1  -1  -3  477.01   21.20
   1   1  -3  449.08   20.74
   1   1   3  485.84   19.69
  -1   1  -3  474.94   21.14
  -1  -1   3  492.44   22.69
   1  -1  -3  482.00   21.17
   1  -1  -3  446.83   19.96
  -1  -1   3  490.14   22.61
  -1   1  -3  485.98   20.89
   1   1   3  474.80   19.93
   1  -3   3    3.62    0.40
  -1   3   3    3.77    0.12
  -1  -3  -3    3.46    0.69
   1  -3   3    4.67    0.59
  -1   3   3    3.43    0.51
   1   3  -3    2.72    0.37
   1   3  -3    2.89    0.80
  -1  -3  -3    3.12    0.20
   1   3   3    3.36    0.17
  -1   3  -3    3.21    0.36
  -1  -3   3    4.02    0.90
  -1  -3   3    3.48    0.39
  -1   3  -3    3.36    0.29
   1   3   3    4.07    0.59
   1  -3  -3    2.55    0.48
   1   5  -3  424.85   21.98
  -1  -5  -3  407.82   20.16
   1  -5   3  423.22   20.11
   1   5  -3  441.81   18.24
  -1  -5  -3  439.00   16.55
   1  -5   3  440.07   17.80
   1   5   3  410.51   19.41
   1  -5  -3  425.10   18.98
  -1   5  -3  429.45   19.11
   1   5   3  446.51   17.20
  -1  -5   3  449.04   18.62
   1  -5  -3  418.02   18.64
  -1   5  -3  441.15   17.47
  -1  -5   3  451.24   23.62
  -1  -7  -3  593.21   32.58
   1  -7   3  625.72   28.13
   1   7  -3  617.49   28.84
   1   7  -3  621.92   35.08
   1  -7   3  593.63   31.68
  -1  -7   3  584.93   33.59
   1  -7  -3  588.18   31.43
   1   7   3  628.26   27.24
   1   7   3  558.21   30.09
  -1   7  -3  593.28   30.28
   1  -7  -3  578.31   30.91
  -1  -7   3  640.32   29.84
  -1   7  -3  627.39   27.90
   1  -9   3  118.52    5.32
  -1  -9  -3  124.93    5.92
   1   9  -3  122.54    3.68
   1   9  -3  128.85    6.16
   1  -9   3  126.41    3.36
  -1  -9  -3  132.82    3.61
  -1   9  -3  127.71    3.40
   1  -9  -3  122.98    5.73
   1   9   3  120.33    5.67
   1  -9  -3  133.69    3.15
   1  -9  -3  117.82    4.54
   1   9   3  128.86    3.36
  -1  -9   3  118.93    5.85
  -1  -9   3  123.03    3.68
   1  -9  -3  139.02    3.18
  -1   9  -3  121.15    6.13
  -1  11   3  268.06    8.91
   1  11  -3  266.75    9.57
   1  11  -3  268.71   13.01
   1 -11   3  254.48   12.04
  -1 -11  -3  285.64    9.40
   1 -11   3  277.32    9.12
  -1  11   3  255.69   11.12
  -1 -11  -3  261.02   13.13
  -1  11  -3  261.92   11.73
   1  11   3  252.71   12.81
  -1 -11   3  251.21   12.22
  -1  11  -3  272.15    9.41
   1 -11  -3  294.69    9.52
   1 -11  -3  257.37   10.90
  -1 -11   3  275.45    9.84
   1  11   3  276.96    9.89
   1  13  -3  125.78    3.95
   1  13  -3  130.50    8.42
   1 -13   3  127.31    6.17
  -1 -13  -3  136.61    9.76
  -1 -13  -3  132.64    3.78
  -1  13   3  128.33    3.98
   1 -13   3  131.98    3.55
  -1  13   3  127.33    5.59
  -1 -13   3  123.73    8.04
   1  13   3  130.91    7.25
   1 -13  -3  127.08    5.35
   1 -13  -3  134.65    3.86
  -1  13  -3  126.82    3.91
  -1  13  -3  129.80    5.91
   1  13   3  133.91    4.14
  -1 -13   3  133.00    4.09
   1  15  -3   59.06    1.87
  -1  15   3   65.28    3.39
  -1 -15  -3   64.08    1.84
   1 -15   3   63.51    3.68
   1  15  -3   64.75    3.61
  -1  15   3   68.48    2.86
  -1 -15  -3   67.99    4.49
   1 -15   3   65.97    1.61
  -1 -15   3   65.73    1.99
   1 -15  -3   62.90    3.18
  -1 -15   3   61.20    3.44
  -1  15  -3   66.01    3.53
   1  15   3   69.63    2.27
  -1  15  -3   59.45    1.63
   1  15   3   67.41    7.38
   1 -15  -3   63.57    1.91
  -1 -17  -3  125.28   10.69
  -1  17   3  121.93    6.63
   1 -17   3  119.50    6.28
   1  17  -3  112.72    3.79
  -1  17   3  135.01    6.08
   1  17  -3  126.53    6.28
  -1 -17  -3  126.88    4.10
   1 -17   3  124.82    3.95
  -1  17  -3  117.25    3.72
  -1 -17   3  125.19    4.11
   1 -17  -3  118.61    4.76
  -1 -17   3  115.70    5.84
   1  17   3  141.71   12.37
   1  17   3  128.10    4.65
  -1  17  -3  130.03    6.51
   1 -17  -3  123.77    6.20
  -1  19   3  131.85   11.01
   1 -19   3  119.76    6.61
  -1 -19  -3  131.00    8.47
   1  19  -3  125.54    6.56
   1 -19   3  127.06    4.31
   1  19  -3  115.80    5.08
  -1  19   3  142.23    6.75
  -1 -19  -3  129.82    4.55
  -1 -19   3  127.95    4.41
  -1 -19   3  115.93    6.05
   1  19   3  126.72    5.92
  -1  19  -3  133.45    6.84
  -1  19  -3  122.44    4.31
   1 -19  -3  114.97    4.19
   1  19   3  132.21   11.22
   1 -19  -3  128.21    6.97
  -1  21   3   62.59    8.00
   1 -21   3   56.65    1.72
  -1 -21  -3   54.70    3.08
   1  21  -3   55.94    3.64
  -1  21   3   60.56    2.55
   1  21  -3   51.66    2.11
  -1 -21  -3   59.79    7.62
   1 -21   3   54.98    5.66
  -1  21  -3   55.01    3.20
  -1  21  -3   58.13    3.78
   1  21   3   55.46    6.30
   1 -21  -3   59.79    4.40
  -1 -21   3   51.55    3.37
   1 -21  -3   50.64    2.06
   1  21   3   55.47    2.33
  -1 -21   3   56.03    2.14
   1 -23   3  112.25    4.29
  -1 -23  -3  112.65    4.41
  -1  23   3  115.51    4.68
  -1 -23  -3  117.10    7.23
   1  23  -3  105.74    4.33
   1 -23   3  103.51    5.88
  -1  23   3  120.93   10.95
   1  23  -3  114.45    8.27
  -1 -23   3  112.40    4.20
   1  23   3  111.73    6.24
  -1  23  -3  125.41    6.31
  -1 -23   3   98.95    5.56
   1  23   3  107.33    4.31
   1 -23  -3  117.43   10.37
  -1  23  -3  104.09    5.01
   1 -23  -3  104.89    4.01
   1 -25   3   24.25    2.20
   1 -25   3   23.21    0.97
  -1 -25  -3   24.10    4.30
   1  25  -3   21.92    2.23
   1  25  -3   22.83    1.52
  -1 -25  -3   22.53    1.38
  -1  25   3   24.77    1.38
  -1  25   3   24.42    4.17
  -1 -25   3   22.76    1.28
   1  25   3   21.66    2.19
  -1  25  -3   24.28    2.24
   1 -25  -3   24.06    2.98
   1  25   3   23.35    1.32
   1 -25  -3   21.48    1.22
  -1 -25   3   20.96    2.12
  -1  25  -3   25.01    1.68
   1 -27   3   49.14    1.72
  -1  27   3   50.02    2.16
   1  27  -3   47.51    3.15
   1  27  -3   44.57    2.50
   1 -27   3   44.14    4.67
  -1 -27  -3   44.60    2.13
  -1 -27  -3   49.84    3.59
  -1  27   3   47.68    3.22
  -1  27  -3   47.28    3.12
  -1 -27   3   49.54    2.09
   1  27   3   44.83    2.03
   1 -27  -3   42.64    1.92
   1  27   3   45.09    2.98
  -1  27  -3   44.77    1.70
  -1 -27   3   44.98    3.03
   1 -27  -3   49.99    4.04
   1 -29   3  109.26    3.60
  -1 -29  -3  102.73    5.51
   1  29  -3   89.32    5.15
   1  29  -3  100.30    5.24
   1 -29   3   95.16    5.05
  -1 -29  -3   91.14    3.82
  -1  29   3  102.63    4.06
  -1  29   3  101.30    5.10
  -1  29  -3   94.59    3.30
  -1  29  -3  103.40    5.25
  -1 -29   3  108.84    5.15
   1  29   3   96.39    4.92
   1 -29  -3  104.76    5.87
  -1 -29   3   90.22    4.91
   1 -29  -3   90.55    4.55
   1  29   3   96.62    3.87
  -1 -31  -3   43.13    2.82
   1 -31   3   42.78    1.52
   1  31  -3   37.26    3.90
   1  31  -3   33.68    1.79
   1 -31   3   38.13    2.52
  -1  31   3   38.91    1.77
  -1 -31  -3   33.59    2.55
  -1  31   3   38.58    2.37
  -1  31  -3   37.26    2.54
   1  31   3   38.56    2.42
   1 -31  -3   39.06    2.79
  -1 -31   3   41.50    1.81
   1  31   3   38.05    2.29
  -1 -31   3   37.39    2.59
   1 -31  -3   34.06    1.61
  -1  31  -3   35.91    1.29
  -1 -33  -3   41.87    2.76
   1 -33   3   46.04    1.61
   1  33  -3   40.20    2.70
   1 -33   3   38.15    2.64
  -1  33   3   39.26    1.81
  -1  33   3   37.56    2.31
  -1 -33  -3   36.10    2.61
   1  33  -3   36.43    1.76
   1 -33  -3   42.62    2.76
   1  33   3   35.93    2.27
  -1 -33   3   44.46    1.89
  -1 -33   3   35.94    2.59
   1  33   3   37.77    1.77
   1 -33  -3   36.46    1.69
  -1  33  -3   38.35    1.75
  -1  33  -3   43.18    2.69
   1 -35   3   29.12    2.27
   1 -35   3   33.70    1.26
  -1 -35  -3   27.13    1.54
  -1  35   3   29.63    1.50
  -1 -35  -3   31.05    2.28
   1  35  -3   25.25    1.33
   1  35  -3   30.33    2.28
  -1  35   3   28.82    1.87
  -1 -35   3   34.56    1.52
   1  35   3   29.13    1.47
   1 -35  -3   31.13    2.30
  -1  35  -3   27.78    1.04
  -1 -35   3   27.49    2.25
   1 -35  -3   26.34    1.40
   1  35   3   29.52    1.90
  -1  35  -3   30.44    2.25
  -1 -37  -3   35.31    1.82
   1  37  -3   34.66    2.11
   1 -37   3   43.54    1.53
   1  37  -3   40.63    2.67
   1 -37   3   36.57    2.59
  -1 -37  -3   39.14    2.59
  -1  37   3   34.87    2.08
   1 -37  -3   40.95    2.52
  -1  37  -3   36.07    1.28
  -1 -37   3   44.23    1.79
  -1  37  -3   40.31    3.86
   1  37   3   36.45    2.17
   1  37   3   37.01    1.72
  -1 -37   3   35.65    2.60
   1 -37  -3   34.06    2.38
   1 -39   3   35.87    1.82
   1  39  -3   33.03    2.41
   1  39  -3   29.24    1.34
  -1 -39  -3   29.98    1.67
   1 -39   3   31.36    2.44
  -1 -39  -3   36.57    3.58
   1  39   3   30.65    1.96
  -1 -39   3   38.16    1.59
   1 -39  -3   29.90    1.60
   1  39   3   32.66    1.58
   1 -39  -3   34.91    1.67
  -1  39  -3   35.01    2.38
  -1 -39   3   30.69    2.47
   1 -39  -3   36.59    2.30
   1 -39  -3   34.19    1.91
   1 -41   3   20.83    2.07
  -1 -41  -3   25.39    1.97
   1  41  -3   24.03    2.06
  -1 -41  -3   20.27    1.38
   1  41  -3   19.15    1.02
   1  41   3   21.17    1.60
  -1 -41   3   26.70    1.75
   1 -41  -3   24.17    1.34
   1  41   3   19.36    1.85
   1 -41  -3   25.54    1.83
  -1  41  -3   24.76    2.04
   1 -41  -3   23.38    1.50
  -1 -41   3   20.77    2.08
   1 -41  -3   20.79    1.31
  -1 -43  -3   14.05    1.79
  -1 -43  -3   18.36    2.58
   1 -43   3   15.30    1.74
   1  43  -3   17.15    1.75
   1 -43  -3   16.55    1.11
   1  43   3   13.93    1.07
  -1 -43   3   13.01    1.79
   1 -43  -3   14.06    1.09
  -1  43  -3   16.38    1.71
   1 -43  -3   14.69    1.22
   1 -43  -3   14.79    1.54
   1  43   3   13.92    1.30
  -3  -1  -3  934.45   67.61
  -3  -1  -3 1070.43   63.08
   3  -1   3 1012.01   60.92
  -3   1   3 1051.66   59.77
  -3   1   3 1074.15   63.46
   3   1  -3 1101.17   65.20
   3   1  -3 1063.74   62.75
   3  -1   3 1076.50   62.60
  -3   1  -3 1036.21   60.43
  -3  -1   3 1067.97   61.92
  -3  -1   3 1087.27   64.02
  -3   1  -3  956.13   66.69
   3   1   3 1104.65   64.59
   3  -1  -3 1137.18   67.17
   3  -1  -3 1041.46   61.76
   3   1   3  993.26   62.22
  -3  -3  -3  421.13   17.56
   3  -3   3  412.23   16.74
  -3   3   3  412.12   15.58
   3  -3   3  422.92   17.62
  -3  -3  -3  378.23   24.13
   3   3  -3  438.48   21.19
  -3   3   3  420.94   17.99
   3   3  -3  420.93   17.90
   3   3   3  416.15   16.62
   3  -3  -3  406.67   17.52
  -3   3  -3  395.95   20.64
  -3  -3   3  422.20   19.49
  -3   3  -3  417.71   17.65
   3  -3  -3  439.61   17.11
  -3  -3   3  429.92   18.17
   3   3   3  408.45   20.22
  -3   5   3   16.41    0.82
   3  -5   3   16.15    0.75
   3  -5   3   16.09    0.82
  -3   5   3   15.83    0.30
  -3  -5  -3   16.90    0.50
   3   5  -3   15.90    0.79
  -3  -5  -3   18.50    2.94
  -3   5  -3   18.23    1.27
   3   5   3   15.68    0.50
  -3  -5   3   15.92    1.56
   3  -5  -3   16.47    1.35
   3   5   3   16.18    1.80
   3  -5  -3   17.32    0.40
  -3  -5   3   16.10    0.77
  -3   5  -3   17.96    0.44
   3   7  -3    2.91    0.40
   3  -7   3    3.08    0.42
  -3  -7  -3    3.59    0.22
  -3  -7  -3    4.39    1.73
  -3   7   3    3.70    0.43
   3  -7   3    3.36    0.47
   3   7  -3    3.76    0.70
  -3   7   3    3.67    0.15
  -3  -7   3    3.87    0.62
   3   7   3    3.48    1.20
  -3   7  -3    3.01    0.19
   3  -7  -3    4.30    0.76
   3   7   3    3.35    0.23
  -3  -7   3    3.74    0.39
  -3   7  -3    3.54    0.76
   3  -7  -3    3.17    0.12
   3  -9   3   11.34    0.74
   3   9  -3   13.40    0.65
  -3  -9  -3   12.69    0.40
   3  -9   3   11.87    0.81
  -3  -9  -3   13.43    2.43
   3   9  -3   12.71    1.15
  -3   9  -3   13.49    0.49
   3  -9  -3   12.10    0.69
  -3  -9   3   12.28    0.63
   3   9   3   13.97    3.29
   3  -9  -3   12.07    0.27
   3  -9  -3   11.77    0.74
   3   9   3   11.31    0.64
   3  -9  -3   12.04    0.33
  -3  -9   3   12.47    1.08
  -3   9  -3   12.08    0.19
   3  11  -3    3.44    0.43
   3 -11   3    3.26    0.57
   3  11  -3    3.90    0.89
  -3 -11  -3    3.70    1.76
   3 -11   3    4.00    0.65
  -3 -11  -3    2.91    0.27
   3  11   3    4.65    2.79
   3 -11  -3    3.70    0.22
  -3 -11   3    6.31    0.86
   3 -11  -3    3.95    0.48
   3  11   3    3.37    0.28
  -3 -11   3    3.05    0.42
   3  13  -3  189.19    8.83
  -3 -13  -3  176.70   10.61
   3  13  -3  174.02    7.21
   3 -13   3  173.26    8.98
   3 -13   3  167.03    6.98
  -3 -13  -3  181.28    5.81
   3 -13  -3  175.85    6.68
   3 -13  -3  182.54    5.60
   3 -13  -3  167.59    6.57
  -3 -13   3  177.50    8.50
   3 -13  -3  175.08    6.35
  -3 -13   3  177.82    6.33
   3  13   3  175.74    6.33
   3  13   3  189.40   14.33
  -3 -15  -3  294.47   10.96
   3 -15   3  277.46   13.06
  -3 -15  -3  276.52   15.80
   3  15  -3  281.90   11.29
   3  15  -3  298.52   17.74
  -3 -15   3  288.56   12.83
   3 -15  -3  268.37   11.96
   3  15   3  269.42   18.81
   3 -15  -3  285.46   12.20
  -3 -15   3  283.26   14.59
   3  15   3  285.65   10.88
   3 -15  -3  269.01   11.42
   3 -15  -3  300.29   10.58
   3 -17   3  280.37   13.88
  -3 -17  -3  278.19   15.89
   3  17  -3  305.32   15.65
   3 -17   3  289.72    9.02
   3  17  -3  278.84   11.57
  -3 -17  -3  303.41   11.79
  -3 -17   3  294.23   12.15
   3 -17  -3  271.35   12.75
   3 -17  -3  295.21   13.22
  -3  17  -3  284.07   13.79
  -3  17  -3  282.69    9.52
   3 -17  -3  284.31   12.50
   3  17   3  280.55   15.32
  -3 -17   3  270.34   14.52
   3  17   3  287.51   11.42
   3 -17  -3  297.99   11.11
   3  19  -3  341.72   15.49
  -3 -19  -3  361.39   21.23
   3 -19   3  357.98   19.24
  -3 -19  -3  386.26   16.64
   3 -19   3  380.99   13.52
   3  19  -3  380.61   20.67
   3 -19  -3  386.08   21.59
  -3 -19   3  380.03   19.02
   3 -19  -3  345.59   17.96
   3 -19  -3  370.68   16.91
  -3  19  -3  416.37   15.96
   3  19   3  349.07   19.88
  -3  19  -3  374.43   19.62
   3 -19  -3  353.99   15.46
   3  19   3  365.63   16.22
  -3 -19   3  336.94   18.89
  -3 -21  -3   84.24    3.18
   3  21  -3   76.52    3.17
   3 -21   3   79.76    4.87
  -3 -21  -3   84.61    5.55
   3  21  -3   83.35    5.03
   3 -21   3   81.57    2.13
   3 -21  -3   85.18    4.38
  -3  21  -3   89.50    2.31
  -3 -21   3   83.23    3.48
   3 -21  -3   84.39    3.25
  -3  21  -3   86.90    5.01
   3  21   3   77.77    3.20
   3  21   3   77.88    4.95
   3 -21  -3   78.55    2.87
  -3 -21   3   73.48    4.80
   3 -21  -3   81.19    6.46
   3 -23   3    4.28    0.22
  -3 -23  -3    4.11    2.49
   3  23  -3    4.32    0.73
   3  23  -3    4.17    1.38
  -3 -23  -3    4.54    1.17
   3 -23   3    4.26    1.37
   3  23   3    4.22    0.78
  -3  23  -3    4.86    0.28
  -3 -23   3    4.80    0.81
   3  23   3    5.95    1.25
  -3  23  -3    4.51    1.35
   3 -23  -3    3.51    0.55
   3 -23  -3    5.19    0.76
   3 -23  -3    4.68    2.17
   3 -23  -3    6.97    1.26
  -3 -23   3    5.50    1.31
  -3 -25  -3    9.87    1.69
   3 -25   3    8.33    0.52
   3  25  -3    8.72    1.55
   3 -25   3    7.87    1.56
  -3 -25  -3    7.61    0.89
   3  25  -3    6.89    0.92
  -3 -25   3    7.21    0.97
   3 -25  -3    7.01    1.68
   3 -25  -3    7.74    1.11
  -3  25  -3    7.76    0.55
  -3  25  -3    7.71    1.56
   3 -25  -3    6.15    0.68
   3  25   3    7.63    0.96
   3  25   3    7.30    1.39
   3 -25  -3    6.50    1.62
  -3 -25   3    5.65    2.52
  -3 -27  -3    9.74    1.70
   3 -27   3   10.54    0.41
   3 -27   3    9.29    1.66
  -3 -27  -3    9.52    1.01
   3  27  -3    7.94    1.07
   3  27  -3    9.48    1.63
   3 -27  -3    9.74    1.72
  -3 -27   3    8.65    1.07
   3 -27  -3   10.29    1.44
   3 -27  -3    8.75    0.74
   3 -27  -3   11.49    1.85
  -3 -27   3    7.80    1.56
  -3  27  -3    9.81    0.40
   3  27   3    9.76    0.99
   3  27   3    8.35    1.37
   3  29  -3    0.93    0.83
   3 -29   3    0.55    0.20
   3 -29   3    0.48    1.35
   3  29  -3    0.53    0.59
  -3 -29  -3    1.05    1.40
  -3 -29  -3    0.45    0.52
  -3 -29   3    0.80    0.55
   3  29   3    0.14    0.68
   3 -29  -3    0.30    0.66
   3 -29  -3    0.92    0.96
   3 -29  -3    1.30    1.27
  -3 -29   3    0.33    0.80
   3  29   3    1.52    0.50
   3 -29  -3    0.29    0.60
  -3  29  -3    1.56    0.81
  -3  29  -3    0.89    0.28
   3 -31   3   95.70    2.78
   3  31  -3   91.68    5.04
   3  31  -3   82.27    5.88
   3 -31   3   85.00    4.84
  -3 -31  -3   80.05    3.72
  -3 -31  -3   91.80    5.05
   3 -31  -3   96.67    4.39
  -3 -31   3  100.15    4.22
   3 -31  -3   82.07    3.22
   3  31   3   84.04    4.81
  -3 -31   3   82.47    4.79
   3 -31  -3   92.60    6.13
  -3  31  -3   97.41    5.04
   3  31   3   85.53    4.40
  -3  31  -3   91.06    2.65
   3 -31  -3   92.46    5.62
   3 -33   3   69.29    1.98
   3 -33   3   60.93    3.66
   3  33  -3   53.55    3.04
   3  33  -3   61.77    3.76
  -3 -33  -3   57.27    2.79
  -3 -33  -3   63.43    3.75
  -3 -33   3   68.42    3.02
   3 -33  -3   64.49    3.88
   3 -33  -3   64.39    3.29
   3 -33  -3   69.24    3.11
   3  33   3   57.15    3.19
   3  33   3   57.37    2.72
   3 -33  -3   57.22    2.35
  -3 -33   3   57.80    3.67
   3 -35   3   67.20    1.93
   3 -35   3   60.29    1.77
   3  35  -3   62.14    3.75
  -3 -35  -3   61.39    3.69
   3 -35   3   64.62    3.69
   3 -35   3   59.72    3.65
  -3 -35  -3   54.36    2.71
   3  35  -3   51.86    2.89
   3 -35  -3   61.86    3.66
  -3 -35   3   67.83    2.93
   3  35   3   55.50    3.12
   3 -35  -3   66.41    2.98
  -3 -35   3   53.63    3.53
   3 -35  -3   58.55    3.02
   3 -35  -3   57.08    2.38
   3  35   3   54.15    3.47
   3 -37   3   88.27    4.87
  -3 -37  -3  100.99    5.14
  -3 -37  -3   82.51    3.84
   3  37  -3   80.93    3.96
   3 -37   3   99.29    5.17
   3  37  -3   94.87    5.18
   3 -37  -3   96.20    4.80
  -3 -37   3  105.12    4.22
   3 -37  -3   97.71    4.18
   3  37   3   89.15    4.45
   3  37   3   84.98    3.82
   3 -37  -3   93.53    4.24
   3 -37  -3   85.10    3.51
  -3 -37   3   88.02    6.82
  -3 -39  -3    2.91    0.94
   3 -39   3    3.06    0.95
   3  39  -3    2.53    1.67
   3 -39   3    2.76    1.57
  -3 -39  -3    2.02    0.67
   3  39  -3    2.52    0.98
  -3 -39   3    2.04    1.01
  -3 -39   3    3.62    0.61
   3  39   3    2.92    0.77
   3 -39  -3    1.82    0.66
   3 -39  -3    2.42    0.98
   3  39   3    2.33    0.96
   3 -39  -3    3.18    0.85
   3 -39  -3    2.20    0.85
   3  41  -3    7.64    0.84
   3 -41   3   10.43    1.41
   3 -41   3    9.77    1.42
   3  41  -3   10.22    1.50
  -3 -41  -3   12.31    1.43
  -3 -41  -3    8.74    1.60
   3 -41  -3    9.58    0.97
  -3 -41   3    8.59    1.48
   3  41   3    8.87    1.83
  -3 -41   3   12.09    0.94
   3 -41  -3    9.68    0.93
   3 -41  -3    9.92    1.96
   3  41   3   10.24    0.91
   3 -41  -3    7.15    0.83
  -5  -1  -3   18.73    2.26
   5   1  -3   18.23    0.75
  -5  -1  -3   16.76    0.61
   5  -1   3   16.70    0.65
  -5   1   3   17.44    0.78
  -5   1   3   16.79    0.80
   5  -1   3   19.28    1.43
   5   1  -3   17.78    0.86
  -5   1  -3   19.45    1.58
   5   1   3   16.14    0.62
  -5  -1   3   15.85    0.94
  -5   1  -3   16.99    0.65
   5  -1  -3   17.71    0.66
  -5  -1   3   16.70    0.81
   5  -1  -3   17.20    0.83
   5   1   3   18.70    1.85
   5   3  -3   24.24    1.04
  -5  -3  -3   24.43    0.76
  -5  -3  -3   28.24    5.62
  -5   3   3   23.85    0.61
   5   3  -3   25.30    1.01
  -5   3   3   23.48    0.94
   5  -3   3   26.69    1.20
   5  -3   3   24.88    0.86
  -5   3  -3   26.64    1.98
   5   3   3   27.00    2.75
   5   3   3   24.13    0.77
  -5  -3   3   23.84    0.90
   5  -3  -3   26.96    0.76
  -5   3  -3   25.31    1.25
   5  -3  -3   24.95    1.01
  -5  -3   3   23.91    0.99
  -5   5   3   14.51    0.39
   5   5  -3   16.57    0.84
  -5  -5  -3   16.02    0.84
  -5  -5  -3   18.66    3.69
   5  -5   3   15.50    0.59
  -5   5   3   15.62    1.10
   5   5  -3   16.31    0.86
   5  -5   3   14.76    0.68
  -5   5  -3   17.88    0.72
   5  -5  -3   16.25    0.48
   5  -5  -3   16.31    0.79
  -5  -5   3   15.16    0.78
  -5   5  -3   16.38    1.01
  -5  -5   3   15.86    0.78
   5   5   3   17.59    4.43
   5   5   3   14.85    0.57
  -5  -7  -3   18.36    0.63
   5   7  -3   17.38    0.93
  -5  -7  -3   20.10    3.42
  -5   7   3   17.71    0.42
   5  -7   3   18.55    0.82
   5  -7   3   18.20    0.43
   5   7  -3   18.58    1.05
  -5   7   3   17.75    0.80
  -5   7  -3   17.78    0.66
  -5   7  -3   17.83    0.84
   5   7   3   17.34    0.64
   5  -7  -3   17.99    0.86
  -5  -7   3   20.30    1.00
  -5  -7   3   17.82    0.90
   5  -7  -3   18.64    0.50
   5   7   3   21.07    4.78
   5   9  -3   69.45    2.74
  -5  -9  -3   65.36    9.01
   5   9  -3   65.93    2.47
   5  -9   3   69.45    2.45
   5  -9   3   67.26    2.33
  -5   9   3   70.71    2.31
  -5  -9  -3   66.83    1.93
  -5   9   3   70.30    1.65
   5  -9  -3   65.89    3.05
   5   9   3   68.68    2.00
  -5   9  -3   65.99    1.39
  -5  -9   3   69.97    3.77
   5  -9  -3   68.25    1.67
   5   9   3   63.20    5.06
  -5  -9   3   70.42    2.50
  -5 -11  -3  104.55    7.06
  -5  11   3  104.64    3.57
   5 -11   3  102.26    3.72
   5  11  -3  102.69    3.74
   5  11  -3  108.98    5.68
  -5 -11  -3  108.10    3.86
  -5  11   3  106.05    3.06
   5 -11   3  103.84    3.82
   5 -11  -3  109.30    2.87
   5  11   3  102.82    3.17
   5 -11  -3  100.57    3.58
  -5 -11   3  107.18    4.39
   5  11   3  100.78    6.59
  -5 -11   3  104.86    4.78
  -5 -13  -3    6.67    1.84
   5 -13   3    6.39    1.20
   5 -13   3    6.60    0.69
   5  13  -3    6.49    0.91
   5  13  -3    5.82    1.12
  -5 -13  -3    5.63    0.46
   5 -13  -3    5.74    0.57
  -5 -13   3    6.24    0.67
   5 -13  -3    5.29    0.45
   5 -13  -3    5.74    0.62
   5  13   3    6.16    0.47
  -5 -13   3    5.61    0.99
   5 -13  -3    5.75    0.27
   5  13   3    7.12    1.66
  -5 -15  -3   12.11    2.39
   5  15  -3   14.29    0.98
   5 -15   3   14.25    1.12
   5 -15   3   15.13    1.13
   5  15  -3   14.72    1.43
  -5 -15  -3   14.47    0.74
  -5 -15   3   14.21    1.04
   5 -15  -3   13.29    0.55
   5  15   3   13.26    0.70
   5 -15  -3   12.81    0.95
  -5 -15   3   14.31    1.52
   5 -15  -3   13.35    0.86
   5  15   3   13.58    2.21
   5 -15  -3   13.69    0.48
  -5 -17  -3  112.01    7.03
   5 -17   3  108.99    4.88
   5  17  -3  116.01    5.75
   5  17  -3  105.53    4.22
  -5 -17  -3  111.11    3.90
   5 -17   3  107.13    4.88
   5 -17  -3  110.56    3.31
   5 -17  -3  111.18    4.26
  -5 -17   3  113.66    4.66
   5  17   3  107.40    3.76
   5 -17  -3  105.29    3.54
   5 -17  -3  103.18    4.29
   5  17   3  104.01    6.68
  -5 -17   3  110.71    5.86
  -5 -19  -3   56.16    4.48
  -5 -19  -3   57.38    2.20
   5 -19   3   52.59    3.07
   5 -19   3   53.89    3.11
   5  19  -3   62.30    3.90
   5  19  -3   53.53    3.51
  -5 -19   3   55.53    4.04
   5 -19  -3   56.01    1.75
   5 -19  -3   56.99    2.49
   5 -19  -3   51.84    2.57
   5 -19  -3   55.66    2.08
  -5 -19   3   53.46    3.99
   5  19   3   53.10    2.08
   5  19   3   52.26    4.18
  -5 -21  -3   12.52    2.23
   5 -21   3   12.95    1.59
   5 -21   3   12.34    1.58
   5  21  -3   12.93    1.77
   5  21  -3   13.11    1.97
  -5 -21  -3   13.47    1.55
  -5 -21   3   13.09    1.31
   5 -21  -3   12.51    0.69
   5 -21  -3   12.28    1.18
   5 -21  -3   12.33    0.90
   5 -21  -3   12.17    1.26
  -5 -21   3   13.22    2.11
   5  21   3   11.88    0.89
   5  21   3   12.12    1.93
  -5 -23  -3   67.88    4.77
   5 -23   3   63.66    3.98
   5  23  -3   67.86    6.96
   5  23  -3   62.51    3.01
  -5 -23  -3   67.30    2.86
   5 -23   3   66.07    4.07
   5 -23  -3   70.38    3.45
   5  23   3   62.37    4.32
  -5 -23   3   69.11    3.47
   5 -23  -3   66.35    2.46
  -5 -23   3   61.14    4.61
   5  23   3   64.87    2.69
   5 -23  -3   63.72    3.60
   5 -23  -3   62.62    4.80
  -5 -25  -3   75.78    4.93
   5 -25   3   74.85    4.51
   5  25  -3   76.02    5.05
   5 -25   3   75.37    4.68
   5  25  -3   68.33    3.31
  -5 -25  -3   74.85    3.26
   5 -25  -3   75.05    3.95
   5  25   3   69.80    4.49
  -5 -25   3   75.89    3.80
   5 -25  -3   74.06    3.95
   5 -25  -3   69.39    5.40
   5 -25  -3   72.74    3.01
  -5 -25   3   66.23    4.77
   5  25   3   70.50    3.09
   5 -27   3   35.66    2.98
   5  27  -3   37.01    2.13
   5 -27   3   38.28    3.19
   5  27  -3   40.91    3.21
  -5 -27  -3   43.01    3.16
  -5 -27  -3   39.61    2.04
  -5 -27   3   35.84    3.02
   5  27   3   36.63    2.84
  -5 -27   3   41.23    2.46
   5 -27  -3   40.75    2.02
   5 -27  -3   37.74    2.56
   5 -27  -3   37.96    1.68
   5  27   3   37.10    2.89
   5 -27  -3   42.91    2.74
   5  29  -3   24.81    1.78
   5 -29   3   31.02    2.72
   5  29  -3   26.71    2.59
  -5 -29  -3   26.26    2.52
  -5 -29  -3   26.58    2.55
   5 -29   3   27.15    2.54
  -5 -29   3   28.27    1.95
   5 -29  -3   26.87    1.88
   5  29   3   25.55    1.69
   5  29   3   24.97    2.14
   5 -29  -3   27.78    1.85
   5 -29  -3   28.02    2.21
   5 -29  -3   29.91    2.38
  -5 -29   3   24.44    2.44
  -5 -31  -3    0.09    0.85
   5 -31   3    0.31    0.89
   5 -31   3    1.54    0.87
   5  31  -3    0.92    1.04
  -5 -31  -3    0.56    0.91
   5  31  -3    0.54    0.85
  -5 -31   3    0.38    0.62
   5 -31  -3    0.51    0.72
  -5 -31   3   -0.01    0.82
   5 -31  -3    0.63    0.67
   5 -31  -3    1.44    1.33
   5  31   3    0.68    0.55
   5 -31  -3    0.26    0.37
   5  31   3    0.35    0.70
  -5 -33  -3   11.26    1.68
   5 -33   3   13.29    1.71
   5  33  -3   10.12    1.44
   5  33  -3   12.17    2.78
  -5 -33  -3    9.90    1.16
   5 -33   3   12.79    1.76
   5 -33  -3   13.18    2.01
   5  33   3   12.46    1.77
   5 -33  -3   12.81    1.77
   5 -33  -3    9.83    0.80
   5  33   3   11.15    1.41
   5 -33  -3   12.97    1.78
  -5 -33   3   10.76    2.74
  -5 -33   3   13.54    1.29
   5 -35   3   28.80    2.39
  -5 -35  -3   29.41    3.66
   5 -35   3   25.96    2.41
   5  35  -3   27.23    2.45
  -5 -35  -3   23.70    1.70
   5  35  -3   23.48    2.05
  -5 -35   3   30.11    1.87
   5 -35  -3   29.69    2.18
   5 -35  -3   29.71    2.35
   5  35   3   24.42    1.98
   5 -35  -3   24.89    1.26
  -5 -35   3   24.35    2.42
   5 -35  -3   26.42    2.63
   5  35   3   25.24    1.67
  -5 -37  -3    6.72    1.21
   5  37  -3    4.84    1.29
   5 -37   3    4.21    1.19
   5 -37   3    5.61    1.21
   5  37  -3    2.93    1.65
  -5 -37  -3    3.74    1.38
   5 -37  -3    3.37    1.74
  -5 -37   3    4.82    0.88
   5  37   3    4.23    1.31
   5 -37  -3    5.21    0.82
  -5 -37   3    4.42    1.25
   5 -37  -3    4.47    0.61
   5 -37  -3    5.86    0.97
   5  37   3    4.45    1.00
  -5 -39  -3    2.59    0.97
   5  39  -3    2.49    1.04
   5 -39   3    2.45    0.95
   5 -39   3    1.58    1.60
   5  39  -3    0.94    0.76
  -5 -39  -3    0.90    1.11
  -5 -39   3    2.78    0.69
   5 -39  -3    3.06    0.71
   5  39   3    1.44    0.64
   5 -39  -3    1.42    0.80
   5 -39  -3    1.67    0.48
   5 -39  -3    2.63    0.63
  -5 -39   3    1.74    1.04
   5  39   3    1.16    0.79
  -5 -41  -3   11.68    2.63
   5 -41   3   10.68    1.57
   5 -41   3   10.17    1.59
   5  41  -3    9.85    1.67
   5  41  -3    8.68    1.15
  -5 -41  -3    9.84    1.13
  -5 -41   3   12.37    1.77
   5  41   3   10.48    1.05
   5  41   3   10.88    2.04
   5 -41  -3   10.22    1.01
  -5 -41   3    9.78    1.68
   5 -41  -3    9.36    1.33
   5 -41  -3   12.75    1.29
   5 -41  -3   11.04    1.12
   7   1  -3  111.83    4.05
  -7  -1  -3  114.60    3.61
   7   1  -3  117.59    4.75
   7  -1   3  111.46    3.64
   7  -1   3  131.44    7.71
  -7  -1  -3  112.58    4.76
  -7   1   3  114.09    3.88
  -7   1   3  109.45    3.31
  -7   1  -3  113.57    3.61
  -7  -1   3  108.32    3.41
   7   1   3  125.06    8.34
  -7   1  -3  110.62    4.12
   7   1   3  108.39    3.54
   7  -1  -3  117.46    3.73
  -7  -1   3  112.53    3.87
   7  -1  -3  111.54    4.01
   7   3  -3   13.57    0.92
   7  -3   3   14.58    0.70
  -7  -3  -3   13.18    0.63
  -7   3   3   13.47    0.50
   7  -3   3   15.99    1.79
  -7   3   3   14.45    0.77
   7   3  -3   15.19    1.29
  -7  -3  -3   14.86    1.53
  -7  -3   3   13.36    0.70
  -7   3  -3   13.31    0.69
   7  -3  -3   14.21    0.63
   7   3   3   14.53    2.68
  -7   3  -3   13.41    0.73
  -7  -3   3   13.71    0.84
   7  -3  -3   13.28    0.84
   7   3   3   13.73    0.65
  -7   5   3   86.04    2.39
  -7   5   3   89.26    2.96
   7   5  -3   93.06    4.22
  -7  -5  -3   91.61    3.43
  -7  -5  -3   92.58    5.27
   7   5  -3   88.87    3.36
   7  -5   3   88.32    2.93
   7  -5   3   95.58    4.15
   7   5   3   86.75    2.75
  -7  -5   3   88.52    3.20
  -7   5  -3   88.02    2.92
   7   5   3   89.13    6.66
  -7   5  -3   88.00    2.58
  -7  -5   3   85.44    2.96
   7  -5  -3   88.44    3.12
   7  -5  -3   91.23    2.68
  -7  -7  -3  138.21    4.60
  -7   7   3  139.90    4.11
  -7  -7  -3  148.66    8.91
   7  -7   3  140.97    4.92
   7   7  -3  139.06    5.38
   7  -7   3  158.73    5.67
   7   7  -3  141.72    5.32
  -7   7   3  143.13    4.89
   7  -7  -3  136.00    5.90
  -7   7  -3  136.94    4.80
  -7   7  -3  132.98    3.85
   7  -7  -3  144.47    4.46
  -7  -7   3  144.21    5.27
   7   7   3  138.95    9.15
  -7  -7   3  140.48    6.20
   7   7   3  138.62    4.63
  -7   9   3   73.18    1.96
   7  -9   3   74.54    2.67
   7   9  -3   73.69    2.99
  -7   9   3   74.82    2.52
  -7  -9  -3   79.89    6.58
   7   9  -3   77.78    3.08
   7  -9   3   80.95    2.26
  -7  -9  -3   74.59    2.39
  -7   9  -3   72.58    1.83
  -7  -9   3   72.59    2.90
  -7   9  -3   71.68    2.57
   7   9   3   69.14    5.63
   7   9   3   70.78    2.34
   7  -9  -3   71.72    2.68
   7  -9  -3   77.56    2.19
  -7  -9   3   73.74    2.90
   7 -11   3   11.99    0.85
  -7  11   3   11.16    0.42
   7  11  -3   13.07    1.04
  -7 -11  -3   15.80    5.82
   7  11  -3   12.27    1.04
  -7  11   3   11.77    0.72
   7 -11   3   11.74    0.22
  -7 -11  -3   12.46    0.69
   7 -11  -3   12.13    0.50
  -7  11  -3   11.93    0.19
  -7  11  -3   11.68    0.85
   7  11   3   11.67    2.40
  -7 -11   3   11.73    1.06
  -7 -11   3   12.18    0.99
   7  11   3   11.19    0.70
   7 -11  -3   11.80    0.83
  -7  13   3  129.80    3.85
  -7  13   3  125.94    5.35
   7 -13   3  121.98    4.79
  -7 -13  -3  125.22    5.24
   7  13  -3  123.63    6.92
   7 -13   3  125.49    4.90
   7  13  -3  120.92    5.05
  -7 -13  -3  134.35   16.07
  -7 -13   3  123.39    5.11
   7 -13  -3  126.89    3.87
   7  13   3  118.58    4.25
   7 -13  -3  120.10    5.76
  -7 -13   3  125.88    5.50
   7  13   3  113.69    8.33
  -7 -15  -3    4.91    2.28
   7  15  -3    4.96    0.82
   7 -15   3    4.17    0.73
  -7 -15  -3    4.36    0.55
   7  15  -3    4.35    0.93
  -7 -15   3    4.48    0.87
   7  15   3    3.70    0.56
   7 -15  -3    3.93    0.36
   7  15   3    5.54    1.84
   7 -15  -3    4.20    0.65
  -7 -15   3    4.55    1.01
   7  17  -3   23.24    1.88
  -7 -17  -3   21.32    3.52
   7 -17   3   20.42    1.54
   7  17  -3   23.08    2.50
   7 -17   3   21.27    2.38
  -7 -17  -3   22.43    1.17
   7 -17  -3   20.74    2.02
   7 -17  -3   21.46    0.83
  -7 -17   3   22.87    1.70
   7 -17  -3   20.62    0.82
   7 -17  -3   21.35    1.78
   7  17   3   21.44    1.79
  -7 -17   3   22.40    2.09
   7  17   3   19.14    3.07
   7  19  -3  100.65    4.55
   7 -19   3  103.38    4.78
   7 -19   3  102.78    4.77
   7  19  -3  108.63    5.55
  -7 -19  -3  104.30    5.19
  -7 -19  -3  110.69    7.73
  -7 -19   3  109.66    5.05
   7 -19  -3  102.20    3.48
   7  19   3   99.48    4.85
  -7 -19   3  108.42    5.85
   7  19   3   94.05    7.05
   7 -19  -3   96.24    4.12
   7 -19  -3  106.54    3.43
   7 -19  -3  106.46    5.14
   7  21  -3   25.54    2.27
   7 -21   3   23.85    1.84
   7  21  -3   21.12    1.64
   7 -21   3   22.50    1.88
  -7 -21  -3   25.32    3.27
  -7 -21  -3   24.61    1.39
   7  21   3   23.67    1.97
   7 -21  -3   22.06    1.08
   7 -21  -3   24.05    1.36
  -7 -21   3   23.46    3.18
   7 -21  -3   21.06    1.45
   7 -21  -3   23.15    1.44
  -7 -21   3   26.10    2.54
   7  21   3   24.07    2.93
  -7 -23  -3    2.23    1.30
   7 -23   3    1.06    1.43
   7  23  -3    0.52    0.99
  -7 -23  -3    0.92    0.96
   7 -23   3    2.54    1.36
   7  23  -3    0.70    0.66
   7 -23  -3    0.98    0.37
  -7 -23   3    0.94    0.83
   7 -23  -3    2.34    0.46
   7 -23  -3    1.08    0.54
   7 -23  -3    0.69    0.59
  -7 -23   3    0.19    1.16
   7  23   3    0.79    1.20
   7  25  -3   42.91    2.36
   7 -25   3   43.34    3.02
   7 -25   3   43.66    2.96
  -7 -25  -3   48.10    3.87
  -7 -25  -3   46.57    2.20
   7  25  -3   46.92    3.51
   7 -25  -3   45.61    1.80
  -7 -25   3   45.99    2.89
   7 -25  -3   47.33    2.31
   7  25   3   41.96    2.02
   7 -25  -3   44.49    1.98
  -7 -25   3   42.54    3.87
   7 -25  -3   42.44    3.28
   7  25   3   42.30    3.59
  -7 -27  -3   21.06    1.38
   7  27  -3   20.76    2.42
   7 -27   3   20.96    2.12
   7  27  -3   19.84    1.56
  -7 -27  -3   19.62    4.01
   7 -27   3   22.71    2.04
   7 -27  -3   20.27    1.54
   7  27   3   20.08    1.30
   7 -27  -3   21.36    1.14
   7 -27  -3   20.59    1.26
  -7 -27   3   22.59    1.90
   7 -27  -3   18.45    1.46
  -7 -27   3   18.03    2.52
   7  27   3   19.89    3.62
   7 -29   3    5.40    1.52
   7  29  -3    7.59    1.65
   7 -29   3    7.50    1.40
   7  29  -3    6.60    1.04
  -7 -29  -3    7.04    1.59
  -7 -29  -3    6.81    0.92
   7  29   3    5.28    1.43
  -7 -29   3    8.61    1.26
   7 -29  -3    6.68    0.80
  -7 -29   3    6.35    1.67
   7 -29  -3    7.09    0.80
   7 -29  -3    6.24    0.98
   7  29   3    5.58    0.86
   7 -29  -3    8.37    1.10
   7  31  -3   58.69    3.40
   7 -31   3   67.81    4.59
   7  31  -3   66.05    4.60
  -7 -31  -3   67.63    4.39
  -7 -31  -3   62.41    3.09
   7 -31   3   62.58    4.24
   7  31   3   62.12    4.03
  -7 -31   3   73.54    4.00
   7  31   3   59.78    4.13
   7 -31  -3   63.26    3.12
   7 -31  -3   64.43    3.65
   7 -31  -3   63.76    3.39
   7 -31  -3   70.72    5.35
  -7 -31   3   59.34    4.30
   7  33  -3    0.86    0.75
   7 -33   3    1.04    0.98
  -7 -33  -3    1.05    0.63
   7  33  -3    0.58    1.64
  -7 -33  -3    0.58    0.95
   7 -33   3    0.52    1.03
  -7 -33   3    0.91    1.02
   7  33   3    0.24    0.83
  -7 -33   3    1.66    0.79
   7 -33  -3    1.18    0.69
   7 -33  -3    0.17    0.65
   7 -33  -3    0.96    0.44
   7 -33  -3    0.77    0.84
   7  33   3    0.84    0.63
   7 -35   3    3.29    1.13
   7  35  -3    1.38    0.92
   7  35  -3    1.70    1.14
  -7 -35  -3    2.30    1.76
  -7 -35  -3    1.99    1.19
   7 -35   3    1.78    1.10
  -7 -35   3    1.75    0.83
   7 -35  -3    2.24    0.93
   7  35   3    1.64    0.90
   7 -35  -3    1.42    0.98
  -7 -35   3    2.74    1.12
   7 -35  -3    1.36    0.69
   7  35   3    1.62    0.76
   7 -35  -3    1.66    0.50
   7 -37   3   33.67    2.78
   7  37  -3   30.00    2.80
   7 -37   3   29.85    2.81
  -7 -37  -3   34.28    2.75
   7  37  -3   28.79    2.58
  -7 -37  -3   26.37    2.97
  -7 -37   3   35.17    2.24
   7 -37  -3   33.14    2.56
   7 -37  -3   32.89    2.48
  -7 -37   3   26.06    2.77
   7  37   3   28.48    2.33
   7  37   3   26.87    1.99
   7 -37  -3   29.70    2.65
   7 -37  -3   27.44    1.46
   7  39  -3    1.34    0.96
   7 -39   3    0.51    0.89
   7  39  -3    0.51    0.79
  -7 -39  -3    1.52    0.93
   7 -39   3    0.48    0.91
  -7 -39  -3    0.21    0.62
  -7 -39   3    1.21    1.13
   7 -39  -3    0.12    0.74
   7 -39  -3    0.07    1.16
   7 -39  -3    0.52    0.42
   7  39   3    1.59    0.75
   7  39   3    0.70    0.63
   7 -39  -3    1.02    0.86
  -7 -39   3    0.76    0.95
   9   1  -3  591.10   30.65
   9  -1   3  593.95   41.57
   9  -1   3  609.24   32.14
  -9  -1  -3  592.50   31.46
  -9  -1  -3  601.44   31.42
   9   1  -3  633.39   31.57
  -9   1   3  611.65   32.64
  -9   1   3  578.84   29.52
   9  -1  -3  594.90   33.05
  -9  -1   3  595.53   29.33
  -9   1  -3  604.39   31.65
   9   1   3  590.78   42.83
  -9   1  -3  595.24   32.38
   9   1   3  607.63   31.83
   9  -1  -3  621.87   31.03
  -9  -1   3  612.63   30.98
  -9   3   3   98.73    3.13
  -9  -3  -3  101.54    3.51
   9  -3   3  116.58    8.47
  -9  -3  -3  102.55    4.64
   9   3  -3  103.38    4.98
  -9   3   3  104.26    3.78
   9   3  -3  100.57    4.17
   9   3   3  103.61    3.68
   9   3   3  108.77    6.82
  -9   3  -3  100.54    4.33
   9  -3  -3  103.64    3.56
  -9  -3   3  102.49    3.92
  -9  -3   3  100.13    3.53
   9  -3  -3   99.33    3.96
   9  -5   3  318.84   13.51
  -9  -5  -3  322.66   13.35
  -9   5   3  328.30   13.72
   9   5  -3  337.14   16.14
   9  -5   3  364.48   21.11
  -9   5   3  317.63   12.42
   9   5  -3  318.86   14.49
  -9  -5  -3  326.06   16.46
  -9   5  -3  319.48   14.67
  -9   5  -3  316.23   12.49
   9   5   3  328.79   20.10
   9  -5  -3  338.35   14.75
  -9  -5   3  314.41   13.33
  -9  -5   3  326.77   14.30
   9   5   3  319.51   13.31
   9  -5  -3  313.21   13.77
  -9  -7  -3  207.55    7.86
   9  -7   3  208.31    8.14
   9   7  -3  203.25    8.79
  -9   7   3  202.78    7.04
   9  -7   3  230.27   11.83
   9   7  -3  215.64    8.82
  -9  -7  -3  213.90   14.77
  -9   7   3  210.49    8.03
  -9   7  -3  201.31    7.85
  -9   7  -3  204.93    6.90
   9   7   3  218.00   13.78
   9   7   3  205.33    7.88
   9  -7  -3  214.09    8.82
  -9  -7   3  203.27    8.13
   9  -7  -3  200.86    8.21
   9  -7  -3  213.55    8.77
  -9  -7   3  212.15   10.51
  -9  -9  -3   49.46    1.89
   9  -9   3   48.69    2.06
  -9   9   3   46.56    1.42
   9   9  -3   49.09    3.85
   9  -9   3   52.69    2.24
  -9   9   3   48.71    1.87
   9   9  -3   51.20    2.36
  -9  -9  -3   50.56    4.30
  -9   9  -3   47.03    1.97
   9   9   3   49.96    5.31
   9   9   3   47.15    1.90
  -9  -9   3   47.34    2.17
   9  -9  -3   47.09    2.15
   9  -9  -3   51.15    2.34
  -9   9  -3   48.75    1.49
  -9  -9   3   48.52    2.42
   9 -11   3  222.14    9.14
  -9  11   3  215.47    7.66
   9  11  -3  213.24    9.64
  -9  11   3  229.41    8.91
   9 -11   3  252.27   10.81
  -9 -11  -3  225.82   14.72
  -9 -11  -3  217.96    8.63
   9  11  -3  231.26    9.91
  -9  11  -3  215.70    8.80
  -9 -11   3  218.44    9.65
   9  11   3  218.18    8.75
   9  11   3  232.14   21.57
  -9 -11   3  217.48    9.43
   9 -11  -3  209.16    8.79
  -9  11  -3  220.60    7.12
   9 -11  -3  222.84    8.14
   9 -13   3  194.22    8.13
  -9  13   3  190.86    7.32
   9  13  -3  202.83    8.95
   9 -13   3  212.00    6.88
  -9 -13  -3  201.97   14.89
  -9  13   3  196.61    7.55
   9  13  -3  188.15    8.65
  -9 -13  -3  193.02    7.64
   9 -13  -3  200.01    8.07
   9  13   3  192.42   13.83
  -9  13  -3  192.39    7.92
  -9  13  -3  198.45    5.63
  -9 -13   3  195.96    8.84
  -9 -13   3  190.13   10.72
   9 -13  -3  185.88    9.19
   9  13   3  192.24    9.11
  -9  15   3  106.88    3.90
  -9  15   3  104.28    3.35
   9 -15   3  101.97    4.39
   9 -15   3  101.08    4.28
   9  15  -3  107.59    5.04
  -9 -15  -3  111.35   10.49
  -9 -15  -3  104.41    4.03
   9  15  -3  104.80    4.88
   9 -15  -3  106.18    4.28
   9  15   3   99.54    8.31
  -9 -15   3  104.72    4.91
   9 -15  -3   95.89    4.00
  -9 -15   3  102.35    4.97
  -9  17   3  561.66   27.97
   9 -17   3  527.72   28.09
  -9 -17  -3  558.12   28.37
  -9  17   3  547.52   26.17
   9 -17   3  524.63   30.28
   9  17  -3  540.00   29.23
  -9 -17  -3  564.27   41.03
   9  17  -3  532.97   32.08
  -9 -17   3  525.17   29.22
   9 -17  -3  570.13   27.20
  -9 -17   3  540.47   29.68
   9  17   3  523.30   28.92
   9  17   3  490.78   33.75
   9 -17  -3  506.69   26.39
   9  19  -3  459.80   24.68
   9 -19   3  444.86   23.14
   9 -19   3  439.98   22.74
  -9 -19  -3  454.11   31.66
  -9 -19  -3  455.93   22.65
   9  19  -3  444.00   23.57
   9 -19  -3  449.31   21.84
   9 -19  -3  467.36   21.52
  -9 -19   3  461.72   28.92
   9 -19  -3  469.44   22.35
   9  19   3  432.85   35.74
   9  19   3  452.95   24.09
   9 -19  -3  429.51   21.55
  -9 -19   3  470.71   25.14
   9 -21   3   67.19    3.32
   9  21  -3   61.98    3.33
  -9 -21  -3   68.68    6.24
  -9 -21  -3   67.26    2.92
   9  21  -3   68.14    3.86
   9 -21   3   67.54    3.46
   9 -21  -3   67.69    3.05
  -9 -21   3   70.41    3.94
   9 -21  -3   64.70    3.01
  -9 -21   3   70.07    4.30
   9  21   3   66.62    5.66
   9 -21  -3   61.85    2.84
   9  21   3   64.85    2.79
   9 -21  -3   66.38    2.64
   9  23  -3   63.17    3.72
   9 -23   3   57.15    3.23
   9  23  -3   56.18    3.01
   9 -23   3   56.77    4.37
  -9 -23  -3   61.94    5.16
  -9 -23  -3   60.38    2.67
   9 -23  -3   60.37    2.17
  -9 -23   3   61.12    3.56
   9  23   3   56.11    2.46
   9 -23  -3   60.88    2.40
  -9 -23   3   59.33    4.04
   9 -23  -3   57.55    2.17
   9 -23  -3   54.49    2.55
   9  23   3   56.56    4.84
  -9 -25  -3  109.22    5.90
   9  25  -3  108.72    5.85
   9 -25   3  106.20    5.22
   9 -25   3  105.50    5.43
  -9 -25  -3  111.02    7.21
   9  25  -3  102.27    5.01
  -9 -25  -3  109.25    5.90
  -9 -25   3  107.71    6.37
  -9 -25   3  112.61    7.89
   9 -25  -3   99.25    5.56
   9 -25  -3  109.95    4.83
   9 -25  -3  107.33    4.26
   9  25   3  104.04    4.30
   9 -25  -3  106.83    4.93
   9  25   3  104.93    9.80
   9 -27   3   28.89    2.52
  -9 -27  -3   33.52    1.87
   9 -27   3   29.30    2.30
   9  27  -3   32.79    2.76
  -9 -27  -3   35.18    5.35
   9  27  -3   30.89    2.13
  -9 -27   3   35.08    4.03
   9 -27  -3   33.46    1.70
   9  27   3   29.06    1.63
   9 -27  -3   33.00    1.49
   9 -27  -3   28.88    1.72
   9 -27  -3   32.97    2.26
  -9 -27   3   30.16    3.14
   9  27   3   29.02    3.13
   9 -29   3   45.42    3.22
   9 -29   3   40.75    2.95
  -9 -29  -3   45.78    3.75
   9  29  -3   37.81    3.83
   9  29  -3   42.91    3.42
  -9 -29  -3   39.48    2.24
   9 -29  -3   40.77    2.20
   9 -29  -3   41.03    1.91
   9 -29  -3   37.76    2.11
   9  29   3   37.84    2.05
   9 -29  -3   38.53    1.97
  -9 -29   3   42.35    3.77
   9  29   3   39.43    3.53
  -9 -29   3   45.05    3.16
   9 -31   3  100.98    6.32
   9  31  -3  103.32    6.49
   9  31  -3   94.31    5.19
  -9 -31  -3  107.99    6.59
   9 -31   3   97.49    5.67
  -9 -31  -3  102.43    4.78
   9 -31  -3  103.82    4.45
   9 -31  -3   96.48    4.55
   9  31   3   93.83    4.39
   9 -31  -3   96.64    4.37
  -9 -31   3   94.18    6.54
   9 -31  -3  106.78    6.42
  -9 -31   3  112.52    6.06
   9  31   3   96.00    6.15
   9  33  -3   77.04    4.53
   9 -33   3   78.46    8.16
   9 -33   3   79.51    5.03
  -9 -33  -3   83.85    5.44
  -9 -33  -3   80.76    4.02
   9  33  -3   87.07    5.77
   9 -33  -3   83.65    5.15
   9  33   3   74.74    4.91
  -9 -33   3   91.05    7.12
   9  33   3   74.64    3.76
  -9 -33   3   74.86    5.47
   9 -33  -3   77.21    3.59
   9 -33  -3   80.03    3.90
   9 -33  -3   86.82    5.88
   9  35  -3   75.30    5.44
   9  35  -3   72.11    6.40
   9 -35   3   78.90    8.41
   9 -35   3   70.08    5.05
  -9 -35  -3   74.07    3.98
  -9 -35  -3   80.17    5.14
   9  35   3   71.52    4.78
   9 -35  -3   76.42    3.77
   9 -35  -3   72.78    4.42
   9  35   3   70.58    3.91
  -9 -35   3   67.24    5.18
   9 -35  -3   85.02    4.59
  -9 -35   3   87.42    6.64
   9 -35  -3   76.20    4.07
   9  37  -3   22.81    4.62
   9  37  -3   25.43    2.56
   9 -37   3   27.80    2.84
  -9 -37  -3   28.90    4.48
   9 -37   3   25.10    4.68
  -9 -37  -3   25.02    2.01
   9 -37  -3   27.29    2.31
   9  37   3   23.94    2.48
   9  37   3   23.27    2.03
   9 -37  -3   28.20    2.37
   9 -37  -3   26.43    1.66
   9 -37  -3   23.79    1.46
  -9 -37   3   28.18    3.58
  -9 -37   3   23.87    2.82
  -9 -39  -3    5.57    1.10
   9 -39   3    7.33    1.64
   9  39  -3    5.42    1.51
   9  39  -3    5.92    1.70
  -9 -39  -3    5.61    1.63
   9 -39   3    4.42    1.61
  -9 -39   3    6.73    1.22
   9 -39  -3    7.27    1.39
   9 -39  -3    5.75    1.22
   9 -39  -3    6.23    0.75
   9  39   3    4.85    1.15
   9 -39  -3    6.66    0.85
  -9 -39   3    5.41    1.66
   9  39   3    4.42    1.34
 -11  -1  -3   75.51    3.79
  11  -1   3   78.31    4.89
 -11  -1  -3   74.09    4.53
  11   1  -3   75.63    3.57
  11  -1   3   77.02    4.13
  11   1  -3   79.61    3.16
 -11   1   3   75.43    3.06
 -11   1   3   71.21    2.55
  11  -1  -3   75.59    3.51
 -11   1  -3   73.86    2.84
  11   1   3   79.29    5.13
 -11   1  -3   72.15    2.91
  11  -1  -3   78.42    4.18
 -11  -1   3   75.87    4.29
 -11  -1   3   71.91    2.67
  11   1   3   75.33    2.94
  11   3  -3    3.31    0.86
  11  -3   3    1.37    1.98
  11   3  -3    2.90    0.69
 -11  -3  -3    2.68    0.85
 -11   3   3    2.50    0.60
 -11  -3  -3    3.37    0.54
 -11   3   3    2.40    0.70
  11  -3   3    2.71    0.62
  11  -3  -3    3.36    0.77
  11   3   3    2.20    0.60
  11   3   3    2.93    1.47
 -11   3  -3    3.48    0.50
 -11   3  -3    2.57    0.55
  11  -3  -3    3.53    0.59
 -11  -3   3    2.56    0.69
 -11  -3   3    2.29    0.55
  11  -5   3   55.71    2.38
 -11  -5  -3   56.91    2.25
 -11   5   3   52.91    1.83
  11  -5   3   61.29    5.37
  11   5  -3   53.83    3.04
 -11  -5  -3   59.28    5.13
 -11   5   3   56.87    2.30
  11   5  -3   58.36    2.66
 -11   5  -3   54.30    1.88
 -11   5  -3   55.74    2.25
  11   5   3   59.47    4.89
 -11  -5   3   54.41    3.30
  11   5   3   54.20    2.33
  11  -5  -3   55.84    3.93
  11  -5  -3   59.09    2.28
 -11  -5   3   56.40    2.70
 -11  -7  -3  115.65    4.41
  11  -7   3  117.85    4.66
 -11   7   3  113.31    3.84
  11  -7   3  132.53    7.94
  11   7  -3  115.98    5.39
  11   7  -3  122.34    6.72
 -11  -7  -3  119.19    6.57
 -11   7   3  117.34    4.43
  11  -7  -3  112.72    4.82
  11   7   3  121.24   12.03
 -11   7  -3  114.57    4.41
 -11   7  -3  110.78    4.12
  11  -7  -3  120.73    4.41
 -11  -7   3  117.97    5.13
 -11  -7   3  111.04    4.54
  11   7   3  115.82    4.54
 -11  -9  -3   85.25    4.35
 -11   9   3   81.69    2.70
  11  -9   3   98.65    4.10
 -11   9   3   87.62    4.22
  11   9  -3   84.01    4.27
 -11  -9  -3   89.80    5.84
  11   9  -3   88.98    4.05
  11  -9   3   87.19    4.80
 -11   9  -3   82.95    2.39
 -11  -9   3   84.20    3.64
  11   9   3   89.67    6.98
  11  -9  -3   88.81    3.18
 -11   9  -3   84.87    3.41
  11   9   3   84.60    3.42
  11  -9  -3   83.90    3.66
 -11  -9   3   89.08    4.07
 -11 -11  -3   18.77    1.18
  11 -11   3   19.74    1.34
 -11  11   3   18.24    1.18
  11 -11   3   21.66    1.20
  11  11  -3   18.66    1.75
 -11 -11  -3   21.88    2.94
 -11  11   3   19.98    1.65
  11  11  -3   20.05    1.52
 -11 -11   3   18.82    2.33
 -11  11  -3   17.60    1.23
  11  11   3   18.34    3.38
  11  11   3   19.32    1.25
  11 -11  -3   18.63    1.01
 -11  11  -3   17.99    0.74
  11 -11  -3   19.49    1.34
 -11 -11   3   19.87    1.65
  11 -13   3    8.62    1.03
 -11  13   3    7.25    0.52
  11 -13   3    8.18    0.98
 -11  13   3    7.34    0.71
 -11 -13  -3    8.55    4.33
  11  13  -3    8.69    1.31
  11  13  -3    9.40    1.16
 -11 -13  -3    8.97    0.84
 -11 -13   3    8.28    1.25
 -11  13  -3    8.56    0.88
  11  13   3    8.74    2.63
  11  13   3    8.39    0.90
 -11 -13   3    7.28    1.10
 -11  13  -3    8.30    0.26
  11 -13  -3    8.01    0.92
  11 -13  -3    8.86    1.10
 -11  15   3   15.55    0.91
  11 -15   3   14.85    1.31
 -11  15   3   14.83    0.71
  11  15  -3   14.54    1.62
  11 -15   3   17.29    1.06
 -11 -15  -3   16.36    3.50
  11  15  -3   15.00    1.53
 -11 -15  -3   14.80    1.08
  11  15   3   15.48    5.58
 -11  15  -3   15.47    1.18
 -11 -15   3   16.05    1.64
 -11  15  -3   14.67    0.41
  11  15   3   14.47    1.15
 -11 -15   3   13.46    1.48
  11 -15  -3   13.75    1.17
  11 -15  -3   14.84    0.86
  11 -17   3   60.88    2.88
  11 -17   3   61.58    1.21
  11 -17   3   63.26    3.05
 -11  17   3   62.63    2.37
  11  17  -3   61.07    3.42
 -11 -17  -3   65.25    7.54
 -11 -17  -3   63.06    2.70
  11 -17   3   59.10    1.25
  11  17  -3   64.80    3.44
 -11  17   3   63.11    2.10
 -11 -17   3   63.20    3.57
 -11 -17   3   63.23    3.49
  11  17   3   65.51    6.19
  11  17   3   61.18    2.70
  11 -17  -3   61.18    3.81
  11 -17  -3   66.33    2.34
  11 -19   3    5.04    0.84
 -11  19   3    3.13    0.41
  11 -19   3    3.07    0.76
 -11 -19  -3    4.35    2.80
 -11  19   3    3.42    0.51
  11  19  -3    3.78    1.00
  11  19  -3    3.56    0.98
 -11 -19  -3    3.41    0.67
 -11 -19   3    3.55    1.09
 -11 -19   3    3.09    1.05
  11 -19  -3    4.81    0.81
  11  19   3    2.98    0.66
  11 -19  -3    3.41    0.65
  11  19   3    3.70    1.95
  11 -21   3    6.80    1.09
  11 -21   3    8.13    0.97
  11  21  -3    6.95    1.17
 -11 -21  -3   10.28    2.99
  11  21  -3    6.88    1.25
 -11 -21  -3    7.69    0.89
  11 -21  -3    9.39    0.64
 -11 -21   3    8.77    1.39
  11  21   3    7.01    2.21
  11 -21  -3    8.25    0.67
  11  21   3    7.90    0.82
  11 -21  -3    7.20    0.56
 -11 -21   3    8.52    1.37
  11 -21  -3    7.40    0.83
  11 -23   3    4.39    1.71
  11 -23   3    5.85    0.95
  11  23  -3    7.75    1.98
 -11 -23  -3    6.18    2.43
  11  23  -3    6.30    1.84
 -11 -23  -3    6.29    0.84
  11 -23  -3    6.81    0.96
  11 -23  -3    6.15    0.53
 -11 -23   3    5.01    1.33
  11  23   3    5.27    1.25
  11  23   3    3.97    2.04
 -11 -23   3    4.66    2.24
  11 -23  -3    5.99    0.77
  11 -23  -3    5.87    0.61
  11  25  -3   36.09    2.69
  11 -25   3   34.33    2.40
 -11 -25  -3   37.04    6.91
  11 -25   3   32.62    2.19
  11  25  -3   34.47    2.41
 -11 -25  -3   37.08    2.98
  11 -25  -3   36.83    1.57
 -11 -25   3   35.60    2.88
 -11 -25   3   33.49    2.96
  11 -25  -3   34.87    1.60
  11 -25  -3   33.91    1.47
  11  25   3   32.22    1.81
  11  25   3   32.84    3.84
  11 -25  -3   31.04    2.56
  11 -27   3   32.95    2.37
  11 -27   3   32.16    2.57
 -11 -27  -3   36.65    4.02
  11  27  -3   34.19    4.28
 -11 -27  -3   34.53    2.00
  11  27  -3   30.18    2.39
  11 -27  -3   33.47    1.61
 -11 -27   3   37.17    2.94
  11 -27  -3   31.13    1.53
  11 -27  -3   34.43    1.61
  11  27   3   32.82    3.69
  11  27   3   32.09    1.81
  11 -27  -3   30.77    1.76
 -11 -27   3   33.63    3.07
  11 -29   3   32.49    2.74
  11  29  -3   33.60    2.92
  11 -29   3   33.36    3.74
 -11 -29  -3   35.87    3.85
 -11 -29  -3   35.89    2.08
  11  29  -3   31.88    2.51
  11 -29  -3   33.09    1.69
  11 -29  -3   33.46    1.69
 -11 -29   3   37.21    3.07
 -11 -29   3   31.36    3.26
  11 -29  -3   34.57    1.75
  11  29   3   31.32    1.84
  11 -29  -3   30.92    1.79
  11  29   3   33.22    5.47
  11 -31   3    7.94    1.59
 -11 -31  -3    7.61    1.96
  11 -31   3    6.29    1.37
  11  31  -3    7.29    1.36
  11  31  -3    7.52    2.65
 -11 -31  -3    7.93    1.07
  11 -31  -3    6.81    0.86
  11 -31  -3    7.68    0.91
 -11 -31   3    8.15    1.65
 -11 -31   3    7.96    1.93
  11 -31  -3    6.61    0.85
  11 -31  -3    9.08    0.91
  11  31   3    5.76    1.82
  11  31   3    6.27    1.52
  11  33  -3   15.10    3.07
  11 -33   3   15.41    2.36
  11  33  -3   17.77    2.42
  11 -33   3   15.06    2.01
 -11 -33  -3   16.02    1.56
 -11 -33  -3   17.71    2.57
  11 -33  -3   16.38    1.34
 -11 -33   3   18.95    2.25
  11 -33  -3   15.37    1.27
  11 -33  -3   17.69    1.46
  11  33   3   16.70    1.40
 -11 -33   3   14.81    2.61
  11  33   3   15.95    2.41
  11 -33  -3   16.04    1.30
  11  35  -3   20.44    2.38
  11 -35   3   21.08    2.94
 -11 -35  -3   23.40    2.94
  11 -35   3   19.84    2.42
  11  35  -3   22.94    2.90
 -11 -35  -3   22.95    1.91
  11 -35  -3   22.29    1.79
 -11 -35   3   24.42    2.52
  11  35   3   19.95    4.09
  11  35   3   18.96    1.73
  11 -35  -3   21.37    1.56
  11 -35  -3   22.74    1.61
 -11 -35   3   20.19    2.90
  11 -35  -3   23.53    2.84
  11 -37   3    1.60    1.43
  11 -37   3    0.09    1.13
  11  37  -3    1.31    1.11
 -11 -37  -3    0.98    1.28
  11  37  -3    1.52    1.32
 -11 -37  -3    1.39    0.83
  11 -37  -3    2.10    0.84
 -11 -37   3    2.89    1.04
  11  37   3    0.86    1.10
  11 -37  -3   -0.00    0.64
  11 -37  -3    1.27    0.85
  11  37   3    2.29    1.27
  11 -37  -3    1.61    0.59
 -11 -37   3    1.28    1.30
 -13   1   3   21.91    1.11
  13  -1   3   24.50    2.52
  13   1  -3   20.54    1.84
 -13  -1  -3   20.52    1.43
  13   1  -3   21.84    1.50
 -13  -1  -3   20.68    1.28
  13  -1   3   23.09    1.41
 -13   1   3   23.19    1.41
 -13   1  -3   20.56    1.31
 -13   1  -3   21.61    1.28
  13  -1  -3   24.47    1.85
  13  -1  -3   21.91    2.28
 -13  -1   3   22.74    1.18
  13   1   3   25.20    4.32
 -13  -1   3   24.51    2.30
  13   1   3   22.13    1.44
 -13   3   3    0.66    0.38
  13  -3   3    1.14    0.96
 -13  -3  -3    0.89    0.49
  13   3  -3    0.89    0.76
 -13  -3  -3    1.27    0.65
  13  -3   3    0.60    0.96
 -13   3   3    0.70    0.51
  13   3  -3    0.87    0.61
  13  -3  -3    0.39    0.69
 -13   3  -3    1.00    0.50
 -13   3  -3    1.14    0.41
  13   3   3    1.22    1.16
 -13  -3   3    0.55    0.77
  13  -3  -3    1.89    0.54
 -13  -3   3    0.89    0.59
  13   3   3    0.88    0.55
  13  -5   3    9.44    1.55
  13   5  -3   10.24    2.32
 -13  -5  -3   10.68    1.34
 -13   5   3    9.03    0.68
 -13   5   3    9.75    1.46
  13  -5   3    9.78    1.04
  13   5  -3   11.45    1.88
 -13  -5  -3   12.34    0.93
  13   5   3   10.18    1.03
 -13   5  -3    9.71    0.65
  13  -5  -3    9.94    1.20
 -13   5  -3   10.02    0.92
  13   5   3    9.82    2.18
  13  -5  -3   10.37    0.93
 -13  -5   3    9.86    1.14
 -13  -5   3    9.14    0.91
 -13  -7  -3    6.05    1.28
  13  -7   3    7.92    1.22
 -13   7   3    5.18    0.54
  13  -7   3    5.95    0.88
  13   7  -3    7.12    1.21
 -13  -7  -3    6.13    2.22
 -13   7   3    5.19    0.72
  13   7  -3    6.27    1.00
 -13   7  -3    6.29    0.72
  13  -7  -3    7.20    0.99
  13   7   3    5.76    2.01
  13   7   3    5.37    1.42
 -13   7  -3    6.22    1.29
  13  -7  -3    6.87    0.76
 -13  -7   3    6.37    1.01
 -13  -7   3    4.96    0.83
 -13  -9  -3   19.97    1.31
  13  -9   3   23.80    1.78
  13   9  -3   20.58    1.94
 -13  -9  -3   22.33    2.37
 -13   9   3   21.85    1.21
  13  -9   3   20.15    1.49
  13   9  -3   24.19    1.67
 -13   9   3   20.27    0.95
  13  -9  -3   21.08    1.55
  13   9   3   21.81    3.20
 -13   9  -3   21.59    1.33
  13   9   3   20.75    1.41
  13  -9  -3   21.91    1.24
 -13  -9   3   20.80    2.29
 -13   9  -3   19.96    0.73
 -13  -9   3   22.45    1.74
 -13 -11  -3   11.96    1.03
  13 -11   3   12.96    1.19
  13 -11   3   14.62    1.14
 -13  11   3   12.14    0.70
  13  11  -3   12.17    1.58
 -13 -11  -3   12.81    2.17
 -13  11   3   13.04    0.88
  13  11  -3   12.02    2.22
  13 -11  -3   12.20    1.14
 -13  11  -3   12.22    1.04
  13  11   3   13.36    4.50
  13  11   3   12.42    1.12
 -13 -11   3   12.25    1.19
 -13  11  -3   12.44    0.68
  13 -11  -3   12.36    0.91
 -13 -11   3   14.24    1.45
 -13 -13  -3   23.40    1.40
  13 -13   3   24.82    1.61
  13 -13   3   26.76    1.87
 -13  13   3   23.74    0.99
 -13  13   3   24.35    1.18
 -13 -13  -3   26.44    3.12
  13  13  -3   23.91    1.80
  13  13  -3   22.73    2.03
  13 -13  -3   22.94    1.53
 -13 -13   3   23.43    1.67
  13  13   3   24.22    3.53
 -13  13  -3   23.23    0.83
 -13  13  -3   24.04    1.42
  13  13   3   24.30    1.50
  13 -13  -3   25.27    1.23
 -13 -13   3   25.18    1.96
  13 -15   3    8.47    0.57
  13  15  -3    7.96    1.10
 -13 -15  -3    6.84    2.29
 -13  15   3    6.87    0.53
 -13  15   3    8.93    0.65
  13  15  -3    6.69    1.27
  13 -15   3    7.27    0.98
 -13 -15  -3    6.90    0.85
  13 -15  -3    6.94    1.43
  13  15   3    6.85    0.89
 -13  15  -3    6.75    0.86
  13  15   3    6.66    2.40
 -13 -15   3    9.01    1.26
 -13  15  -3    7.33    0.25
 -13 -15   3    6.62    1.09
  13 -15  -3    8.21    0.70
  13 -17   3   17.24    1.39
 -13  17   3   15.69    1.15
  13 -17   3   17.32    0.67
 -13 -17  -3   16.66    5.69
 -13  17   3   16.39    0.90
  13  17  -3   17.30    1.70
  13  17  -3   17.24    1.60
 -13 -17  -3   16.23    1.18
  13  17   3   16.53    1.21
 -13  17  -3   15.76    0.35
  13  17   3   16.25    3.31
 -13  17  -3   16.24    1.24
 -13 -17   3   17.47    1.71
  13 -17  -3   16.84    0.96
  13 -17  -3   15.98    1.16
 -13 -17   3   15.88    1.53
  13  19  -3   19.25    1.66
 -13  19   3   16.70    1.40
 -13  19   3   17.42    1.23
  13 -19   3   17.03    0.35
 -13 -19  -3   21.23    6.61
  13 -19   3   17.24    1.30
  13  19  -3   16.96    2.79
  13 -19   3   17.18    0.43
 -13 -19  -3   18.15    1.95
  13 -19   3   16.89    1.46
  13  19   3   17.10    1.98
  13  19   3   21.11    3.34
 -13 -19   3   17.66    1.86
 -13 -19   3   18.27    1.68
  13 -19  -3   17.14    1.24
  13 -19  -3   18.55    1.51
  13 -21   3    1.21    0.63
 -13  21   3    0.27    0.31
  13 -21   3    0.83    0.55
  13  21  -3    0.36    0.72
 -13 -21  -3   -0.61    3.41
  13  21  -3    1.14    0.73
 -13 -21  -3    0.48    0.52
  13 -21  -3    0.23    0.35
  13  21   3    0.46    1.42
 -13 -21   3    0.55    0.82
  13  21   3    0.82    0.51
 -13 -21   3    0.03    0.74
  13 -21  -3    0.81    0.49
  13 -21  -3    0.49    0.38
  13 -23   3   14.47    1.57
  13 -23   3   16.61    1.39
 -13 -23  -3   22.34    6.82
  13  23  -3   14.37    1.71
 -13 -23  -3   15.97    1.30
  13  23  -3   15.17    2.85
 -13 -23   3   16.58    1.86
  13 -23  -3   15.88    0.92
 -13 -23   3   15.89    3.32
  13 -23  -3   15.44    1.27
  13  23   3   14.43    2.95
  13  23   3   15.46    1.19
  13 -23  -3   14.16    1.17
  13 -23  -3   14.19    0.99
  13 -25   3   25.79    2.19
  13 -25   3   25.52    1.94
 -13 -25  -3   28.80    7.44
  13  25  -3   26.79    2.32
  13  25  -3   28.24    2.33
 -13 -25  -3   27.17    2.75
  13 -25  -3   28.62    1.43
 -13 -25   3   29.48    2.79
  13 -25  -3   25.82    1.26
 -13 -25   3   27.31    2.56
  13  25   3   27.06    1.67
  13 -25  -3   27.78    1.32
  13  25   3   28.40    6.08
  13 -25  -3   24.95    1.58
 -13 -27  -3   18.42    5.39
  13  27  -3   16.88    1.81
  13 -27   3   14.08    1.54
  13  27  -3   16.72    1.89
  13 -27   3   15.84    1.73
 -13 -27  -3   15.41    1.44
  13 -27  -3   16.10    0.96
  13  27   3   13.60    2.00
 -13 -27   3   17.02    2.22
 -13 -27   3   10.90    3.43
  13  27   3   14.35    2.79
  13 -27  -3   15.43    1.07
  13 -27  -3   14.93    1.19
  13 -27  -3   15.23    0.96
 -13 -29  -3    4.03    0.92
  13 -29   3    3.14    1.21
  13 -29   3    4.02    1.04
 -13 -29  -3    3.96    2.00
  13  29  -3    4.66    1.29
  13  29  -3    3.83    1.23
  13 -29  -3    3.70    0.69
  13  29   3    4.72    0.79
  13 -29  -3    3.98    0.59
 -13 -29   3    4.03    1.50
 -13 -29   3    3.27    1.50
  13  29   3    3.15    1.78
  13 -29  -3    3.91    0.62
  13 -29  -3    3.58    0.74
 -13 -31  -3   13.53    2.77
  13 -31   3   14.18    1.96
  13 -31   3   12.49    2.63
  13  31  -3   11.48    1.88
  13  31  -3   12.52    2.00
 -13 -31  -3   12.87    1.44
  13 -31  -3   12.18    1.79
 -13 -31   3   12.84    2.32
  13 -31  -3   13.56    1.04
 -13 -31   3   11.04    2.30
  13  31   3   12.77    1.25
  13  31   3   13.29    4.10
  13 -31  -3   12.42    1.14
  13 -31  -3   13.78    1.08
 -13 -33  -3    0.01    0.72
  13  33  -3    0.40    1.08
  13 -33   3    0.59    1.07
  13  33  -3    0.71    0.98
 -13 -33  -3    0.34    1.32
  13 -33   3    0.60    0.87
  13 -33  -3    0.21    0.59
  13 -33  -3    1.06    0.53
  13 -33  -3    0.69    0.53
  13  33   3    0.27    1.22
  13  33   3    0.31    1.04
 -13 -33   3    0.26    1.25
 -13 -33   3    1.32    1.16
  13 -33  -3    0.81    0.55
  13 -35   3   -0.13    1.12
  13  35  -3    0.04    0.96
 -13 -35  -3   -0.24    1.21
  13 -35   3    0.41    1.48
 -13 -35  -3   -0.12    0.71
  13  35  -3    0.11    1.09
  13 -35  -3   -0.14    0.57
  13 -35  -3    1.30    0.62
 -13 -35   3    0.39    1.04
  13 -35  -3    0.42    0.89
  13  35   3   -0.27    0.63
  13  35   3    0.28    1.12
 -13 -35   3    0.59    1.21
  13 -35  -3    0.88    0.52
 -15  -1  -3  159.94    6.64
 -15  -1  -3  158.99    6.67
  15   1  -3  159.24    7.66
  15  -1   3  169.17    9.32
  15   1  -3  168.84    7.15
 -15   1   3  165.98    6.90
 -15   1   3  158.21    6.25
  15  -1   3  168.29    7.14
  15   1   3  174.47    9.78
 -15   1  -3  154.58    6.24
 -15   1  -3  161.70    8.07
  15  -1  -3  159.20    7.64
  15  -1  -3  167.97    6.99
 -15  -1   3  164.43    6.91
  15   1   3  167.24    7.04
 -15  -1   3  157.42    6.29
 -15   3   3  132.53    5.03
 -15  -3  -3  135.71    5.57
 -15  -3  -3  136.26    7.45
  15   3  -3  132.48    6.49
 -15   3   3  138.42    5.64
  15   3  -3  144.74    6.16
  15  -3   3  136.90    5.75
  15  -3   3  143.07    7.66
 -15   3  -3  130.84    5.86
 -15   3  -3  137.93    5.63
  15  -3  -3  134.90    6.38
  15   3   3  139.01   11.21
 -15  -3   3  130.34    5.26
  15  -3  -3  145.51    5.95
 -15  -3   3  136.38    5.91
  15   3   3  136.47    5.78
  15  -5   3   22.03    1.91
 -15  -5  -3   17.86    1.20
 -15  -5  -3   17.77    1.48
  15   5  -3   16.05    1.70
 -15   5   3   14.96    1.40
 -15   5   3   16.60    1.71
  15   5  -3   18.19    1.45
  15  -5   3   16.63    1.34
 -15   5  -3   16.38    0.81
  15  -5  -3   17.42    1.55
 -15   5  -3   18.34    1.19
  15   5   3   15.82    2.42
  15   5   3   16.92    1.29
 -15  -5   3   14.76    1.12
  15  -5  -3   18.34    1.21
 -15  -5   3   17.04    2.19
 -15  -7  -3    6.50    0.77
 -15   7   3    5.77    0.56
 -15  -7  -3    6.22    1.10
  15  -7   3    6.69    0.87
  15  -7   3    9.44    1.19
  15   7  -3    6.30    0.95
 -15   7   3    5.92    0.69
  15   7  -3    5.76    1.16
 -15   7  -3    5.35    0.68
  15  -7  -3    5.07    1.63
 -15   7  -3    5.11    0.77
  15   7   3    5.34    1.79
  15   7   3    5.67    0.85
 -15  -7   3    4.88    0.76
  15  -7  -3    5.52    0.76
 -15  -7   3    7.44    0.98
  15  -9   3    0.46    0.63
 -15   9   3    0.65    0.31
 -15  -9  -3    0.15    0.74
  15   9  -3    0.32    0.58
 -15  -9  -3    0.34    0.76
  15   9  -3    0.34    0.72
 -15   9   3    0.33    0.37
  15  -9   3    0.62    0.52
  15  -9  -3    0.25    0.56
  15   9   3    1.00    1.14
 -15   9  -3    0.05    0.46
  15  -9  -3    0.54    0.43
  15   9   3    1.34    0.51
 -15   9  -3    0.26    0.21
 -15  -9   3    0.17    0.61
 -15  -9   3    0.10    0.80
 -15 -11  -3    1.29    0.57
  15 -11   3    1.91    0.67
 -15  11   3    1.49    0.37
 -15 -11  -3    1.52    1.05
 -15  11   3    1.67    0.45
  15  11  -3    4.91    0.91
  15  11  -3    1.56    0.73
  15 -11  -3    1.73    0.68
  15  11   3    1.72    1.47
 -15  11  -3    1.84    0.56
  15  11   3    1.80    0.62
 -15  11  -3    1.61    0.23
 -15 -11   3    1.20    0.64
  15 -11  -3    1.93    0.53
 -15 -11   3    1.12    0.79
  15 -13   3   15.88    1.33
  15 -13   3   17.58    1.12
 -15  13   3   14.96    0.79
 -15 -13  -3   15.16    2.27
 -15  13   3   13.51    1.40
  15  13  -3   16.05    1.76
  15  13  -3   18.20    1.47
  15 -13  -3   14.39    1.29
 -15  13  -3   15.13    0.72
 -15  13  -3   14.76    1.16
  15  13   3   13.55    2.82
  15  13   3   13.59    1.25
  15 -13  -3   15.17    1.06
 -15 -13   3   14.93    1.32
 -15 -13   3   15.34    1.62
  15 -15   3  117.71    5.04
 -15  15   3  100.30    3.70
 -15 -15  -3  108.85    7.54
 -15  15   3  104.56    3.97
  15  15  -3  105.26    5.67
  15  15  -3  111.32    5.23
  15 -15   3  110.66    5.00
 -15 -15  -3  107.95    4.67
  15 -15  -3  101.54    4.66
  15  15   3  103.13    4.61
  15  15   3  110.69    8.33
 -15  15  -3  105.80    4.58
  15 -15  -3  109.99    5.38
 -15 -15   3  104.22    4.97
 -15 -15   3  108.34    5.54
 -15 -17  -3  117.30    5.19
  15 -17   3  120.39    5.62
  15 -17   3  131.00    4.52
 -15  17   3  114.56    4.30
 -15 -17  -3  125.41    9.12
 -15  17   3  119.17    4.58
  15  17  -3  125.57    6.05
  15  17  -3  119.61    6.42
  15 -17  -3  110.83    5.09
 -15  17  -3  119.70    5.30
 -15  17  -3  115.30    3.29
  15  17   3  121.34    9.47
 -15 -17   3  119.00    6.38
  15  17   3  113.58    5.11
 -15 -17   3  115.50    5.71
  15 -17  -3  125.69    4.97
  15 -19   3   65.44    3.53
 -15  19   3   64.89    2.42
 -15 -19  -3   70.20   10.50
  15 -19   3   70.59    2.23
 -15  19   3   66.28    2.52
  15  19  -3   68.93    3.79
  15  19  -3   62.45    3.92
 -15 -19  -3   66.27    3.17
  15 -19  -3   59.85    4.17
 -15 -19   3   65.49    4.20
 -15  19  -3   64.29    1.69
  15  19   3   68.11    6.83
 -15  19  -3   66.54    3.22
 -15 -19   3   64.11    5.30
  15  19   3   66.65    3.16
 -15 -19   3   64.03    5.29
  15 -19  -3   68.98    3.78
  15 -21   3   45.77    2.72
  15  21  -3   44.81    2.94
 -15  21   3   42.73    1.73
 -15 -21  -3   46.48    9.86
  15  21  -3   42.97    3.11
 -15 -21  -3   46.02    2.41
 -15  21   3   45.11    1.82
  15 -21   3   42.50    2.44
  15 -21  -3   39.81    2.22
 -15 -21   3   45.61    2.96
  15  21   3   48.09    5.41
 -15 -21   3   44.28    3.37
  15  21   3   43.96    2.36
  15 -21  -3   46.08    2.06
  15  23  -3    5.66    1.30
  15 -23   3    6.23    1.09
 -15 -23  -3    7.10    5.34
  15  23  -3    5.76    1.98
  15 -23   3    4.74    0.93
 -15 -23  -3    6.91    0.92
  15 -23  -3    4.97    0.83
 -15 -23   3    5.10    1.49
  15 -23  -3    5.49    0.58
  15 -23  -3    5.24    0.58
  15  23   3    5.44    2.36
  15  23   3    5.23    0.87
 -15 -23   3    5.00    1.29
  15 -23  -3    5.96    0.73
  15 -25   3    8.39    1.29
 -15 -25  -3    8.97    5.76
  15 -25   3    7.48    1.08
  15  25  -3    7.61    1.39
  15  25  -3    7.43    1.51
 -15 -25  -3    7.69    1.07
 -15 -25   3    7.66    1.71
 -15 -25   3    9.06    1.51
  15 -25  -3    6.00    0.67
  15 -25  -3    7.93    0.91
  15  25   3    6.17    2.47
  15  25   3    7.84    0.99
  15 -25  -3    7.14    0.66
  15 -25  -3    7.65    1.31
  15 -27   3    1.44    0.96
  15  27  -3    2.39    1.70
 -15 -27  -3    2.34    3.58
  15 -27   3    0.81    0.79
  15  27  -3    2.36    1.07
 -15 -27  -3    2.53    0.77
 -15 -27   3    1.88    1.28
  15 -27  -3    1.01    0.76
  15 -27  -3    2.07    0.46
  15 -27  -3    1.09    0.63
  15  27   3    1.69    0.70
  15  27   3    1.65    1.70
 -15 -27   3    2.28    1.14
  15 -27  -3    1.07    0.58
  15  29  -3    3.09    1.32
  15 -29   3    2.65    1.01
  15  29  -3    3.46    1.27
 -15 -29  -3    4.19    0.93
  15 -29   3    2.35    2.02
  15 -29  -3    2.72    0.75
 -15 -29   3    3.68    1.62
 -15 -29   3    1.11    2.33
  15 -29  -3    3.55    0.60
  15  29   3    3.22    1.91
  15  29   3    3.25    0.83
  15 -29  -3    3.06    0.91
  15 -29  -3    2.61    0.75
  15  31  -3   14.53    2.20
  15 -31   3   12.37    2.13
 -15 -31  -3   17.06    3.29
  15  31  -3   14.96    2.15
  15 -31   3   15.35    1.78
 -15 -31  -3   13.75    1.61
  15 -31  -3   13.92    1.29
 -15 -31   3   15.73    2.66
  15  31   3   12.96    2.96
  15  31   3   12.35    1.47
  15 -31  -3   13.75    1.13
  15 -31  -3   15.12    1.58
 -15 -31   3   14.21    2.41
  15 -31  -3   14.63    1.34
 -17   1   3   55.67    3.22
  17  -1   3   64.82    4.33
 -17  -1  -3   55.26    2.51
 -17  -1  -3   59.21    2.74
  17   1  -3   58.38    3.40
  17  -1   3   63.06    3.02
 -17   1   3   58.54    2.71
  17   1  -3   62.29    3.00
 -17  -1   3   57.65    2.49
 -17   1  -3   55.42    2.32
  17   1   3   62.12    4.43
 -17   1  -3   60.46    2.73
  17  -1  -3   57.88    3.35
  17  -1  -3   61.88    2.94
 -17  -1   3   57.15    2.77
  17   1   3   61.43    2.99
 -17   3   3   26.08    1.39
 -17  -3  -3   29.75    1.72
  17   3  -3   30.03    3.66
  17   3  -3   32.10    1.97
 -17  -3  -3   29.72    2.60
 -17   3   3   29.40    1.62
  17  -3   3   31.75    2.72
  17  -3   3   30.18    1.94
 -17   3  -3   28.66    1.82
 -17   3  -3   29.53    1.72
  17   3   3   29.42    4.89
  17  -3  -3   29.63    2.19
  17  -3  -3   30.92    1.80
 -17  -3   3   29.35    1.56
  17   3   3   31.40    1.89
 -17  -3   3   29.00    1.83
  17  -5   3   85.97    5.01
 -17   5   3   77.51    3.05
 -17  -5  -3   79.81    3.87
 -17  -5  -3   80.96    3.60
  17   5  -3   76.38    4.39
 -17   5   3   83.08    4.42
  17  -5   3   85.20    3.90
  17   5  -3   83.55    5.52
 -17  -5   3   80.34    3.34
  17   5   3   84.04    5.81
  17  -5  -3   79.23    4.14
 -17   5  -3   71.75    2.64
 -17   5  -3   80.18    3.57
  17  -5  -3   80.19    3.60
 -17  -5   3   84.00    3.91
  17   5   3   81.06    3.80
 -17  -7  -3  113.52    6.21
  17  -7   3  121.01    6.29
 -17   7   3  104.84    4.08
 -17  -7  -3  108.75    5.45
  17   7  -3  113.08    5.94
  17  -7   3  111.05    5.10
 -17   7   3  109.32    4.42
  17   7  -3  118.49    5.37
 -17   7  -3  107.83    4.65
  17   7   3  111.26    7.61
  17  -7  -3  108.68    7.07
 -17   7  -3   98.16    3.53
  17  -7  -3  114.20    4.82
 -17  -7   3  113.76    5.26
  17   7   3  109.34    4.97
 -17  -7   3  106.33    4.59
 -17   9   3    7.40    1.08
 -17  -9  -3    7.64    2.21
 -17  -9  -3    6.88    0.98
  17  -9   3    9.90    1.30
 -17   9   3    7.99    0.78
  17   9  -3   11.75    1.97
  17   9  -3    7.58    1.44
  17  -9   3    7.46    1.12
  17  -9  -3    8.48    1.18
  17   9   3   11.77    2.16
 -17   9  -3    7.02    0.96
  17   9   3    8.50    1.08
 -17  -9   3    7.80    1.59
  17  -9  -3    7.72    0.93
 -17   9  -3    6.81    0.47
 -17  -9   3    9.10    1.20
 -17 -11  -3   47.06    3.42
 -17  11   3   43.03    1.78
 -17 -11  -3   45.80    3.32
  17 -11   3   53.00    2.71
  17  11  -3   47.08    3.27
 -17  11   3   45.10    2.72
  17  11  -3   47.57    2.80
  17 -11   3   47.45    2.62
  17 -11  -3   44.81    2.68
  17  11   3   46.87    4.81
 -17  11  -3   44.86    2.32
  17 -11  -3   46.57    2.24
  17  11   3   44.23    2.49
 -17 -11   3   44.28    2.43
 -17  11  -3   42.61    1.73
 -17 -11   3   47.75    2.87
  17 -13   3   82.69    4.54
 -17  13   3   69.55    2.70
 -17 -13  -3   73.17    4.88
 -17 -13  -3   74.70    3.43
 -17  13   3   72.74    2.86
  17  13  -3   73.60    3.81
  17  13  -3   69.60    4.40
  17 -13   3   75.01    3.73
  17 -13  -3   70.13    3.58
 -17  13  -3   69.98    3.32
  17  13   3   79.30    9.53
 -17  13  -3   66.84    2.07
  17  13   3   71.98    3.47
  17 -13  -3   74.73    3.27
 -17 -13   3   74.46    4.14
 -17 -13   3   70.06    3.54
  17 -15   3   28.93    1.97
 -17 -15  -3   29.02    1.81
  17 -15   3   31.57    1.52
 -17  15   3   27.18    1.36
 -17  15   3   26.46    1.27
 -17 -15  -3   29.24    3.14
  17  15  -3   29.13    2.57
  17  15  -3   29.52    2.13
  17 -15  -3   26.15    1.87
 -17  15  -3   26.59    1.77
  17 -15  -3   29.59    1.60
  17  15   3   29.57    3.91
 -17  15  -3   26.68    1.04
  17  15   3   27.27    1.88
 -17 -15   3   28.06    1.99
 -17 -15   3   29.49    2.35
  17 -17   3    3.39    0.89
  17 -17   3    3.11    0.49
  17  17  -3    2.91    1.88
 -17 -17  -3    3.43    1.69
 -17  17   3    3.21    0.48
  17  17  -3    2.97    0.97
 -17 -17  -3    3.13    0.77
 -17  17   3    2.23    0.50
  17 -17  -3    2.59    0.80
 -17  17  -3    2.89    0.21
 -17  17  -3    2.81    1.27
  17  17   3    2.94    1.99
  17  17   3    3.07    0.81
  17 -17  -3    2.67    0.66
 -17 -17   3    3.06    0.91
 -17 -17   3    3.40    1.13
 -17 -19  -3   34.61    2.10
  17 -19   3   35.47    2.40
 -17 -19  -3   30.57    7.22
 -17  19   3   35.24    1.53
  17  19  -3   33.12    2.85
 -17  19   3   32.96    1.50
  17  19  -3   36.53    2.58
  17 -19  -3   31.83    2.07
  17  19   3   38.87    4.86
 -17  19  -3   33.98    2.10
  17  19   3   34.62    2.13
  17 -19  -3   37.28    2.73
 -17 -19   3   35.21    2.44
 -17 -19   3   35.00    2.97
  17  21  -3    5.02    2.27
 -17 -21  -3    7.21    4.34
 -17  21   3    4.70    0.59
  17 -21   3    5.55    1.10
 -17  21   3    4.97    0.92
  17  21  -3    5.55    1.20
 -17 -21  -3    5.87    0.94
  17 -21   3    5.26    0.94
  17 -21  -3    3.69    0.92
 -17 -21   3    4.65    1.18
  17  21   3    4.57    2.47
  17  21   3    4.71    0.94
  17 -21  -3    6.01    0.80
 -17 -21   3    4.70    2.49
  17 -23   3   13.13    1.60
 -17 -23  -3   13.82    3.92
 -17  23   3    9.84    0.84
  17  23  -3   12.29    1.70
 -17 -23  -3   11.87    2.16
  17  23  -3   10.70    1.95
  17 -23   3   12.07    1.35
 -17 -23   3   12.65    2.15
  17 -23  -3   12.46    1.95
  17  23   3   15.02    3.24
  17  23   3   11.59    2.11
 -17 -23   3   12.57    1.73
  17 -23  -3   14.10    1.15
 -17 -25  -3   63.33    8.76
  17 -25   3   54.72    3.25
  17 -25   3   61.55    3.80
  17  25  -3   57.26    3.86
  17  25  -3   56.76    4.33
 -17 -25  -3   55.90    3.26
 -17 -25   3   59.72    4.79
  17 -25  -3   52.29    4.15
  17 -25  -3   58.92    2.38
  17  25   3   53.16    6.34
  17 -25  -3   53.55    2.40
  17  25   3   55.49    3.13
 -17 -25   3   57.57    4.03
  17 -25  -3   58.82    3.97
  17 -27   3    2.81    1.21
  17  27  -3    2.83    1.24
  17 -27   3    2.99    1.55
 -17 -27  -3    4.68    3.00
  17  27  -3    2.81    1.37
 -17 -27  -3    2.76    0.96
 -17 -27   3    2.07    1.62
  17 -27  -3    2.12    0.80
  17 -27  -3    2.87    0.54
  17  27   3    3.93    3.36
  17  27   3    2.45    0.88
  17 -27  -3    2.71    0.58
 -17 -27   3    2.46    1.32
  17 -27  -3    2.92    0.75
 -19  -1  -3   39.28    1.98
 -19   1   3   41.12    2.00
  19  -1   3   46.72    5.62
 -19  -1  -3   43.56    2.33
  19  -1   3   45.23    2.58
  19   1  -3   42.35    2.98
 -19   1   3   43.59    3.18
  19   1  -3   46.26    2.53
 -19   1  -3   38.86    1.78
 -19  -1   3   41.01    2.90
 -19   1  -3   43.67    2.30
  19   1   3   45.80    5.88
  19  -1  -3   42.42    4.45
  19  -1  -3   46.17    2.49
 -19  -1   3   43.56    2.26
  19   1   3   44.47    2.55
 -19  -3  -3    1.91    0.63
  19  -3   3    3.06    1.21
 -19   3   3    2.04    0.56
 -19  -3  -3    2.68    0.71
  19   3  -3    2.41    1.02
 -19   3   3    2.09    0.63
  19   3  -3    3.41    0.82
  19  -3   3    2.52    0.82
 -19   3  -3    1.31    0.44
 -19   3  -3    2.47    1.17
  19   3   3    2.14    1.40
  19  -3  -3    2.75    0.95
 -19  -3   3    1.85    0.62
  19  -3  -3    2.96    0.75
 -19  -3   3    2.21    0.72
  19   3   3    1.96    1.33
  19  -5   3   40.89    3.13
 -19  -5  -3   33.81    2.09
 -19   5   3   34.47    2.40
 -19  -5  -3   34.59    2.11
  19  -5   3   36.76    2.29
  19   5  -3   33.61    2.76
 -19   5   3   34.09    1.80
  19   5  -3   38.82    3.53
 -19  -5   3   34.85    2.83
 -19   5  -3   35.15    2.02
  19   5   3   36.92    3.74
  19  -5  -3   36.27    2.53
  19   5   3   35.74    2.30
  19  -5  -3   35.86    2.12
 -19  -5   3   36.31    2.20
 -19   5  -3   32.53    1.39
  19  -7   3   43.78    3.19
 -19  -7  -3   38.51    2.45
 -19   7   3   36.77    1.74
 -19  -7  -3   40.09    2.23
  19   7  -3   40.36    3.06
 -19   7   3   38.63    1.90
  19   7  -3   40.68    2.55
  19  -7   3   42.13    2.54
 -19   7  -3   39.13    3.25
 -19  -7   3   38.95    2.14
  19   7   3   42.46    4.16
  19   7   3   37.54    2.45
  19  -7  -3   39.52    4.01
 -19   7  -3   36.29    1.40
  19  -7  -3   41.61    2.25
 -19  -7   3   40.36    2.47
  19  -9   3   21.81    3.08
 -19  -9  -3   20.65    2.29
 -19   9   3   17.69    1.09
 -19  -9  -3   19.73    2.90
  19   9  -3   19.05    2.12
  19   9  -3   20.49    2.76
  19  -9   3   17.84    2.65
 -19   9   3   18.41    1.19
  19   9   3   20.95    3.07
 -19   9  -3   19.91    1.44
  19  -9  -3   17.68    1.77
  19   9   3   19.01    1.64
 -19   9  -3   15.84    0.76
  19  -9  -3   19.62    1.44
 -19  -9   3   19.84    2.75
 -19  -9   3   19.33    2.24
 -19  11   3    7.97    1.25
 -19 -11  -3    8.35    1.10
  19 -11   3    9.96    1.94
 -19 -11  -3   10.32    1.53
 -19  11   3    8.46    0.75
  19  11  -3    8.65    1.58
  19  11  -3   10.52    1.30
  19 -11   3    9.04    1.23
 -19  11  -3    7.06    0.47
  19  11   3    8.62    2.43
  19 -11  -3   10.19    1.27
 -19  11  -3    9.32    1.06
  19  11   3    7.75    1.18
  19 -11  -3    9.96    1.02
 -19 -11   3    8.67    1.34
 -19 -11   3    6.24    1.09
 -19 -13  -3   29.93    1.95
 -19 -13  -3   31.01    2.93
 -19  13   3   28.21    1.43
  19 -13   3   34.59    1.99
 -19  13   3   29.70    1.50
  19  13  -3   29.96    3.55
  19  13  -3   28.64    2.77
  19 -13   3   33.39    2.24
  19 -13  -3   29.51    2.17
 -19  13  -3   29.98    1.87
  19  13   3   33.17    4.14
 -19  13  -3   27.55    0.98
  19  13   3   32.70    3.24
  19 -13  -3   30.31    2.82
 -19 -13   3   31.89    2.48
 -19 -13   3   30.82    2.02
  19  15  -3    1.85    1.69
 -19 -15  -3    0.46    1.23
  19 -15   3    0.77    0.55
 -19  15   3    1.37    0.43
 -19 -15  -3    1.26    0.69
  19 -15   3    1.13    0.78
 -19  15   3    0.78    0.44
  19  15  -3    1.51    0.84
 -19  15  -3    1.14    0.67
  19 -15  -3    0.78    1.24
  19  15   3    0.15    1.64
 -19 -15   3    1.56    0.75
  19  15   3    1.18    0.74
  19 -15  -3    1.08    0.62
 -19 -15   3    0.79    0.95
 -19 -17  -3   19.86    1.74
 -19  17   3   22.35    1.18
  19  17  -3   24.56    3.34
 -19 -17  -3   21.29    3.18
 -19  17   3   20.46    1.17
  19 -17   3   22.86    1.98
  19  17  -3   21.54    2.50
  19 -17  -3   19.97    1.83
 -19  17  -3   20.97    1.67
  19  17   3   22.22    4.04
  19  17   3   22.31    1.83
  19 -17  -3   22.76    1.57
 -19 -17   3   22.68    2.45
 -19 -17   3   22.14    1.90
 -19 -19  -3   20.00    1.74
 -19  19   3   19.68    1.66
 -19 -19  -3   17.27    5.75
  19  19  -3   19.48    2.47
  19 -19   3   19.19    1.99
  19  19  -3   19.95    2.11
 -19  19   3   19.67    1.18
  19 -19  -3   18.35    1.77
  19  19   3   26.12    4.17
 -19  19  -3   20.50    1.69
  19  19   3   19.71    1.82
  19 -19  -3   20.13    1.55
 -19 -19   3   20.49    1.94
 -19 -19   3   22.37    2.52
 -19 -21  -3    4.27    1.70
  19 -21   3    4.92    2.01
 -19 -21  -3    5.22    2.52
 -19  21   3    2.83    1.02
  19  21  -3    4.62    2.10
 -19  21   3    4.77    0.59
  19  21  -3    4.70    1.53
  19 -21  -3    4.44    1.00
 -19  21  -3    0.56    0.98
  19  21   3    2.85    2.61
  19  21   3    4.25    1.04
  19 -21  -3    5.22    0.89
 -19 -21   3    4.39    1.23
 -19 -21   3    5.55    1.57
 -21  -1  -3   56.37    2.69
 -21   1   3   59.62    2.81
 -21  -1  -3   60.13    3.27
  21  -1   3   64.80    5.12
  21   1  -3   62.27    4.13
 -21   1   3   63.16    3.12
  21   1  -3   64.82    3.54
  21  -1   3   61.72    3.64
 -21  -1   3   59.90    2.94
 -21   1  -3   61.17    3.31
  21   1   3   66.13    5.38
  21  -1  -3   61.24    4.07
  21  -1  -3   63.39    5.02
 -21  -1   3   60.22    4.33
  21   1   3   62.32    3.52
 -21   1  -3   52.79    2.43
 -21   3   3   34.54    1.91
 -21  -3  -3   37.25    2.27
  21  -3   3   38.96    3.67
  21   3  -3   35.81    3.11
 -21   3   3   35.92    2.06
  21   3  -3   38.93    2.58
  21  -3   3   37.71    2.67
 -21  -3  -3   34.40    1.95
 -21  -3   3   35.35    2.08
 -21   3  -3   36.60    2.24
  21   3   3   38.76    4.09
  21  -3  -3   35.77    2.87
  21   3   3   35.74    2.54
  21  -3  -3   37.31    2.43
 -21  -3   3   35.55    2.26
 -21   3  -3   33.05    1.55
  21   5  -3    5.08    1.53
 -21  -5  -3    5.87    0.96
 -21  -5  -3    5.70    1.04
 -21   5   3    5.55    0.79
  21  -5   3    7.33    1.70
  21  -5   3    7.03    1.20
 -21   5   3    6.02    0.84
  21   5  -3    6.07    1.21
  21  -5  -3    6.13    1.36
 -21  -5   3    6.26    0.93
 -21   5  -3    5.49    1.02
  21   5   3    5.78    2.15
  21   5   3    6.48    1.19
  21  -5  -3    7.31    1.12
 -21  -5   3    6.68    1.06
 -21   5  -3    5.52    0.55
 -21   7   3    2.91    0.63
  21  -7   3    4.41    1.35
 -21  -7  -3    3.72    0.90
  21   7  -3    3.95    1.29
 -21   7   3    4.31    1.10
  21   7  -3    3.84    1.05
  21  -7   3    3.23    1.01
 -21  -7  -3    3.58    1.43
 -21  -7   3    2.90    0.80
  21   7   3    3.57    1.90
 -21   7  -3    3.65    0.85
  21  -7  -3    3.27    1.84
  21  -7  -3    3.85    0.91
  21   7   3    2.90    1.00
 -21   7  -3    2.60    0.42
 -21  -7   3    3.29    0.96
  21   9  -3    0.37    0.82
 -21  -9  -3    0.95    0.68
 -21  -9  -3    0.95    1.31
 -21   9   3    0.90    0.48
  21  -9   3    1.30    0.92
  21  -9   3    1.33    0.80
  21   9  -3    0.29    1.02
 -21   9   3    0.92    0.49
 -21  -9   3    1.18    0.65
  21   9   3    0.66    0.76
  21   9   3    1.24    1.54
 -21   9  -3    1.16    0.65
  21  -9  -3    0.62    0.85
 -21   9  -3    0.59    0.29
  21  -9  -3    0.62    0.68
 -21  -9   3    0.62    0.78
 -21 -11  -3    2.58    0.82
 -21 -11  -3    3.59    1.06
 -21  11   3    2.39    0.56
  21 -11   3    3.03    0.95
  21  11  -3    2.20    1.27
  21 -11   3    2.84    0.98
 -21  11   3    2.37    0.57
  21  11  -3    1.82    1.01
 -21 -11   3    2.02    0.81
 -21  11  -3    2.57    0.79
  21  11   3    2.30    0.91
 -21  11  -3    1.22    0.34
  21 -11  -3    2.59    0.98
  21  11   3    2.13    3.13
  21 -11  -3    2.51    1.33
 -21 -11   3    2.67    0.99
 -21 -13  -3    9.66    1.31
 -21 -13  -3    9.51    1.76
  21 -13   3    9.26    1.48
 -21  13   3    9.00    0.88
  21  13  -3    9.42    1.87
 -21  13   3    8.85    0.86
  21  13  -3    9.63    1.51
 -21 -13   3    9.82    2.14
 -21  13  -3    9.78    1.21
  21 -13  -3    9.66    1.46
  21  13   3    9.01    2.88
  21  13   3    7.64    1.44
  21 -13  -3    8.89    1.22
 -21 -13   3   10.40    1.63
   0   0  -4  930.34   52.67
   0   0   4  941.05   50.72
   0   0  -4  941.56   52.56
   0   0   4  840.25   53.46
   0   2  -4    0.37    0.36
   0   2   4    0.28    0.10
   0  -2  -4    0.29    0.28
   0   2  -4    0.27    0.36
   0   2   4    0.32    0.34
   0  -2  -4    1.04    0.32
   0  -2   4    0.53    0.25
   0  -2   4    0.40    0.54
   0   4  -4   87.18    2.44
   0   4   4   92.39    2.07
   0  -4   4   85.98    2.54
   0  -4  -4   83.12    3.91
   0  -4   4   87.74    4.16
   0   4  -4   81.84    2.77
   0   4   4   93.83    2.73
   0  -4  -4   84.99    2.92
   0  -6  -4    0.21    0.39
   0  -6   4    0.63    0.66
   0   6  -4    0.01    0.17
   0  -6   4    0.61    0.33
   0   6   4    0.04    0.12
   0   6   4    0.55    0.05
   0  -6  -4    0.48    0.36
   0   6  -4    0.93    0.37
   0   8  -4  520.41   26.29
   0  -8   4  492.57   30.78
   0  -8   4  550.35   24.21
   0  -8  -4  502.59   25.27
   0   8  -4  544.93   24.00
   0  -8  -4  494.54   24.65
   0  10   4    0.26    0.07
   0 -10  -4    0.03    0.50
   0 -10   4   -0.19    0.71
   0  10  -4    0.44    0.51
   0 -10   4   -0.02    0.17
   0  10   4   -0.24    0.47
   0  10  -4    0.12    0.16
   0  12  -4 1313.26   84.75
   0  12  -4 1296.32   96.95
   0 -12  -4 1200.64   85.18
   0  12   4 1414.20   90.03
   0 -12   4 1306.14   95.51
   0 -12   4 1328.81   84.41
   0 -12  -4 1370.76   82.10
   0  12   4 1163.42   83.66
   0 -14  -4   -0.35    0.61
   0  14  -4    0.12    0.17
   0 -14  -4    0.12    0.15
   0  14  -4   -0.10    1.11
   0 -14   4    0.44    0.69
   0 -14   4    0.06    0.16
   0  14   4    0.31    0.31
   0  14   4    0.01    0.65
   0 -16  -4  230.74    7.41
   0  16  -4  202.51   13.04
   0 -16   4  183.29    9.63
   0  16   4  204.22    7.18
   0  16  -4  179.78    6.14
   0 -16   4  192.08    6.39
   0 -16  -4  191.52   10.25
   0  16   4  185.65   13.71
   0  18   4    1.96    1.09
   0  18   4   -0.00    0.28
   0  18  -4   -0.47    1.32
   0  18  -4    0.28    0.37
   0 -18  -4    0.37    0.93
   0 -18   4    0.24    0.20
   0 -18  -4    0.21    0.33
   0 -18   4    0.82    0.76
   0  20   4   48.79    5.04
   0 -20  -4   46.75    1.50
   0 -20   4   42.59    3.23
   0 -20   4   46.33    1.44
   0  20  -4   45.43    3.27
   0 -20  -4   50.24    4.23
   0  20  -4   41.05    1.43
   0  20   4   50.67    2.45
   0  22  -4    0.02    0.41
   0 -22  -4    0.01    0.43
   0  22   4    2.59    1.22
   0 -22   4   -0.07    0.21
   0  22  -4   -0.10    0.69
   0  22   4    0.13    0.29
   0 -22  -4   -0.67    0.99
   0 -22   4    0.20    1.16
   0  24   4  613.08   40.72
   0  24  -4  552.54   29.26
   0 -24  -4  630.75   41.92
   0  24   4  632.95   32.99
   0 -24   4  563.43   34.20
   0  24  -4  632.42   37.63
   0 -24  -4  614.78   31.59
   0 -24   4  642.47   31.56
   0  26   4    1.44    1.53
   0  26  -4    0.41    0.74
   0  26  -4   -0.04    0.39
   0  26   4    0.26    0.54
   0 -26   4    0.29    0.76
   0 -26  -4    0.75    1.18
   0 -26   4    0.28    0.26
   0 -26  -4    0.14    0.34
   0  28   4  127.96    4.79
   0 -28  -4  135.56    8.27
   0  28  -4  137.54    6.96
   0 -28   4  122.92    6.48
   0  28  -4  119.61    4.93
   0 -28   4  134.59    4.52
   0 -28  -4  123.17    4.70
   0  28   4  129.70    9.33
   0 -30   4   -0.34    0.74
   0 -30  -4    0.58    0.96
   0  30   4    0.72    0.35
   0  30  -4   -0.17    0.76
   0  30  -4    0.74    0.37
   0 -30  -4    1.07    0.37
   0  30   4    0.40    0.75
   0 -30   4   -0.02    0.47
   0 -32   4   21.76    2.02
   0 -32  -4   23.66    2.39
   0  32  -4   24.96    2.05
   0 -32  -4   22.42    1.16
   0  32   4   23.92    1.14
   0  32  -4   21.33    1.08
   0 -32   4   26.47    1.45
   0  32   4   22.92    1.93
   0  34   4    0.06    0.58
   0  34  -4   -0.08    0.26
   0 -34  -4    0.39    0.33
   0  34  -4   -0.01    0.66
   0 -34  -4    0.10    0.72
   0 -34   4    0.06    0.66
   0  34   4   -0.08    0.31
   0 -34   4    0.85    0.44
   0  36   4   39.55    2.46
   0 -36  -4   41.50    3.04
   0 -36   4   41.20    4.26
   0  36   4   39.39    1.66
   0  36  -4   35.71    1.36
   0  36  -4   42.45    2.80
   0 -36  -4   35.49    2.33
   0 -36   4   48.02    2.12
   0 -38  -4    0.32    0.73
   0  38  -4    0.09    0.70
   0 -38  -4    0.22    0.59
   0 -38   4    0.45    0.74
   0  38   4    0.19    0.34
   0  38   4    0.69    0.57
   0  40  -4   22.19    3.35
   0 -40  -4   24.86    1.25
   0 -40   4   24.71    2.22
   0 -40  -4   20.10    1.23
   0 -40  -4   24.96    1.76
   0 -40  -4   24.84    2.18
   0 -42  -4    0.03    0.52
   0 -42  -4   -0.21    0.35
   0  42  -4    0.10    0.73
   0 -42   4   -0.51    1.24
   0 -42  -4    0.72    0.37
   0 -42  -4    0.38    0.68
  -2   0   4    0.45    0.19
  -2   0   4    0.60    0.26
   2   0  -4    0.27    0.26
  -2   0  -4    0.52    0.37
   2   0  -4    0.19    0.31
   2   0   4    0.23    0.15
   2  -2   4   27.10    1.11
  -2  -2  -4   25.92    1.51
  -2  -2  -4   27.13    0.74
  -2   2   4   27.86    0.64
  -2   2   4   28.30    1.07
   2   2  -4   26.42    1.46
   2  -2   4   27.73    0.99
   2   2  -4   27.94    0.97
   2   2   4   27.80    0.85
  -2   2  -4   26.40    1.12
   2  -2  -4   26.47    1.15
  -2  -2   4   29.82    1.02
   2  -2  -4   26.48    1.03
  -2  -2   4   29.31    1.07
  -2   2  -4   26.60    0.83
   2   2   4   28.11    1.13
   2  -4   4   19.02    0.70
  -2  -4  -4   18.73    0.48
   2   4  -4   18.11    1.42
  -2   4   4   19.02    0.87
   2  -4   4   18.82    0.92
  -2   4   4   18.28    0.32
  -2  -4  -4   18.21    2.29
   2   4  -4   18.05    1.07
   2   4   4   18.32    1.02
  -2   4  -4   18.46    0.76
  -2   4  -4   18.98    0.56
   2  -4  -4   17.94    0.38
  -2  -4   4   19.25    0.74
  -2  -4   4   20.08    1.03
   2  -4  -4   18.15    0.86
   2   4   4   19.04    0.58
  -2  -6  -4   25.21    0.55
   2  -6   4   25.01    1.42
   2  -6   4   25.94    1.27
  -2  -6  -4   24.07    1.84
   2   6  -4   25.00    1.86
   2   6  -4   23.48    0.86
   2   6   4   24.98    1.41
   2  -6  -4   23.69    1.07
  -2  -6   4   26.66    1.51
   2   6   4   24.95    0.54
   2  -6  -4   23.75    1.09
  -2   6  -4   23.59    0.61
  -2  -6   4   24.82    0.87
  -2   6  -4   22.89    0.77
   2   8  -4    0.33    0.24
  -2  -8  -4    0.30    0.10
   2  -8   4    0.34    0.33
   2  -8   4    0.84    0.78
   2   8  -4    0.54    0.66
  -2  -8  -4    0.95    0.75
   2   8   4    0.22    0.10
  -2   8  -4    0.62    0.17
   2  -8  -4    0.32    0.36
   2   8   4    0.17    0.56
   2  -8  -4    0.48    0.35
  -2  -8   4    0.27    0.60
  -2  -8   4    0.09    0.23
  -2   8  -4    0.37    0.12
   2  10  -4   56.73    1.77
   2 -10   4   53.27    1.36
   2 -10   4   53.93    2.69
   2  10  -4   60.77    3.38
  -2 -10  -4   61.44    3.91
  -2 -10  -4   60.21    1.33
   2 -10  -4   57.14    2.27
  -2  10  -4   56.87    2.32
   2  10   4   54.54    1.29
   2  10   4   54.43    3.22
   2 -10  -4   56.28    2.33
  -2 -10   4   57.63    3.53
  -2  10  -4   58.65    1.34
  -2 -10   4   55.55    1.72
   2  12  -4   87.08    4.59
   2  12  -4   86.47    2.72
   2 -12   4   82.49    2.07
   2 -12   4   81.51    4.02
  -2 -12  -4   90.44    8.23
  -2 -12  -4   87.71    2.39
   2 -12  -4   85.27    3.42
   2 -12  -4   85.02    1.62
   2  12   4   84.97    4.94
  -2  12  -4   83.51    3.54
  -2 -12   4   81.88    4.66
   2  12   4   83.15    2.15
  -2 -12   4   84.36    2.64
   2 -12  -4   82.12    3.44
  -2  12  -4   84.63    2.04
   2  14  -4   35.23    1.79
  -2 -14  -4   37.42    1.19
   2 -14   4   33.84    2.49
   2 -14   4   34.55    0.97
  -2 -14  -4   37.96    3.70
   2  14  -4   37.64    2.69
   2 -14  -4   37.36    0.69
   2 -14  -4   33.52    2.02
  -2  14  -4   35.68    2.10
   2  14   4   37.47    3.40
  -2 -14   4   34.39    2.73
   2 -14  -4   39.43    0.80
  -2  14  -4   35.97    0.82
   2 -14  -4   37.31    1.91
   2  14   4   34.04    0.97
  -2 -14   4   35.72    1.24
   2 -16   4   13.08    1.71
   2  16  -4   11.84    0.70
   2  16  -4   13.27    1.73
  -2 -16  -4   12.97    0.49
   2 -16   4   12.62    0.34
  -2 -16  -4   16.53    4.39
  -2 -16   4   13.10    0.72
   2 -16  -4   12.59    2.32
   2  16   4   14.55    2.57
   2 -16  -4   15.60    1.31
   2  16   4   13.89    0.60
   2 -16  -4   12.81    0.43
  -2 -16   4   12.48    1.75
   2 -16  -4   12.28    0.34
  -2  16  -4   12.76    1.47
   2 -18   4  180.62    9.96
   2  18  -4  190.69    9.97
  -2 -18  -4  198.70   12.88
   2  18  -4  181.35    6.73
   2 -18   4  188.52    5.92
  -2 -18  -4  193.63    6.46
  -2  18  -4  178.25    6.16
   2 -18  -4  192.13   11.72
   2 -18  -4  185.81    6.00
   2  18   4  208.82   12.83
   2 -18  -4  194.70    7.06
  -2  18  -4  195.00   12.33
   2  18   4  185.61    7.66
   2 -18  -4  181.14    9.48
  -2 -18   4  174.32    9.42
  -2 -18   4  192.60    8.06
   2 -20   4    0.39    1.92
  -2 -20  -4    2.62    1.66
   2  20  -4    0.91    0.39
   2 -20   4    1.26    0.25
  -2 -20  -4    1.99    0.33
   2  20  -4    1.22    1.04
   2 -20  -4    1.02    0.94
  -2  20  -4    1.55    0.47
   2  20   4    2.00    1.34
   2 -20  -4    1.46    0.32
   2  20   4    1.36    0.74
   2 -20  -4    1.94    1.13
   2 -20  -4    1.41    0.54
  -2 -20   4    1.49    1.00
  -2  20  -4    0.99    1.73
  -2 -20   4    1.56    0.42
  -2 -22  -4    4.26    1.78
   2  22  -4    3.80    1.20
   2 -22   4    3.13    1.33
   2  22  -4    2.69    0.49
   2 -22   4    3.30    0.31
  -2 -22  -4    3.46    0.45
  -2 -22   4    2.43    1.14
   2  22   4    2.79    1.37
   2 -22  -4    3.53    0.52
  -2  22  -4    4.02    2.07
  -2  22  -4    2.58    0.36
   2  22   4    2.94    0.54
   2 -22  -4    3.10    1.48
   2 -22  -4    3.11    0.69
   2 -22  -4    3.85    1.26
  -2 -22   4    2.91    0.51
  -2 -24  -4   57.87    4.78
   2  24  -4   55.65    3.85
   2 -24   4   56.40    4.00
   2 -24   4   55.09    1.65
  -2 -24  -4   57.63    2.12
   2  24  -4   49.23    2.09
  -2 -24   4   56.08    2.20
  -2 -24   4   50.32    3.60
   2  24   4   56.98    4.03
   2 -24  -4   60.61    3.65
  -2  24  -4   59.46    5.90
   2  24   4   53.03    2.20
   2 -24  -4   55.16    5.03
   2 -24  -4   51.39    2.51
  -2  24  -4   55.20    2.08
   2 -24  -4   60.91    6.67
   2  26  -4  105.96    4.33
   2  26  -4  119.34    6.47
  -2 -26  -4  121.17    7.55
   2 -26   4  112.71    6.45
  -2 -26  -4  120.20    4.44
   2 -26   4  120.67    3.41
  -2 -26   4  125.20    4.61
   2  26   4  117.04    6.42
   2 -26  -4  138.60    7.56
  -2  26  -4  126.85    9.02
   2 -26  -4  110.14    3.95
  -2 -26   4  110.89    6.19
   2 -26  -4  128.50    7.74
  -2  26  -4  112.54    3.50
   2  26   4  117.55    5.42
   2 -26  -4  124.02    8.16
  -2 -28  -4   18.23    2.17
   2  28  -4   13.18    1.04
   2  28  -4   16.36    1.79
   2 -28   4   13.77    1.80
  -2 -28  -4   15.05    0.97
   2 -28   4   15.85    0.70
  -2 -28   4   15.68    0.97
   2  28   4   15.28    1.69
  -2  28  -4   14.70    0.51
   2 -28  -4   18.31    2.14
  -2  28  -4   16.77    1.79
   2  28   4   15.96    0.93
   2 -28  -4   15.20    2.32
   2 -28  -4   14.26    0.78
  -2 -28   4   15.57    1.77
   2 -28  -4   14.61    2.10
  -2 -30  -4   11.46    1.73
   2  30  -4    9.42    1.00
   2 -30   4   12.09    1.55
   2 -30   4   11.38    0.42
  -2 -30  -4   11.04    0.86
   2  30  -4   11.35    1.54
  -2 -30   4   11.06    0.82
   2 -30  -4   12.28    1.61
   2  30   4   10.81    1.38
   2  30   4   10.71    0.77
   2 -30  -4    9.32    0.67
  -2  30  -4   10.79    1.55
  -2  30  -4    9.99    0.40
   2 -30  -4   10.48    1.58
  -2 -30   4   10.55    1.52
   2 -30  -4   14.26    2.16
  -2 -32  -4   10.52    1.72
   2 -32   4   11.76    1.55
   2  32  -4   11.05    1.56
   2  32  -4    8.99    1.07
  -2 -32  -4   10.22    0.87
   2 -32   4   11.01    0.43
  -2 -32   4   11.25    0.85
   2  32   4    7.37    2.12
  -2  32  -4    9.54    0.57
   2 -32  -4   10.86    1.94
   2 -32  -4   12.82    0.95
   2  32   4    9.38    0.76
  -2  32  -4   10.71    1.53
  -2 -32   4   11.19    1.54
   2 -32  -4   10.01    0.69
   2 -32  -4   10.01    1.43
  -2 -34  -4   29.16    2.51
   2 -34   4   26.00    2.30
   2  34  -4   27.39    2.29
   2  34  -4   24.29    1.59
  -2 -34  -4   25.91    1.41
   2 -34   4   29.49    0.88
  -2 -34   4   29.67    1.42
   2  34   4   25.81    2.01
  -2  34  -4   26.41    1.00
   2 -34  -4   29.30    2.62
   2 -34  -4   30.39    1.52
  -2  34  -4   27.82    2.30
   2  34   4   25.43    1.82
  -2 -34   4   26.09    3.62
   2 -34  -4   27.94    2.08
   2 -34  -4   24.94    1.22
  -2 -36  -4   50.17    2.31
   2  36  -4   58.06    3.58
   2 -36   4   56.13    5.22
   2  36  -4   48.08    3.20
  -2 -36  -4   55.78    3.70
  -2 -36   4   66.37    2.52
   2 -36  -4   60.15    2.51
   2  36   4   55.12    3.13
   2 -36  -4   60.99    3.84
   2  36   4   53.21    2.22
   2 -36  -4   55.61    4.32
  -2  36  -4   58.01    3.59
   2 -36  -4   51.01    2.10
  -2 -36   4   56.83    3.64
   2  38  -4    7.13    1.33
  -2 -38  -4    5.92    0.72
   2  38  -4    6.34    0.72
  -2 -38  -4    7.36    1.34
   2 -38   4    6.72    1.32
  -2 -38   4    6.59    1.35
  -2 -38   4    8.18    0.70
  -2  38  -4    6.90    1.29
   2 -38  -4    6.42    1.03
   2  38   4    6.39    1.08
   2 -38  -4    8.13    1.31
   2 -38  -4    7.14    0.71
   2  38   4    6.63    1.02
   2 -38  -4    5.61    0.61
  -2 -40  -4    4.00    0.65
   2  40  -4    2.32    0.55
   2 -40   4    4.78    1.10
   2  40  -4    4.36    1.91
   2 -40   4    3.94    1.14
  -2 -40  -4    4.68    1.91
   2 -40  -4    4.73    1.11
  -2 -40   4    4.70    0.56
   2  40   4    4.34    1.47
  -2 -40   4    4.18    1.18
   2 -40  -4    3.50    0.96
   2  40   4    3.74    0.55
   2 -40  -4    3.15    0.88
   2 -40  -4    4.04    0.85
   2 -42   4    1.66    0.98
  -2 -42  -4    2.19    0.99
   2 -42  -4    2.22    0.90
   2 -42  -4    1.90    0.51
   2 -42  -4    1.88    0.70
   4   0   4  439.41   18.42
  -4   0  -4  434.06   18.49
   4   0   4  414.80   18.86
  -4   0   4  436.98   19.13
   4   0  -4  467.08   20.14
  -4   0  -4  414.55   25.51
   4   0  -4  432.74   18.96
  -4   0   4  427.67   17.55
   4  -2   4   21.25    0.79
   4  -2   4   20.11    1.04
  -4  -2  -4   19.88    0.65
   4   2  -4   21.14    1.53
  -4   2   4   19.24    0.51
  -4   2   4   19.88    0.90
  -4  -2  -4   22.93    2.89
   4   2  -4   19.89    0.90
   4  -2  -4   19.32    0.94
  -4   2  -4   20.64    0.78
  -4  -2   4   19.83    0.75
  -4   2  -4   22.91    2.50
   4  -2  -4   21.13    0.71
  -4  -2   4   20.44    0.89
   4   2   4   19.95    0.62
   4   2   4   20.62    1.19
   4  -4   4  133.10    3.96
   4   4  -4  133.27    4.55
  -4  -4  -4  132.82    3.94
   4  -4   4  132.65    4.28
  -4  -4  -4  136.22   12.60
  -4   4   4  132.52    4.57
   4   4  -4  142.97    5.35
  -4   4   4  133.05    3.48
  -4   4  -4  135.65    4.60
  -4  -4   4  134.28    4.54
   4  -4  -4  134.34    4.65
   4  -4  -4  146.65    4.13
  -4   4  -4  159.04    8.01
   4   4   4  131.59    3.86
  -4  -4   4  132.41    4.53
   4   4   4  135.17    5.82
   4   6  -4    8.87    0.99
   4   6  -4   10.26    0.94
   4  -6   4    8.56    0.56
  -4   6   4    8.62    0.27
  -4  -6  -4    9.83    2.38
  -4   6   4    8.86    0.66
   4  -6   4    9.05    0.64
  -4  -6  -4    9.09    0.37
   4   6   4    8.83    0.37
   4  -6  -4    9.78    0.68
  -4  -6   4    8.38    0.70
   4  -6  -4    9.52    0.43
  -4   6  -4   11.79    1.26
  -4   6  -4    9.16    0.31
  -4  -6   4    8.73    0.61
   4   6   4    8.75    2.13
   4   8  -4   30.67    1.81
   4   8  -4   28.39    1.18
  -4   8   4   29.87    0.61
   4  -8   4   27.63    1.29
  -4   8   4   29.10    1.26
  -4  -8  -4   30.62    3.94
   4  -8   4   28.64    1.18
  -4  -8  -4   28.75    0.78
   4   8   4   32.69    2.55
  -4   8  -4   28.98    0.61
   4  -8  -4   28.64    1.94
  -4   8  -4   31.86    1.41
  -4  -8   4   29.17    1.52
   4  -8  -4   30.37    0.62
  -4  -8   4   29.27    1.14
   4   8   4   28.72    0.81
   4 -10   4   22.91    1.14
   4 -10   4   23.01    1.31
  -4 -10  -4   29.64    3.68
   4  10  -4   26.51    2.88
   4  10  -4   23.67    1.06
  -4 -10  -4   23.36    0.94
   4  10   4   27.01    2.68
   4 -10  -4   23.61    1.14
   4 -10  -4   24.08    0.56
   4  10   4   22.25    1.00
  -4  10  -4   24.02    0.44
  -4  10  -4   23.95    1.25
   4 -10  -4   23.35    1.24
   4 -10  -4   25.12    0.48
  -4 -10   4   24.25    2.49
  -4 -10   4   22.28    1.03
   4 -12   4  662.16   37.12
   4  12  -4  695.58   36.51
   4  12  -4  726.15   42.75
  -4 -12  -4  628.92   43.84
   4 -12   4  661.44   36.15
  -4 -12  -4  702.18   34.62
   4 -12  -4  723.81   33.24
  -4  12  -4  709.64   33.76
   4 -12  -4  674.93   38.07
   4  12   4  707.43   46.34
  -4 -12   4  697.71   40.10
   4 -12  -4  679.80   32.88
   4  12   4  681.64   34.72
   4 -12  -4  641.12   34.97
  -4 -12   4  694.02   36.14
   4 -14   4   27.64    1.62
  -4 -14  -4   26.47    0.85
  -4 -14  -4   27.51    3.60
   4  14  -4   25.76    1.92
   4 -14   4   26.20    1.80
   4  14  -4   28.11    2.42
   4 -14  -4   26.28    1.05
   4 -14  -4   27.03    0.57
   4  14   4   25.57    0.88
  -4 -14   4   28.81    2.39
   4 -14  -4   25.72    1.55
  -4 -14   4   27.15    1.25
   4 -14  -4   26.42    1.44
   4  14   4   28.45    3.38
  -4 -16  -4  118.02    8.29
   4 -16   4  118.73    5.43
   4 -16   4  122.36    6.00
   4  16  -4  119.29    4.52
   4  16  -4  135.88    7.36
  -4 -16  -4  124.61    3.95
   4 -16  -4  123.62    5.10
  -4 -16   4  126.60    7.15
   4 -16  -4  114.45    5.20
   4 -16  -4  119.29    3.78
   4  16   4  120.83    3.94
   4  16   4  127.99    8.11
   4 -16  -4  125.39    3.33
  -4 -16   4  124.70    4.67
   4 -18   4   11.95    1.60
  -4 -18  -4   12.54    4.18
   4 -18   4   12.74    1.44
   4  18  -4   11.03    0.89
  -4 -18  -4   11.77    0.64
   4  18  -4   11.21    1.98
   4 -18  -4   11.44    0.39
  -4 -18   4   12.45    0.94
  -4 -18   4   13.41    2.13
   4 -18  -4   10.26    1.30
   4  18   4   11.42    0.66
   4 -18  -4   10.75    1.16
   4 -18  -4   10.99    0.56
   4  18   4   12.20    2.16
   4 -20   4  274.13   14.10
  -4 -20  -4  278.54   16.54
   4  20  -4  285.83   15.71
   4  20  -4  268.02   11.42
   4 -20   4  271.74   14.50
  -4 -20  -4  291.75   11.48
   4 -20  -4  288.96   10.41
   4 -20  -4  284.96   13.50
  -4 -20   4  256.66   15.02
   4 -20  -4  269.93   11.30
   4  20   4  268.45   15.23
   4 -20  -4  260.97   13.30
   4  20   4  266.31   11.86
  -4 -20   4  288.70   13.99
  -4 -22  -4   10.75    2.14
   4 -22   4    8.65    1.63
   4  22  -4   10.10    1.84
   4 -22   4    9.25    1.74
   4  22  -4    9.35    0.84
  -4 -22  -4    9.80    1.16
  -4 -22   4    9.91    0.97
   4 -22  -4   10.25    0.50
   4 -22  -4   10.59    2.17
   4 -22  -4    9.34    0.58
   4 -22  -4    9.63    1.49
   4  22   4    9.81    2.92
   4  22   4    9.25    1.19
  -4 -22   4    8.43    1.89
  -4 -24  -4  401.95   28.24
   4  24  -4  410.07   23.19
   4 -24   4  411.15   23.14
   4  24  -4  369.19   17.81
  -4 -24  -4  411.05   18.66
   4 -24   4  394.21   22.72
  -4 -24   4  415.83   19.75
   4 -24  -4  412.97   22.06
   4 -24  -4  372.60   16.47
   4 -24  -4  408.74   17.85
   4  24   4  387.56   18.33
   4 -24  -4  386.62   22.07
   4  24   4  378.48   21.36
  -4 -24   4  364.79   21.40
  -4 -26  -4    2.37    1.26
   4 -26   4    2.28    1.22
   4  26  -4    2.36    1.16
   4 -26   4    2.51    1.20
  -4 -26  -4    3.90    0.50
   4  26  -4    2.39    0.54
   4  26   4    2.07    0.57
  -4 -26   4    2.02    0.62
   4 -26  -4    1.99    0.70
  -4 -26   4    2.30    1.15
   4 -26  -4    1.73    1.13
   4 -26  -4    1.57    0.36
   4  26   4    1.75    1.00
   4 -26  -4    1.98    1.05
  -4 -28  -4    9.06    1.66
   4  28  -4    7.06    0.82
   4 -28   4    8.90    1.63
   4 -28   4    9.65    1.66
   4  28  -4    9.76    1.56
  -4 -28  -4    7.99    0.76
  -4 -28   4    8.85    0.90
  -4 -28   4    8.07    1.53
   4 -28  -4    7.90    0.76
   4 -28  -4    9.06    1.71
   4 -28  -4    7.86    0.56
   4  28   4    8.10    1.33
   4 -28  -4   10.29    2.57
   4  28   4    7.85    0.86
  -4 -30  -4   38.49    4.81
   4  30  -4   31.03    1.85
   4 -30   4   41.62    3.08
   4  30  -4   37.88    2.95
   4 -30   4   37.16    3.12
  -4 -30  -4   37.08    1.77
  -4 -30   4   39.37    1.95
   4 -30  -4   39.11    2.01
   4  30   4   34.29    2.56
   4 -30  -4   42.09    3.31
   4 -30  -4   35.33    1.37
   4 -30  -4   39.16    3.07
   4  30   4   36.21    2.55
  -4 -30   4   33.36    2.80
   4  32  -4  113.60    6.97
   4  32  -4  135.78    7.37
   4 -32   4  145.60    7.63
   4 -32   4  124.21    7.09
  -4 -32  -4  128.13    5.41
  -4 -32  -4  134.47    7.38
  -4 -32   4  140.38    7.21
   4 -32  -4  142.12    6.56
   4 -32  -4  139.72    8.13
   4 -32  -4  134.97    7.03
   4 -32  -4  122.77    5.33
   4  32   4  122.27    5.25
  -4 -32   4  120.75    9.20
   4  32   4  125.01    8.29
   4  34  -4   20.27    1.71
   4 -34   4   26.03    2.29
   4 -34   4   21.53    2.28
   4  34  -4   24.68    3.49
  -4 -34  -4   20.91    1.39
  -4 -34  -4   24.72    2.30
  -4 -34   4   26.53    1.52
   4 -34  -4   20.39    1.02
   4 -34  -4   23.50    2.69
   4  34   4   21.56    1.88
   4 -34  -4   22.31    1.94
   4 -34  -4   24.73    1.73
  -4 -34   4   20.08    2.21
   4  34   4   19.67    1.30
   4 -36   4   21.15    3.26
   4  36  -4   15.55    1.54
   4  36  -4   19.46    2.11
   4 -36   4   20.13    2.08
  -4 -36  -4   20.01    3.39
  -4 -36  -4   18.94    1.29
  -4 -36   4   23.11    1.36
   4 -36  -4   21.57    1.47
   4 -36  -4   20.99    2.23
   4 -36  -4   19.12    1.69
   4  36   4   20.43    1.75
   4 -36  -4   17.76    0.95
   4  36   4   18.26    1.19
  -4 -36   4   20.47    2.08
   4 -38   4    1.08    0.76
   4 -38   4    0.87    0.79
   4  38  -4    0.66    0.79
   4  38  -4    0.61    0.55
  -4 -38  -4    0.42    0.81
  -4 -38  -4    0.01    0.46
   4 -38  -4    0.86    0.47
  -4 -38   4   -0.17    0.81
  -4 -38   4    0.72    0.46
   4  38   4    0.37    0.41
   4 -38  -4    0.63    1.30
   4  38   4    0.43    0.63
   4 -38  -4   -0.00    0.32
   4 -38  -4    0.33    0.57
   4  40  -4    1.54    1.16
   4 -40   4    3.72    1.13
   4 -40   4    3.90    1.16
   4  40  -4    3.60    1.93
  -4 -40  -4    4.50    1.20
  -4 -40  -4    2.50    0.69
  -4 -40   4    5.20    0.67
  -4 -40   4    3.93    1.20
   4 -40  -4    4.46    1.09
   4 -40  -4    3.05    0.68
   4  40   4    4.25    1.53
   4  40   4    3.69    0.99
   4 -40  -4    3.18    0.81
   4 -40  -4    2.94    0.50
  -6   0  -4    0.09    1.49
   6   0   4    0.03    0.22
  -6   0   4    0.17    0.33
   6   0   4    0.15    0.80
  -6   0  -4    0.11    0.24
   6   0   4    0.30    0.79
   6   0  -4   -0.03    0.33
  -6   0   4   -0.01    0.52
   6   0  -4    0.42    0.25
  -6  -2  -4  451.52   28.84
  -6  -2  -4  433.89   18.49
   6   2  -4  421.64   19.10
   6  -2   4  431.91   20.04
  -6   2   4  413.84   17.64
   6   2  -4  456.61   20.24
  -6   2   4  428.01   19.14
   6  -2   4  421.84   19.47
  -6   2  -4  444.51   23.14
   6   2   4  427.80   18.33
   6   2   4  437.68   23.05
  -6   2  -4  423.95   19.78
   6  -2  -4  422.63   19.13
  -6  -2   4  430.75   19.24
   6  -2  -4  469.52   19.80
  -6  -2   4  420.32   18.00
  -6  -4  -4    5.20    0.39
  -6  -4  -4    5.78    2.90
   6  -4   4    5.18    0.43
  -6   4   4    4.86    0.55
   6   4  -4    5.59    0.62
   6  -4   4    4.93    0.46
   6   4  -4    5.32    0.59
  -6   4   4    4.56    0.25
  -6   4  -4    5.60    0.74
   6   4   4    5.52    1.34
   6   4   4    5.06    0.39
   6  -4  -4    5.80    0.36
  -6  -4   4    5.22    0.57
   6  -4  -4    6.02    0.61
  -6   4  -4    5.03    0.80
  -6  -4   4    4.66    0.50
  -6   6   4 1007.48   56.94
   6   6  -4 1012.61   61.82
  -6  -6  -4 1033.14   60.94
  -6  -6  -4  988.11   82.71
   6  -6   4 1036.58   62.43
   6  -6   4 1019.90   59.08
  -6   6   4 1027.40   62.21
   6   6  -4 1091.26   67.30
   6   6   4 1006.58   72.22
  -6   6  -4 1000.46   62.62
   6  -6  -4  994.35   60.93
  -6  -6   4 1014.48   61.43
   6  -6  -4 1103.91   64.15
  -6  -6   4 1026.59   62.36
  -6   6  -4 1032.31   61.88
   6   6   4 1030.34   60.81
   6  -8   4    1.35    0.14
  -6  -8  -4    1.47    0.28
  -6  -8  -4    2.27    1.83
  -6   8   4    1.29    0.14
   6  -8   4    1.56    0.42
  -6   8   4    1.87    0.44
   6   8  -4    1.65    0.50
   6   8  -4    1.54    0.56
   6   8   4    1.70    1.42
  -6   8  -4    1.62    0.44
  -6  -8   4    1.28    0.86
  -6   8  -4    1.78    0.37
   6  -8  -4    1.70    0.49
   6   8   4    1.27    0.29
   6  -8  -4    1.97    0.21
  -6  -8   4    1.39    0.46
  -6 -10  -4  400.30   17.55
  -6 -10  -4  364.74   31.38
   6  10  -4  390.46   17.76
   6 -10   4  390.09   17.54
   6  10  -4  410.65   21.80
  -6  10   4  395.46   15.17
  -6  10   4  400.05   17.72
   6 -10   4  376.04   17.38
  -6  10  -4  407.18   14.95
   6  10   4  378.44   15.83
   6  10   4  383.03   24.22
   6 -10  -4  365.53   16.86
  -6  10  -4  383.53   14.27
  -6 -10   4  398.07   17.87
   6 -10  -4  419.35   16.23
  -6 -10   4  386.23   18.28
  -6 -12  -4   14.28    4.88
   6  12  -4   12.95    1.05
  -6  12   4   13.60    0.39
  -6  12   4   13.73    0.95
   6 -12   4   13.84    1.06
  -6 -12  -4   12.98    1.02
   6 -12   4   14.52    1.01
   6  12  -4   14.60    1.39
  -6 -12   4   14.74    2.20
  -6 -12   4   14.21    1.02
   6  12   4   13.36    0.68
   6 -12  -4   13.84    0.44
   6  12   4   13.91    2.49
  -6 -14  -4  209.67   13.64
   6 -14   4  207.01    9.15
   6  14  -4  207.92    8.77
   6 -14   4  209.16    8.92
   6  14  -4  225.13   13.08
  -6 -14  -4  218.01    8.73
   6 -14  -4  211.66    7.33
   6 -14  -4  218.38    8.80
   6  14   4  195.58   12.35
  -6 -14   4  214.73   10.64
   6 -14  -4  199.92    8.57
   6  14   4  203.08    7.54
  -6 -14   4  216.51   10.22
  -6 -14   4  214.19   10.61
   6 -14  -4  225.16    7.63
  -6 -16  -4   19.83    3.17
   6 -16   4   19.51    2.32
   6  16  -4   19.13    1.33
   6  16  -4   21.13    2.05
   6 -16   4   19.10    1.57
  -6 -16  -4   20.20    0.90
   6 -16  -4   20.59    0.60
   6  16   4   18.00    2.72
   6 -16  -4   19.34    0.66
  -6 -16   4   19.45    2.08
   6 -16  -4   18.78    1.37
   6  16   4   18.39    0.92
  -6 -16   4   20.04    1.39
   6 -16  -4   20.33    1.26
  -6 -18  -4   53.42    4.87
   6 -18   4   53.16    2.90
   6  18  -4   54.78    5.63
   6  18  -4   52.75    2.51
   6 -18   4   55.73    3.08
  -6 -18  -4   56.27    2.00
   6  18   4   53.29    4.35
   6 -18  -4   56.89    1.53
   6 -18  -4   54.30    1.74
   6 -18  -4   51.32    2.62
   6  18   4   51.11    1.91
  -6 -18   4   54.89    3.91
  -6 -18   4   55.48    2.63
   6 -18  -4   59.42    2.58
  -6 -20  -4    3.84    1.68
   6 -20   4    3.46    0.99
   6 -20   4    3.05    1.78
   6  20  -4    4.29    0.72
   6  20  -4    3.56    1.37
  -6 -20  -4    3.92    0.52
  -6 -20   4    2.80    0.82
   6 -20  -4    3.51    0.30
   6  20   4    2.24    1.45
   6  20   4    3.63    0.83
   6 -20  -4    2.84    0.85
  -6 -20   4    3.29    1.47
   6 -20  -4    3.53    0.74
   6 -20  -4    3.54    0.44
   6  22  -4   47.39    3.72
   6 -22   4   40.01    2.89
   6 -22   4   43.42    3.05
   6  22  -4   42.48    3.09
  -6 -22  -4   43.93    1.79
  -6 -22  -4   44.69    6.45
  -6 -22   4   44.44    2.38
   6 -22  -4   45.10    1.36
   6  22   4   41.69    3.56
  -6 -22   4   42.79    4.02
   6 -22  -4   42.99    1.73
   6  22   4   40.70    2.41
   6 -22  -4   43.73    2.34
   6 -22  -4   39.89    2.49
   6 -24   4   19.98    2.19
   6 -24   4   21.09    2.09
  -6 -24  -4   22.69    1.17
   6  24  -4   23.61    2.61
   6  24  -4   20.08    1.36
  -6 -24  -4   25.24    2.75
  -6 -24   4   20.77    2.76
  -6 -24   4   22.17    1.54
   6 -24  -4   21.33    1.19
   6 -24  -4   22.18    1.61
   6  24   4   20.19    2.24
   6 -24  -4   21.28    1.08
   6  24   4   20.40    1.11
   6 -24  -4   20.46    1.77
   6 -26   4   99.59    5.71
   6 -26   4  101.81    5.79
   6  26  -4  107.86    6.42
   6  26  -4   94.93    4.16
  -6 -26  -4  107.63    4.09
  -6 -26  -4  103.89    6.31
  -6 -26   4  104.82    4.67
   6 -26  -4  106.48    5.06
   6 -26  -4  106.67    3.56
   6  26   4   97.03    5.55
   6 -26  -4   96.33    6.89
   6 -26  -4  100.21    3.61
   6  26   4   95.42    3.83
  -6 -26   4   91.81    6.27
   6 -28   4    4.63    2.17
   6 -28   4    3.54    1.33
   6  28  -4    4.62    2.21
  -6 -28  -4    5.24    0.64
  -6 -28  -4    5.19    1.38
   6  28  -4    3.69    0.72
  -6 -28   4    4.70    0.85
   6 -28  -4    4.22    1.67
   6 -28  -4    4.14    0.77
   6  28   4    2.85    1.17
  -6 -28   4    3.88    1.46
   6 -28  -4    3.59    0.76
   6 -28  -4    4.34    1.79
   6  28   4    3.10    0.63
   6  30  -4  102.83    4.80
   6 -30   4  120.76    9.62
   6  30  -4  118.14    6.86
   6 -30   4  111.41    6.76
  -6 -30  -4  119.31    9.43
  -6 -30  -4  115.40    5.76
  -6 -30   4  120.81    7.04
   6 -30  -4  116.76    4.46
   6  30   4  108.07    4.73
   6  30   4  109.92    5.98
   6 -30  -4  108.98    8.27
  -6 -30   4  107.14    6.54
   6 -30  -4  107.98    3.97
   6 -30  -4  124.16    6.43
   6  32  -4    5.42    1.51
   6 -32   4    8.29    1.62
   6 -32   4    7.34    2.50
   6  32  -4    7.73    1.55
  -6 -32  -4    8.28    1.55
  -6 -32  -4    7.17    0.83
   6  32   4    5.51    2.00
  -6 -32   4    5.74    1.69
   6 -32  -4    8.14    0.78
   6 -32  -4    8.57    1.45
  -6 -32   4    6.35    1.56
   6 -32  -4    5.57    0.54
   6 -32  -4    6.33    2.15
   6  32   4    2.74    1.47
   6  34  -4   37.77    2.42
   6 -34   4   44.42    3.33
   6  34  -4   41.44    5.07
   6 -34   4   41.53    3.47
  -6 -34  -4   44.04    3.29
  -6 -34  -4   41.83    2.13
  -6 -34   4   48.32    3.67
   6 -34  -4   44.83    2.27
   6  34   4   37.60    2.12
   6 -34  -4   38.48    1.55
   6 -34  -4   46.62    5.25
   6  34   4   38.69    2.73
  -6 -34   4   39.43    3.23
   6 -34  -4   44.09    4.01
   6  36  -4   16.50    1.64
   6 -36   4   19.03    2.07
  -6 -36  -4   16.64    1.29
   6  36  -4   19.17    2.14
   6 -36   4   15.91    3.49
  -6 -36  -4   18.86    3.36
   6  36   4   16.30    1.69
  -6 -36   4   17.41    1.44
  -6 -36   4   14.00    2.10
   6 -36  -4   19.00    1.53
   6 -36  -4   17.75    2.44
   6 -36  -4   21.38    2.26
   6  36   4   14.15    1.25
   6 -36  -4   15.42    0.86
   6 -38   4   33.16    2.74
   6  38  -4   29.02    2.37
   6 -38   4   27.20    2.74
  -6 -38  -4   31.40    2.78
  -6 -38  -4   27.60    1.76
   6  38  -4   32.29    2.83
  -6 -38   4   38.77    2.02
   6 -38  -4   31.12    2.05
   6 -38  -4   35.07    2.84
   6 -38  -4   31.20    2.06
   6  38   4   26.20    2.47
   6  38   4   28.18    2.26
   6 -38  -4   26.49    1.28
  -6 -38   4   27.59    2.78
   6 -40   4   -0.11    0.79
   6  40  -4    0.66    0.85
  -6 -40  -4    1.28    0.82
   6 -40   4    0.41    0.80
  -6 -40  -4   -0.86    0.49
   6  40  -4    0.05    0.90
  -6 -40   4    0.20    0.51
   6 -40  -4    0.24    0.50
   6 -40  -4   -1.71    1.21
   6  40   4    0.14    0.66
   6  40   4    0.44    0.45
   6 -40  -4    0.66    0.52
   6 -40  -4    0.25    0.31
  -6 -40   4    0.58    0.85
  -8   0  -4  337.96   15.19
   8   0   4  341.96   14.25
  -8   0   4  332.78   14.30
  -8   0   4  342.51   14.82
   8   0  -4  362.72   16.44
  -8   0  -4  337.92   16.24
   8   0   4  364.51   19.68
   8   0  -4  330.43   14.73
  -8  -2  -4   13.53    1.14
   8  -2   4   13.46    0.82
   8   2  -4   13.61    1.06
  -8   2   4   12.86    0.57
  -8   2   4   14.37    1.49
   8   2  -4   14.77    0.90
  -8  -2  -4   15.43    1.71
   8  -2   4   15.03    1.54
  -8   2  -4   14.07    1.25
   8   2   4   11.31    3.84
   8   2   4   13.57    0.75
  -8   2  -4   14.61    1.04
  -8  -2   4   14.43    0.96
   8  -2  -4   14.62    1.23
  -8  -2   4   13.47    0.72
   8  -2  -4   13.56    1.05
  -8   4   4    6.43    0.58
   8   4  -4    6.63    0.83
  -8  -4  -4    5.64    0.51
   8  -4   4    6.81    0.60
   8  -4   4    8.22    1.44
  -8   4   4    6.75    0.67
   8   4  -4    5.49    0.71
  -8  -4  -4    5.47    1.70
   8   4   4    8.19    2.18
  -8   4  -4    6.41    0.58
  -8   4  -4    5.38    0.59
   8  -4  -4    6.51    0.83
  -8  -4   4    6.31    0.74
  -8  -4   4    6.38    0.59
   8  -4  -4    5.43    0.77
   8   4   4    6.53    0.53
  -8  -6  -4    6.45    0.51
   8  -6   4    6.29    0.63
   8  -6   4    6.99    0.62
  -8   6   4    5.50    0.67
   8   6  -4    5.64    0.78
  -8   6   4    5.71    0.34
  -8  -6  -4    5.47    3.73
   8   6  -4    6.40    0.85
   8   6   4    8.28    2.30
  -8   6  -4    6.70    0.62
   8  -6  -4    5.93    0.75
   8   6   4    6.76    0.55
  -8  -6   4    5.74    0.68
  -8   6  -4    5.69    0.45
   8  -6  -4    5.53    0.47
  -8  -6   4    8.10    1.29
  -8  -8  -4  124.90    4.30
  -8   8   4  122.72    3.63
   8  -8   4  127.74    4.79
   8   8  -4  125.84    5.30
   8  -8   4  130.09    4.05
  -8   8   4  127.27    4.75
   8   8  -4  136.34    6.99
  -8  -8  -4  134.69   10.88
   8   8   4  124.05    9.08
  -8   8  -4  123.67    4.71
  -8  -8   4  124.82    6.31
   8  -8  -4  123.44    6.24
  -8   8  -4  118.30    3.95
   8  -8  -4  131.28    4.12
  -8  -8   4  126.35    5.06
   8   8   4  121.47    4.26
  -8  10   4   23.52    0.69
   8 -10   4   24.74    1.36
   8  10  -4   22.59    2.61
   8 -10   4   24.57    0.59
  -8 -10  -4   23.53    1.03
  -8  10   4   24.68    1.25
   8  10  -4   26.18    1.66
  -8 -10  -4   26.86    5.41
  -8  10  -4   22.24    0.53
  -8 -10   4   23.59    1.53
  -8  10  -4   22.71    1.32
  -8 -10   4   24.65    1.55
   8  10   4   23.69    1.07
   8  10   4   23.98    5.70
   8 -10  -4   24.20    0.86
   8 -10  -4   23.82    1.42
  -8 -12  -4   96.15    3.32
   8 -12   4   96.94    3.89
   8 -12   4   95.63    3.96
   8  12  -4   97.69    4.32
  -8  12   4   98.48    3.71
   8  12  -4  101.36    4.58
  -8  12   4   96.30    2.73
  -8 -12  -4  102.46   10.78
  -8 -12   4   98.22    4.25
  -8  12  -4   93.19    1.96
  -8  12  -4   94.54    2.11
  -8 -12   4   96.09    4.35
   8  12   4   88.77    7.10
   8 -12  -4  101.16    3.00
   8  12   4   93.83    4.27
   8 -12  -4   93.41    3.90
   8 -14   4   13.18    1.12
   8  14  -4   12.54    1.25
   8 -14   4   12.23    1.13
  -8  14   4   11.52    0.92
  -8  14   4   12.03    0.47
   8  14  -4   13.86    1.43
  -8 -14  -4   13.99    3.48
  -8 -14  -4   12.36    0.79
   8 -14  -4   12.16    1.12
   8  14   4   11.20    2.51
  -8 -14   4   12.13    1.23
   8  14   4   12.39    0.83
  -8 -14   4   11.49    1.42
   8 -14  -4   12.82    0.56
   8 -16   4   24.56    1.71
   8  16  -4   27.45    1.79
   8 -16   4   24.46    1.69
  -8 -16  -4   28.73    6.88
   8  16  -4   28.18    2.15
  -8 -16  -4   27.05    1.82
  -8 -16   4   24.94    1.78
   8  16   4   21.77    3.26
   8 -16  -4   25.36    2.50
   8 -16  -4   26.38    0.85
   8  16   4   23.86    1.22
  -8 -16   4   25.27    2.19
   8 -16  -4   28.07    1.44
   8 -16  -4   27.58    1.25
   8 -18   4   26.38    1.85
   8 -18   4   25.93    1.91
  -8 -18  -4   27.57    1.29
   8  18  -4   27.40    1.80
   8  18  -4   28.84    2.31
  -8 -18  -4   27.18    6.44
   8 -18  -4   27.44    1.49
  -8 -18   4   27.65    1.91
   8 -18  -4   25.67    1.69
  -8 -18   4   28.56    3.91
   8  18   4   24.18    3.29
   8 -18  -4   26.31    0.90
   8 -18  -4   26.89    0.90
   8  18   4   25.56    1.28
   8 -20   4   22.94    1.84
   8 -20   4   21.97    1.81
   8  20  -4   23.45    1.63
  -8 -20  -4   22.87    3.52
   8  20  -4   24.52    2.25
  -8 -20  -4   23.83    1.24
   8 -20  -4   24.52    0.86
  -8 -20   4   22.97    1.80
   8 -20  -4   22.69    1.60
   8  20   4   20.86    1.16
  -8 -20   4   23.06    2.41
   8 -20  -4   23.74    1.39
   8  20   4   21.98    2.98
   8 -20  -4   22.61    1.28
   8 -22   4    6.54    1.17
   8  22  -4    7.33    1.49
   8  22  -4    6.85    0.98
  -8 -22  -4    7.22    2.03
   8 -22   4    6.56    1.18
  -8 -22  -4    7.39    0.73
  -8 -22   4    6.44    1.11
   8 -22  -4    7.27    0.46
   8  22   4    5.99    0.68
   8 -22  -4    7.47    0.56
   8 -22  -4    7.22    0.97
  -8 -22   4    8.52    1.62
   8 -22  -4    7.19    0.83
   8  22   4    7.31    2.94
   8 -24   4   57.51    3.51
   8  24  -4   63.66    4.26
   8  24  -4   59.08    2.83
  -8 -24  -4   61.32    4.75
  -8 -24  -4   62.39    3.30
   8 -24   4   57.90    5.11
  -8 -24   4   60.93    3.22
   8 -24  -4   64.41    2.51
   8  24   4   55.86    4.12
  -8 -24   4   61.66    4.47
   8 -24  -4   60.46    2.24
   8 -24  -4   57.31    4.17
   8  24   4   57.23    2.32
   8 -24  -4   61.76    2.74
   8 -26   4    3.10    1.11
   8 -26   4    2.69    1.12
   8  26  -4    4.10    1.35
  -8 -26  -4    3.39    1.49
   8  26  -4    3.34    0.78
  -8 -26  -4    3.56    0.61
  -8 -26   4    4.51    0.92
   8 -26  -4    3.79    0.42
   8  26   4    3.01    1.29
   8 -26  -4    4.71    0.76
   8 -26  -4    3.71    0.54
   8 -26  -4    3.24    0.85
   8  26   4    3.18    0.57
  -8 -26   4    3.32    1.55
  -8 -28  -4   16.92    1.15
   8  28  -4   15.67    3.74
   8 -28   4   15.69    2.00
   8 -28   4   16.19    1.94
  -8 -28  -4   15.17    2.37
   8  28  -4   14.41    2.11
  -8 -28   4   16.21    2.52
  -8 -28   4   16.34    1.61
   8 -28  -4   16.87    1.27
   8  28   4   16.45    2.05
   8 -28  -4   17.57    2.18
   8 -28  -4   16.80    1.49
   8 -28  -4   15.63    1.50
   8  28   4   15.08    1.07
   8 -30   4   37.59    3.13
   8 -30   4   37.28    3.04
   8  30  -4   38.91    3.53
  -8 -30  -4   36.89    3.37
  -8 -30  -4   36.97    1.89
   8  30  -4   33.98    2.14
  -8 -30   4   38.78    2.54
   8 -30  -4   38.50    2.39
   8 -30  -4   38.94    1.59
   8  30   4   34.83    4.60
  -8 -30   4   38.28    3.55
   8 -30  -4   36.15    1.66
   8  30   4   33.78    2.56
   8 -30  -4   34.01    2.42
   8  32  -4    6.43    1.03
   8 -32   4    7.65    1.67
   8 -32   4    6.19    1.56
   8  32  -4    9.25    1.67
  -8 -32  -4    7.96    1.63
  -8 -32  -4    5.42    1.39
  -8 -32   4    7.57    1.18
   8 -32  -4    6.78    0.71
   8 -32  -4    7.68    1.23
   8  32   4    5.78    1.38
   8 -32  -4    5.82    0.63
   8 -32  -4    6.84    1.17
   8  32   4    6.56    0.83
  -8 -32   4    7.58    1.73
   8  34  -4   15.77    1.61
   8  34  -4   18.75    2.45
   8 -34   4   16.67    2.30
   8 -34   4   19.03    2.54
  -8 -34  -4   17.38    2.29
  -8 -34  -4   18.83    1.38
  -8 -34   4   20.25    1.78
   8 -34  -4   19.45    1.26
   8  34   4   18.80    1.95
   8 -34  -4   17.96    1.73
   8 -34  -4   16.08    0.97
  -8 -34   4   16.16    2.37
   8 -34  -4   20.34    2.00
   8  34   4   15.73    1.39
   8  36  -4   35.97    2.70
   8 -36   4   43.85    3.70
   8  36  -4   42.13    3.60
   8 -36   4   38.01    3.59
  -8 -36  -4   44.22    3.46
  -8 -36  -4   39.10    2.31
  -8 -36   4   45.71    2.74
   8  36   4   39.41    2.99
   8  36   4   37.36    3.41
  -8 -36   4   35.37    3.52
   8 -36  -4   37.55    1.65
   8 -36  -4   45.50    3.34
   8 -36  -4   44.05    2.35
   8 -36  -4   42.07    2.60
   8 -38   4    0.34    0.99
   8  38  -4    0.54    0.77
   8  38  -4    0.10    1.65
   8 -38   4    1.18    1.03
  -8 -38  -4    0.62    0.58
  -8 -38  -4    0.27    0.99
  -8 -38   4    0.76    0.66
   8 -38  -4    0.49    0.62
  -8 -38   4    0.27    0.99
   8 -38  -4   -0.09    0.93
   8 -38  -4    0.37    0.35
   8 -38  -4   -0.36    0.60
   8  38   4    0.51    0.77
   8  38   4    0.96    0.55
  10   0  -4    0.39    0.53
 -10   0  -4   -0.11    0.86
  10   0   4    0.47    1.99
 -10   0  -4    0.41    0.35
  10   0  -4    0.09    0.39
 -10   0   4    0.42    0.45
 -10   0   4    0.15    0.28
  10   0   4    0.08    0.37
  10  -2   4   21.09    1.15
  10   2  -4   19.40    1.52
 -10  -2  -4   19.67    1.05
  10  -2   4   24.76    4.45
 -10   2   4   19.85    1.25
 -10   2   4   18.53    0.84
  10   2  -4   20.36    1.25
 -10   2  -4   19.45    1.08
  10  -2  -4   18.55    1.46
 -10   2  -4   19.92    1.20
  10   2   4   22.95    3.60
  10  -2  -4   20.64    1.13
 -10  -2   4   20.45    2.10
 -10  -2   4   19.48    0.99
  10   2   4   19.95    1.11
 -10   4   4    2.46    0.34
  10   4  -4    2.40    0.65
 -10  -4  -4    2.55    1.09
  10  -4   4    2.57    0.56
  10  -4   4    2.82    1.12
 -10   4   4    2.48    0.58
  10   4  -4    3.41    0.78
 -10  -4  -4    2.35    0.81
 -10   4  -4    2.12    0.53
  10   4   4    2.30    0.53
  10  -4  -4    2.80    0.70
  10   4   4    2.03    1.90
  10  -4  -4    2.22    0.49
 -10  -4   4    2.31    0.67
 -10  -4   4    2.05    0.50
 -10   4  -4    2.14    0.46
  10   6  -4  150.21    6.08
 -10   6   4  135.38    4.49
 -10  -6  -4  143.07    5.24
  10   6  -4  141.69    6.38
  10  -6   4  157.23    7.05
 -10  -6  -4  144.72    8.33
 -10   6   4  142.19    5.55
  10  -6   4  138.99    6.75
  10  -6  -4  137.96    5.92
 -10   6  -4  134.97    4.55
 -10   6  -4  140.16    6.56
  10   6   4  134.47   14.93
  10  -6  -4  147.90    5.26
 -10  -6   4  144.16    6.00
  10   6   4  137.65    5.26
 -10  -6   4  136.50    5.39
 -10  -8  -4    0.77    0.40
  10  -8   4    0.82    0.50
  10  -8   4    1.49    0.50
  10   8  -4    0.93    0.70
 -10   8   4    0.83    0.46
  10   8  -4    0.70    1.02
 -10  -8  -4    2.43    1.32
 -10   8   4    0.96    0.24
  10  -8  -4    1.13    0.58
 -10   8  -4    0.69    0.22
 -10   8  -4    0.63    0.47
  10   8   4    0.67    0.44
 -10  -8   4    1.00    0.53
  10   8   4    0.64    2.71
  10  -8  -4    1.04    0.35
 -10  -8   4    0.95    0.60
 -10 -10  -4   20.40    1.08
  10 -10   4   21.64    1.30
 -10  10   4   18.70    0.70
  10  10  -4   20.25    1.58
  10  10  -4   21.44    1.66
 -10  10   4   19.42    1.18
 -10 -10  -4   21.84    3.70
  10 -10   4   19.93    1.30
 -10  10  -4   19.57    0.54
 -10  10  -4   20.14    1.26
  10 -10  -4   20.87    0.94
 -10 -10   4   19.07    1.40
  10  10   4   18.91    3.47
  10  10   4   19.46    1.13
  10 -10  -4   19.33    1.41
 -10 -10   4   19.43    1.52
  10 -12   4   12.31    1.11
 -10  12   4   11.94    0.53
  10  12  -4   12.98    1.35
  10 -12   4   13.02    0.40
 -10  12   4   12.80    0.93
  10  12  -4   12.12    1.32
 -10 -12  -4   13.64    3.64
 -10 -12  -4   12.00    1.37
  10 -12  -4   12.19    1.12
  10  12   4   12.08    0.91
 -10  12  -4   12.47    1.08
 -10  12  -4   11.41    0.29
 -10 -12   4   11.92    1.25
  10  12   4   10.78    2.86
 -10 -12   4   13.60    1.30
  10 -12  -4   12.42    0.70
 -10 -14  -4    7.03    0.73
 -10  14   4    7.75    0.43
  10 -14   4   10.01    0.98
  10  14  -4    8.92    1.99
 -10  14   4    8.44    0.77
  10  14  -4    8.44    1.22
 -10 -14  -4    9.46    3.78
 -10 -14   4    8.82    1.18
  10  14   4    8.32    2.43
  10  14   4    7.87    0.78
  10 -14  -4    6.36    0.96
  10 -14  -4    7.77    0.91
 -10 -14   4    8.38    1.16
  10 -16   4   22.22    1.59
 -10  16   4   21.83    0.79
 -10  16   4   23.00    1.24
  10  16  -4   21.34    1.79
  10 -16   4   21.06    1.53
  10  16  -4   24.33    1.89
 -10 -16  -4   25.98    5.28
 -10 -16  -4   22.53    1.21
  10  16   4   21.11    3.35
  10 -16  -4   20.30    1.47
  10  16   4   20.44    1.22
  10 -16  -4   23.30    0.93
 -10 -16   4   22.79    1.89
 -10 -16   4   22.04    1.81
  10 -18   4   33.13    2.05
 -10 -18  -4   35.42    5.25
  10  18  -4   34.18    2.21
  10 -18   4   32.26    1.99
  10  18  -4   36.75    2.49
 -10 -18  -4   34.15    1.59
  10  18   4   31.08    3.86
 -10 -18   4   33.62    2.50
  10 -18  -4   34.18    1.87
  10  18   4   33.02    1.58
  10 -18  -4   35.86    1.26
 -10 -18   4   35.55    2.27
  10 -20   4    7.70    1.10
  10  20  -4    8.92    1.34
  10 -20   4    9.37    1.70
  10  20  -4    6.80    1.08
 -10 -20  -4    8.05    2.56
 -10 -20  -4    7.76    0.76
 -10 -20   4    8.07    1.94
  10 -20  -4    7.94    0.77
  10  20   4    7.60    0.75
  10 -20  -4    7.92    0.49
  10 -20  -4    6.41    0.92
 -10 -20   4    8.49    1.40
  10 -20  -4    8.64    0.52
  10  20   4    6.34    2.03
  10 -22   4    0.83    0.61
  10 -22   4    0.43    0.57
  10  22  -4    0.30    0.75
  10  22  -4    0.16    0.58
 -10 -22  -4   -0.54    1.27
 -10 -22  -4    0.47    0.40
 -10 -22   4    0.36    0.66
  10 -22  -4    0.72    0.83
  10  22   4    0.64    1.05
  10 -22  -4    0.42    0.26
 -10 -22   4    0.37    0.81
  10 -22  -4   -0.08    0.40
  10  22   4    0.34    0.38
  10 -22  -4    0.21    0.43
  10 -24   4    2.31    0.88
  10 -24   4    2.53    0.84
 -10 -24  -4    2.24    1.52
  10  24  -4    2.86    0.76
  10  24  -4    1.58    1.03
 -10 -24  -4    1.62    0.55
  10 -24  -4    1.65    0.36
 -10 -24   4    2.75    0.89
  10 -24  -4    2.56    0.55
  10 -24  -4    1.54    0.39
  10  24   4    2.44    0.51
 -10 -24   4    2.64    1.95
  10 -24  -4    1.58    0.67
  10  24   4    1.33    1.31
  10 -26   4   29.88    3.74
  10 -26   4   28.79    2.35
  10  26  -4   30.44    2.03
  10  26  -4   32.48    2.83
 -10 -26  -4   33.10    1.72
 -10 -26  -4   32.39    3.51
  10 -26  -4   32.85    1.78
 -10 -26   4   31.07    2.38
  10 -26  -4   31.18    1.40
  10  26   4   28.53    3.19
  10 -26  -4   31.85    1.69
  10 -26  -4   28.61    1.92
  10  26   4   28.98    1.52
 -10 -26   4   30.37    3.10
  10 -28   4   18.29    2.08
  10 -28   4   19.85    1.99
  10  28  -4   21.29    2.40
  10  28  -4   18.17    1.65
 -10 -28  -4   19.17    1.33
 -10 -28  -4   16.65    4.44
 -10 -28   4   20.39    1.96
  10 -28  -4   19.95    0.99
  10  28   4   17.40    2.42
  10 -28  -4   18.39    1.56
  10 -28  -4   19.47    2.10
  10  28   4   17.24    1.17
  10 -28  -4   19.03    1.10
 -10 -28   4   19.09    2.71
  10 -30   4   14.97    1.97
 -10 -30  -4   15.84    1.21
  10 -30   4   13.44    1.85
  10  30  -4   13.41    2.26
 -10 -30  -4   14.13    2.41
  10  30  -4   13.38    1.46
 -10 -30   4   15.22    1.78
  10 -30  -4   13.97    1.41
  10 -30  -4   15.11    0.90
  10  30   4   13.11    2.03
  10 -30  -4   13.81    1.25
  10 -30  -4   13.33    1.01
  10  30   4   12.24    1.66
 -10 -30   4   14.26    2.54
  10  32  -4   21.82    1.94
  10  32  -4   28.39    4.72
  10 -32   4   25.01    2.71
  10 -32   4   23.40    2.44
 -10 -32  -4   24.10    2.92
 -10 -32  -4   25.56    2.40
 -10 -32   4   26.13    2.28
  10 -32  -4   25.19    1.87
  10 -32  -4   23.95    1.76
  10  32   4   22.49    2.51
  10 -32  -4   23.07    1.87
 -10 -32   4   21.73    3.02
  10  32   4   20.84    1.46
  10 -32  -4   21.32    1.92
  10  34  -4   14.35    1.81
  10 -34   4   17.31    2.56
  10 -34   4   16.24    2.33
  10  34  -4   15.95    2.63
 -10 -34  -4   20.29    2.56
 -10 -34  -4   17.88    1.45
 -10 -34   4   21.21    2.04
  10 -34  -4   18.18    1.80
  10  34   4   17.40    2.17
  10 -34  -4   15.38    1.64
  10 -34  -4   20.29    1.75
  10 -34  -4   14.97    1.11
  10  34   4   16.08    1.37
 -10 -34   4   16.15    2.71
  10  36  -4    0.15    0.80
  10 -36   4    1.27    1.21
  10  36  -4    0.85    1.12
  10 -36   4    0.33    1.06
 -10 -36  -4   -0.12    0.63
 -10 -36  -4    0.69    1.09
 -10 -36   4   -0.15    0.82
  10 -36  -4    0.54    0.52
  10  36   4    0.21    0.99
  10  36   4    0.45    0.91
  10 -36  -4    1.13    0.41
  10 -36  -4    0.69    0.66
 -10 -36   4   -0.44    1.16
  10 -36  -4    0.18    0.81
  12   0  -4  392.66   19.91
 -12   0  -4  395.74   18.54
 -12   0  -4  389.94   19.01
  12   0   4  462.76   30.65
 -12   0   4  408.11   19.61
  12   0  -4  427.49   20.09
  12   0   4  405.09   19.01
 -12   0   4  385.58   17.59
  12   2  -4   13.78    1.50
 -12  -2  -4   15.59    1.05
  12  -2   4   16.20    1.15
  12  -2   4   17.16    3.05
 -12   2   4   14.60    1.88
  12   2  -4   15.72    1.20
 -12  -2  -4   13.16    1.40
 -12   2   4   13.69    0.79
  12  -2  -4   14.01    1.43
 -12   2  -4   13.70    1.03
 -12   2  -4   14.14    1.01
  12   2   4   17.66    3.43
  12  -2  -4   18.43    1.81
 -12  -2   4   13.81    1.25
  12   2   4   15.47    1.11
 -12  -2   4   12.86    0.91
  12  -4   4  152.91    6.18
 -12   4   4  144.55    5.26
 -12  -4  -4  153.05    7.21
  12   4  -4  155.18    7.23
 -12  -4  -4  157.65    7.56
  12  -4   4  177.03   10.27
 -12   4   4  153.15    6.25
  12   4  -4  164.27    8.47
  12  -4  -4  150.95    6.79
  12   4   4  152.04    7.49
 -12   4  -4  149.51    5.98
 -12   4  -4  144.20    5.34
  12   4   4  157.87   12.10
 -12  -4   4  144.52    5.78
  12  -4  -4  161.21    6.21
 -12  -4   4  153.48    6.57
  12  -6   4    4.24    0.78
 -12   6   4    3.41    0.46
 -12  -6  -4    6.07    0.69
  12   6  -4    4.53    1.91
 -12  -6  -4    5.10    1.35
  12  -6   4    4.80    1.33
  12   6  -4    4.10    0.89
 -12   6   4    4.51    0.72
  12  -6  -4    4.47    0.93
 -12  -6   4    4.91    0.75
  12  -6  -4    4.68    0.67
 -12   6  -4    4.46    0.44
  12   6   4    3.49    1.26
 -12   6  -4    4.26    0.72
  12   6   4    6.33    2.39
 -12  -6   4    6.00    0.95
 -12  -8  -4  677.19   36.88
  12   8  -4  647.81   37.84
  12   8  -4  698.75   39.06
 -12  -8  -4  691.36   44.03
  12  -8   4  714.18   42.07
 -12   8   4  695.53   37.94
 -12   8   4  658.24   34.24
  12  -8   4  684.61   37.95
 -12   8  -4  613.49   31.39
 -12   8  -4  659.57   36.63
  12  -8  -4  728.01   38.49
  12   8   4  637.31   47.59
 -12  -8   4  686.41   38.71
  12  -8  -4  634.29   36.23
  12   8   4  679.37   36.93
 -12  -8   4  654.73   36.13
 -12 -10  -4   15.33    1.73
  12 -10   4   15.37    2.10
 -12  10   4   15.11    1.08
  12  10  -4   15.15    1.66
 -12 -10  -4   17.89    4.57
  12 -10   4   18.87    1.24
 -12  10   4   15.90    1.72
  12  10  -4   15.83    1.49
  12  10   4   16.04    3.35
 -12  10  -4   15.10    0.52
 -12  10  -4   16.96    1.92
  12 -10  -4   15.40    1.40
 -12 -10   4   15.92    1.51
  12  10   4   15.59    1.15
  12 -10  -4   16.11    1.51
 -12 -10   4   16.19    1.30
  12 -12   4   73.03    3.25
 -12  12   4   67.73    2.17
  12  12  -4   65.96    3.63
 -12  12   4   71.20    2.81
 -12 -12  -4   70.95    6.31
  12  12  -4   70.30    3.52
 -12 -12  -4   67.59    2.76
  12 -12   4   77.29    2.58
  12 -12  -4   64.82    3.15
 -12  12  -4   65.47    2.96
 -12  12  -4   63.51    1.63
  12  12   4   66.28    6.37
  12  12   4   67.88    2.84
  12 -12  -4   70.56    2.56
 -12 -12   4   70.92    3.57
 -12 -12   4   68.02    4.57
 -12 -14  -4   19.05    1.14
  12 -14   4   18.32    2.23
  12 -14   4   18.87    0.57
  12  14  -4   18.20    1.70
  12  14  -4   17.75    2.59
 -12  14   4   19.07    1.09
 -12 -14  -4   21.77    3.79
 -12  14   4   17.89    0.72
  12  14   4   17.41    1.17
 -12  14  -4   17.32    1.30
  12  14   4   16.99    3.19
 -12 -14   4   16.52    1.50
 -12  14  -4   18.71    0.49
  12 -14  -4   20.00    1.41
  12 -14  -4   19.33    0.95
 -12 -14   4   19.24    2.64
 -12 -16  -4   77.19    3.05
  12 -16   4   76.12    3.51
 -12  16   4   74.38    2.38
 -12 -16  -4   82.24    8.31
 -12  16   4   78.05    2.99
  12  16  -4   74.08    3.87
  12  16  -4   80.93    3.98
  12  16   4   74.23    6.39
 -12 -16   4   74.70    3.73
  12 -16  -4   72.63    3.35
  12  16   4   72.84    3.02
  12 -16  -4   80.13    3.47
 -12 -16   4   77.57    3.97
  12 -18   4    5.06    0.96
 -12  18   4    4.88    0.65
 -12  18   4    4.81    0.63
  12  18  -4    5.43    1.09
  12 -18   4    6.19    0.87
 -12 -18  -4    5.27    3.35
  12  18  -4    6.37    1.07
 -12 -18  -4    5.43    0.71
 -12 -18   4    4.75    1.81
  12  18   4    3.80    1.99
  12  18   4    5.06    0.71
  12 -18  -4    4.72    0.85
  12 -18  -4    6.11    0.52
 -12 -18   4    6.20    1.10
  12 -20   4   58.04    2.98
 -12 -20  -4   63.84    7.46
  12  20  -4   55.54    3.16
  12  20  -4   57.39    3.33
  12 -20   4   54.29    2.84
 -12 -20  -4   54.45    2.41
  12 -20  -4   54.98    2.27
  12  20   4   54.56    2.38
 -12 -20   4   56.95    3.38
  12 -20  -4   50.70    2.57
  12  20   4   57.55    5.14
  12 -20  -4   56.65    2.01
 -12 -20   4   58.27    3.38
 -12 -22  -4   21.74    1.36
  12 -22   4   20.09    1.83
 -12 -22  -4   27.10    4.27
  12 -22   4   21.86    1.69
  12  22  -4   22.83    2.07
  12  22  -4   18.74    2.96
  12 -22  -4   23.15    1.25
  12  22   4   20.02    3.10
  12 -22  -4   21.74    0.91
  12  22   4   20.48    1.27
 -12 -22   4   22.86    2.20
  12 -22  -4   20.62    1.50
  12 -22  -4   23.65    1.04
 -12 -22   4   24.72    3.27
  12 -24   4   35.81    2.58
  12 -24   4   36.66    2.42
  12  24  -4   41.59    2.98
 -12 -24  -4   42.86    4.94
  12  24  -4   36.52    2.51
 -12 -24  -4   39.60    1.98
 -12 -24   4   40.34    2.91
  12 -24  -4   37.87    1.49
  12  24   4   34.86    6.17
  12  24   4   33.10    2.62
 -12 -24   4   39.60    3.07
  12 -24  -4   37.97    2.15
  12 -24  -4   39.70    1.82
  12 -24  -4   40.68    1.57
  12 -26   4    8.88    1.44
  12 -26   4   11.11    2.13
  12  26  -4    7.83    2.69
 -12 -26  -4    9.83    2.47
  12  26  -4    6.92    1.33
 -12 -26  -4    9.49    0.98
 -12 -26   4    9.88    1.55
  12 -26  -4    8.34    1.08
  12 -26  -4    9.27    0.85
 -12 -26   4    8.43    1.82
  12 -26  -4    8.48    0.69
  12  26   4    8.92    0.90
  12  26   4    8.82    2.14
  12 -26  -4    9.54    0.69
  12 -28   4   83.04    6.99
  12 -28   4   87.36    4.86
  12  28  -4   90.25    5.56
 -12 -28  -4   93.77   10.27
  12  28  -4   84.77    4.64
 -12 -28  -4   88.59    3.96
 -12 -28   4   91.98    5.35
  12 -28  -4   81.58    3.35
  12 -28  -4   80.29    4.02
  12  28   4   79.52    3.61
  12 -28  -4   86.08    3.67
 -12 -28   4   87.64    8.67
  12  28   4   83.24    6.15
  12 -28  -4   89.26    4.15
  12 -30   4    4.73    2.29
 -12 -30  -4    4.60    3.20
  12  30  -4    4.13    2.50
  12 -30   4    5.64    1.27
  12  30  -4    4.51    1.14
 -12 -30  -4    4.30    1.44
  12 -30  -4    5.61    0.63
 -12 -30   4    5.37    1.42
  12 -30  -4    5.23    0.78
  12 -30  -4    4.39    1.06
  12 -30  -4    3.26    1.51
  12  30   4    4.59    0.76
  12  30   4    4.63    1.65
 -12 -30   4    5.54    2.87
  12 -32   4   19.77    2.58
  12 -32   4   21.31    2.34
 -12 -32  -4   21.72    3.06
  12  32  -4   23.25    2.87
  12  32  -4   21.06    3.21
 -12 -32  -4   22.14    1.64
  12 -32  -4   21.89    1.30
 -12 -32   4   23.65    2.50
 -12 -32   4   22.73    5.13
  12  32   4   22.05    2.69
  12 -32  -4   21.70    2.35
  12 -32  -4   19.94    2.61
  12 -32  -4   18.97    1.96
  12  32   4   18.80    1.47
  12  34  -4    4.07    1.31
  12 -34   4    4.72    1.50
  12 -34   4    4.30    1.70
  12  34  -4    6.70    1.84
 -12 -34  -4    5.00    1.91
 -12 -34  -4    4.69    0.99
  12 -34  -4    5.07    0.78
 -12 -34   4    5.66    1.51
  12 -34  -4    4.78    0.99
  12  34   4    5.29    1.61
  12 -34  -4    4.80    0.80
  12  34   4    5.32    0.90
  12 -34  -4    3.07    1.63
 -12 -34   4    3.79    3.32
 -14   0   4    0.26    0.32
 -14   0  -4   -0.00    0.39
  14   0  -4    0.23    0.62
 -14   0  -4    0.14    0.40
  14   0   4   -1.08    1.24
  14   0   4    0.06    0.45
 -14   0   4    0.43    0.47
  14   0  -4    0.43    0.46
 -14   2   4    4.77    0.88
 -14  -2  -4    5.95    0.68
  14   2  -4    4.54    1.07
 -14  -2  -4    4.59    0.81
  14  -2   4    6.46    1.92
  14   2  -4    4.67    0.81
 -14   2   4    5.15    0.77
  14  -2   4    4.35    0.77
 -14  -2   4    4.11    0.60
 -14   2  -4    4.36    1.16
 -14   2  -4    4.11    0.97
  14   2   4    5.92    2.13
  14   2   4    5.06    0.77
  14  -2  -4    3.62    0.99
  14  -2  -4    4.92    0.75
 -14  -2   4    4.84    0.83
 -14   4   4   41.92    2.20
  14   4  -4   38.71    2.71
  14   4  -4   44.52    2.32
 -14  -4  -4   43.92    2.49
  14  -4   4   54.49    4.09
 -14  -4  -4   42.54    1.98
 -14   4   4   45.90    2.11
  14  -4   4   44.61    2.20
  14  -4  -4   41.57    2.47
 -14   4  -4   39.97    1.58
 -14   4  -4   42.73    2.00
  14   4   4   46.98    5.18
  14  -4  -4   42.21    1.99
 -14  -4   4   45.01    2.33
  14   4   4   44.35    2.13
 -14  -4   4   42.11    1.89
 -14   6   4  112.72    4.73
  14   6  -4  117.21    5.70
  14  -6   4  138.72    9.89
 -14  -6  -4  119.31    5.93
 -14   6   4  120.23    4.81
  14   6  -4  125.80    5.37
 -14  -6  -4  120.33    4.78
  14  -6   4  120.00    5.06
  14  -6  -4  115.28    5.33
 -14   6  -4  104.67    3.64
 -14   6  -4  117.49    4.80
  14   6   4  127.62    9.77
  14  -6  -4  127.64    4.90
  14   6   4  118.93    4.89
 -14  -6   4  122.54    5.34
 -14  -6   4  111.36    5.73
 -14  -8  -4   12.13    1.57
  14   8  -4   12.23    1.50
  14   8  -4   12.75    1.27
 -14  -8  -4   13.19    1.74
  14  -8   4   16.43    2.73
 -14   8   4   12.56    0.98
 -14   8   4   12.35    1.04
  14  -8   4   12.92    1.16
 -14   8  -4   11.57    0.80
  14  -8  -4   12.74    1.29
 -14   8  -4   12.54    1.66
 -14  -8   4   13.48    1.05
  14   8   4   11.46    5.13
  14  -8  -4   13.49    1.49
 -14  -8   4   11.94    1.34
  14   8   4   12.47    1.06
  14 -10   4   83.87    3.63
 -14 -10  -4   80.29    3.26
 -14  10   4   75.44    3.15
  14  10  -4   77.91    4.15
  14 -10   4   92.87    4.26
 -14  10   4   82.86    3.26
  14  10  -4   83.89    3.83
 -14 -10  -4   82.25    5.27
  14 -10  -4   78.13    5.11
 -14  10  -4   77.41    3.36
 -14 -10   4   79.89    3.42
  14  10   4   80.44    4.49
  14  10   4   81.06    7.42
  14 -10  -4   83.25    3.14
 -14 -10   4   84.55    5.50
 -14  10  -4   71.45    2.13
 -14 -12  -4   11.55    0.94
 -14  12   4   10.32    0.60
  14 -12   4   11.18    1.12
  14  12  -4   11.68    1.45
 -14 -12  -4   11.77    2.27
  14 -12   4   13.53    1.47
 -14  12   4   11.49    0.86
  14  12  -4   10.39    2.06
  14  12   4    8.95    2.87
 -14  12  -4   10.64    1.02
  14  12   4   11.10    1.01
 -14  12  -4   10.85    0.38
  14 -12  -4   11.52    0.82
 -14 -12   4   11.18    1.10
 -14 -12   4   10.64    1.30
  14 -12  -4   10.08    1.15
 -14 -14  -4   19.69    1.23
 -14  14   4   19.31    0.82
  14 -14   4   20.36    1.52
  14  14  -4   17.29    2.97
 -14 -14  -4   22.63    5.31
 -14  14   4   19.49    1.13
  14  14  -4   19.53    1.67
  14 -14   4   21.44    1.36
 -14  14  -4   18.31    1.30
  14  14   4   19.33    3.37
 -14  14  -4   17.99    0.47
  14  14   4   18.78    1.30
  14 -14  -4   19.91    1.06
 -14 -14   4   19.72    1.53
 -14 -14   4   21.24    1.74
  14 -14  -4   19.59    1.49
  14 -16   4   42.63    2.42
  14 -16   4   42.95    1.14
 -14  16   4   40.31    1.45
  14  16  -4   42.87    2.89
 -14  16   4   41.23    1.81
  14  16  -4   42.30    3.98
 -14 -16  -4   44.21    5.33
 -14 -16  -4   42.29    2.98
 -14  16  -4   41.42    2.24
  14  16   4   38.11    4.66
 -14  16  -4   38.37    0.84
  14  16   4   39.75    2.07
  14 -16  -4   43.88    1.80
  14 -16  -4   40.55    3.38
 -14 -16   4   42.21    4.22
 -14 -16   4   42.55    2.57
 -14 -18  -4  299.74   13.86
  14 -18   4  295.36   14.55
  14 -18   4  291.01   14.18
 -14  18   4  287.87   12.15
 -14  18   4  298.80   13.35
  14  18  -4  293.76   18.17
  14  18  -4  313.22   15.74
 -14 -18  -4  323.28   23.70
  14  18   4  271.57   24.16
  14  18   4  283.07   13.16
 -14 -18   4  291.54   14.79
  14 -18  -4  308.89   13.26
  14 -18  -4  276.38   13.61
 -14 -18   4  304.41   15.77
 -14 -20  -4    0.10    0.51
  14 -20   4    0.50    0.67
 -14  20   4    0.38    0.29
 -14  20   4    0.59    0.40
 -14 -20  -4    1.79    2.13
  14  20  -4    0.48    0.77
  14  20  -4    0.72    1.23
  14 -20   4    0.70    0.61
 -14 -20   4    0.66    1.22
  14  20   4    0.03    1.34
  14  20   4   -0.12    0.83
  14 -20  -4    0.59    0.37
  14 -20  -4    0.18    0.56
 -14 -20   4    0.57    0.81
  14 -22   4    6.41    1.14
  14 -22   4    5.88    1.04
 -14 -22  -4    6.99    3.54
  14  22  -4    7.12    1.27
  14  22  -4    6.61    1.24
 -14 -22  -4    6.63    0.88
  14 -22  -4    6.92    0.70
  14 -22  -4    5.45    0.54
  14  22   4    7.28    2.17
  14  22   4    5.53    0.84
 -14 -22   4    7.17    1.32
  14 -22  -4    7.96    0.67
  14 -22  -4    4.87    0.96
 -14 -22   4    7.49    1.39
  14 -24   4    2.40    0.93
 -14 -24  -4    2.67    2.35
  14 -24   4    2.50    1.33
  14  24  -4    1.82    1.72
  14  24  -4    2.09    0.97
 -14 -24  -4    2.53    0.69
 -14 -24   4    1.63    1.09
  14 -24  -4    2.14    0.41
  14  24   4    2.32    0.63
  14  24   4    2.16    1.63
  14 -24  -4    2.02    0.53
  14 -24  -4    1.98    1.20
  14 -24  -4    2.51    0.49
 -14 -24   4    2.31    1.12
  14 -26   4   95.20    5.39
  14 -26   4   92.87    5.01
 -14 -26  -4  101.32    9.01
  14  26  -4  100.08    5.85
  14  26  -4   96.19    5.38
 -14 -26  -4   99.47    4.55
  14  26   4   93.79    4.25
  14 -26  -4   92.64    3.66
  14  26   4   93.47   10.59
 -14 -26   4   97.25    6.02
  14 -26  -4   98.92    5.05
  14 -26  -4   89.42    4.48
  14 -26  -4  101.56    3.97
 -14 -26   4  106.70    6.08
 -14 -28  -4   28.05    4.22
  14 -28   4   24.43    2.51
  14 -28   4   25.90    3.48
  14  28  -4   26.70    4.28
  14  28  -4   26.28    2.48
 -14 -28  -4   25.67    2.79
  14 -28  -4   26.62    1.49
  14  28   4   25.31    2.53
  14 -28  -4   25.27    1.32
 -14 -28   4   25.96    2.92
  14 -28  -4   24.52    1.85
  14  28   4   26.21    3.40
  14 -28  -4   27.70    1.44
 -14 -28   4   29.15    4.46
  14 -30   4   48.26    3.90
  14 -30   4   50.84    3.56
 -14 -30  -4   59.37    9.16
  14  30  -4   56.83    4.26
  14  30  -4   50.15    3.57
 -14 -30  -4   52.22    2.91
 -14 -30   4   53.05    6.45
  14 -30  -4   54.54    2.55
 -14 -30   4   52.42    4.53
  14  30   4   47.98    2.68
  14 -30  -4   47.53    2.90
  14  30   4   49.21    4.87
  14 -30  -4   50.50    2.32
  14 -30  -4   55.56    3.37
  14 -32   4    6.22    3.28
 -14 -32  -4   10.13    2.73
  14  32  -4    9.68    2.13
  14 -32   4   11.04    1.75
  14  32  -4    8.88    1.76
 -14 -32  -4   11.17    1.30
 -14 -32   4   10.05    3.45
  14  32   4    8.67    1.11
  14 -32  -4    9.99    1.05
  14 -32  -4   10.30    1.47
 -14 -32   4    9.23    3.95
  14 -32  -4    9.35    1.26
  14  32   4    9.28    2.32
  14 -32  -4    9.76    0.99
 -16   0   4    0.68    0.72
 -16   0  -4    1.30    0.55
 -16   0  -4    1.50    0.50
  16   0  -4    1.14    0.81
  16   0   4    1.53    1.47
 -16   0   4    2.30    0.61
  16   0  -4    0.83    0.61
  16   0   4    1.17    0.62
 -16   2   4    0.31    0.32
 -16  -2  -4    1.18    0.71
 -16  -2  -4   -0.07    0.73
  16   2  -4    0.38    0.65
  16  -2   4    0.94    1.09
  16   2  -4    0.25    0.82
 -16   2   4   -0.14    0.46
  16  -2   4    0.22    0.50
 -16  -2   4    0.18    0.36
 -16   2  -4    0.01    0.32
  16  -2  -4    0.60    0.62
  16   2   4    0.85    1.19
  16  -2  -4   -0.19    0.76
 -16  -2   4    0.18    0.49
  16   2   4    0.15    0.47
 -16   2  -4   -0.18    0.43
 -16   4   4    3.49    0.54
 -16  -4  -4    4.79    0.85
  16   4  -4    4.61    1.83
  16  -4   4    4.14    1.67
 -16   4   4    5.64    0.72
  16   4  -4    5.69    0.86
 -16  -4  -4    4.00    0.72
  16  -4   4    4.22    0.81
 -16   4  -4    3.71    0.75
  16  -4  -4    4.34    1.03
 -16   4  -4    4.55    0.76
  16   4   4    5.66    2.07
  16   4   4    5.50    0.81
  16  -4  -4    4.63    0.74
 -16  -4   4    4.81    0.86
 -16  -4   4    4.05    0.65
 -16  -6  -4    1.38    0.61
 -16   6   4    2.08    0.41
 -16  -6  -4    2.70    0.82
  16   6  -4    2.41    0.92
  16  -6   4    2.84    1.15
 -16   6   4    2.15    0.58
  16   6  -4    2.00    0.73
  16  -6   4    2.33    0.71
 -16   6  -4    1.66    0.34
  16  -6  -4    1.79    1.37
 -16  -6   4    1.98    0.94
  16   6   4    2.78    1.81
  16  -6  -4    2.35    0.60
 -16   6  -4    2.35    0.63
 -16  -6   4    2.09    1.26
  16   6   4    2.09    0.66
  16  -8   4   17.17    1.35
 -16  -8  -4   16.69    1.21
 -16   8   4   13.96    0.82
 -16  -8  -4   17.66    1.74
  16   8  -4   16.67    2.84
  16  -8   4   18.09    1.91
 -16   8   4   15.65    1.10
  16   8  -4   17.60    1.46
  16  -8  -4   15.26    1.51
 -16   8  -4   16.43    1.24
  16   8   4   17.00    3.38
 -16   8  -4   15.17    0.93
  16   8   4   14.16    1.26
  16  -8  -4   17.04    1.15
 -16  -8   4   16.69    1.50
 -16  -8   4   14.68    1.16
 -16 -10  -4    1.69    0.55
 -16  10   4    1.22    0.34
 -16 -10  -4    1.08    0.95
  16  10  -4    1.50    0.88
  16 -10   4    1.19    1.33
 -16  10   4    1.29    0.49
  16  10  -4    1.71    0.70
  16 -10   4    0.80    0.67
 -16  10  -4    1.20    0.56
  16  10   4    0.78    2.93
  16  10   4    1.09    0.60
  16 -10  -4    1.45    0.50
 -16 -10   4    1.24    0.74
 -16  10  -4    0.94    0.22
  16 -10  -4    1.19    0.71
 -16 -10   4    0.80    0.98
  16 -12   4   15.35    1.39
 -16 -12  -4   16.08    1.19
 -16  12   4   14.19    0.77
 -16 -12  -4   18.71    2.26
  16  12  -4   17.75    2.93
  16 -12   4   18.09    1.37
 -16  12   4   15.68    1.02
  16  12  -4   15.98    1.50
  16 -12  -4   15.53    1.42
  16  12   4   16.52    3.35
 -16 -12   4   14.62    1.30
 -16  12  -4   15.15    2.04
 -16  12  -4   14.11    0.51
  16 -12  -4   16.51    1.07
  16  12   4   15.53    1.99
 -16 -12   4   15.09    1.61
  16 -14   4   26.09    1.85
 -16 -14  -4   24.90    2.39
 -16  14   4   23.71    1.50
 -16 -14  -4   26.80    3.15
  16  14  -4   23.93    2.29
  16  14  -4   26.64    1.98
 -16  14   4   25.78    1.34
  16 -14   4   27.93    2.08
  16 -14  -4   24.14    1.78
 -16 -14   4   24.98    1.77
 -16 -14   4   25.37    2.08
 -16  14  -4   23.37    0.67
 -16  14  -4   24.46    1.66
  16  14   4   28.58    4.04
  16 -14  -4   27.10    1.39
  16  14   4   23.93    1.61
 -16  16   4    5.47    0.81
 -16 -16  -4    6.81    3.66
  16 -16   4    6.29    1.06
 -16 -16  -4    5.47    0.86
 -16  16   4    5.99    0.67
  16  16  -4    5.96    2.17
  16  16  -4    6.30    1.16
  16 -16   4    5.89    0.74
  16 -16  -4   10.39    1.03
 -16  16  -4    5.33    0.94
  16  16   4    8.32    2.33
  16 -16  -4    5.88    0.72
  16  16   4    5.82    0.89
 -16  16  -4    5.11    0.31
 -16 -16   4    7.22    1.26
 -16 -16   4    5.56    1.05
 -16 -18  -4    2.65    2.21
 -16 -18  -4    3.23    0.74
 -16  18   4    2.96    0.68
  16  18  -4    4.32    1.04
  16 -18   4    4.01    0.94
 -16  18   4    2.73    0.56
  16  18  -4    3.16    1.14
  16 -18  -4    2.99    0.86
  16  18   4    3.78    0.75
 -16  18  -4    3.12    0.82
  16  18   4    3.29    1.95
  16 -18  -4    2.60    0.97
 -16 -18   4    4.45    1.10
 -16 -18   4    3.12    0.95
 -16 -20  -4    9.55    1.07
 -16 -20  -4   10.69    3.55
  16 -20   4    9.50    1.33
  16 -20   4    9.58    1.20
 -16  20   4    9.13    1.00
 -16  20   4    9.85    1.27
  16  20  -4   10.07    2.53
  16  20  -4    8.98    1.48
  16  20   4    4.33    4.37
  16  20   4    9.40    1.05
  16 -20  -4   10.31    0.85
 -16 -20   4   10.33    1.39
 -16 -20   4   10.54    1.63
  16 -20  -4    9.18    1.15
  16 -22   4    2.71    2.03
  16 -22   4    7.56    1.76
 -16  22   4    6.53    0.58
 -16  22   4    6.92    0.71
 -16 -22  -4    7.25    3.70
 -16 -22  -4    7.34    0.97
  16  22  -4    7.52    1.32
  16  22  -4    7.85    1.36
 -16 -22   4    6.12    1.35
  16  22   4    6.39    0.92
  16  22   4    8.41    2.35
  16 -22  -4    6.54    0.76
 -16 -22   4    6.77    1.55
  16 -22  -4    5.19    1.02
 -16 -24  -4   18.40    1.50
  16 -24   4   17.12    1.92
  16 -24   4   16.03    1.66
  16  24  -4   17.69    2.08
  16  24  -4   17.32    2.07
 -16 -24  -4   19.89    5.53
  16 -24  -4   18.13    1.12
  16 -24  -4   17.05    0.98
  16  24   4   15.41    1.40
  16  24   4   16.30    3.28
 -16 -24   4   16.44    2.13
  16 -24  -4   19.79    1.23
 -16 -24   4   18.89    2.37
  16 -24  -4   19.38    1.58
 -16 -26  -4   12.96    2.16
  16 -26   4   11.64    1.80
  16 -26   4   12.60    1.57
 -16 -26  -4   14.33    4.24
  16  26  -4   13.61    1.91
  16  26  -4   12.03    1.89
  16  26   4   11.79    1.96
  16 -26  -4   11.73    0.86
  16  26   4   10.14    2.84
 -16 -26   4   11.21    1.99
  16 -26  -4   12.76    1.07
 -16 -26   4   12.67    2.20
  16 -26  -4   12.19    0.97
  16 -26  -4   12.23    1.36
  16 -28   4    3.57    1.32
  16 -28   4    2.38    1.11
 -16 -28  -4    3.61    2.69
  16  28  -4    3.54    1.41
  16  28  -4    2.39    2.23
 -16 -28  -4    4.01    0.94
  16 -28  -4    3.96    0.64
  16 -28  -4    3.09    0.59
  16  28   4    3.18    0.85
 -16 -28   4    2.85    1.50
  16 -28  -4    5.45    0.74
  16  28   4    1.40    3.20
 -16 -28   4    2.86    1.60
  16 -28  -4    3.04    0.93
 -18   0  -4    0.31    0.40
  18   0  -4    0.84    1.23
  18   0   4    0.49    1.25
 -18   0   4    0.44    0.40
 -18   0  -4    0.31    0.50
 -18   0   4    1.21    0.52
  18   0  -4   -0.29    0.56
  18   0   4   -0.59    0.57
  18  -2   4   71.98    4.72
 -18   2   4   62.86    2.59
 -18  -2  -4   68.00    3.12
 -18  -2  -4   64.56    2.91
  18   2  -4   65.89    3.95
  18  -2   4   78.77    5.92
 -18   2   4   67.06    4.21
  18   2  -4   71.46    3.41
 -18  -2   4   64.07    2.78
 -18   2  -4   58.34    2.39
 -18   2  -4   66.35    3.10
  18  -2  -4   66.52    3.82
  18   2   4   72.10    6.24
  18   2   4   68.18    3.35
 -18  -2   4   69.21    4.59
  18  -2  -4   72.68    3.30
 -18  -4  -4    7.75    0.99
  18  -4   4    9.00    1.13
 -18   4   4    8.56    0.73
 -18  -4  -4    8.77    1.03
  18   4  -4    8.49    1.43
  18  -4   4   10.57    2.11
 -18   4   4    8.84    0.95
  18   4  -4    8.96    1.14
 -18  -4   4    6.99    0.86
 -18   4  -4    8.88    1.03
  18  -4  -4    9.18    1.36
  18   4   4    7.68    1.10
  18   4   4   10.38    2.55
  18  -4  -4    9.30    1.03
 -18   4  -4    7.57    0.92
 -18  -4   4    8.37    1.11
 -18   6   4   15.93    0.95
 -18  -6  -4   18.02    1.56
 -18  -6  -4   19.00    1.34
  18  -6   4   19.69    2.33
  18   6  -4   16.80    1.94
 -18   6   4   16.91    1.23
  18   6  -4   20.11    1.54
  18  -6   4   18.14    2.42
  18  -6  -4   18.16    2.83
 -18   6  -4   18.30    1.38
  18   6   4   15.90    3.44
  18  -6  -4   18.15    1.33
 -18  -6   4   16.87    1.49
  18   6   4   16.16    1.46
 -18  -6   4   16.80    1.92
 -18   6  -4   16.73    0.77
 -18  -8  -4    1.57    0.70
 -18   8   4    1.81    0.45
 -18  -8  -4    1.51    0.88
  18  -8   4    2.38    1.07
  18   8  -4    1.60    1.05
 -18   8   4    2.28    0.59
  18   8  -4    2.20    0.82
  18  -8   4    1.96    0.79
  18  -8  -4    2.10    0.88
 -18   8  -4    1.90    0.70
  18   8   4    1.60    1.24
  18   8   4    1.78    1.93
 -18  -8   4    2.08    0.66
  18  -8  -4    2.11    0.65
 -18  -8   4    2.02    0.85
 -18   8  -4    1.87    0.30
 -18  10   4  160.12    6.44
 -18 -10  -4  169.55    9.05
  18 -10   4  199.64   11.99
  18  10  -4  151.61    8.40
 -18  10   4  168.96    7.18
 -18 -10  -4  170.71    7.65
  18  10  -4  178.67    8.31
  18 -10   4  177.78   10.12
  18 -10  -4  169.60    8.41
 -18  10  -4  170.11    7.74
  18  10   4  182.96   18.95
  18 -10  -4  178.49    7.62
  18  10   4  172.41    7.75
 -18 -10   4  175.04    8.47
 -18  10  -4  141.45    5.76
 -18 -10   4  167.99    9.11
 -18 -12  -4    0.10    0.49
  18 -12   4    0.08    0.60
 -18  12   4    0.64    0.30
 -18 -12  -4   -0.02    0.83
  18  12  -4    0.28    0.78
  18 -12   4    1.15    0.58
 -18  12   4   -0.18    0.65
  18  12  -4   -0.56    0.62
  18 -12  -4    0.09    0.62
 -18  12  -4   -0.28    0.85
  18  12   4    0.16    1.40
 -18  12  -4   -0.07    0.17
  18 -12  -4    0.58    0.44
 -18 -12   4   -0.05    0.66
 -18 -12   4   -0.43    0.51
  18  12   4    0.67    0.53
  18 -14   4   67.13    3.64
 -18 -14  -4   68.61    3.34
  18  14  -4   72.74    5.53
 -18 -14  -4   68.28    5.14
 -18  14   4   62.04    2.46
  18  14  -4   66.59    6.35
  18 -14   4   62.34    3.36
 -18  14   4   66.22    2.86
  18 -14  -4   65.22    3.62
 -18  14  -4   67.14    3.38
  18  14   4   67.80    7.00
  18  14   4   66.87    3.32
  18 -14  -4   71.26    3.12
 -18 -14   4   68.09    4.08
 -18 -14   4   68.27    3.44
  18 -16   4    2.13    1.53
 -18 -16  -4    2.65    0.75
 -18 -16  -4    3.05    2.74
 -18  16   4    0.49    0.73
 -18  16   4    2.70    0.57
  18  16  -4    2.36    1.18
  18  16  -4    3.79    1.01
 -18 -16   4    2.41    0.88
  18 -16  -4    2.51    0.88
 -18  16  -4    2.88    1.35
  18  16   4    2.20    0.79
  18  16   4    3.48    2.03
  18 -16  -4    3.93    1.07
 -18 -16   4    2.72    1.11
  18 -18   4   44.07    2.88
 -18  18   4   39.26    1.68
 -18 -18  -4   45.93    5.14
 -18 -18  -4   43.95    2.47
 -18  18   4   41.96    1.95
  18  18  -4   44.42    3.44
  18  18  -4   46.10    4.59
  18 -18  -4   39.49    2.67
 -18  18  -4   43.38    2.58
  18  18   4   41.80    5.27
  18 -18  -4   45.81    2.20
 -18 -18   4   43.76    3.32
  18  18   4   43.84    2.48
 -18 -18   4   40.94    2.79
  18 -20   4   -0.52    0.70
 -18 -20  -4    0.43    0.56
 -18 -20  -4   -0.06    1.63
 -18  20   4    0.06    0.32
 -18  20   4    0.29    0.39
  18 -20   4    0.01    0.60
  18  20  -4    0.98    0.78
  18  20  -4    0.98    0.85
  18 -20  -4    0.40    0.64
  18  20   4   -0.09    1.39
  18  20   4    0.09    0.57
  18 -20  -4    0.29    0.46
 -18 -20   4   -0.79    0.87
 -18 -20   4    0.56    0.71
 -18 -22  -4   36.22    2.33
 -18 -22  -4   39.03    6.57
 -18  22   4   33.47    1.55
 -18  22   4   32.90    1.71
  18  22  -4   39.07    4.63
  18 -22   4   34.35    2.45
  18  22  -4   35.71    3.18
  18 -22  -4   33.18    3.65
  18  22   4   34.91    2.27
  18  22   4   33.01    4.86
  18 -22  -4   37.07    2.89
 -18 -22   4   37.63    3.35
 -18 -22   4   37.13    4.40
 -20   0  -4   22.12    1.32
 -20   0   4   22.48    1.39
  20   0  -4   24.18    2.36
  20   0   4   29.53    3.87
 -20   0  -4   26.68    2.66
 -20   0   4   25.89    1.74
  20   0  -4   27.37    1.91
  20   0   4   24.75    1.94
 -20  -2  -4    9.82    0.96
 -20   2   4    9.90    1.40
 -20  -2  -4    9.30    1.14
  20  -2   4    9.68    2.60
  20   2  -4    9.15    1.64
 -20   2   4   10.28    1.08
  20   2  -4   11.23    1.27
  20  -2   4   10.99    1.32
  20   2   4    8.89    1.29
 -20  -2   4   10.16    0.95
 -20   2  -4   11.19    1.16
  20  -2  -4    9.22    1.58
  20   2   4   13.22    2.83
 -20  -2   4   10.50    1.20
  20  -2  -4   10.17    1.22
 -20   2  -4    7.96    0.73
 -20   4   4    3.55    0.59
 -20  -4  -4    4.82    0.78
  20  -4   4    3.44    1.73
  20   4  -4    2.95    1.21
 -20   4   4    3.30    0.73
  20   4  -4    3.42    0.93
  20  -4   4    3.04    0.95
 -20  -4  -4    3.64    1.34
 -20  -4   4    3.10    0.70
 -20   4  -4    3.54    0.83
  20  -4  -4    3.19    1.11
  20   4   4    3.74    2.10
  20  -4  -4    0.03    1.40
 -20  -4   4    3.55    0.87
  20   4   4    2.71    0.91
 -20   4  -4    2.29    0.69
 -20  -6  -4    1.56    0.72
 -20  -6  -4    1.42    0.70
 -20   6   4    1.52    0.50
  20  -6   4    2.40    0.83
  20  -6   4    3.77    1.27
  20   6  -4    1.59    1.76
 -20   6   4    1.95    0.61
  20   6  -4    2.16    0.82
 -20   6  -4    1.83    0.71
 -20  -6   4    1.66    0.63
 -20   6  -4    1.04    0.30
  20  -6  -4    1.58    1.59
  20   6   4   -0.22    1.92
  20   6   4    1.83    0.77
  20  -6  -4    1.86    0.71
 -20  -6   4    1.87    0.80
 -20  -8  -4    4.69    0.89
 -20   8   4    4.51    0.61
 -20  -8  -4    5.34    1.77
  20  -8   4    4.65    1.45
  20   8  -4    3.49    1.37
 -20   8   4    4.26    0.74
  20   8  -4    3.94    1.08
  20  -8   4    4.41    1.07
 -20  -8   4    5.70    0.83
 -20   8  -4    3.74    0.91
  20  -8  -4    3.80    1.18
  20   8   4    4.29    1.00
  20   8   4    3.50    2.47
  20  -8  -4    4.19    0.87
 -20  -8   4    3.72    1.06
 -20 -10  -4    8.36    1.14
 -20  10   4    8.29    0.75
 -20 -10  -4    8.57    1.50
  20  10  -4    8.68    1.73
  20 -10   4    6.43    2.56
 -20  10   4   10.06    0.91
  20  10  -4    8.73    1.32
  20 -10   4    8.93    2.15
  20 -10  -4    9.56    1.44
 -20  10  -4    7.06    0.48
 -20  10  -4    8.69    1.17
  20  10   4    5.79    5.07
  20  10   4    9.51    2.02
  20 -10  -4    8.76    1.09
 -20 -10   4   11.20    1.39
 -20 -10   4    8.85    1.09
 -20 -12  -4   12.35    1.34
 -20 -12  -4   14.42    1.99
 -20  12   4   11.92    0.88
 -20  12   4   12.91    1.64
  20  12  -4   11.39    1.97
  20  12  -4   13.74    1.64
  20 -12   4   12.74    1.57
 -20 -12   4   11.97    1.32
  20 -12  -4   11.23    1.64
 -20  12  -4   12.38    2.19
  20  12   4   15.55    3.56
  20  12   4   11.30    1.44
  20 -12  -4   13.09    1.26
 -20 -12   4   12.61    1.72
 -20 -14  -4   12.60    2.12
 -20 -14  -4   13.50    2.15
 -20  14   4   10.47    0.85
 -20  14   4   11.45    1.00
  20  14  -4   12.12    2.03
  20  14  -4   11.10    2.65
  20 -14   4   12.04    1.57
  20 -14  -4   11.97    2.59
 -20  14  -4   10.49    1.35
  20  14   4   13.69    3.39
  20 -14  -4   12.05    1.93
 -20 -14   4   12.11    1.73
  20  14   4   11.16    1.43
 -20 -14   4   11.92    1.34
 -20 -16  -4   16.75    1.57
 -20 -16  -4   15.84    4.76
 -20  16   4   14.93    1.51
 -20  16   4   16.51    1.17
  20  16  -4   16.84    2.38
  20  16  -4   17.90    1.98
  20 -16   4   17.74    1.88
  20 -16  -4   16.24    1.85
 -20  16  -4   16.04    2.54
  20  16   4   16.27    3.77
  20  16   4   16.69    1.69
  20 -16  -4   18.41    1.42
 -20 -16   4   16.81    2.10
 -20 -16   4   14.31    1.71
  -1  -1  -5  115.12    4.37
   1  -1   5  116.19    4.57
   1   1  -5  119.70    3.95
   1  -1   5  120.47    3.49
   1   1  -5  116.59    3.59
  -1   1   5  120.60    4.22
  -1   1   5  128.63    4.02
  -1  -1  -5  118.36    4.02
  -1   1  -5  120.06    3.88
   1   1   5  123.01    3.67
   1  -1  -5  119.15    3.30
  -1  -1   5  120.47    4.93
  -1  -1   5  130.64    4.74
   1  -1  -5  118.42    4.00
   1   1   5  116.53    5.11
  -1   1  -5  115.29    4.16
  -1   3   5   56.61    1.36
   1  -3   5   55.89    1.67
   1   3  -5   54.99    1.91
  -1  -3  -5   56.70    2.07
  -1  -3  -5   56.58    3.28
   1   3  -5   57.09    1.78
  -1   3   5   57.28    1.68
   1  -3   5   55.87    3.65
   1  -3  -5   57.32    2.14
  -1  -3   5   62.92    4.07
  -1  -3   5   55.08    1.85
  -1   3  -5   58.07    1.71
  -1   3  -5   56.69    2.55
   1   3   5   56.05    1.27
   1  -3  -5   58.15    2.04
   1   3   5   55.59    1.81
  -1   5   5  163.45    4.02
   1  -5   5  152.83    5.25
   1  -5   5  149.84    6.71
  -1  -5  -5  147.04    5.72
  -1  -5  -5  144.69    6.10
  -1   5   5  158.56    4.00
   1   5  -5  151.01    4.97
   1   5  -5  146.33    5.67
  -1   5  -5  149.09    5.15
   1   5   5  150.99    4.70
   1  -5  -5  147.47    5.50
  -1  -5   5  153.31    5.20
   1   5   5  157.07    4.37
  -1   5  -5  155.06    5.39
   1  -5  -5  150.93    5.76
  -1  -5   5  171.88    8.09
   1   7  -5  134.20    5.49
  -1  -7  -5  128.94    5.17
  -1  -7  -5  129.45    5.68
   1  -7   5  126.12    6.00
   1  -7   5  129.21    4.17
   1   7  -5  131.26    4.17
   1  -7  -5  131.64    6.33
  -1   7  -5  129.01    4.73
   1  -7  -5  130.20    4.95
  -1  -7   5  131.55    4.31
  -1  -7   5  134.86    6.89
  -1   7  -5  134.01    3.99
   1   7   5  127.10    3.49
   1   7   5  130.46    3.37
   1  -9   5   57.93    3.38
  -1  -9  -5   58.23    3.11
  -1  -9  -5   60.89    1.27
   1   9  -5   61.96    3.01
   1  -9   5   58.24    1.77
   1   9  -5   59.98    1.83
   1   9   5   58.46    2.76
   1  -9  -5   61.53    2.69
  -1   9  -5   58.75    2.45
   1  -9  -5   58.62    2.55
  -1  -9   5   59.21    3.62
   1   9   5   58.14    1.16
  -1  -9   5   60.29    1.87
  -1   9  -5   59.11    1.59
  -1 -11  -5   26.27    2.18
   1 -11   5   25.68    2.25
  -1 -11  -5   25.01    0.44
   1  11  -5   27.24    1.99
   1 -11   5   24.57    1.12
   1  11  -5   24.48    0.89
   1  11   5   24.57    1.82
   1 -11  -5   23.89    1.65
  -1  11  -5   24.68    1.53
   1  11   5   24.47    0.57
  -1 -11   5   24.45    0.91
   1 -11  -5   24.93    1.62
  -1  11  -5   24.43    0.73
  -1 -11   5   25.21    3.69
  -1 -13  -5   90.07    5.14
   1  13  -5   85.61    2.72
  -1 -13  -5   91.10    2.10
   1  13  -5   94.39    4.99
   1 -13   5   84.85    2.90
   1 -13   5   86.67    5.19
  -1  13  -5   87.12    2.85
   1  13   5   81.78    4.66
   1 -13  -5   89.69    5.88
  -1  13  -5   86.66    4.12
   1 -13  -5   82.94    4.14
  -1 -13   5   84.38    4.99
  -1 -13   5   86.48    3.34
   1  13   5   91.17    2.55
  -1 -15  -5   26.88    0.65
   1  15  -5   24.98    0.96
   1 -15   5   24.12    2.60
   1 -15   5   25.62    0.79
   1  15  -5   28.68    2.45
  -1 -15  -5   26.67    2.93
   1  15   5   24.44    2.67
  -1  15  -5   24.50    0.75
   1 -15  -5   25.90    2.11
  -1 -15   5   23.13    2.47
  -1  15  -5   26.93    2.06
   1  15   5   25.27    0.76
  -1 -15   5   25.17    0.95
   1 -15  -5   24.82    2.19
   1  17  -5   10.20    0.61
   1  17  -5   13.36    1.76
  -1 -17  -5   11.29    0.31
   1 -17   5   11.19    0.45
   1 -17   5    9.69    1.95
  -1 -17  -5   11.85    2.29
  -1  17  -5   10.00    0.44
  -1 -17   5   10.21    1.76
   1 -17  -5   10.50    1.68
   1 -17  -5   10.35    1.81
   1  17   5   11.36    3.77
   1 -17  -5   11.12    0.19
  -1  17  -5   13.18    1.66
   1  17   5   10.88    0.50
  -1 -17   5   10.79    0.60
   1 -17  -5   10.97    0.24
  -1 -19  -5  118.74    8.03
   1  19  -5  118.44    6.46
   1 -19   5  105.37    6.48
   1 -19   5  105.30    3.10
   1  19  -5  105.74    3.52
  -1 -19  -5  115.37    3.42
  -1 -19   5  102.07    6.03
   1 -19  -5  111.93    6.41
   1  19   5  110.29   12.00
   1 -19  -5  111.54    2.92
   1 -19  -5  116.52    3.14
   1 -19  -5  105.54    7.00
  -1  19  -5  101.00    3.04
  -1 -19   5  108.91    4.27
   1  19   5  108.91    3.45
  -1  19  -5  115.98    6.36
   1  21  -5   16.91    1.99
   1 -21   5   14.50    2.06
   1  21  -5   14.61    0.73
  -1 -21  -5   16.64    0.55
  -1 -21  -5   19.48    3.01
   1 -21  -5   16.31    0.49
   1  21   5   16.55    5.42
   1 -21  -5   16.24    0.58
  -1  21  -5   17.23    2.06
   1  21   5   15.49    1.04
  -1 -21   5   14.38    1.98
  -1  21  -5   14.31    0.57
  -1 -21   5   13.94    0.72
   1 -21  -5   17.22    2.37
   1 -21  -5   16.28    2.76
   1  23  -5   44.70    4.85
   1 -23   5   40.87    3.18
  -1 -23  -5   42.92    1.64
   1 -23   5   42.80    1.18
   1  23  -5   36.46    1.38
  -1 -23  -5   42.75    4.62
  -1  23  -5   37.42    1.26
   1  23   5   42.27    1.44
   1  23   5   44.05    7.15
   1 -23  -5   44.37    4.91
   1 -23  -5   42.75    2.00
  -1  23  -5   43.20    3.22
  -1 -23   5   41.48    1.45
   1 -23  -5   43.81    3.90
   1 -23  -5   43.90    1.22
  -1 -23   5   38.00    4.82
   1 -25   5   18.30    2.04
   1 -25   5   19.11    0.84
  -1 -25  -5   18.84    3.13
   1  25  -5   17.90    1.97
  -1 -25  -5   18.12    0.71
   1  25  -5   14.76    0.81
   1  25   5   18.49    4.13
  -1  25  -5   16.72    1.17
   1 -25  -5   16.68    2.75
   1 -25  -5   18.14    1.55
  -1  25  -5   18.91    2.00
  -1 -25   5   18.76    0.82
   1  25   5   18.16    1.18
  -1 -25   5   17.04    1.96
   1 -25  -5   19.20    0.69
   1 -25  -5   19.85    3.56
   1  27  -5    5.38    0.57
  -1 -27  -5    7.47    2.04
   1 -27   5    5.66    1.33
   1  27  -5    5.99    1.32
   1 -27   5    6.64    0.34
  -1 -27  -5    6.86    0.74
   1  27   5    5.05    2.52
  -1 -27   5    5.18    1.29
   1 -27  -5    8.25    3.22
   1 -27  -5    6.80    1.20
  -1 -27   5    6.54    0.50
  -1  27  -5    6.08    0.55
   1  27   5    6.58    0.49
   1 -27  -5    6.15    0.72
  -1  27  -5    6.69    1.36
   1 -27  -5    5.46    1.95
  -1 -29  -5   28.14    1.12
  -1 -29  -5   29.14    3.23
   1  29  -5   31.75    2.36
   1  29  -5   23.99    1.28
   1 -29   5   27.55    2.36
   1 -29   5   28.82    0.86
   1  29   5   28.35    2.54
  -1 -29   5   28.56    1.10
   1 -29  -5   28.35    2.87
   1 -29  -5   29.02    2.01
  -1  29  -5   29.81    2.41
   1 -29  -5   28.30    1.07
   1 -29  -5   32.69    3.46
   1  29   5   26.83    1.53
  -1 -29   5   26.69    2.33
  -1  29  -5   25.64    1.03
   1  31  -5   46.23    3.13
   1  31  -5   57.62    3.53
   1 -31   5   49.96    3.38
   1 -31   5   55.83    1.89
  -1 -31  -5   53.52    1.98
   1 -31  -5   58.16    7.41
   1  31   5   51.98    3.46
   1 -31  -5   57.18    2.87
  -1 -31   5   49.73    4.94
  -1  31  -5   55.83    5.04
   1  31   5   49.74    1.82
  -1 -31   5   54.33    1.88
   1 -31  -5   52.67    1.88
  -1  31  -5   48.09    1.61
   1 -31  -5   54.38    3.75
  -1 -33  -5    3.66    1.42
   1  33  -5    2.91    0.95
   1  33  -5    3.90    1.91
   1 -33   5    3.38    1.88
  -1 -33  -5    4.51    0.51
   1 -33   5    4.58    0.46
  -1  33  -5    3.53    0.47
   1  33   5    4.63    1.08
   1 -33  -5    3.86    1.58
   1 -33  -5    4.60    0.53
  -1  33  -5    4.46    1.15
  -1 -33   5    3.79    0.74
   1 -33  -5    3.59    0.46
   1  33   5    3.54    0.45
  -1 -33   5    4.04    1.17
   1 -33  -5    5.60    1.14
  -1 -35  -5   50.24    3.84
   1  35  -5   53.78    3.43
   1 -35   5   44.63    3.35
  -1 -35  -5   46.28    1.92
   1  35  -5   43.71    2.61
   1  35   5   48.83    3.16
   1 -35  -5   50.37    3.22
  -1  35  -5   52.11    3.37
   1 -35  -5   51.35    6.03
   1 -35  -5   54.47    2.08
   1  35   5   46.51    1.80
  -1 -35   5   48.53    3.39
  -1 -35   5   55.84    1.91
   1 -35  -5   45.85    2.38
  -1 -37  -5    8.25    1.54
  -1 -37  -5    5.38    0.62
   1  37  -5    8.13    1.35
   1 -37   5    6.49    1.36
   1 -37  -5    7.17    1.57
   1  37   5    6.38    1.18
   1 -37  -5    7.17    0.60
   1 -37  -5    5.65    0.89
   1 -37  -5    6.03    1.91
   1  37   5    6.81    0.56
  -1 -37   5    6.70    1.36
  -1  37  -5    6.08    1.36
  -1 -39  -5   11.93    1.76
   1  39  -5   13.17    1.62
   1 -39   5    9.39    2.63
  -1 -39  -5   10.12    0.78
   1 -39  -5   11.47    2.85
   1  39   5    8.42    1.34
   1 -39  -5    9.87    1.35
  -1 -39   5   10.37    2.71
  -1  39  -5   11.48    1.63
  -3  -1  -5  452.63   24.79
   3  -1   5  505.50   22.22
   3   1  -5  459.36   24.88
  -3   1   5  492.05   22.89
   3  -1   5  476.59   23.11
   3   1  -5  502.91   23.09
  -3   1   5  498.42   21.13
   3   1   5  510.75   22.69
  -3   1  -5  496.83   23.67
  -3   1  -5  458.11   26.36
  -3  -1   5  490.77   22.69
   3  -1  -5  494.22   22.84
  -3  -1   5  492.79   21.59
   3  -1  -5  466.51   22.06
  -3  -3  -5   66.89    3.77
   3  -3   5   71.07    2.59
  -3  -3  -5   64.90    2.25
  -3   3   5   71.62    2.56
   3   3  -5   70.50    4.58
   3  -3   5   69.75    2.43
   3   3  -5   69.32    2.34
  -3   3   5   68.72    1.60
   3   3   5   69.57    2.62
   3   3   5   71.70    2.14
  -3   3  -5   68.24    2.97
   3  -3  -5   69.72    2.48
  -3   3  -5   70.45    2.54
   3  -3  -5   67.76    2.41
  -3  -3   5   71.36    2.43
  -3  -3   5   73.44    3.06
   3  -5   5  242.33    9.96
  -3  -5  -5  251.49    8.59
  -3   5   5  246.37    9.79
   3   5  -5  247.60   14.13
   3  -5   5  240.22    9.88
  -3   5   5  246.97    7.57
   3   5  -5  245.61    9.29
  -3  -5  -5  237.51   12.56
   3   5   5  239.28   10.28
  -3   5  -5  244.04   10.21
   3  -5  -5  247.28    8.16
  -3   5  -5  255.25    8.87
  -3  -5   5  245.50    9.42
  -3  -5   5  251.47   10.15
   3  -5  -5  238.97    9.59
   3   5   5  252.81    8.36
  -3  -7  -5  561.61   24.66
   3  -7   5  535.59   25.82
   3   7  -5  532.29   33.80
   3  -7   5  533.45   27.60
  -3  -7  -5  498.34   30.40
   3   7  -5  548.10   26.17
   3  -7  -5  538.07   26.60
   3   7   5  517.39   27.64
  -3   7  -5  564.45   25.03
   3   7   5  554.33   24.74
   3  -7  -5  525.57   26.13
  -3  -7   5  552.65   26.46
  -3  -7   5  552.56   28.22
  -3   7  -5  532.87   26.21
  -3  -9  -5  334.12   11.95
   3  -9   5  304.57   13.09
   3  -9   5  308.59   14.53
   3   9  -5  322.55   16.61
  -3  -9  -5  317.12   18.22
   3   9  -5  316.89   12.97
   3  -9  -5  314.18   13.68
   3   9   5  301.93   15.13
   3  -9  -5  303.54   13.37
  -3  -9   5  323.02   15.58
   3   9   5  313.72   11.23
  -3   9  -5  313.04   12.82
  -3  -9   5  310.60   12.79
  -3   9  -5  330.15   11.89
   3  11  -5   95.50    3.33
  -3 -11  -5   99.31    2.57
   3 -11   5   93.11    3.75
   3  11  -5  100.13    5.46
  -3 -11  -5  101.64    6.92
   3 -11   5   96.82    4.55
  -3  11  -5   96.88    3.63
   3  11   5   95.36    5.38
   3 -11  -5   92.86    3.96
  -3 -11   5   94.38    4.07
  -3 -11   5   98.28    5.24
   3 -11  -5   98.08    3.99
   3  11   5   92.29    2.48
  -3  11  -5   96.58    2.48
  -3 -13  -5  189.51    6.14
   3  13  -5  178.23    7.71
   3 -13   5  178.73    7.75
   3  13  -5  188.83    9.87
  -3 -13  -5  186.95   12.30
   3 -13   5  179.78    8.87
  -3  13  -5  182.84    5.38
  -3  13  -5  179.48    6.00
   3 -13  -5  183.43    7.87
   3  13   5  184.96   10.42
  -3 -13   5  190.07   10.27
   3  13   5  179.03    6.06
  -3 -13   5  183.07    6.78
   3 -13  -5  171.81    9.63
   3  15  -5   92.29    3.29
   3 -15   5   91.00    4.34
   3  15  -5  100.54    5.71
  -3 -15  -5   97.95    2.62
  -3 -15  -5   98.23   11.60
   3 -15   5   93.20    5.26
   3 -15  -5   91.69    4.45
  -3  15  -5   93.84    2.98
  -3 -15   5   92.29    6.14
   3  15   5   92.15    3.05
  -3  15  -5   89.22    2.42
   3  15   5   98.07    6.83
   3 -15  -5   92.59    4.27
  -3 -15   5   93.92    3.34
   3  17  -5    9.35    0.76
   3 -17   5   11.65    1.39
   3  17  -5    9.94    1.78
  -3 -17  -5   19.86    2.94
   3 -17   5   10.45    1.76
  -3 -17  -5   10.09    0.42
   3  17   5   11.84    2.63
   3 -17  -5   11.45    1.41
   3  17   5   10.87    0.50
  -3 -17   5    9.22    2.03
   3 -17  -5   10.98    1.26
  -3 -17   5   11.19    0.74
  -3  17  -5   10.63    0.35
  -3 -19  -5   35.56    4.57
   3  19  -5   31.92    2.86
   3 -19   5   31.73    2.47
   3 -19   5   30.31    2.94
   3  19  -5   34.55    1.40
  -3 -19  -5   32.07    1.29
   3 -19  -5   31.77    0.72
  -3 -19   5   30.67    3.06
   3 -19  -5   31.88    2.31
   3  19   5   36.66    4.06
   3 -19  -5   32.82    0.72
   3 -19  -5   29.29    2.54
  -3  19  -5   31.88    0.72
  -3 -19   5   33.47    1.46
   3  19   5   31.52    1.54
   3  21  -5   18.36    2.17
  -3 -21  -5   22.31    3.40
   3 -21   5   17.19    2.04
   3 -21   5   19.60    2.38
   3  21  -5   17.00    1.48
  -3 -21  -5   18.34    1.03
   3 -21  -5   19.36    3.16
   3  21   5   18.40    1.34
   3 -21  -5   18.55    0.58
   3 -21  -5   15.28    3.52
   3  21   5   20.51    2.79
   3 -21  -5   18.57    0.78
  -3  21  -5   17.22    0.51
  -3 -21   5   15.33    2.28
  -3  21  -5   17.92    0.46
  -3 -21   5   18.03    1.03
   3  23  -5   34.86    3.01
   3 -23   5   34.26    4.98
  -3 -23  -5   37.78    4.11
   3 -23   5   36.50    3.06
   3  23  -5   32.33    1.40
  -3 -23  -5   36.31    1.20
   3 -23  -5   35.39    2.85
   3 -23  -5   37.12    0.94
   3  23   5   35.97    3.36
   3 -23  -5   31.79    5.16
  -3 -23   5   32.71    3.04
   3  23   5   35.32    2.10
   3 -23  -5   35.91    1.07
  -3 -23   5   37.04    2.29
  -3 -25  -5   88.56    6.24
   3 -25   5   93.01    5.40
   3  25  -5   90.05    5.22
  -3 -25  -5   90.41    2.89
   3 -25   5   84.85    5.45
   3  25  -5   78.23    2.97
   3 -25  -5   90.33    2.97
   3  25   5   87.41    5.31
   3 -25  -5   83.13    5.99
   3  25   5   83.04    3.08
  -3 -25   5   79.16    4.96
   3 -25  -5   84.06    2.62
   3 -25  -5   92.80    5.43
  -3 -25   5   90.16    3.34
  -3 -27  -5   53.35    4.32
   3 -27   5   58.26    3.87
   3  27  -5   52.09    5.22
   3 -27   5   53.28    3.77
  -3 -27  -5   53.12    1.81
   3  27  -5   45.05    1.87
   3 -27  -5   53.28    1.68
   3  27   5   51.38    3.53
   3 -27  -5   56.01    4.73
   3  27   5   50.01    1.93
  -3 -27   5   48.32    3.47
   3 -27  -5   49.29    1.59
   3 -27  -5   57.88    4.06
  -3 -27   5   52.86    2.08
   3  29  -5   54.25    2.30
  -3 -29  -5   61.04    4.48
   3 -29   5   55.22    3.96
   3 -29   5   67.82    4.09
  -3 -29  -5   60.57    2.77
   3  29  -5   60.02    3.87
   3 -29  -5   63.25    2.69
   3  29   5   59.35    5.34
   3  29   5   54.90    2.13
   3 -29  -5   64.24    4.80
  -3 -29   5   54.80    5.57
   3 -29  -5   68.95    4.77
   3 -29  -5   55.79    1.86
  -3 -29   5   63.34    2.45
  -3 -31  -5   22.30    4.08
   3  31  -5   19.28    1.23
   3 -31   5   23.00    2.30
   3 -31   5   19.38    2.20
   3  31  -5   22.29    2.19
  -3 -31  -5   22.46    1.05
   3  31   5   22.29    2.00
   3 -31  -5   22.40    1.65
  -3 -31   5   19.73    2.23
   3 -31  -5   20.06    0.85
   3 -31  -5   20.67    2.42
   3 -31  -5   24.40    4.62
  -3 -31   5   23.62    1.21
  -3 -33  -5    0.66    1.03
   3  33  -5    0.99    0.52
   3 -33   5    1.72    0.89
   3  33  -5    1.75    0.91
   3 -33   5    1.36    0.91
  -3 -33  -5    1.14    0.40
   3  33   5    0.61    0.79
   3 -33  -5    1.10    0.48
   3 -33  -5    1.94    1.22
   3 -33  -5   -0.17    1.50
  -3 -33   5    1.16    0.93
   3 -33  -5    0.29    0.48
   3  33   5    0.91    0.36
  -3 -33   5    1.17    0.44
  -3 -35  -5   25.76    2.52
   3 -35   5   26.16    2.34
   3  35  -5   25.04    2.30
   3  35  -5   19.10    2.34
   3 -35   5   22.18    2.32
  -3 -35  -5   24.42    1.25
   3  35   5   23.49    2.05
   3 -35  -5   25.66    1.40
   3 -35  -5   26.32    3.05
   3  35   5   23.67    1.56
   3 -35  -5   24.99    2.18
  -3 -35   5   23.67    2.31
   3 -35  -5   22.32    1.00
  -3 -35   5   27.64    1.32
   3  37  -5   62.19    3.99
   3 -37   5   67.89    4.04
   3  37  -5   42.54    3.44
   3 -37   5   57.06    3.87
  -3 -37  -5   55.40    2.40
  -3 -37  -5   64.39    4.25
   3  37   5   56.56    3.41
   3 -37  -5   61.69    3.56
   3 -37  -5   55.24    3.31
   3 -37  -5   63.88    4.56
   3  37   5   55.33    2.21
  -3 -37   5   56.93    3.92
  -3 -37   5   70.05    2.68
   3 -39   5    3.61    1.21
   3  39  -5    4.00    1.19
   3  39  -5    1.73    0.66
  -3 -39  -5    3.58    0.58
  -3 -39  -5    4.59    1.29
   3 -39   5    4.90    2.03
  -3 -39   5    3.22    2.05
   3 -39  -5    4.13    1.35
   3  39   5    4.31    1.62
   3 -39  -5    3.27    0.97
   3  39   5    3.08    0.78
  -3 -39   5    4.87    0.58
   5   1  -5   46.01    1.78
   5  -1   5   40.83    1.28
   5  -1   5   39.14    1.47
  -5  -1  -5   40.55    1.31
  -5   1   5   41.07    1.66
  -5  -1  -5   41.58    4.66
  -5   1   5   38.49    1.40
   5   1  -5   40.75    1.67
   5   1   5   40.17    1.21
  -5   1  -5   39.76    1.37
   5   1   5   40.12    1.71
   5  -1  -5   41.19    1.68
  -5   1  -5   44.25    4.60
   5  -1  -5   44.19    2.15
  -5  -1   5   41.38    1.62
  -5  -1   5   39.75    1.23
   5  -3   5    7.83    0.51
  -5  -3  -5    8.36    0.46
   5  -3   5    8.22    0.49
  -5  -3  -5    8.10    2.54
  -5   3   5    8.37    1.17
   5   3  -5    9.01    1.39
   5   3  -5    8.79    0.71
  -5   3   5    7.23    0.45
  -5   3  -5    8.00    0.60
   5   3   5    8.01    0.89
  -5  -3   5    7.63    0.54
   5   3   5    7.93    0.41
  -5  -3   5    7.32    0.68
  -5   3  -5    9.27    2.12
   5  -3  -5    9.07    0.75
   5  -3  -5    9.07    0.51
   5   5  -5  290.05   13.03
   5  -5   5  271.38   10.65
  -5  -5  -5  281.82   10.39
   5  -5   5  267.63   11.10
  -5   5   5  279.76   11.44
  -5  -5  -5  264.47   18.51
   5   5  -5  272.06   11.18
  -5   5   5  269.60    9.27
   5   5   5  271.99   10.61
  -5   5  -5  267.25   14.33
  -5  -5   5  270.35   10.93
  -5   5  -5  275.36   10.04
  -5  -5   5  274.04   11.18
   5  -5  -5  271.94   12.81
   5  -5  -5  304.84   11.52
   5   5   5  276.22   15.13
  -5   7   5   24.47    0.49
  -5  -7  -5   25.39    0.81
   5  -7   5   24.54    1.12
  -5   7   5   27.82    1.34
   5   7  -5   28.10    1.89
  -5  -7  -5   26.23    4.24
   5  -7   5   24.96    1.29
   5   7  -5   25.33    1.26
  -5   7  -5   27.01    1.89
  -5   7  -5   25.96    0.70
  -5  -7   5   25.71    1.37
   5  -7  -5   27.41    0.97
   5  -7  -5   25.43    1.38
  -5  -7   5   25.58    1.23
   5   7   5   26.10    2.12
   5   7   5   25.82    1.15
   5   9  -5   18.66    1.10
  -5  -9  -5   18.74    0.94
  -5   9   5   18.22    0.34
   5  -9   5   17.43    1.04
  -5  -9  -5   18.99    6.02
  -5   9   5   17.82    1.15
   5  -9   5   18.19    1.19
   5   9  -5   19.72    3.01
   5  -9  -5   18.48    1.23
   5  -9  -5   19.43    0.64
   5   9   5   18.29    0.97
  -5   9  -5   18.07    0.46
  -5  -9   5   18.25    1.36
  -5  -9   5   18.40    1.05
   5   9   5   20.55    2.19
  -5   9  -5   19.47    2.04
   5  11  -5  195.18    9.74
  -5 -11  -5  174.33    5.69
   5  11  -5  171.62    6.74
   5 -11   5  166.17    6.75
  -5 -11  -5  163.82   12.22
   5 -11   5  163.23    7.28
   5 -11  -5  163.94    7.00
   5 -11  -5  176.92    7.13
  -5  11  -5  179.04    7.17
   5 -11  -5  174.73    4.93
  -5 -11   5  173.25    7.86
   5 -11  -5  195.08    5.37
  -5  11  -5  176.86    5.18
  -5 -11   5  171.83    6.73
   5  11   5  177.36   10.39
   5  11   5  162.19    5.43
   5  13  -5  117.43    4.62
  -5 -13  -5  113.89    8.93
   5 -13   5  113.26    4.77
  -5 -13  -5  118.95    3.66
   5  13  -5  127.59    7.00
   5 -13   5  113.58    5.39
  -5  13  -5  119.18    3.39
   5 -13  -5  117.19    4.85
  -5  13  -5  117.66    2.86
  -5 -13   5  120.50    5.95
   5 -13  -5  111.53    4.93
   5 -13  -5  126.27    3.24
   5  13   5  117.87    3.69
  -5 -13   5  119.97    4.60
   5 -13  -5  114.84    3.19
   5  13   5  124.94    8.27
  -5 -15  -5   23.28    0.80
   5  15  -5   21.87    1.31
  -5 -15  -5   23.02    3.49
   5 -15   5   21.35    1.53
   5 -15   5   20.38    1.86
   5  15  -5   26.05    4.34
  -5 -15   5   22.89    1.29
   5 -15  -5   21.96    0.78
  -5 -15   5   23.44    2.29
   5 -15  -5   22.38    1.64
   5  15   5   20.60    0.81
   5  15   5   26.35    3.39
   5 -15  -5   23.58    1.51
   5 -15  -5   22.98    0.45
   5 -17   5  218.10   10.41
   5  17  -5  229.04    9.59
   5  17  -5  253.37   13.89
   5 -17   5  229.88   11.71
  -5 -17  -5  243.44    8.77
   5 -17  -5  234.87   10.61
   5 -17  -5  226.75    7.62
  -5 -17   5  238.55    9.99
   5 -17  -5  221.76   10.61
   5  17   5  218.44    8.12
   5  17   5  238.97   14.37
   5 -17  -5  260.75    8.30
  -5 -17   5  237.68   13.07
  -5 -19  -5   98.54    7.21
   5  19  -5  100.96    6.22
   5 -19   5   91.30    4.73
  -5 -19  -5   97.88    3.10
   5 -19   5   93.74    5.36
   5  19  -5   95.27    3.82
  -5 -19   5   97.56    5.11
   5 -19  -5  101.74    2.51
   5 -19  -5   92.30    2.61
   5  19   5   90.57    3.69
   5 -19  -5   96.34    4.47
   5 -19  -5   89.67    6.55
  -5 -19   5   96.94    6.60
   5  19   5   92.55    6.43
  -5 -21  -5   61.59    5.17
   5 -21   5   60.32    4.00
   5 -21   5   57.59    3.55
   5  21  -5   62.44    6.57
  -5 -21  -5   60.78    2.53
   5  21  -5   60.34    2.53
   5 -21  -5   62.60    1.73
   5 -21  -5   59.06    3.49
   5 -21  -5   56.30    1.59
   5  21   5   55.59    1.96
   5 -21  -5   61.76    3.23
  -5 -21   5   59.86    4.89
   5  21   5   59.18    4.44
  -5 -21   5   62.93    2.70
  -5 -23  -5  124.90    7.82
   5 -23   5  116.36    6.46
   5  23  -5  128.52    7.27
   5 -23   5  118.38    6.75
   5  23  -5  115.16    4.60
  -5 -23  -5  127.01    4.26
   5 -23  -5  128.36    3.93
   5  23   5  113.81    4.11
   5 -23  -5  124.30    5.90
   5 -23  -5  114.42    6.20
   5 -23  -5  112.51    3.93
  -5 -23   5  113.47    7.31
   5  23   5  115.35    6.80
  -5 -23   5  127.23    5.10
  -5 -25  -5   54.57    4.41
  -5 -25  -5   55.36    2.48
   5 -25   5   54.15    3.71
   5  25  -5   55.51    3.85
   5 -25   5   52.43    3.83
   5  25  -5   50.56    2.13
   5 -25  -5   57.84    3.31
   5 -25  -5   56.44    1.79
  -5 -25   5   50.21    3.95
   5 -25  -5   51.65    1.55
   5  25   5   51.46    1.99
   5 -25  -5   51.28    3.57
   5  25   5   51.78    3.60
  -5 -25   5   56.92    2.44
  -5 -27  -5   69.71    4.88
   5 -27   5   69.23    4.51
   5  27  -5   69.93    4.46
   5 -27   5   67.51    4.72
   5  27  -5   62.71    2.65
  -5 -27  -5   69.81    2.45
   5 -27  -5   70.16    4.07
   5 -27  -5   71.53    2.07
   5  27   5   66.30    2.68
   5 -27  -5   69.67    4.54
   5 -27  -5   62.54    2.39
  -5 -27   5   62.12    4.53
   5  27   5   65.81    4.11
  -5 -27   5   72.14    4.07
  -5 -29  -5    8.60    1.75
  -5 -29  -5    8.19    0.64
   5 -29   5    8.39    1.68
   5  29  -5    8.99    1.60
   5 -29   5    7.09    2.69
   5  29  -5    6.62    0.76
   5 -29  -5    7.63    0.46
   5  29   5    8.89    1.27
   5 -29  -5    7.91    1.76
   5 -29  -5    7.01    0.45
  -5 -29   5    6.77    1.58
   5 -29  -5    8.17    1.51
   5  29   5    9.29    2.25
  -5 -29   5    7.52    0.89
   5  31  -5   37.49    1.91
   5 -31   5   44.33    3.58
   5  31  -5   42.27    3.33
   5 -31   5   41.58    3.51
  -5 -31  -5   42.72    2.43
  -5 -31  -5   45.60    3.58
   5 -31  -5   44.46    1.56
   5  31   5   40.81    2.89
   5  31   5   39.81    1.88
   5 -31  -5   46.37    5.25
   5 -31  -5   38.71    1.35
  -5 -31   5   40.68    3.29
   5 -31  -5   45.22    3.60
  -5 -31   5   47.26    2.21
   5  33  -5   51.35    3.39
   5 -33   5   56.55    3.90
   5  33  -5   55.53    3.81
   5 -33   5   51.17    3.92
  -5 -33  -5   52.13    2.19
  -5 -33  -5   54.06    4.01
   5 -33  -5   54.99    3.82
   5 -33  -5   55.50    2.09
   5  33   5   49.58    3.26
  -5 -33   5   47.36    3.72
   5 -33  -5   60.02    4.34
   5  33   5   45.70    2.15
   5 -33  -5   46.70    2.10
  -5 -33   5   58.22    2.66
   5  35  -5    1.23    0.99
   5 -35   5    2.70    1.07
   5  35  -5    1.76    1.06
   5 -35   5    1.84    1.05
  -5 -35  -5    1.55    0.49
  -5 -35  -5    1.90    1.08
   5 -35  -5    1.18    0.92
   5 -35  -5    1.72    0.74
  -5 -35   5    1.13    1.05
   5  35   5    1.61    0.87
   5 -35  -5    1.06    1.24
   5  35   5    1.40    0.47
   5 -35  -5    1.07    0.31
  -5 -35   5    2.26    0.60
   5  37  -5    0.38    0.60
   5 -37   5    0.50    0.99
   5  37  -5    0.98    1.00
   5 -37   5    3.54    1.01
  -5 -37  -5    1.15    0.48
  -5 -37  -5    0.74    1.06
   5  37   5    0.55    0.81
   5 -37  -5    0.77    1.22
   5  37   5    0.99    0.44
  -5 -37   5    2.02    1.69
   5 -37  -5    1.19    0.79
  -5 -37   5    0.71    0.55
   5 -39   5   38.32    3.08
   5  39  -5   37.07    3.11
   5 -39   5   34.32    3.10
  -5 -39  -5   34.11    1.81
  -5 -39  -5   37.84    3.23
   5  39   5   33.64    2.53
   5 -39  -5   36.25    3.39
   5 -39  -5   37.52    2.50
   5  39   5   31.89    1.60
  -5 -39   5   32.23    3.15
  -5 -39   5   41.37    2.79
  -7  -1  -5   51.63    4.68
   7  -1   5   46.87    2.22
  -7  -1  -5   46.77    1.63
  -7   1   5   47.45    2.02
   7   1  -5   49.26    1.90
  -7   1   5   43.61    1.34
   7  -1   5   49.29    2.06
   7   1  -5   45.50    2.09
  -7   1  -5   49.86    3.71
   7   1   5   45.92    1.57
   7  -1  -5   51.21    1.80
  -7   1  -5   45.21    1.67
   7   1   5   50.99    3.61
  -7  -1   5   43.85    1.47
  -7  -1   5   46.86    2.01
   7  -1  -5   44.76    2.12
  -7  -3  -5    1.37    3.08
  -7  -3  -5    1.00    0.32
   7  -3   5    1.22    0.38
   7   3  -5    0.80    0.49
  -7   3   5    0.76    0.49
  -7   3   5    1.22    0.36
   7  -3   5    1.41    0.61
   7   3  -5    1.54    0.53
  -7   3  -5    1.43    0.77
  -7   3  -5    0.96    0.39
   7  -3  -5    0.92    0.33
  -7  -3   5    1.75    0.50
   7  -3  -5    0.98    0.53
  -7  -3   5    1.32    0.35
   7   3   5    0.76    0.31
  -7   5   5   31.53    1.12
   7   5  -5   33.89    1.76
   7  -5   5   33.49    2.01
  -7  -5  -5   38.97   10.58
   7  -5   5   35.63    1.59
  -7  -5  -5   33.25    1.20
  -7   5   5   34.07    1.64
   7   5  -5   37.02    1.78
   7  -5  -5   34.85    1.76
  -7  -5   5   33.41    1.44
  -7   5  -5   32.72    1.46
  -7  -5   5   33.20    2.48
   7  -5  -5   35.21    1.19
   7   5   5   36.64    2.78
  -7   5  -5   34.26    1.84
   7   5   5   32.18    1.18
   7   7  -5   58.96    2.63
  -7   7   5   57.33    1.44
  -7  -7  -5   62.93   11.76
  -7  -7  -5   60.59    1.96
   7  -7   5   59.79    2.31
   7  -7   5   59.63    1.65
  -7   7   5   60.60    2.51
   7   7  -5   64.87    2.96
   7  -7  -5   65.39    2.35
  -7   7  -5   59.33    2.44
   7   7   5   65.75    4.51
  -7  -7   5   58.38    3.43
  -7  -7   5   62.07    2.58
   7  -7  -5   58.40    2.67
  -7   7  -5   60.42    2.96
   7   7   5   57.41    1.90
  -7  -9  -5   14.12    0.69
   7   9  -5   14.06    1.17
  -7  -9  -5    6.19    5.83
  -7   9   5   13.77    0.54
   7  -9   5   14.86    0.98
  -7   9   5   14.92    1.07
   7   9  -5   15.93    1.40
   7  -9   5   13.35    1.08
  -7   9  -5   14.40    0.40
   7   9   5   16.05    2.55
   7   9   5   13.68    0.71
  -7   9  -5   13.67    0.88
   7  -9  -5   12.49    1.19
  -7  -9   5   14.62    1.11
   7  -9  -5   15.29    0.57
  -7  -9   5   14.73    1.17
  -7 -11  -5   22.74    3.91
  -7 -11  -5   22.78    0.89
   7  11  -5   22.46    1.49
   7 -11   5   21.86    2.04
  -7  11   5   21.60    0.53
  -7  11   5   21.58    2.06
   7  11  -5   24.10    1.90
   7 -11   5   21.19    1.40
   7  11   5   19.89    0.90
  -7 -11   5   21.24    1.58
   7  11   5   26.17    3.31
  -7  11  -5   22.69    0.45
   7 -11  -5   21.97    1.49
   7 -11  -5   23.49    0.70
  -7 -11   5   23.13    1.40
  -7  11  -5   20.46    0.51
  -7 -13  -5    1.66    1.52
  -7 -13  -5    0.95    0.29
   7 -13   5    0.50    0.52
   7 -13   5    0.92    0.57
   7  13  -5    0.48    0.55
  -7  13   5    0.58    0.13
  -7  13   5    1.22    0.49
   7  13  -5    1.23    0.77
  -7 -13   5    0.90    0.70
  -7 -13   5    1.21    0.53
   7  13   5    0.66    1.31
   7 -13  -5    0.68    0.31
   7  13   5    0.98    0.31
   7 -13  -5    1.07    0.58
  -7 -15  -5   12.96    2.78
   7 -15   5   13.04    1.19
   7  15  -5   12.50    1.91
   7 -15   5   12.32    1.32
  -7 -15  -5   12.33    0.69
   7  15  -5   13.64    1.77
   7 -15  -5   13.91    1.10
   7  15   5   12.21    1.15
   7  15   5   12.98    2.42
   7 -15  -5   13.60    0.45
   7 -15  -5   13.12    0.41
   7 -15  -5   12.35    1.24
  -7 -15   5   11.51    1.63
  -7 -15   5   14.48    1.15
  -7 -17  -5   42.46    4.61
  -7 -17  -5   43.16    1.55
   7 -17   5   44.24    2.47
   7  17  -5   41.64    2.19
   7 -17   5   42.71    3.95
   7  17  -5   46.93    5.23
   7 -17  -5   41.96    3.64
   7  17   5   43.34    3.98
   7 -17  -5   45.18    1.15
   7 -17  -5   42.83    1.21
  -7 -17   5   44.04    5.00
   7 -17  -5   44.70    2.22
   7  17   5   42.95    1.58
  -7 -17   5   45.89    3.36
  -7 -19  -5   42.97    4.19
   7 -19   5   40.50    2.49
   7 -19   5   38.44    2.67
   7  19  -5   44.30    3.49
   7  19  -5   39.71    2.08
  -7 -19  -5   39.74    1.48
   7 -19  -5   38.51    2.36
   7  19   5   38.42    3.61
   7  19   5   38.80    1.49
  -7 -19   5   40.49    3.29
   7 -19  -5   40.82    1.64
   7 -19  -5   41.80    3.15
  -7 -19   5   41.62    2.20
   7 -19  -5   41.95    1.35
  -7 -21  -5   27.81    3.36
   7 -21   5   26.54    2.08
   7  21  -5   29.10    1.64
   7  21  -5   31.67    2.92
   7 -21   5   27.43    2.35
  -7 -21  -5   30.23    1.18
   7 -21  -5   29.33    1.79
   7  21   5   26.77    1.15
  -7 -21   5   30.91    2.97
   7 -21  -5   28.23    2.00
   7 -21  -5   28.30    1.04
   7  21   5   27.78    2.82
  -7 -21   5   30.29    1.76
   7 -21  -5   30.54    1.07
   7 -23   5   41.36    2.76
   7 -23   5   40.35    2.98
   7  23  -5   47.82    3.72
   7  23  -5   41.22    2.05
  -7 -23  -5   45.64    3.98
  -7 -23  -5   43.91    1.61
   7 -23  -5   44.77    1.48
   7 -23  -5   38.51    2.56
  -7 -23   5   42.94    3.81
   7  23   5   40.77    3.33
   7 -23  -5   45.00    2.33
   7 -23  -5   43.08    1.49
   7  23   5   40.09    1.57
  -7 -23   5   42.61    2.24
   7 -25   5   -0.25    0.83
   7 -25   5    0.48    1.32
   7  25  -5    0.27    0.97
   7  25  -5    0.40    0.45
  -7 -25  -5    0.56    1.03
  -7 -25  -5   -0.01    0.55
   7 -25  -5    0.71    0.31
   7  25   5    0.35    0.32
   7 -25  -5    0.42    0.58
   7  25   5    0.23    0.87
   7 -25  -5    0.57    0.24
   7 -25  -5   -0.14    0.70
  -7 -25   5    0.81    1.10
  -7 -25   5    0.11    0.89
   7 -27   5   28.75    2.58
   7 -27   5   27.28    2.67
   7  27  -5   30.64    2.90
   7  27  -5   25.62    2.34
  -7 -27  -5   29.92    2.95
  -7 -27  -5   28.16    1.30
   7 -27  -5   28.93    0.92
   7 -27  -5   29.39    2.02
   7  27   5   27.48    2.53
   7 -27  -5   27.01    1.00
  -7 -27   5   27.99    3.11
   7  27   5   26.09    1.26
   7 -27  -5   26.79    3.55
  -7 -27   5   28.93    1.83
  -7 -29  -5    0.71    1.04
   7 -29   5    0.19    0.97
   7 -29   5    1.30    1.65
   7  29  -5    1.26    1.04
   7  29  -5    0.61    0.52
  -7 -29  -5    0.81    0.40
   7 -29  -5    0.85    0.75
   7 -29  -5    0.87    0.40
   7 -29  -5    0.49    1.42
  -7 -29   5    0.85    1.10
   7 -29  -5    0.64    0.41
   7  29   5    0.52    0.85
   7  29   5    0.77    0.41
  -7 -29   5    0.92    0.61
   7 -31   5   25.74    2.68
   7  31  -5   23.25    2.66
   7 -31   5   22.04    2.64
  -7 -31  -5   25.08    2.69
  -7 -31  -5   23.39    1.85
   7  31  -5   19.53    1.46
   7 -31  -5   25.43    0.97
   7 -31  -5   21.24    0.87
   7  31   5   22.26    1.34
   7 -31  -5   25.58    3.69
  -7 -31   5   25.67    2.74
   7 -31  -5   26.16    2.22
   7  31   5   23.35    2.19
  -7 -31   5   26.23    1.74
   7  33  -5   11.66    1.18
   7 -33   5   17.00    2.28
   7  33  -5   16.12    2.08
   7 -33   5   16.12    3.63
  -7 -33  -5   12.72    2.13
  -7 -33  -5   14.08    1.01
   7  33   5   13.65    1.72
   7 -33  -5   15.39    0.79
   7 -33  -5   15.03    3.06
   7 -33  -5   11.80    0.65
  -7 -33   5   15.21    2.13
   7 -33  -5   15.24    1.91
   7  33   5   11.40    1.06
  -7 -33   5   15.12    1.37
   7  35  -5   13.13    1.32
   7 -35   5   15.21    2.29
   7  35  -5   16.40    2.24
   7 -35   5   15.29    2.31
  -7 -35  -5   15.82    2.26
  -7 -35  -5   14.95    1.11
   7 -35  -5   16.11    2.91
   7  35   5   13.13    1.15
   7 -35  -5   19.66    2.24
  -7 -35   5   15.25    3.66
   7  35   5   15.97    1.78
  -7 -35   5   18.04    1.48
   7  37  -5   19.75    2.58
   7 -37   5   22.74    2.52
   7  37  -5   23.15    2.54
   7 -37   5   21.14    2.64
  -7 -37  -5   19.85    4.17
  -7 -37  -5   20.12    1.40
   7  37   5   20.25    3.22
   7 -37  -5   21.82    2.66
   7  37   5   18.18    1.32
  -7 -37   5   19.58    4.06
  -7 -37   5   22.17    1.70
   7 -37  -5   19.93    3.06
   9  -1   5  196.06    7.54
   9  -1   5  209.09    9.59
  -9  -1  -5  194.27    7.50
  -9   1   5  195.42    8.05
   9   1  -5  203.66    8.03
  -9  -1  -5  195.75   10.16
  -9   1   5  187.95    6.76
   9   1  -5  185.24    8.14
   9   1   5  207.76   10.42
  -9   1  -5  192.17    7.48
   9  -1  -5  204.42    9.13
  -9  -1   5  195.64    8.15
  -9   1  -5  192.29    8.85
  -9  -1   5  187.91    6.96
   9  -1  -5  188.59    8.25
   9   1   5  192.40    7.40
  -9   3   5   38.14    1.22
  -9  -3  -5   40.09    1.58
   9  -3   5   39.81    1.75
   9  -3   5   44.64    2.05
  -9   3   5   40.33    2.89
   9   3  -5   43.16    1.98
  -9  -3  -5   43.84    3.80
   9   3  -5   40.07    2.21
   9   3   5   44.65    3.43
  -9   3  -5   42.24    1.74
  -9  -3   5   38.82    1.57
  -9   3  -5   39.99    1.98
  -9  -3   5   41.37    2.07
   9  -3  -5   42.75    1.66
   9  -3  -5   38.98    2.15
   9   3   5   40.05    1.62
  -9   5   5    3.10    0.30
   9   5  -5    3.79    0.83
   9  -5   5    2.74    0.60
  -9  -5  -5    3.79    0.81
   9  -5   5    3.53    0.86
  -9   5   5    3.91    0.67
   9   5  -5    4.96    0.75
  -9  -5  -5    3.90    3.29
   9   5   5    3.70    1.59
  -9   5  -5    3.78    0.99
  -9   5  -5    3.76    0.54
   9  -5  -5    4.51    0.48
  -9  -5   5    4.20    0.75
   9  -5  -5    5.06    0.80
   9   5   5    3.18    0.51
  -9  -5   5    3.09    0.56
  -9   7   5   21.30    0.70
   9   7  -5   24.11    1.67
   9  -7   5   23.46    1.30
  -9  -7  -5   23.95    1.07
  -9   7   5   23.72    1.38
   9   7  -5   26.36    1.65
   9  -7   5   23.35    1.27
  -9  -7  -5   29.79    4.43
   9   7   5   22.84    1.10
   9   7   5   26.48    3.34
  -9   7  -5   23.96    1.33
  -9   7  -5   24.24    0.94
   9  -7  -5   26.11    1.02
  -9  -7   5   23.06    1.52
   9  -7  -5   23.28    1.58
  -9  -7   5   22.41    1.32
  -9  -9  -5  203.91    7.68
   9  -9   5  197.92    8.13
  -9   9   5  192.91    6.39
   9  -9   5  202.77    6.64
  -9  -9  -5  228.98   18.51
   9   9  -5  193.61    8.78
  -9   9   5  200.90    8.29
   9   9  -5  214.27   11.51
  -9   9  -5  180.84    6.08
   9   9   5  208.60   13.65
  -9  -9   5  193.80    8.29
  -9   9  -5  197.89    8.30
   9  -9  -5  208.12    7.29
  -9  -9   5  201.89    8.71
   9  -9  -5  192.51    8.47
   9   9   5  194.01    7.41
  -9 -11  -5  328.80   13.93
   9 -11   5  322.57   14.69
   9  11  -5  321.65   15.29
  -9  11   5  320.12   12.14
  -9  11   5  326.09   16.46
   9  11  -5  345.64   16.63
   9 -11   5  315.76   14.65
  -9 -11  -5  392.07   32.35
   9  11   5  311.09   20.20
  -9  11  -5  296.63   11.11
  -9  11  -5  333.90   11.86
  -9 -11   5  326.85   17.33
  -9 -11   5  316.00   14.95
   9 -11  -5  344.98   13.47
   9 -11  -5  315.14   14.89
   9  11   5  308.67   13.11
  -9 -13  -5  204.46    7.75
   9 -13   5  194.47    8.37
   9  13  -5  197.47    8.85
  -9  13   5  196.36    6.87
   9 -13   5  191.16    8.51
  -9  13   5  201.06    8.36
  -9 -13  -5  206.09   16.87
   9  13  -5  212.20   12.11
  -9 -13   5  193.61    8.94
   9  13   5  183.69   12.20
   9  13   5  191.25    8.61
   9 -13  -5  191.31    8.59
   9 -13  -5  210.04    7.09
  -9 -13   5  202.01    8.87
  -9  13  -5  181.32    4.85
  -9 -15  -5   35.28    1.44
   9 -15   5   33.59    1.95
   9  15  -5   33.74    2.12
  -9  15   5   33.18    1.22
   9  15  -5   38.71    2.60
  -9  15   5   33.94    1.79
  -9 -15  -5   37.20    5.25
   9 -15   5   36.08    2.06
   9  15   5   37.34    3.73
   9  15   5   32.18    1.44
  -9 -15   5   35.05    3.75
   9 -15  -5   37.20    1.13
   9 -15  -5   32.61    3.16
  -9 -15   5   33.84    2.09
  -9 -17  -5  119.60    4.32
   9 -17   5  116.55    5.28
   9 -17   5  115.09    7.00
   9  17  -5  117.53    5.28
   9  17  -5  128.70    6.47
  -9 -17  -5  122.78   13.95
   9 -17  -5  122.52    5.03
   9  17   5  111.49    7.50
   9 -17  -5  118.05    3.61
   9 -17  -5  112.54    5.25
  -9 -17   5  120.84    6.13
   9 -17  -5  127.24    3.85
   9  17   5  113.63    4.23
  -9 -17   5  125.84    5.57
   9  19  -5   71.71    3.42
  -9 -19  -5   74.22    3.43
   9 -19   5   71.86    5.01
   9 -19   5   76.33    3.76
   9  19  -5   78.30    4.46
  -9 -19  -5   75.99    9.53
   9  19   5   70.85    5.14
   9 -19  -5   70.35    3.54
   9  19   5   70.75    2.63
  -9 -19   5   74.99    4.35
   9 -19  -5   75.27    4.30
   9 -19  -5   74.03    2.19
  -9 -19   5   77.45    3.64
   9 -19  -5   78.36    2.66
   9 -21   5    4.55    0.94
   9  21  -5    3.79    0.79
   9  21  -5    4.32    1.23
  -9 -21  -5    4.77    1.76
   9 -21   5    3.38    0.97
  -9 -21  -5    3.64    0.50
   9  21   5    4.82    1.45
   9  21   5    3.42    0.50
   9 -21  -5    3.51    0.35
   9 -21  -5    3.40    0.86
  -9 -21   5    4.11    1.24
   9 -21  -5    3.67    0.70
  -9 -21   5    4.94    0.85
   9 -21  -5    3.41    0.51
  -9 -23  -5  124.22    4.63
   9 -23   5  116.32    6.04
   9 -23   5  119.32    6.23
   9  23  -5  131.88    7.37
   9  23  -5  120.28    5.38
  -9 -23  -5  127.09    8.42
   9 -23  -5  119.83    4.20
   9 -23  -5  125.84    5.39
   9  23   5  119.47    7.32
   9  23   5  114.35    4.37
   9 -23  -5  113.75    5.55
  -9 -23   5  127.48    7.35
  -9 -23   5  129.51    7.58
   9 -23  -5  127.17    3.99
   9 -25   5  210.77   11.26
   9 -25   5  208.95   10.97
   9  25  -5  240.41   13.42
   9  25  -5  204.96    9.49
  -9 -25  -5  230.85   13.68
  -9 -25  -5  223.80    9.19
   9 -25  -5  212.35    9.51
   9  25   5  197.26    8.32
   9  25   5  202.63   14.84
   9 -25  -5  200.70   10.22
   9 -25  -5  223.47   10.15
  -9 -25   5  223.19   17.02
  -9 -25   5  222.88   10.59
   9 -25  -5  230.11    8.34
   9 -27   5   90.76    5.42
   9  27  -5   97.86    8.99
   9  27  -5   88.98    4.19
  -9 -27  -5   99.88    6.60
   9 -27   5   91.69    5.45
  -9 -27  -5   96.60    3.76
   9 -27  -5   88.36    4.80
   9  27   5   90.35    5.54
   9 -27  -5   94.73    4.27
   9 -27  -5   95.80    5.76
   9  27   5   83.58    3.37
  -9 -27   5   94.78    4.74
   9 -27  -5   99.45    3.67
   9 -29   5    0.80    1.01
   9 -29   5    3.15    1.04
   9  29  -5    1.60    1.19
  -9 -29  -5    1.57    1.20
   9  29  -5    1.45    0.63
  -9 -29  -5    0.93    0.47
   9 -29  -5    0.76    0.29
   9 -29  -5    1.70    0.69
   9  29   5    1.01    1.01
   9 -29  -5    2.37    0.84
   9 -29  -5    1.37    0.37
   9  29   5    0.80    0.73
  -9 -29   5    0.95    2.26
  -9 -29   5    1.61    0.76
  -9 -31  -5    5.18    0.75
   9 -31   5    6.07    2.52
  -9 -31  -5    6.35    1.69
   9  31  -5    7.38    1.69
   9 -31   5    4.90    1.55
   9  31  -5    5.08    0.94
   9 -31  -5    5.92    0.49
   9 -31  -5    6.61    1.10
   9  31   5    6.61    1.40
   9 -31  -5    6.51    0.52
   9  31   5    4.73    0.69
   9 -31  -5    5.87    1.23
  -9 -31   5    5.91    3.05
  -9 -31   5    5.86    1.14
   9 -33   5    6.55    3.05
   9  33  -5   12.10    1.91
   9 -33   5    8.72    1.80
  -9 -33  -5    8.19    1.83
   9  33  -5    6.51    1.73
  -9 -33  -5    7.91    0.86
   9 -33  -5    7.32    0.97
   9  33   5    6.80    1.54
   9  33   5    7.16    0.81
   9 -33  -5    9.06    1.45
  -9 -33   5    6.89    3.30
   9 -33  -5    6.34    2.21
  -9 -33   5    8.15    1.29
   9  35  -5   10.47    1.43
   9 -35   5   10.60    3.89
   9  35  -5   12.01    2.27
   9 -35   5   12.27    2.26
  -9 -35  -5   16.75    2.23
  -9 -35  -5   12.91    1.15
  -9 -35   5   11.00    3.87
   9  35   5   11.89    1.12
   9 -35  -5   13.18    1.75
   9 -35  -5   15.53    1.89
   9  35   5   13.54    1.81
  -9 -35   5   14.22    1.62
   9  37  -5   24.98    2.20
   9 -37   5   28.63    5.30
   9 -37   5   28.89    3.19
  -9 -37  -5   30.20    3.17
   9  37  -5   31.28    3.30
  -9 -37  -5   29.12    1.81
  -9 -37   5   26.01    3.26
   9  37   5   24.05    2.58
   9 -37  -5   30.72    2.96
   9 -37  -5   28.97    2.34
   9  37   5   25.60    2.55
  -9 -37   5   31.90    2.32
  11   1  -5   32.80    2.13
 -11  -1  -5   33.49    1.55
 -11  -1  -5   34.41    2.23
 -11   1   5   32.57    1.77
  11  -1   5   33.60    1.64
 -11   1   5   34.47    1.88
  11   1  -5   34.54    1.78
  11  -1   5   39.11    2.86
 -11   1  -5   32.92    1.59
 -11   1  -5   33.36    2.85
 -11  -1   5   34.02    1.91
  11  -1  -5   34.91    1.66
  11   1   5   42.26    3.40
 -11  -1   5   32.11    1.97
  11   1   5   34.59    1.62
  11  -1  -5   32.09    2.11
 -11  -3  -5    9.78    1.56
 -11   3   5    8.78    0.57
  11  -3   5    9.48    0.90
  11   3  -5    8.99    2.12
 -11  -3  -5   10.21    0.80
 -11   3   5   10.34    1.01
  11   3  -5   10.29    1.01
  11  -3   5   12.48    2.17
 -11   3  -5   10.20    0.87
  11  -3  -5   12.08    0.85
 -11  -3   5    9.87    1.10
  11   3   5    8.49    1.37
  11   3   5   10.79    2.32
 -11  -3   5    9.48    1.24
 -11   3  -5   11.78    0.88
  11  -3  -5    9.50    1.21
  11  -5   5    6.78    0.78
  11   5  -5    6.40    1.08
 -11  -5  -5    5.99    0.67
  11  -5   5    6.53    0.87
 -11   5   5    5.51    0.82
 -11  -5  -5    6.97    1.57
  11   5  -5    6.28    1.47
 -11   5   5    5.47    0.43
 -11   5  -5    5.73    0.74
 -11   5  -5    5.56    0.56
 -11  -5   5    6.03    0.93
  11  -5  -5    6.92    0.67
 -11  -5   5    6.17    0.69
  11   5   5    6.46    2.23
  11  -5  -5    6.41    1.00
  11   5   5    6.83    0.71
  11  -7   5    2.08    0.63
 -11   7   5    2.52    0.30
 -11  -7  -5    2.84    0.50
  11   7  -5    2.71    0.88
  11  -7   5    2.11    0.79
 -11   7   5    2.01    0.63
  11   7  -5    3.10    0.74
 -11  -7  -5    2.07    1.54
 -11   7  -5    1.88    0.99
 -11   7  -5    1.76    0.33
 -11  -7   5    2.25    0.58
  11  -7  -5    1.63    0.78
 -11  -7   5    2.78    0.73
  11   7   5    2.12    0.52
  11   7   5    1.42    1.84
  11  -7  -5    2.73    0.77
  11  -9   5   54.81    2.50
 -11  -9  -5   53.60    2.13
 -11   9   5   50.91    1.55
  11   9  -5   53.50    3.04
  11  -9   5   55.50    2.23
 -11   9   5   53.70    2.41
  11   9  -5   56.66    2.82
 -11  -9  -5   56.05    5.66
 -11   9  -5   48.45    1.76
 -11   9  -5   50.74    2.38
  11  -9  -5   55.28    1.97
 -11  -9   5   54.48    2.76
 -11  -9   5   50.01    2.39
  11  -9  -5   52.78    2.78
  11   9   5   50.47    2.11
  11   9   5   52.70    5.34
 -11 -11  -5   21.34    1.12
  11 -11   5   22.35    1.42
 -11  11   5   20.83    0.71
  11  11  -5   21.72    1.77
  11  11  -5   23.12    1.72
  11 -11   5   21.96    0.64
 -11 -11  -5   22.20    4.36
 -11  11   5   21.49    1.31
 -11  11  -5   18.88    0.70
 -11  11  -5   20.37    1.40
  11 -11  -5   22.11    0.97
 -11 -11   5   23.24    1.62
 -11 -11   5   21.10    1.44
  11  11   5   20.09    1.14
  11 -11  -5   21.77    1.58
  11  11   5   21.82    3.24
 -11 -13  -5   33.67    1.49
  11 -13   5   37.05    1.93
 -11  13   5   35.05    1.04
  11 -13   5   33.09    0.69
  11  13  -5   32.17    2.18
 -11  13   5   36.64    2.55
  11  13  -5   34.08    2.20
 -11 -13  -5   36.98    6.31
 -11  13  -5   31.33    1.85
 -11 -13   5   35.43    2.05
  11 -13  -5   34.29    2.00
  11  13   5   33.76    1.53
 -11 -13   5   37.57    2.13
  11  13   5   36.26    3.81
  11 -13  -5   36.71    1.29
  11 -15   5    2.52    1.12
 -11  15   5    1.85    0.24
  11  15  -5    1.91    0.77
  11 -15   5    2.57    0.66
 -11  15   5    1.88    0.54
 -11 -15  -5    2.24    2.99
  11  15  -5    1.92    0.84
 -11 -15  -5    2.19    0.45
 -11 -15   5    1.84    0.76
  11 -15  -5    1.73    0.70
  11 -15  -5    1.10    0.55
 -11 -15   5    1.80    0.75
  11  15   5    2.63    1.44
  11  15   5    1.75    0.48
  11 -17   5   21.52    1.58
 -11 -17  -5   22.04    1.14
  11 -17   5   22.34    1.61
 -11  17   5   24.14    1.04
 -11  17   5   22.24    1.30
  11  17  -5   20.00    1.70
  11  17  -5   24.55    3.14
 -11 -17  -5   20.49    4.68
  11 -17  -5   22.93    0.89
  11  17   5   21.63    1.16
  11 -17  -5   20.13    1.56
 -11 -17   5   23.07    1.86
 -11 -17   5   23.81    1.74
  11  17   5   21.88    2.88
 -11 -19  -5   43.99    1.87
  11 -19   5   43.50    2.50
  11 -19   5   44.49    2.51
  11  19  -5   43.94    2.55
  11  19  -5   47.44    3.02
 -11 -19  -5   44.13    5.57
  11 -19  -5   46.28    2.12
  11 -19  -5   44.50    1.38
  11 -19  -5   40.84    2.34
  11  19   5   41.52    1.83
 -11 -19   5   42.99    2.89
  11 -19  -5   47.39    1.51
 -11 -19   5   47.29    2.67
  11  19   5   42.54    4.01
 -11 -21  -5    9.11    0.77
  11 -21   5    9.84    2.00
  11 -21   5    9.13    1.22
  11  21  -5    8.66    1.21
 -11 -21  -5    8.09    2.64
  11  21  -5   13.15    2.50
  11 -21  -5    7.61    1.10
  11  21   5    6.64    3.21
  11 -21  -5    8.85    0.49
 -11 -21   5   10.35    1.54
  11  21   5    8.06    0.76
  11 -21  -5    8.45    1.43
 -11 -21   5   10.33    1.26
  11 -21  -5   10.03    0.85
  11 -23   5    9.66    1.41
  11 -23   5    9.19    1.40
  11  23  -5   11.52    1.75
  11  23  -5   11.02    1.29
 -11 -23  -5   11.12    2.65
 -11 -23  -5   11.03    0.88
  11 -23  -5   10.10    1.23
  11  23   5    9.32    2.03
  11 -23  -5   11.24    0.91
 -11 -23   5    9.76    1.78
  11  23   5    9.42    0.82
  11 -23  -5   10.62    1.00
 -11 -23   5   10.64    1.39
  11 -23  -5   11.14    0.60
  11 -25   5   89.36    5.12
  11 -25   5   92.64    5.07
  11  25  -5  101.17    6.05
 -11 -25  -5   96.67    7.22
  11  25  -5   90.51    4.50
 -11 -25  -5   97.19    3.94
  11 -25  -5   99.60    4.27
  11  25   5   88.26    6.09
  11 -25  -5   92.69    3.35
  11  25   5   87.69    3.60
  11 -25  -5   87.34    4.48
 -11 -25   5   97.63    6.10
  11 -25  -5  100.87    3.30
 -11 -25   5  102.41    7.03
  11 -27   5   12.67    2.76
  11 -27   5   11.96    1.76
  11  27  -5   14.13    2.16
 -11 -27  -5   14.40    2.49
  11  27  -5   12.80    1.38
 -11 -27  -5   13.17    1.01
  11  27   5   13.03    2.14
  11 -27  -5   12.90    1.44
  11 -27  -5   13.01    0.79
  11  27   5   11.38    0.93
  11 -27  -5   14.13    1.18
 -11 -27   5   15.68    2.31
  11 -27  -5   13.81    0.70
 -11 -27   5   13.67    1.64
  11 -29   5    3.27    1.25
  11  29  -5    4.10    1.51
 -11 -29  -5    3.01    1.63
  11  29  -5    3.93    0.91
  11 -29   5    3.63    1.21
 -11 -29  -5    2.51    1.05
  11  29   5    3.64    1.37
 -11 -29   5    3.03    1.62
  11 -29  -5    3.26    0.52
  11  29   5    2.40    0.57
  11 -29  -5    2.36    1.26
  11 -29  -5    3.16    1.58
 -11 -29   5    3.78    1.07
  11 -29  -5    4.10    0.69
 -11 -31  -5    2.93    0.69
  11 -31   5    3.41    1.37
  11 -31   5    3.13    2.19
  11  31  -5    1.59    2.81
 -11 -31  -5    3.94    1.67
  11  31  -5    3.49    0.94
 -11 -31   5    3.55    1.84
  11 -31  -5    3.23    0.88
  11 -31  -5    2.75    0.86
  11  31   5    2.69    1.04
  11  31   5    3.45    1.34
  11 -31  -5    2.20    1.71
 -11 -31   5    4.08    1.15
  11 -31  -5    4.41    0.47
  11 -33   5    5.06    1.64
  11 -33   5    7.38    1.70
  11  33  -5    6.72    1.92
 -11 -33  -5    5.86    1.91
  11  33  -5    4.99    1.16
 -11 -33  -5    6.66    0.87
  11 -33  -5    4.66    1.13
  11  33   5    4.68    0.80
  11 -33  -5    3.70    2.06
 -11 -33   5    5.72    2.07
  11  33   5    4.90    1.53
 -11 -33   5    6.33    1.36
  11  35  -5   33.71    2.68
  11 -35   5   37.50    3.88
  11 -35  -5   38.83    2.90
  13   1  -5   38.39    2.47
 -13  -1  -5   40.43    2.64
 -13   1   5   42.02    2.14
  13   1  -5   40.54    1.98
  13  -1   5   47.01    3.56
  13  -1   5   41.36    1.95
 -13  -1  -5   40.13    2.18
 -13   1   5   38.50    2.05
 -13   1  -5   40.24    1.88
 -13   1  -5   39.73    1.90
  13  -1  -5   39.20    2.46
  13  -1  -5   43.36    1.97
 -13  -1   5   42.76    2.18
  13   1   5   47.76    4.07
  13   1   5   41.01    1.93
 -13  -1   5   38.76    2.20
 -13   3   5   16.71    1.21
  13   3  -5   17.91    1.66
 -13  -3  -5   17.78    1.12
  13   3  -5   19.72    1.31
 -13  -3  -5   17.61    1.60
 -13   3   5   18.36    1.29
  13  -3   5   19.75    1.99
  13  -3   5   18.85    1.23
  13  -3  -5   18.56    1.58
  13   3   5   18.26    1.21
 -13   3  -5   17.62    1.16
 -13   3  -5   16.68    0.98
  13   3   5   20.81    3.15
  13  -3  -5   20.17    1.83
 -13  -3   5   19.89    1.42
 -13  -3   5   17.10    0.97
  13  -5   5   35.18    1.80
 -13   5   5   33.46    1.66
 -13  -5  -5   35.15    1.61
  13   5  -5   33.20    2.35
 -13   5   5   37.15    1.86
  13   5  -5   36.36    1.93
 -13  -5  -5   33.58    2.55
  13  -5   5   43.35    2.37
 -13   5  -5   33.62    1.70
 -13   5  -5   29.94    1.22
 -13  -5   5   32.61    1.56
  13   5   5   37.63    4.43
 -13  -5   5   35.64    3.08
  13  -5  -5   37.47    1.65
  13   5   5   34.69    1.69
  13  -5  -5   31.36    2.08
  13  -7   5   82.51    3.52
 -13   7   5   77.49    2.57
 -13  -7  -5   83.72    3.26
  13   7  -5   84.85    5.94
 -13  -7  -5   85.31    5.15
 -13   7   5   85.01    3.48
  13   7  -5   89.63    3.88
  13  -7   5   89.95    3.74
 -13   7  -5   72.95    2.38
 -13   7  -5   84.28    3.47
  13   7   5   80.49    3.26
  13  -7  -5   88.59    3.26
  13   7   5   82.38    6.86
 -13  -7   5   83.96    3.86
 -13  -7   5   78.63    3.21
  13  -7  -5   80.70    3.87
  13  -9   5    5.05    0.78
 -13  -9  -5    4.05    0.64
 -13   9   5    4.10    0.38
  13  -9   5    4.93    0.56
  13   9  -5    4.24    1.04
  13   9  -5    4.78    0.89
 -13  -9  -5    3.88    2.71
 -13   9   5    5.43    0.74
 -13  -9   5    5.02    0.72
 -13   9  -5    4.78    0.30
  13   9   5    5.83    0.67
 -13   9  -5    4.25    0.75
  13   9   5    5.34    1.96
  13  -9  -5    4.02    0.58
 -13  -9   5    4.93    0.90
  13  -9  -5    3.33    1.51
 -13 -11  -5   76.94    3.95
 -13  11   5   74.92    2.40
  13  11  -5   76.02    3.97
  13 -11   5   78.13    3.51
 -13 -11  -5   84.21    6.47
  13 -11   5   82.69    2.58
 -13  11   5   81.04    3.31
  13  11  -5   84.32    5.43
 -13  11  -5   77.20    3.41
  13  11   5   77.86    6.27
  13 -11  -5   83.11    2.94
  13  11   5   76.20    4.08
 -13 -11   5   78.16    3.86
 -13 -11   5   76.56    3.42
  13 -11  -5   75.70    3.70
 -13 -13  -5   27.94    1.39
  13 -13   5   28.55    1.74
 -13  13   5   27.79    0.95
  13  13  -5   26.89    2.08
 -13 -13  -5   32.34    4.35
 -13  13   5   29.37    1.50
  13  13  -5   29.28    2.02
  13 -13   5   29.25    0.94
 -13  13  -5   27.24    1.70
  13  13   5   32.27    5.67
 -13  13  -5   26.12    0.73
  13  13   5   29.02    1.45
  13 -13  -5   30.58    1.74
 -13 -13   5   28.45    1.97
 -13 -13   5   27.59    1.74
  13 -13  -5   26.89    1.83
 -13 -15  -5    1.58    0.83
  13 -15   5    2.08    0.69
 -13  15   5    1.58    0.44
 -13  15   5    1.71    0.53
  13  15  -5    1.22    0.83
 -13 -15  -5    1.71    2.28
  13  15  -5    1.75    1.37
 -13  15  -5    0.37    0.65
  13  15   5    1.92    0.52
  13 -15  -5    1.42    1.17
  13 -15  -5    1.31    0.39
 -13 -15   5    1.72    0.77
 -13 -15   5    2.15    0.72
 -13  15  -5    1.54    0.05
  13  15   5    1.30    2.40
 -13 -17  -5   56.94    2.44
  13 -17   5   54.62    2.94
  13 -17   5   52.52    2.86
 -13  17   5   51.98    1.71
 -13  17   5   54.72    3.35
 -13 -17  -5   61.56    8.69
  13  17  -5   57.14    3.32
  13  17  -5   53.96    3.24
 -13 -17   5   53.35    3.08
  13 -17  -5   52.59    2.91
  13 -17  -5   58.38    2.08
  13  17   5   53.61    2.37
 -13 -17   5   58.82    3.32
  13  17   5   48.99    4.88
 -13 -19  -5  141.99    5.79
  13 -19   5  138.09    6.66
 -13  19   5  137.71    4.78
 -13  19   5  140.41    5.86
  13  19  -5  138.95    6.97
 -13 -19  -5  154.19   15.10
  13  19  -5  152.30    7.49
  13 -19   5  136.27    6.47
  13  19   5  131.80    5.51
  13 -19  -5  133.79    6.43
 -13 -19   5  136.37    6.97
  13 -19  -5  149.61    5.35
 -13 -19   5  145.55    7.24
  13  19   5  130.36    9.04
 -13 -21  -5    3.26    0.60
  13 -21   5    2.89    0.90
  13 -21   5    2.68    0.87
 -13 -21  -5    5.51    2.51
  13  21  -5    2.49    0.95
  13  21  -5    3.40    1.07
  13 -21  -5    2.60    0.63
  13 -21  -5    2.72    0.35
 -13 -21   5    3.43    1.79
  13  21   5    2.61    0.58
  13 -21  -5    2.32    0.83
  13 -21  -5    2.96    0.43
 -13 -21   5    3.14    1.01
  13  21   5    2.87    1.56
 -13 -23  -5    8.52    0.86
  13 -23   5    7.95    2.15
  13 -23   5    7.29    1.26
 -13 -23  -5    8.71    2.96
  13  23  -5    7.33    1.30
  13  23  -5    8.81    1.54
  13 -23  -5    7.83    0.54
  13  23   5    8.10    0.81
 -13 -23   5    8.22    1.55
  13 -23  -5    7.66    1.86
  13 -23  -5    8.26    0.88
  13 -23  -5    9.57    0.63
 -13 -23   5   10.04    1.42
  13  23   5    7.73    2.04
 -13 -25  -5   73.45    3.22
  13 -25   5   69.46    4.12
  13 -25   5   70.40    4.08
  13  25  -5   76.59    4.77
 -13 -25  -5   75.54    6.92
  13  25  -5   69.34    3.95
  13 -25  -5   68.27    3.09
  13  25   5   67.84    3.87
 -13 -25   5   73.77    4.88
  13 -25  -5   66.41    3.66
  13 -25  -5   72.88    3.24
 -13 -25   5   75.21    4.40
  13 -25  -5   76.03    2.72
  13  25   5   65.60    8.06
  13 -27   5   10.10    1.59
 -13 -27  -5    9.76    0.99
  13  27  -5   10.30    1.90
 -13 -27  -5   11.92    2.66
  13  27  -5    8.76    1.43
  13 -27   5    9.47    1.55
  13 -27  -5   10.55    1.02
  13  27   5    8.65    2.07
  13 -27  -5    9.32    1.08
  13  27   5    9.33    0.94
 -13 -27   5   11.69    2.02
  13 -27  -5    8.26    1.29
 -13 -27   5   10.88    2.67
  13 -27  -5   10.71    0.72
  13 -29   5    4.25    1.47
  13 -29   5    5.76    1.40
  13  29  -5    2.36    2.91
 -13 -29  -5    6.12    2.20
  13  29  -5    6.17    1.23
 -13 -29  -5    7.30    0.88
  13  29   5    3.86    1.73
  13 -29  -5    6.55    0.98
  13  29   5    4.77    0.78
  13 -29  -5    4.84    0.88
 -13 -29   5    4.74    1.87
  13 -29  -5    4.61    1.15
  13 -29  -5    6.59    0.96
 -13 -29   5    6.24    2.36
  13 -31   5   28.61    3.15
  13 -31   5   31.43    3.02
  13  31  -5   35.81    3.74
  13  31  -5   31.24    3.93
 -13 -31  -5   34.55    2.00
 -13 -31  -5   33.64    6.67
  13  31   5   30.10    3.42
  13 -31  -5   32.75    2.07
 -13 -31   5   32.27    4.01
  13 -31  -5   30.61    2.48
  13  31   5   29.36    1.76
 -13 -31   5   35.04    3.06
 -15   1   5  115.38    4.36
  15   1  -5  120.81    6.08
 -15  -1  -5  116.30    5.00
 -15   1   5  125.77    5.41
  15  -1   5  142.10    8.57
  15   1  -5  129.42    6.78
  15  -1   5  123.25    6.58
  15  -1  -5  118.46    5.86
 -15   1  -5  122.34    5.07
 -15   1  -5  114.18    4.64
 -15  -1   5  128.18    6.90
  15   1   5  142.71    9.30
  15  -1  -5  128.75    5.32
  15   1   5  126.03    5.24
 -15  -1   5  114.96    5.32
 -15   3   5   15.04    0.83
 -15  -3  -5   15.29    1.12
  15   3  -5   15.65    1.67
 -15  -3  -5   14.66    1.35
 -15   3   5   16.23    1.99
  15   3  -5   16.05    1.28
  15  -3   5   18.42    2.13
  15  -3   5   17.07    1.26
  15  -3  -5   13.85    1.58
 -15   3  -5   15.30    1.15
 -15   3  -5   13.43    1.32
 -15  -3   5   16.07    0.98
  15   3   5   19.09    3.11
 -15  -3   5   18.54    1.40
  15  -3  -5   16.45    1.81
  15   3   5   16.50    1.20
 -15   5   5   69.58    2.48
 -15  -5  -5   75.47    3.18
  15   5  -5   75.17    4.06
  15   5  -5   79.30    4.78
 -15   5   5   76.58    3.28
  15  -5   5   85.22    4.53
 -15  -5  -5   75.02    3.85
  15  -5   5   73.99    3.35
  15  -5  -5   72.26    5.42
 -15   5  -5   65.59    2.39
 -15   5  -5   74.47    3.23
  15   5   5   78.66    6.71
 -15  -5   5   78.84    3.64
  15  -5  -5   78.81    3.17
  15   5   5   73.06    4.32
 -15  -5   5   70.72    2.89
 -15   7   5  135.77    5.04
 -15  -7  -5  147.98    6.08
  15   7  -5  142.71    7.12
 -15   7   5  148.02    6.27
 -15  -7  -5  146.00    7.56
  15   7  -5  151.53    6.69
  15  -7   5  166.05    7.50
  15  -7   5  152.44    6.55
  15   7   5  144.13    6.11
  15  -7  -5  142.30    6.89
 -15   7  -5  136.24    4.74
 -15   7  -5  145.57    6.26
  15   7   5  148.25   10.79
  15  -7  -5  157.12    6.19
 -15  -7   5  152.71    6.90
 -15  -7   5  141.83    7.11
  15  -9   5   64.62    3.03
 -15  -9  -5   60.27    2.65
 -15   9   5   57.74    2.03
 -15  -9  -5   59.68    4.24
  15   9  -5   60.23    3.58
 -15   9   5   62.26    2.74
  15   9  -5   66.38    4.56
  15  -9   5   66.12    2.89
  15  -9  -5   56.85    3.23
 -15   9  -5   58.96    2.84
  15   9   5   61.89    5.72
  15  -9  -5   63.90    2.59
 -15  -9   5   63.00    3.27
  15   9   5   60.73    2.72
 -15  -9   5   60.00    2.71
 -15   9  -5   55.84    2.03
  15 -11   5   50.46    2.60
 -15 -11  -5   47.38    2.20
  15 -11   5   51.04    1.94
 -15  11   5   46.16    1.62
  15  11  -5   44.65    3.06
 -15  11   5   48.96    2.25
  15  11  -5   50.44    2.78
 -15 -11  -5   49.04    4.17
 -15  11  -5   46.60    2.41
  15 -11  -5   48.59    2.03
  15  11   5   43.75    4.91
 -15 -11   5   50.29    4.11
 -15 -11   5   48.22    3.39
  15  11   5   47.11    2.24
  15 -11  -5   44.13    2.65
 -15 -13  -5   29.89    2.37
 -15  13   5   29.08    1.08
  15  13  -5   29.49    2.35
  15 -13   5   31.96    1.97
 -15 -13  -5   31.84    3.82
 -15  13   5   30.47    1.60
  15  13  -5   32.25    3.30
  15 -13   5   31.05    1.02
  15  13   5   30.53    2.47
 -15  13  -5   29.85    2.81
  15  13   5   29.73    3.88
  15 -13  -5   31.96    1.45
 -15  13  -5   27.55    0.74
 -15 -13   5   32.31    2.17
 -15 -13   5   30.48    1.86
  15 -13  -5   31.42    2.05
  15 -15   5   21.68    1.63
 -15 -15  -5   19.34    1.28
 -15  15   5   19.68    0.82
  15 -15   5   19.02    0.61
 -15 -15  -5   23.51    3.79
 -15  15   5   20.19    1.25
  15  15  -5   22.89    1.82
  15  15  -5   23.20    2.01
  15  15   5   18.93    1.31
 -15  15  -5   19.92    1.55
  15  15   5   18.68    3.20
  15 -15  -5   21.33    1.09
 -15 -15   5   21.39    1.85
 -15 -15   5   19.18    1.59
  15 -15  -5   19.71    1.68
  15 -17   5   22.86    2.75
 -15 -17  -5   22.01    2.10
 -15  17   5   21.54    0.89
  15 -17   5   24.02    1.71
 -15  17   5   23.36    1.33
 -15 -17  -5   26.09    4.79
  15  17  -5   21.87    2.10
  15  17  -5   22.95    3.16
  15  17   5   22.70    1.42
  15  17   5   21.21    3.32
  15 -17  -5   22.86    1.14
 -15 -17   5   24.03    1.98
 -15 -17   5   22.94    1.85
  15 -17  -5   20.82    2.73
  15 -19   5    2.48    0.82
 -15  19   5    1.95    0.33
  15 -19   5    1.91    0.77
 -15  19   5    1.75    0.55
 -15 -19  -5    1.28    0.61
 -15 -19  -5    1.85    2.75
  15  19  -5    1.30    0.97
  15  19  -5    1.69    0.91
  15 -19  -5    1.64    0.75
  15  19   5    2.66    0.60
 -15 -19   5    2.15    0.86
 -15 -19   5    2.33    0.95
  15 -19  -5    1.87    0.79
  15  19   5    3.32    2.55
 -15 -21  -5    1.69    0.60
  15 -21   5    2.07    0.87
 -15  21   5    2.32    0.34
 -15 -21  -5    0.68    3.23
  15 -21   5    1.34    0.79
  15  21  -5    2.01    0.93
  15  21  -5    1.26    0.96
  15 -21  -5    0.08    0.56
  15  21   5    1.66    0.58
  15 -21  -5    1.45    0.45
 -15 -21   5    1.60    0.90
  15 -21  -5    2.94    0.78
  15  21   5    1.17    1.47
 -15 -21   5    2.49    0.98
 -15 -23  -5   33.18    2.80
  15 -23   5   32.53    2.49
 -15 -23  -5   34.17    6.28
  15  23  -5   30.06    4.02
  15  23  -5   33.92    2.80
  15 -23   5   32.30    2.32
  15 -23  -5   33.85    1.78
  15 -23  -5   30.58    1.73
  15  23   5   31.77    1.79
 -15 -23   5   32.25    4.26
  15 -23  -5   34.64    2.10
 -15 -23   5   35.43    2.82
  15 -23  -5   30.42    2.28
  15  23   5   32.39    3.79
 -15 -25  -5   20.69    1.53
  15 -25   5   22.45    3.46
  15 -25   5   19.13    2.02
 -15 -25  -5   24.18    4.66
  15  25  -5   20.24    2.45
  15  25  -5   19.97    2.13
  15 -25  -5   22.00    1.47
  15 -25  -5   21.94    1.41
 -15 -25   5   21.96    2.46
  15 -25  -5   22.43    1.19
 -15 -25   5   22.05    2.41
  15 -25  -5   20.67    1.85
  15  25   5   19.83    1.40
  15  25   5   19.45    3.09
 -15 -27  -5   24.12    1.73
  15 -27   5   25.10    2.50
  15 -27   5   23.32    2.28
 -15 -27  -5   27.34    4.63
  15  27  -5   24.94    2.82
  15  27  -5   23.35    3.77
  15 -27  -5   24.77    1.60
  15 -27  -5   22.98    1.69
  15  27   5   23.43    1.60
 -15 -27   5   26.61    2.92
  15 -27  -5   25.88    1.35
 -15 -27   5   28.64    2.72
  15 -27  -5   23.10    2.07
  15  27   5   23.16    3.31
 -17   1   5   47.64    1.99
 -17  -1  -5   49.19    3.22
 -17  -1  -5   51.45    2.49
  17   1  -5   49.14    3.21
 -17   1   5   51.71    2.59
  17  -1   5   59.45    4.75
  17   1  -5   53.12    3.73
  17  -1   5   51.38    2.66
 -17  -1   5   47.77    2.03
 -17   1  -5   44.87    2.07
  17  -1  -5   49.87    3.23
 -17   1  -5   51.87    2.50
 -17  -1   5   52.22    3.72
  17   1   5   59.98    8.04
  17  -1  -5   54.89    2.62
  17   1   5   50.45    2.58
 -17   3   5    6.68    0.63
 -17  -3  -5    7.99    0.89
 -17  -3  -5    7.04    0.95
  17   3  -5    7.65    1.36
 -17   3   5    7.64    1.55
  17   3  -5    6.50    1.01
  17  -3   5    6.71    1.74
  17  -3   5    8.15    1.04
 -17  -3   5    6.88    0.73
 -17   3  -5    6.63    0.59
  17  -3  -5    8.18    1.33
 -17   3  -5    8.44    0.92
  17  -3  -5   10.26    1.51
  17   3   5    8.64    4.07
 -17  -3   5    7.84    1.07
  17   3   5    7.95    0.98
 -17   5   5    6.19    0.59
 -17  -5  -5    6.34    0.87
 -17  -5  -5    7.89    1.06
  17   5  -5    7.87    2.20
 -17   5   5    7.21    0.89
  17   5  -5    8.54    1.03
  17  -5   5    9.08    1.46
  17  -5   5    7.66    0.99
 -17   5  -5    5.85    0.77
  17  -5  -5    7.10    2.14
 -17   5  -5    6.89    0.93
  17   5   5    7.50    3.95
 -17  -5   5    7.35    1.06
  17  -5  -5    7.18    0.87
  17   5   5    6.13    0.95
 -17  -5   5    6.47    0.77
 -17   7   5   48.24    2.45
 -17  -7  -5   52.76    2.50
 -17  -7  -5   49.60    3.11
  17   7  -5   50.06    3.40
 -17   7   5   52.44    2.50
  17   7  -5   53.18    2.86
  17  -7   5   58.15    3.33
  17  -7   5   52.13    2.74
  17  -7  -5   50.98    3.14
 -17   7  -5   52.76    2.59
  17   7   5   52.42    5.45
  17  -7  -5   56.79    3.44
 -17  -7   5   54.01    2.95
  17   7   5   50.65    2.55
 -17  -7   5   49.22    3.25
 -17  -9  -5    1.63    0.63
 -17   9   5    1.77    0.38
 -17  -9  -5    2.20    0.99
  17   9  -5    1.97    1.68
  17  -9   5    2.52    0.77
 -17   9   5    1.86    0.60
  17   9  -5    2.15    0.80
  17  -9   5    2.66    1.16
  17  -9  -5    2.03    0.88
 -17   9  -5    3.34    0.69
  17   9   5    2.86    1.70
  17  -9  -5    1.72    0.57
 -17  -9   5    2.10    0.82
  17   9   5    2.01    0.67
 -17   9  -5    1.72    0.25
 -17  -9   5    2.00    0.61
 -17 -11  -5   12.49    1.15
 -17  11   5   12.54    0.73
 -17 -11  -5   12.07    2.00
  17  11  -5   13.31    1.77
 -17  11   5   14.75    1.10
  17  11  -5   14.47    1.47
  17 -11   5   14.95    1.02
  17 -11   5   14.36    1.41
  17 -11  -5   11.91    1.54
 -17  11  -5   13.46    1.27
  17  11   5   13.39    2.87
  17 -11  -5   13.95    1.05
 -17 -11   5   15.99    1.54
  17  11   5   14.03    1.21
 -17 -11   5   12.16    1.90
  17 -13   5   33.71    2.24
 -17 -13  -5   35.37    1.91
 -17  13   5   31.43    1.28
 -17 -13  -5   36.21    3.57
 -17  13   5   34.28    2.57
  17  13  -5   37.59    2.44
  17  13  -5   35.42    2.76
  17 -13  -5   33.78    2.36
 -17  13  -5   33.58    2.12
  17  13   5   35.57    4.30
  17 -13  -5   37.37    1.76
 -17 -13   5   34.02    2.52
  17  13   5   31.59    1.94
 -17 -13   5   34.95    2.08
  17 -15   5   27.04    2.05
 -17 -15  -5   27.66    2.52
 -17  15   5   25.61    1.09
  17  15  -5   28.71    2.46
 -17  15   5   27.21    1.54
 -17 -15  -5   29.64    6.03
  17  15  -5   27.60    2.19
  17  15   5   28.10    3.76
  17 -15  -5   23.91    2.07
 -17  15  -5   26.96    1.88
  17  15   5   26.52    2.57
  17 -15  -5   28.27    1.50
 -17 -15   5   27.66    2.30
 -17 -15   5   27.67    1.95
  17 -17   5    4.92    1.12
 -17 -17  -5    5.15    0.83
 -17  17   5    4.68    0.47
 -17 -17  -5    5.31    2.55
 -17  17   5    4.50    0.74
  17  17  -5    5.03    1.34
  17  17  -5    7.43    1.21
  17 -17  -5    4.80    1.10
 -17  17  -5    6.03    1.04
  17  17   5    4.89    2.11
  17  17   5    4.76    0.86
  17 -17  -5    5.91    0.68
 -17 -17   5    5.71    1.28
 -17 -17   5    4.84    1.06
  17 -19   5    3.55    0.99
 -17 -19  -5    2.76    0.76
 -17  19   5    3.09    0.43
 -17 -19  -5    5.13    2.73
  17 -19   5    2.63    0.92
 -17  19   5    3.50    1.05
  17  19  -5    4.05    1.19
  17  19  -5    2.97    1.81
  17 -19  -5    3.87    1.00
  17  19   5    2.42    0.74
  17  19   5    2.50    1.80
  17 -19  -5    2.64    0.60
 -17 -19   5    3.81    1.17
 -17 -19   5    2.72    1.02
 -17 -21  -5   29.69    2.80
  17 -21   5   28.85    2.43
 -17  21   5   27.43    1.22
 -17 -21  -5   28.68    6.68
  17 -21   5   28.47    3.35
 -17  21   5   27.91    1.62
  17  21  -5   29.65    2.73
  17  21  -5   29.83    2.62
  17  21   5   27.83    2.78
  17 -21  -5   30.49    1.57
 -17 -21   5   27.98    2.49
 -17 -21   5   30.23    4.34
  17  21   5   24.62    6.11
  17 -21  -5   27.37    3.45
 -17 -23  -5   18.81    1.58
  17 -23   5   19.35    2.13
 -17 -23  -5   18.67    6.86
  17 -23   5   17.99    1.88
  17  23  -5   18.02    3.60
  17  23  -5   16.07    2.22
  17 -23  -5   18.59    1.33
  17  23   5   19.64    1.50
  17 -23  -5   18.63    0.97
  17 -23  -5   19.67    1.25
 -17 -23   5   17.08    2.19
 -17 -23   5   18.87    2.43
  17  23   5   20.07    3.25
  17 -23  -5   18.21    1.85
 -19   1   5   23.36    1.28
 -19  -1  -5   22.15    1.39
 -19  -1  -5   25.25    1.70
  19   1  -5   22.70    3.60
 -19   1   5   25.71    1.76
  19   1  -5   25.37    2.75
  19  -1   5   31.00    5.45
  19  -1   5   23.89    1.82
 -19  -1   5   25.43    1.36
 -19   1  -5   21.16    1.24
 -19   1  -5   24.96    1.71
  19  -1  -5   22.59    2.28
  19   1   5   30.74    5.78
 -19  -1   5   24.70    1.76
  19  -1  -5   25.55    1.75
  19   1   5   24.23    2.82
 -19   3   5    7.28    1.11
 -19  -3  -5    7.44    0.98
 -19  -3  -5    7.56    0.98
  19   3  -5    7.58    1.49
  19   3  -5    8.40    1.09
 -19   3   5    7.63    1.01
  19  -3   5    8.48    1.95
  19  -3   5    8.39    1.13
 -19   3  -5    6.23    0.61
 -19  -3   5    8.15    1.29
 -19   3  -5    7.02    1.03
  19  -3  -5    7.51    1.42
  19   3   5    8.06    4.12
  19  -3  -5    8.68    1.02
 -19  -3   5    7.49    1.14
  19   3   5    7.34    1.11
 -19   5   5   10.94    0.81
 -19  -5  -5   11.23    1.16
 -19  -5  -5   12.03    1.29
  19   5  -5   11.36    1.75
 -19   5   5   12.02    1.15
  19   5  -5   11.74    1.35
  19  -5   5   13.63    1.94
  19  -5   5   12.34    1.34
 -19  -5   5   10.73    1.00
 -19   5  -5   11.51    1.22
  19  -5  -5   11.17    2.65
  19   5   5   10.90    1.25
  19   5   5    8.45    4.57
 -19  -5   5   11.14    1.37
  19  -5  -5   11.58    1.17
 -19  -7  -5   11.37    1.83
 -19   7   5   10.43    0.75
  19   7  -5   10.88    1.74
 -19  -7  -5   10.98    2.21
 -19   7   5   11.08    1.09
  19   7  -5   10.35    1.33
  19  -7   5   12.80    1.59
  19  -7   5   10.60    2.15
  19  -7  -5    9.07    1.61
 -19   7  -5   10.01    1.23
  19   7   5   10.73    4.77
 -19  -7   5   10.04    2.27
  19  -7  -5   11.52    1.13
  19   7   5   11.00    1.23
 -19  -7   5   10.51    1.62
  19   9  -5    9.78    1.71
 -19  -9  -5    9.54    1.10
 -19   9   5    8.68    0.69
 -19  -9  -5    9.75    1.51
 -19   9   5    9.54    1.01
  19   9  -5   10.16    1.31
  19  -9   5    9.57    1.96
  19  -9   5    9.06    1.27
  19  -9  -5    8.15    1.51
 -19   9  -5    8.32    1.19
  19   9   5   10.21    2.74
  19  -9  -5    9.98    1.05
 -19  -9   5    9.55    1.37
  19   9   5   11.31    1.19
 -19  -9   5    9.85    1.03
 -19 -11  -5    6.57    0.97
 -19  11   5    5.59    0.92
 -19 -11  -5    5.99    1.50
  19  11  -5    4.63    2.53
 -19  11   5    6.57    0.87
  19  11  -5    6.24    1.22
  19 -11   5    6.40    1.16
  19 -11  -5    5.63    1.33
 -19  11  -5    6.96    1.05
  19  11   5    5.05    2.43
  19 -11  -5    5.80    0.89
 -19 -11   5    6.34    1.28
  19  11   5    6.75    1.03
 -19 -11   5    5.78    1.57
 -19 -13  -5    5.23    0.91
 -19  13   5    4.62    0.53
 -19 -13  -5    4.65    1.63
  19  13  -5    4.59    1.48
 -19  13   5    4.76    0.81
  19  13  -5    5.35    1.19
  19 -13   5    6.61    1.13
  19 -13  -5    4.76    2.01
 -19  13  -5    4.42    1.02
  19  13   5    3.38    0.96
  19  13   5    5.26    2.25
  19 -13  -5    5.68    0.81
 -19 -13   5    4.86    1.24
 -19 -13   5    4.22    0.95
 -19 -15  -5    0.98    0.55
  19 -15   5   -0.10    0.71
 -19 -15  -5   -0.34    1.97
 -19  15   5    0.13    0.31
  19  15  -5   -0.09    0.92
 -19  15   5    0.49    0.46
  19  15  -5    0.40    1.25
  19 -15  -5   -0.17    0.74
 -19  15  -5    0.16    0.64
  19  15   5    0.90    1.39
  19 -15  -5   -0.17    0.48
  19  15   5    0.16    0.59
 -19 -15   5    0.67    0.79
 -19 -15   5    0.50    0.62
 -19 -17  -5   14.48    1.40
 -19  17   5   13.60    0.84
 -19 -17  -5   13.15    3.16
 -19  17   5   14.22    1.16
  19  17  -5   15.63    2.12
  19  17  -5   15.38    1.88
  19 -17   5   14.57    1.77
  19 -17  -5   13.26    1.76
 -19  17  -5   14.83    1.57
  19  17   5   17.69    3.16
  19  17   5   14.58    1.45
  19 -17  -5   13.70    1.22
 -19 -17   5   13.83    2.03
 -19 -17   5   15.30    2.61
 -21  -1  -5   25.40    1.53
 -21   1   5   25.44    2.23
 -21  -1  -5   29.93    2.07
  21   1  -5   27.70    2.78
 -21   1   5   28.86    2.00
  21   1  -5   28.14    2.16
  21  -1   5   33.41    3.90
  21  -1   5   29.33    2.23
 -21   1  -5   23.79    1.97
 -21  -1   5   25.80    1.56
 -21   1  -5   30.59    3.15
  21  -1  -5   29.30    2.77
 -21  -1   5   27.69    2.07
  21  -1  -5   30.59    2.13
  21   1   5   34.88    6.84
  21   1   5   27.98    2.20
 -21  -3  -5   22.30    1.61
 -21   3   5   22.30    1.35
 -21  -3  -5   23.45    1.88
 -21   3   5   26.80    1.82
  21   3  -5   25.32    2.06
  21  -3   5   27.69    3.24
  21   3  -5   23.47    2.63
  21  -3   5   27.53    2.12
 -21  -3   5   22.61    1.52
 -21   3  -5   23.37    1.92
  21  -3  -5   22.72    2.54
 -21  -3   5   26.22    3.09
  21  -3  -5   25.41    1.94
  21   3   5   26.25    6.76
  21   3   5   23.90    2.07
 -21  -5  -5   22.96    1.79
 -21   5   5   21.40    1.33
 -21  -5  -5   24.88    1.91
 -21   5   5   23.52    1.77
  21   5  -5   23.87    3.30
  21  -5   5   26.11    2.81
  21   5  -5   24.61    2.69
  21  -5   5   24.61    2.15
 -21  -5   5   23.02    1.60
 -21   5  -5   22.51    1.92
  21  -5  -5   24.12    3.98
  21   5   5   26.70    6.84
 -21  -5   5   24.67    2.10
  21  -5  -5   27.87    2.92
  21   5   5   24.29    2.00
   0   0   6    0.70    0.29
   0   0   6    0.40    0.70
   0   0  -6    0.16    0.33
   0   0  -6    0.80    0.41
   0  -2  -6  427.05   20.84
   0   2   6  450.15   18.39
   0  -2   6  448.75   19.51
   0  -2  -6  441.76   20.63
   0  -2   6  511.06   28.62
   0   2   6  475.91   23.00
   0   2  -6  451.78   20.41
   0   2  -6  433.76   20.55
   0  -4  -6    0.35    0.47
   0  -4   6    0.18    0.87
   0  -4   6   -0.21    0.27
   0  -4  -6    2.65    0.67
   0   4   6    0.17    0.25
   0   4  -6    0.58    0.27
   0   4  -6    0.08    0.33
   0  -6  -6  664.93   37.99
   0  -6   6  693.96   36.95
   0  -6  -6  684.99   38.07
   0  -6   6  704.11   45.12
   0   6   6  722.17   34.68
   0   6  -6  733.80   37.69
   0   6  -6  693.40   37.44
   0   6   6  717.69   33.31
   0  -8  -6    0.54    0.82
   0   8  -6    0.21    0.41
   0  -8   6   -0.02    0.28
   0  -8   6   -0.46    0.85
   0  -8  -6    0.94    0.56
   0   8  -6    0.23    0.24
   0  10  -6  109.86    4.77
   0 -10  -6  110.40    5.01
   0 -10   6  110.45    4.52
   0 -10   6  113.20    9.49
   0 -10  -6  114.03    7.41
   0  10  -6  113.77    3.63
   0 -12  -6    0.40    0.70
   0  12  -6    0.45    0.56
   0 -12  -6   -0.05    0.63
   0 -12   6    0.72    0.84
   0  12  -6    0.09    0.23
   0 -14  -6  185.07   12.64
   0  14  -6  183.22    6.26
   0 -14  -6  174.24   11.73
   0  14  -6  183.04    8.90
   0 -14   6  182.40    6.48
   0 -14   6  180.82   10.01
   0 -16  -6   -0.16    0.89
   0  16  -6   -0.02    0.73
   0  16  -6    0.41    0.24
   0 -16  -6    0.11    0.84
   0 -16   6   -0.07    0.24
   0 -16   6    0.80    0.83
   0  18  -6 1117.15   68.34
   0 -18  -6 1008.29   75.79
   0  18  -6 1157.01   81.65
   0 -18   6 1066.85   76.72
   0 -18   6 1108.97   68.54
   0 -18  -6 1113.13   88.32
   0 -20  -6    0.29    1.13
   0  20  -6    0.03    0.83
   0 -20  -6    0.75    1.06
   0  20  -6    0.53    0.35
   0 -20   6   -0.05    1.37
   0 -20   6    0.06    0.23
   0 -22  -6   31.40    0.59
   0 -22  -6   31.87    0.67
   0 -22  -6   30.31    3.94
   0  22  -6   33.93    2.68
   0  22  -6   27.37    0.94
   0 -22  -6   34.84    5.70
   0 -22   6   30.35    1.02
   0 -22   6   31.16    2.63
   0 -24   6    0.16    0.75
   0 -24  -6    0.31    0.14
   0 -24  -6    3.25    1.41
   0  24  -6    0.09    0.75
   0 -24  -6    0.28    1.13
   0 -24   6    0.28    0.20
   0  24  -6   -0.05    0.20
   0 -26  -6  160.88    5.53
   0 -26  -6  146.54   10.71
   0  26  -6  158.08    8.28
   0 -26  -6  166.99   15.06
   0 -26   6  147.81    7.98
   0 -26   6  155.22    5.75
   0 -26  -6  154.88    4.66
   0 -28   6    0.23    1.20
   0  28  -6   -0.18    0.24
   0 -28  -6    0.53    0.25
   0 -28  -6   -0.09    0.99
   0  28  -6    0.10    0.71
   0 -28  -6    0.57    1.16
   0 -28   6    0.60    0.32
   0 -28  -6   -0.01    0.13
   0  30  -6  156.49    6.67
   0 -30  -6  193.68    7.25
   0 -30  -6  186.69   11.10
   0  30  -6  193.94   10.07
   0 -30  -6  205.65   13.29
   0 -30  -6  188.81    6.41
   0 -30   6  172.59    9.44
   0 -30   6  192.43    6.73
   0 -32  -6    0.48    1.05
   0 -32  -6    0.10    0.23
   0 -32  -6   -0.41    0.78
   0  32  -6    0.25    0.27
   0 -32   6   -0.12    0.71
   0 -32  -6    0.07    0.18
   0  32  -6   -0.45    0.70
   0 -34  -6  130.47    8.41
   0 -34  -6  122.97    7.07
   0  34  -6  131.41    9.25
   0 -34   6  117.54    6.63
   0 -36  -6   -0.06    0.96
   0  36  -6    0.03    0.76
   0 -36  -6    0.18    0.72
   0 -36   6    0.76    1.30
   0 -38  -6   33.88    3.29
   0 -38  -6   32.29    3.89
   0  38  -6   32.37    2.84
   0 -38   6   30.18    2.89
  -2   0  -6  280.83   11.28
   2   0   6  283.18   10.90
   2   0  -6  276.57   10.32
  -2   0   6  282.58   11.72
   2   0  -6  282.04   11.45
  -2   0   6  285.82   10.71
   2   0   6  270.53   11.78
  -2   0  -6  266.01   12.21
  -2   2   6   12.65    0.44
   2  -2   6   12.50    0.55
  -2  -2  -6   12.12    2.07
   2   2  -6   13.08    0.72
  -2   2   6   12.57    0.97
  -2  -2  -6   15.01    0.87
   2  -2   6   12.32    1.11
   2   2  -6   14.06    0.82
   2   2   6   12.79    0.43
   2  -2  -6   13.35    0.42
  -2  -2   6   13.36    0.86
  -2   2  -6   13.08    0.70
  -2   2  -6   13.40    1.04
   2  -2  -6   13.15    0.89
  -2  -2   6   13.23    0.80
   2   2   6   13.92    1.25
   2  -4   6   10.08    0.58
  -2  -4  -6   10.94    1.32
  -2  -4  -6   11.38    0.89
   2   4  -6   16.05    1.40
   2  -4   6   10.76    1.17
   2   4  -6   11.73    0.74
  -2   4  -6   11.12    0.86
   2   4   6    9.99    0.49
  -2  -4   6   11.83    0.81
  -2   4  -6   11.23    0.57
   2  -4  -6   11.68    0.88
   2  -4  -6   11.25    0.95
   2   4   6    9.28    0.59
  -2  -4   6   12.45    1.64
  -2  -6  -6   10.99    2.52
   2  -6   6   11.38    0.70
  -2  -6  -6   11.62    1.05
   2   6  -6   10.90    1.06
   2  -6   6   10.15    2.22
   2   6  -6   11.46    0.72
  -2   6  -6   11.55    0.83
   2   6   6   11.59    0.51
  -2  -6   6   11.56    0.77
   2  -6  -6   12.03    0.98
  -2   6  -6   11.90    0.84
  -2  -6   6   12.63    1.27
   2  -6  -6   12.08    1.04
   2   6   6   11.07    0.32
  -2  -8  -6  171.53    9.04
   2  -8   6  168.48    6.45
  -2  -8  -6  167.89    7.42
   2   8  -6  176.10    7.95
   2  -8   6  164.91    8.38
   2   8  -6  171.43    6.20
   2   8   6  165.10    5.17
   2  -8  -6  168.97    7.06
  -2  -8   6  170.03    6.30
  -2  -8   6  178.70    8.80
  -2   8  -6  176.88    5.75
   2   8   6  163.58    4.66
  -2   8  -6  167.80    6.27
   2  -8  -6  172.79    7.28
   2  10  -6    5.38    1.10
  -2 -10  -6    5.16    1.49
  -2 -10  -6    4.63    0.22
   2 -10   6    4.79    0.71
   2 -10   6    5.70    1.26
   2  10  -6    4.77    0.51
   2 -10  -6    5.57    0.90
   2  10   6    4.89    1.04
   2 -10  -6    4.71    0.88
  -2 -10   6    4.48    0.53
  -2 -10   6    5.21    1.46
   2  10   6    4.14    0.28
  -2  10  -6    4.60    0.49
  -2  10  -6    4.84    0.33
   2  12  -6   73.97    3.30
  -2 -12  -6   76.88    1.97
   2 -12   6   72.93    3.28
   2  12  -6   82.46    4.50
   2 -12   6   74.41    4.65
  -2 -12  -6   80.00    5.41
   2  12   6   69.93    1.62
   2 -12  -6   75.52    5.24
   2  12   6   71.69    4.26
   2 -12  -6   72.54    3.60
  -2 -12   6   76.06    5.31
  -2 -12   6   74.10    2.60
  -2  12  -6   73.73    2.43
  -2  12  -6   74.50    2.09
   2 -14   6   15.02    2.09
   2  14  -6   13.96    0.81
  -2 -14  -6   15.49    0.45
   2 -14   6   13.33    1.37
   2  14  -6   16.21    1.94
  -2 -14  -6   13.33    2.56
  -2  14  -6   15.19    0.52
   2  14   6   13.30    2.06
   2 -14  -6   12.28    1.58
  -2 -14   6   15.87    2.22
   2  14   6   14.23    0.37
  -2 -14   6   14.37    0.83
   2 -14  -6   14.08    1.52
  -2  14  -6   14.37    0.65
  -2 -16  -6   15.23    0.46
   2  16  -6   15.00    0.85
   2  16  -6   13.93    1.97
   2 -16   6   16.31    2.23
  -2 -16  -6   16.96    4.77
  -2  16  -6   14.96    0.51
   2 -16  -6   15.76    1.74
   2  16   6   17.99    2.40
   2  16   6   16.01    0.68
  -2 -16   6   14.63    2.17
  -2 -16   6   16.97    0.86
   2 -16  -6   15.75    1.81
  -2 -18  -6   27.74    0.74
   2  18  -6   25.43    1.09
   2 -18   6   27.01    0.85
  -2 -18  -6   28.01    3.85
   2 -18   6   25.84    2.82
   2  18  -6   27.94    2.54
  -2  18  -6   27.09    2.26
   2 -18  -6   26.04    2.39
   2  18   6   28.18    3.41
  -2  18  -6   22.91    0.92
   2 -18  -6   27.90    4.07
   2  18   6   26.43    0.82
  -2 -18   6   23.57    2.71
  -2 -18   6   27.45    1.16
  -2 -20  -6   21.81    0.53
   2  20  -6   22.54    0.98
   2 -20   6   22.35    0.94
   2  20  -6   22.58    2.29
   2 -20   6   21.90    2.58
  -2 -20  -6   23.82    3.62
   2 -20  -6   21.74    2.31
  -2  20  -6   26.04    2.24
   2  20   6   21.83    3.44
   2 -20  -6   21.06    2.57
   2  20   6   21.47    0.71
  -2 -20   6   21.59    2.30
  -2  20  -6   20.69    0.59
  -2 -20   6   22.33    1.00
  -2 -22  -6   33.35    4.06
   2  22  -6   33.11    2.58
   2 -22   6   31.27    0.84
   2  22  -6   28.65    1.15
   2 -22   6   32.73    2.85
  -2 -22  -6   31.26    0.96
   2 -22  -6   33.65    2.87
   2  22   6   35.25    4.22
  -2  22  -6   32.37    2.70
  -2 -22   6   31.51    1.24
   2 -22  -6   30.42    3.31
   2  22   6   29.24    0.94
  -2 -22   6   27.24    2.62
  -2 -24  -6   41.90    4.65
   2  24  -6   42.99    4.56
   2 -24   6   40.26    1.02
   2 -24   6   38.12    3.08
  -2 -24  -6   40.31    1.25
  -2 -24   6   40.00    1.49
  -2  24  -6   34.26    1.29
   2 -24  -6   38.94    4.19
   2  24   6   39.84    1.23
  -2 -24   6   38.50    4.46
   2 -24  -6   43.65    3.54
  -2  24  -6   42.49    3.17
   2  24   6   44.21    4.05
  -2 -26  -6    4.87    2.14
   2 -26   6    5.71    0.24
  -2 -26  -6    5.25    0.47
   2 -26   6    4.86    1.35
   2  26  -6    4.45    0.45
   2  26  -6    5.14    1.28
   2 -26  -6    5.22    0.25
  -2  26  -6    4.83    0.34
   2  26   6    5.67    0.60
   2 -26  -6    5.93    2.20
   2  26   6    5.55    1.63
  -2 -26   6    6.37    0.52
  -2  26  -6    6.55    1.40
   2 -26  -6    5.00    0.25
   2 -26  -6    4.52    1.69
  -2 -26   6    4.76    1.33
  -2 -28  -6   16.37    2.87
   2 -28   6   16.56    0.56
   2  28  -6   16.72    1.94
   2 -28   6   16.49    2.05
   2  28  -6   15.64    0.80
  -2 -28  -6   16.98    0.62
   2 -28  -6   16.10    0.60
   2 -28  -6   16.52    0.46
   2 -28  -6   20.13    3.17
   2  28   6   15.95    0.67
   2 -28  -6   19.24    2.70
  -2 -28   6   16.82    1.94
   2  28   6   20.22    2.25
  -2 -28   6   17.96    1.28
  -2  28  -6   19.57    2.10
  -2 -30  -6   68.69    5.31
   2 -30   6   65.07    4.25
   2 -30   6   64.70    1.53
   2  30  -6   71.61    4.23
  -2 -30  -6   68.25    2.50
   2 -30  -6   75.53    5.81
  -2 -30   6   64.09    4.20
   2 -30  -6   69.69    1.99
   2 -30  -6   68.96    5.52
   2  30   6   63.47    2.53
  -2  30  -6   71.10    4.46
   2  30   6   69.08    4.49
  -2 -30   6   71.97    3.13
   2 -30  -6   65.55    1.85
  -2 -32  -6    8.66    1.88
   2  32  -6    8.35    1.41
   2 -32   6    7.77    1.48
  -2 -32  -6    7.09    0.46
   2 -32  -6    6.71    0.67
   2 -32  -6   11.88    2.14
   2  32   6    7.02    0.47
   2 -32  -6    7.28    1.72
   2  32   6    7.49    1.44
  -2 -32   6    7.31    1.44
  -2 -32   6    7.88    0.59
  -2 -34  -6    6.74    1.67
   2  34  -6    4.66    0.73
   2 -34   6    7.54    1.38
   2  34  -6    6.88    1.40
   2 -34   6    7.00    1.44
  -2 -34  -6    5.48    0.47
   2  34   6    6.21    1.34
   2 -34  -6    7.41    2.11
   2 -34  -6    7.71    1.47
  -2 -34   6    7.58    0.59
  -2 -34   6    5.27    1.39
   2 -36   6   30.53    2.56
   2  36  -6   26.24    2.49
   2 -36   6   25.99    3.92
  -2 -36  -6   27.24    2.99
   2 -36  -6   26.21    3.32
   2 -36  -6   26.27    3.79
   2  36   6   24.21    2.31
  -2 -36   6   27.89    2.61
   2 -38   6   14.23    1.88
   2 -38   6   12.10    1.92
   2  38  -6   13.48    1.85
  -2 -38  -6   13.40    2.18
   2 -38  -6   14.97    2.34
   2  38   6   13.17    1.67
  -2 -38   6   11.53    1.96
   2 -38  -6   12.72    1.70
   4   0   6    0.27    0.21
  -4   0  -6    0.42    0.32
  -4   0   6    0.12    0.39
  -4   0   6    0.21    0.35
   4   0  -6    0.03    0.41
   4   0  -6    0.10    0.67
   4   0   6    0.24    0.29
  -4   0  -6    0.26    0.86
   4  -2   6   36.94    1.65
  -4   2   6   34.77    0.93
  -4  -2  -6   35.42    1.27
  -4   2   6   38.73    1.76
   4   2  -6   38.68    2.13
   4   2  -6   37.08    1.63
  -4  -2  -6   37.81    3.35
   4  -2   6   36.44    1.52
   4   2   6   36.89    1.08
  -4   2  -6   37.13    1.34
   4  -2  -6   37.25    1.42
  -4  -2   6   37.11    1.67
  -4  -2   6   37.12    1.80
   4  -2  -6   36.81    1.72
  -4   2  -6   37.17    4.52
   4   2   6   31.97    1.58
   4  -4   6   19.90    0.86
  -4  -4  -6   21.35    1.16
  -4   4   6   20.72    1.25
   4  -4   6   19.73    1.20
  -4  -4  -6   21.51    2.79
   4   4  -6   21.15    1.13
  -4   4   6   19.10    0.45
   4   4  -6   22.34    1.85
   4   4   6   20.40    0.65
  -4   4  -6   21.47    1.93
   4  -4  -6   20.96    0.70
  -4   4  -6   21.02    0.80
   4   4   6   21.09    1.31
  -4  -4   6   20.60    1.14
   4  -4  -6   21.24    1.26
  -4  -4   6   20.50    1.02
   4  -6   6   77.37    3.42
  -4  -6  -6   77.62    2.72
  -4   6   6   80.97    3.31
   4  -6   6   76.47    3.28
   4   6  -6   77.21    4.40
  -4  -6  -6   77.21    5.96
   4   6  -6   76.86    2.93
  -4   6   6   77.08    1.72
  -4   6  -6   81.02    4.13
   4  -6  -6   76.25    1.97
  -4   6  -6   78.01    2.29
   4   6   6   76.65    4.93
  -4  -6   6   80.63    3.04
   4  -6  -6   76.90    4.40
  -4  -6   6   78.14    3.10
   4   6   6   77.26    2.12
  -4  -8  -6    6.23    0.55
   4  -8   6    5.88    0.64
   4  -8   6    6.48    0.95
   4   8  -6    6.19    1.40
  -4  -8  -6    6.42    2.15
   4   8  -6    5.44    0.68
  -4   8  -6    6.95    1.03
   4   8   6    5.86    1.12
   4   8   6    6.23    0.32
  -4   8  -6    6.25    0.34
   4  -8  -6    4.75    0.87
  -4  -8   6    6.78    0.69
  -4  -8   6    6.93    1.52
   4  -8  -6    5.96    0.84
  -4 -10  -6   28.07    0.80
   4 -10   6   27.39    1.41
   4  10  -6   29.25    2.57
  -4 -10  -6   30.14    3.93
   4 -10   6   27.82    1.96
   4  10  -6   27.46    1.33
  -4  10  -6   31.86    1.76
   4  10   6   26.46    0.75
   4  10   6   28.69    2.36
   4 -10  -6   24.99    1.71
  -4 -10   6   29.42    1.38
  -4 -10   6   28.85    2.02
  -4  10  -6   26.44    0.74
   4 -10  -6   26.76    1.70
   4  12  -6   32.06    1.48
  -4 -12  -6   33.20    0.89
   4 -12   6   31.75    1.69
   4 -12   6   31.29    2.36
  -4 -12  -6   33.27    7.37
   4  12  -6   35.09    2.90
  -4  12  -6   36.66    1.61
   4  12   6   34.62    2.96
  -4 -12   6   34.61    2.61
   4 -12  -6   31.83    2.03
  -4 -12   6   33.34    1.52
   4  12   6   30.70    1.19
   4 -12  -6   33.51    1.97
  -4  12  -6   32.47    1.03
   4  14  -6    7.45    1.20
  -4 -14  -6    7.74    0.33
   4 -14   6    7.06    1.57
  -4 -14  -6    8.95    2.64
   4 -14   6    6.52    1.33
   4  14  -6    8.60    1.60
  -4  14  -6    9.14    0.55
   4 -14  -6    7.47    1.05
   4  14   6    9.66    1.84
   4 -14  -6    7.19    1.14
  -4 -14   6   10.98    1.66
  -4 -14   6    7.71    0.73
   4  14   6    6.61    0.35
  -4  14  -6    6.95    0.38
  -4 -16  -6   15.07    0.72
   4  16  -6   14.75    1.57
   4 -16   6   15.73    1.38
  -4 -16  -6   18.82    3.47
   4  16  -6   16.16    2.08
   4 -16   6   15.10    1.92
   4 -16  -6   14.88    1.46
   4  16   6   14.11    0.80
   4  16   6   17.73    4.39
   4 -16  -6   15.48    1.59
  -4 -16   6   15.77    2.40
  -4 -16   6   15.36    1.01
  -4  16  -6   16.15    0.83
  -4 -18  -6  112.56    3.54
   4  18  -6  103.76    3.91
   4 -18   6  100.38    5.10
  -4 -18  -6  114.14    9.13
   4  18  -6  114.78    9.01
   4 -18   6  101.88    6.14
  -4 -18   6  108.24    4.15
   4  18   6  116.09   11.83
   4  18   6   99.25    3.04
   4 -18  -6  103.70    5.44
  -4  18  -6  103.99    2.68
   4 -18  -6  107.62    5.21
  -4 -18   6  108.79    7.33
  -4 -20  -6   22.67    0.92
   4  20  -6   22.98    2.32
  -4 -20  -6   22.04    3.57
   4 -20   6   19.30    1.89
   4  20  -6   20.55    1.11
   4 -20   6   19.18    3.74
   4 -20  -6   21.90    2.95
   4  20   6   21.29    5.16
   4 -20  -6   18.35    2.06
   4  20   6   19.16    0.73
  -4 -20   6   17.78    2.72
  -4 -20   6   22.43    1.79
  -4 -22  -6    5.59    0.51
  -4 -22  -6    6.81    2.02
   4 -22   6    4.12    1.21
   4  22  -6    6.32    1.36
   4  22  -6    5.58    0.58
   4 -22   6    8.82    1.46
   4 -22  -6    6.48    1.15
   4  22   6    5.79    2.73
   4 -22  -6    4.96    1.36
   4  22   6    4.54    0.41
  -4 -22   6    3.82    1.53
  -4 -22   6    4.99    0.62
  -4 -24  -6   23.03    3.13
   4 -24   6   23.05    2.26
   4 -24   6   24.30    2.64
   4  24  -6   21.23    1.10
   4  24  -6   24.42    2.35
  -4 -24  -6   24.63    0.78
   4 -24  -6   24.80    2.22
   4  24   6   24.26    4.19
   4  24   6   22.60    0.99
   4 -24  -6   21.66    2.58
  -4 -24   6   21.22    2.58
  -4 -24   6   24.42    1.23
  -4 -26  -6   25.45    3.24
   4 -26   6   26.78    2.53
   4  26  -6   28.12    2.44
   4 -26   6   26.41    2.76
   4  26  -6   22.91    1.14
  -4 -26  -6   26.24    0.89
   4 -26  -6   27.40    2.50
   4  26   6   28.16    2.65
   4 -26  -6   28.30    4.83
   4  26   6   26.61    1.12
  -4 -26   6   24.02    2.61
  -4 -26   6   26.59    1.30
   4 -26  -6   25.85    0.65
   4 -26  -6   25.93    0.58
  -4 -28  -6   15.49    2.48
   4 -28   6   15.87    2.12
   4  28  -6   14.52    1.94
   4 -28   6   15.31    2.17
   4  28  -6   12.90    0.85
  -4 -28  -6   15.37    0.65
   4 -28  -6   15.17    0.38
   4  28   6   15.02    0.81
   4  28   6   14.96    2.01
   4 -28  -6   16.40    4.34
  -4 -28   6   15.99    2.03
   4 -28  -6   14.58    0.42
  -4 -28   6   15.24    1.51
   4 -28  -6   15.75    2.17
  -4 -30  -6   18.81    2.59
   4 -30   6   20.89    2.33
   4  30  -6   22.45    2.15
   4 -30   6   20.85    3.82
   4  30  -6   18.19    1.03
  -4 -30  -6   20.81    0.83
   4 -30  -6   19.43    0.54
   4  30   6   24.61    2.14
   4  30   6   17.08    1.28
   4 -30  -6   20.53    4.96
  -4 -30   6   20.17    2.22
   4 -30  -6   19.30    0.76
   4 -30  -6   22.05    4.20
  -4 -30   6   19.98    1.70
   4 -32   6    4.99    1.29
   4  32  -6    4.13    1.22
   4 -32   6    3.41    1.27
  -4 -32  -6    3.58    0.40
  -4 -32  -6    3.35    1.44
   4  32  -6    2.54    0.51
   4  32   6    3.73    1.13
   4  32   6    3.40    0.43
   4 -32  -6    5.29    2.44
   4 -32  -6    3.84    1.55
  -4 -32   6    3.97    1.22
  -4 -32   6    3.18    0.58
   4 -34   6    3.93    1.35
   4  34  -6    4.34    1.35
   4 -34   6    3.89    1.39
  -4 -34  -6    4.60    0.47
  -4 -34  -6    4.98    1.53
   4  34   6    3.82    1.20
   4 -34  -6    5.02    2.82
   4  34   6    4.15    0.46
   4 -34  -6    6.12    1.44
  -4 -34   6    4.22    1.37
  -4 -34   6    5.13    0.66
   4 -36   6   12.63    1.93
   4  36  -6   12.17    1.84
   4 -36   6   12.03    1.94
  -4 -36  -6   11.06    3.50
   4  36   6   12.36    1.66
   4 -36  -6   12.40    2.61
   4 -36  -6   12.88    1.85
  -4 -36   6   12.77    1.47
  -4 -36   6   11.89    1.92
   4  38  -6    2.59    1.15
   4  38  -6    0.97    0.68
   4 -38   6    3.10    1.16
   4 -38   6    2.06    1.18
  -4 -38  -6    2.03    1.31
   4 -38  -6    4.02    1.55
   4 -38  -6    1.99    1.01
   4  38   6    1.34    1.62
  -4 -38   6    2.17    1.19
  -4 -38   6    2.73    0.83
   6   0   6  724.15   38.46
   6   0   6  706.84   39.09
  -6   0  -6  721.91   38.91
  -6   0  -6  715.06   65.49
  -6   0   6  737.66   41.05
   6   0  -6  790.68   44.14
   6   0  -6  712.68   40.04
  -6   0   6  690.90   36.79
   6  -2   6    1.18    0.39
  -6  -2  -6    2.15    0.64
  -6   2   6    1.65    0.24
   6   2  -6    2.44    0.69
  -6  -2  -6    1.86    3.52
  -6   2   6    2.56    1.01
   6  -2   6    1.89    0.41
   6   2  -6    2.12    0.62
   6   2   6    1.45    0.60
  -6   2  -6    1.53    0.46
  -6   2  -6    1.88    3.12
   6  -2  -6    2.34    0.89
  -6  -2   6    2.31    0.59
   6  -2  -6    2.23    0.63
  -6  -2   6    2.55    0.36
   6  -4   6  227.99    8.86
  -6  -4  -6  218.44   16.65
  -6  -4  -6  228.14    8.50
   6  -4   6  225.04    9.34
  -6   4   6  233.31    9.82
   6   4  -6  251.77   11.56
   6   4  -6  228.46   11.28
  -6   4   6  220.21    7.24
  -6   4  -6  244.51   18.75
   6   4   6  235.45   10.64
  -6   4  -6  228.80    8.52
  -6  -4   6  225.91    8.83
   6  -4  -6  245.56    9.38
  -6  -4   6  235.31   11.32
   6  -4  -6  221.09    9.60
   6   4   6  225.06    8.20
  -6   6   6    0.91    0.12
   6  -6   6    1.10    0.38
  -6  -6  -6    0.86    0.28
   6   6  -6    1.08    1.29
  -6  -6  -6    1.27    1.73
  -6   6   6    0.98    0.53
   6   6  -6    1.20    0.52
  -6   6  -6   -0.18    0.94
   6   6   6    1.05    0.73
  -6   6  -6    0.86    0.24
   6  -6  -6    0.82    0.30
  -6  -6   6    0.78    0.49
   6  -6  -6    0.64    0.56
   6   6   6    0.66    0.25
  -6   8   6    2.09    0.17
   6  -8   6    2.07    0.49
  -6  -8  -6    2.37    0.30
  -6  -8  -6    0.82    1.90
   6  -8   6    1.72    0.60
  -6   8   6    2.40    1.06
   6   8  -6    1.75    1.00
   6   8  -6    1.76    0.58
   6  -8  -6    1.62    0.26
  -6   8  -6    1.66    0.77
   6   8   6    2.06    1.00
  -6   8  -6    1.94    0.22
  -6  -8   6    1.59    0.56
   6  -8  -6    2.40    1.15
  -6  -8   6    2.17    0.61
   6   8   6    1.38    0.29
   6  10  -6    1.67    0.59
  -6 -10  -6    1.86    0.29
   6 -10   6    1.50    0.53
  -6 -10  -6    2.24    1.79
  -6  10   6    1.95    0.08
  -6  10   6    2.14    0.64
   6 -10   6    1.94    0.67
   6  10  -6    2.12    1.10
  -6  10  -6    1.91    0.52
   6  10   6    1.89    1.14
   6 -10  -6    1.54    0.30
  -6  10  -6    1.65    0.18
   6 -10  -6    2.19    0.69
  -6 -10   6    2.47    0.57
  -6 -10   6    1.99    1.17
   6  10   6    2.20    0.29
   6  12  -6   33.16    1.73
  -6 -12  -6   33.02    1.04
   6 -12   6   31.82    2.54
  -6 -12  -6   29.59    4.22
   6 -12   6   31.86    2.01
   6  12  -6   36.42    3.03
  -6 -12   6   32.48    2.18
   6 -12  -6   32.37    0.64
  -6 -12   6   33.60    1.70
   6 -12  -6   31.67    0.62
   6 -12  -6   33.43    2.05
  -6  12  -6   32.10    0.85
   6  12   6   31.66    1.05
   6  12   6   36.25    5.21
   6 -12  -6   32.71    1.89
  -6  12  -6   34.68    1.12
  -6 -14  -6    2.59    0.31
   6  14  -6    2.71    0.66
   6 -14   6    2.39    0.69
  -6 -14  -6    2.38    1.79
   6 -14   6    2.64    0.89
   6  14  -6    3.08    1.34
  -6 -14   6    2.50    0.63
   6  14   6    2.34    0.33
   6 -14  -6    2.43    0.82
  -6 -14   6    3.16    0.99
  -6  14  -6    2.43    0.14
   6  14   6    4.93    1.59
   6 -14  -6    2.27    1.25
  -6  14  -6    2.60    0.09
  -6 -16  -6  449.77   19.34
  -6 -16  -6  400.12   26.49
   6  16  -6  423.85   20.44
   6 -16   6  410.55   21.06
   6 -16   6  413.41   22.52
   6  16  -6  464.89   26.86
  -6 -16   6  434.49   22.98
   6  16   6  396.18   18.30
   6 -16  -6  399.85   21.23
  -6 -16   6  436.57   24.21
   6 -16  -6  421.43   21.33
   6  16   6  436.62   28.06
  -6 -18  -6    8.49    0.46
  -6 -18  -6    8.58    2.22
   6 -18   6    7.78    1.82
   6  18  -6    7.45    0.85
   6  18  -6    8.65    1.72
   6 -18   6    8.96    1.39
   6 -18  -6    7.13    1.07
  -6 -18   6    7.00    0.86
   6 -18  -6    6.58    1.20
   6  18   6    6.76    0.46
  -6 -18   6    8.29    2.85
   6  18   6    8.93    2.11
  -6 -20  -6  224.78    8.68
  -6 -20  -6  218.64   13.31
   6 -20   6  205.10    9.98
   6  20  -6  208.42    8.76
   6 -20   6  209.27   11.07
   6  20  -6  226.05   15.45
   6 -20  -6  223.39   12.13
   6 -20  -6  202.36   12.50
   6  20   6  197.96    7.30
  -6 -20   6  218.09   16.07
  -6 -20   6  220.05    9.33
   6  20   6  217.11   12.71
  -6 -22  -6    0.17    0.22
  -6 -22  -6    1.11    1.06
   6 -22   6    0.65    0.80
   6 -22   6    0.62    0.66
   6  22  -6    0.53    0.40
   6  22  -6   -0.52    0.89
   6 -22  -6    0.23    0.09
   6 -22  -6    0.29    0.59
   6  22   6    0.89    0.39
   6 -22  -6    0.23    0.69
  -6 -22   6    0.53    0.71
   6 -22  -6    0.41    0.11
  -6 -22   6    0.04    1.06
   6  22   6    0.78    1.49
   6 -24   6    0.89    1.09
   6 -24   6    1.53    0.93
   6  24  -6    1.89    0.50
   6  24  -6    1.69    1.12
  -6 -24  -6    1.58    0.30
  -6 -24  -6    2.21    1.35
   6 -24  -6    4.37    0.82
   6  24   6    2.25    1.08
  -6 -24   6    1.19    1.31
   6 -24  -6    1.58    0.95
   6  24   6    0.90    0.52
  -6 -24   6    1.59    0.57
   6 -24  -6    1.68    0.10
   6 -26   6    5.71    1.39
   6  26  -6    7.49    1.58
   6 -26   6    6.80    1.61
   6  26  -6    6.90    1.15
  -6 -26  -6    6.67    0.48
  -6 -26  -6    7.74    1.86
   6 -26  -6    6.95    1.24
   6  26   6    8.02    1.50
   6 -26  -6    7.68    1.52
   6 -26  -6    6.06    0.37
  -6 -26   6    7.60    1.78
  -6 -26   6    8.79    0.83
   6  26   6    6.64    0.54
   6 -26  -6    6.81    0.31
   6 -28   6    1.90    1.17
   6 -28   6    1.65    1.07
   6  28  -6    1.08    0.79
   6  28  -6    2.23    1.11
  -6 -28  -6    1.57    0.54
  -6 -28  -6    3.69    1.26
   6 -28  -6    1.79    0.95
   6  28   6    1.78    0.69
   6  28   6    1.96    1.01
   6 -28  -6    2.15    1.16
  -6 -28   6    1.73    2.02
   6 -28  -6    1.03    0.27
  -6 -28   6    1.89    0.57
   6 -28  -6    1.73    0.23
   6 -30   6   14.92    2.18
   6  30  -6   15.02    2.10
   6 -30   6   15.96    3.83
   6  30  -6   12.76    1.01
  -6 -30  -6   15.24    0.78
  -6 -30  -6   16.87    3.77
   6  30   6   16.63    1.89
   6  30   6   13.03    1.40
   6 -30  -6   15.30    2.40
  -6 -30   6   15.33    3.64
   6 -30  -6   18.26    3.20
  -6 -30   6   15.65    1.18
   6 -32   6  118.16    7.16
   6  32  -6  116.20    6.76
   6 -32   6  107.66    7.02
  -6 -32  -6  111.91    6.93
   6  32  -6   92.83    4.26
  -6 -32  -6  108.01    3.99
   6  32   6  104.59    6.02
   6  32   6   92.01    3.95
   6 -32  -6  118.80    7.63
  -6 -32   6   99.93    6.50
   6 -32  -6  114.54    6.94
  -6 -32   6  116.47    4.99
   6 -34   6    1.43    1.07
   6  34  -6    0.98    1.62
   6 -34   6    1.01    1.10
  -6 -34  -6    1.54    1.10
  -6 -34  -6    0.26    0.60
   6  34  -6    0.96    0.49
   6  34   6    0.38    0.87
   6  34   6    0.55    0.40
   6 -34  -6    0.47    1.13
   6 -34  -6    0.89    1.05
  -6 -34   6    0.21    1.09
  -6 -34   6    1.14    0.56
   6  36  -6   49.03    2.65
   6 -36   6   65.22    4.59
   6  36  -6   64.13    4.44
   6 -36   6   57.67    4.55
  -6 -36  -6   64.44    4.73
  -6 -36  -6   58.92    3.14
   6  36   6   57.46    5.56
   6  36   6   53.28    2.33
   6 -36  -6   62.53    4.27
  -6 -36   6   55.68    4.42
  -6 -36   6   68.21    3.08
   6 -36  -6   66.08    5.23
   8   0   6    0.04    0.58
  -8   0  -6    1.24    0.37
   8   0   6    0.05    0.46
   8   0  -6    0.64    0.70
  -8   0   6   -0.18    0.50
   8   0  -6    0.15    0.55
  -8   0   6    0.29    0.43
  -8   0  -6   -0.05    1.06
   8  -2   6  155.67    6.83
  -8  -2  -6  154.55    5.67
   8  -2   6  153.74    5.89
  -8   2   6  153.93    7.94
   8   2  -6  166.07    6.76
   8   2  -6  149.12    6.51
  -8   2   6  145.17    4.76
  -8  -2  -6  168.73   11.06
  -8   2  -6  154.55    5.96
  -8  -2   6  155.65    6.44
   8  -2  -6  168.28    6.18
   8   2   6  156.48    6.98
  -8  -2   6  146.38    5.22
   8  -2  -6  150.60    6.55
  -8   2  -6  161.29    8.30
   8   2   6  151.54    6.40
   8  -4   6    6.05    0.69
   8  -4   6    7.62    0.56
  -8  -4  -6    7.13    0.59
   8   4  -6    7.86    0.95
  -8   4   6    7.93    0.90
   8   4  -6    6.81    0.98
  -8  -4  -6    9.72    2.82
  -8   4   6    6.52    0.35
  -8   4  -6    6.22    1.22
   8  -4  -6    7.00    1.00
  -8  -4   6    7.60    0.90
   8  -4  -6    7.69    0.99
  -8  -4   6    6.22    0.63
   8   4   6    7.14    1.19
  -8   4  -6    7.35    1.80
   8   4   6    6.92    0.60
  -8   6   6  385.03   15.98
   8  -6   6  391.11   18.03
  -8  -6  -6  401.22   17.76
   8   6  -6  430.12   21.34
  -8   6   6  393.61   18.80
   8  -6   6  391.01   16.69
   8   6  -6  380.41   18.49
  -8  -6  -6  452.91   33.37
  -8   6  -6  391.66   18.53
  -8  -6   6  387.60   18.71
   8  -6  -6  439.11   18.61
   8  -6  -6  381.39   21.13
  -8  -6   6  376.76   19.16
   8   6   6  403.03   22.22
  -8   6  -6  391.70   18.60
   8   6   6  383.54   16.95
   8   8  -6   16.09    1.32
  -8   8   6   14.85    0.43
   8  -8   6   14.43    1.03
  -8  -8  -6   16.39    0.79
   8  -8   6   15.25    1.17
  -8   8   6   16.36    2.02
   8   8  -6   17.39    1.56
  -8  -8  -6   14.65    3.77
  -8   8  -6   15.75    0.78
   8  -8  -6   16.99    0.70
  -8  -8   6   16.06    1.26
   8  -8  -6   14.03    1.36
  -8   8  -6   15.27    0.87
  -8  -8   6   14.94    1.13
   8   8   6   17.01    2.14
   8   8   6   14.83    0.78
   8  10  -6   23.48    1.64
  -8 -10  -6   24.96    1.01
   8 -10   6   25.62    1.41
  -8  10   6   23.51    0.74
  -8  10   6   24.16    1.54
   8  10  -6   27.31    3.30
   8 -10   6   24.12    2.35
  -8 -10  -6   24.92    4.06
  -8 -10   6   25.05    1.60
   8  10   6   27.71    4.71
  -8  10  -6   23.68    0.61
  -8  10  -6   23.05    0.80
   8 -10  -6   26.61    1.19
   8 -10  -6   21.92    2.66
  -8 -10   6   25.24    1.56
   8  10   6   23.40    1.48
  -8 -12  -6   37.76    1.88
   8  12  -6   35.18    2.09
   8 -12   6   36.02    1.89
  -8  12   6   35.41    0.83
  -8  12   6   36.60    2.03
   8 -12   6   34.47    2.09
   8  12  -6   39.57    2.77
  -8 -12  -6   35.45    4.65
   8  12   6   39.71    3.92
   8  12   6   34.15    1.33
  -8 -12   6   36.34    2.02
  -8  12  -6   37.14    0.77
   8 -12  -6   39.91    1.09
   8 -12  -6   35.71    2.21
  -8 -12   6   36.73    2.20
  -8 -14  -6  144.98    5.08
   8 -14   6  146.51    6.22
   8  14  -6  142.47    7.88
   8 -14   6  149.23    6.78
   8  14  -6  159.18    8.10
  -8 -14  -6  142.36   10.22
   8 -14  -6  139.89    6.62
   8 -14  -6  159.78    4.68
   8  14   6  160.65   10.27
  -8 -14   6  151.99    6.42
  -8 -14   6  143.68    6.88
   8  14   6  140.11    4.94
   8 -14  -6  120.83    5.63
  -8 -16  -6   31.87    1.18
   8 -16   6   31.65    1.85
   8  16  -6   31.43    1.82
   8 -16   6   30.56    2.12
   8  16  -6   35.36    2.85
  -8 -16  -6   31.70    3.85
  -8 -16   6   31.87    1.81
   8  16   6   33.86    3.51
   8 -16  -6   29.86    0.75
   8 -16  -6   28.28    3.12
  -8 -16   6   31.85    2.36
   8 -16  -6   34.04    0.84
   8  16   6   30.21    1.67
   8 -16  -6   32.82    1.87
  -8 -18  -6  113.47    4.45
   8 -18   6  108.55    5.51
   8 -18   6  111.12    5.06
   8  18  -6  107.52    4.67
   8  18  -6  122.48    6.98
  -8 -18  -6  111.87    7.75
   8 -18  -6  109.90    3.19
   8  18   6  109.41   10.07
   8 -18  -6  104.10    5.16
   8  18   6  106.69    3.65
  -8 -18   6  115.32    6.07
   8 -18  -6  119.15    3.20
   8 -18  -6  117.95    5.01
  -8 -18   6  116.82    4.91
  -8 -20  -6   22.09    0.91
   8 -20   6   20.20    1.68
   8  20  -6   20.53    1.40
   8 -20   6   19.69    1.92
   8  20  -6   22.90    2.54
  -8 -20  -6   21.93    2.89
   8 -20  -6   20.51    0.66
   8 -20  -6   22.74    2.34
   8 -20  -6   22.62    0.73
  -8 -20   6   22.95    2.28
   8 -20  -6   20.54    1.75
   8  20   6   19.90    0.87
   8  20   6   21.36    4.01
  -8 -20   6   21.25    1.46
  -8 -22  -6    4.48    0.45
   8 -22   6    4.60    1.18
   8 -22   6    3.53    1.67
   8  22  -6    4.27    0.76
   8  22  -6    5.24    1.52
  -8 -22  -6    4.21    1.73
   8 -22  -6    4.44    0.85
   8 -22  -6    4.53    0.45
   8 -22  -6    3.71    1.04
   8  22   6    3.74    0.44
  -8 -22   6    4.22    1.48
   8 -22  -6    4.31    0.33
   8  22   6    7.05    1.37
  -8 -22   6    4.75    0.80
  -8 -24  -6   15.60    0.79
   8 -24   6   14.61    1.70
   8 -24   6   15.81    1.94
   8  24  -6   15.62    2.27
   8  24  -6   14.73    1.17
  -8 -24  -6   17.65    2.57
   8 -24  -6   14.36    0.69
   8  24   6   14.13    0.76
   8 -24  -6   14.20    1.42
   8 -24  -6   14.27    1.69
  -8 -24   6   15.71    2.47
   8  24   6   14.38    2.08
  -8 -24   6   16.14    1.32
   8 -24  -6   16.51    0.62
   8 -26   6   54.18    3.60
   8  26  -6   58.53    4.34
   8 -26   6   53.68    3.95
   8  26  -6   51.94    2.55
  -8 -26  -6   59.15    4.57
  -8 -26  -6   55.47    2.03
   8 -26  -6   51.17    1.71
   8 -26  -6   51.86    5.22
   8  26   6   48.04    1.84
   8 -26  -6   55.48    4.43
  -8 -26   6   57.24    4.96
   8  26   6   53.34    3.82
  -8 -26   6   56.61    2.85
   8 -26  -6   58.49    1.72
   8 -28   6   35.71    2.97
   8  28  -6   41.70    3.47
   8 -28   6   36.39    3.27
   8  28  -6   34.73    1.89
  -8 -28  -6   38.41    3.57
  -8 -28  -6   38.12    1.53
   8 -28  -6   40.20    2.58
   8 -28  -6   34.37    1.25
   8 -28  -6   36.41    2.94
   8  28   6   36.79    2.98
  -8 -28   6   39.32    2.20
   8 -28  -6   38.07    1.04
  -8 -28   6   34.03    3.94
   8  28   6   31.33    1.39
   8 -30   6   63.98    4.57
   8  30  -6   69.65    4.85
   8 -30   6   63.76    4.77
   8  30  -6   64.01    3.00
  -8 -30  -6   69.89    7.46
  -8 -30  -6   66.96    2.53
   8 -30  -6   71.25    4.06
   8  30   6   55.50    2.34
   8 -30  -6   62.70    4.41
  -8 -30   6   59.25    5.14
   8  30   6   62.79    4.21
  -8 -30   6   70.73    3.39
   8 -32   6    0.70    1.23
   8 -32   6    0.95    1.27
   8  32  -6    1.70    1.18
  -8 -32  -6    1.53    1.26
   8  32  -6    1.17    0.59
  -8 -32  -6    0.76    0.70
   8 -32  -6    1.47    0.97
   8  32   6    2.10    1.00
   8  32   6    1.64    0.47
   8 -32  -6    2.15    1.16
  -8 -32   6    0.59    1.30
  -8 -32   6    2.05    1.16
   8 -34   6    6.31    1.71
   8  34  -6    5.74    1.60
   8 -34   6    4.81    2.89
  -8 -34  -6    4.55    1.69
   8  34  -6    4.38    1.39
  -8 -34  -6    4.66    0.62
   8  34   6    5.15    1.32
   8  34   6    3.99    1.08
   8 -34  -6    4.91    1.54
  -8 -34   6    5.48    1.73
   8 -34  -6    5.12    1.44
  -8 -34   6    4.86    1.57
   8 -36   6   11.03    2.19
   8 -36   6   10.19    2.20
  -8 -36  -6   10.20    2.12
   8  36  -6   11.61    2.08
  -8 -36  -6   10.05    0.87
   8  36  -6   10.26    1.21
   8  36   6    9.63    1.69
   8  36   6    8.39    0.90
   8 -36  -6   11.22    1.77
   8 -36  -6   11.16    2.07
  -8 -36   6   11.83    2.20
  -8 -36   6   12.09    2.00
 -10   0  -6  416.62   19.77
  10   0   6  451.41   25.35
 -10   0   6  427.10   21.03
  10   0  -6  466.15   22.06
 -10   0  -6  427.45   23.19
 -10   0   6  399.83   18.05
  10   0  -6  409.52   23.47
  10   0   6  420.36   21.25
  10  -2   6   41.23    1.79
 -10  -2  -6   38.21    1.67
 -10   2   6   39.03    2.11
  10   2  -6   41.81    1.97
 -10  -2  -6   40.75    3.27
  10  -2   6   39.19    1.88
 -10   2   6   35.04    1.23
  10   2  -6   38.24    2.30
 -10   2  -6   38.40    1.81
  10   2   6   39.65    2.60
 -10  -2   6   40.06    2.12
  10  -2  -6   37.95    2.48
 -10   2  -6   37.79    2.19
 -10  -2   6   34.98    1.45
  10  -2  -6   38.07    2.31
  10   2   6   36.25    2.36
 -10   4   6   29.19    0.97
  10   4  -6   27.90    2.02
  10  -4   6   32.32    1.57
 -10  -4  -6   33.80    1.42
  10  -4   6   34.46    2.04
 -10  -4  -6   35.10    3.58
 -10   4   6   33.20    2.76
  10   4  -6   35.97    1.91
 -10   4  -6   32.20    1.61
  10   4   6   34.65    2.69
 -10   4  -6   31.73    1.61
  10  -4  -6   35.13    1.43
 -10  -4   6   32.46    1.91
  10  -4  -6   31.15    2.02
 -10  -4   6   29.96    1.35
  10   4   6   31.11    1.38
  10   6  -6   16.95    1.46
 -10   6   6   14.85    0.57
  10  -6   6   15.68    1.09
 -10  -6  -6   15.46    0.93
  10  -6   6   16.47    0.76
 -10   6   6   16.01    1.26
  10   6  -6   18.23    2.18
 -10  -6  -6   20.87    5.26
 -10   6  -6   15.44    1.13
  10   6   6   16.19    2.19
  10  -6  -6   17.80    1.37
 -10   6  -6   16.18    0.90
 -10  -6   6   16.27    1.32
 -10  -6   6   15.31    1.01
  10  -6  -6   16.34    1.46
  10   6   6   17.78    0.94
  10  -8   6  101.58    4.08
  10   8  -6   98.69    4.67
 -10   8   6   98.90    2.90
 -10  -8  -6  102.32    3.70
  10  -8   6  104.84    3.61
 -10   8   6  107.18    4.45
  10   8  -6  109.79    4.91
 -10  -8  -6  114.24   14.48
 -10   8  -6  101.99    4.27
  10   8   6  108.73    6.84
 -10   8  -6   95.56    3.16
  10  -8  -6  110.29    3.61
 -10  -8   6  106.64    4.68
  10  -8  -6   97.35    4.56
 -10  -8   6   97.21    4.01
  10   8   6  101.39    4.55
  10 -10   6   40.50    2.01
 -10 -10  -6   43.37    1.65
  10  10  -6   41.58    2.41
 -10  10   6   40.09    1.08
 -10  10   6   40.33    2.08
  10 -10   6   41.44    2.11
  10  10  -6   43.72    3.77
 -10 -10  -6   44.19    6.53
 -10 -10   6   39.43    2.05
 -10  10  -6   36.03    1.33
 -10  10  -6   42.20    1.07
  10  10   6   38.75    1.58
  10  10   6   45.34    4.10
  10 -10  -6   45.32    1.47
 -10 -10   6   43.12    2.30
  10 -10  -6   40.42    2.36
 -10 -12  -6  174.09    6.55
  10 -12   6  176.10    8.84
  10  12  -6  176.01    7.94
 -10  12   6  169.87    5.73
  10 -12   6  171.03    7.56
 -10  12   6  177.69    7.45
  10  12  -6  193.76    8.88
 -10 -12  -6  184.68   15.01
 -10  12  -6  164.55    4.98
  10  12   6  182.40   11.21
 -10  12  -6  176.54    5.07
  10 -12  -6  186.30    6.90
 -10 -12   6  179.21    9.49
  10 -12  -6  164.16    7.55
 -10 -12   6  167.55    7.40
  10  12   6  164.72    6.24
 -10 -14  -6    4.72    0.51
  10 -14   6    4.36    0.78
  10  14  -6    3.83    0.91
 -10  14   6    4.83    0.38
 -10  14   6    4.39    0.76
  10 -14   6    4.06    0.83
  10  14  -6    5.67    1.12
 -10 -14  -6    4.89    3.99
  10  14   6    3.95    1.69
  10 -14  -6    4.98    0.37
  10 -14  -6    4.00    0.91
 -10 -14   6    5.12    0.87
 -10 -14   6    3.78    0.91
  10  14   6    4.48    0.52
 -10 -16  -6    7.26    0.59
  10 -16   6    7.04    0.96
  10  16  -6    7.78    1.03
 -10  16   6    7.09    0.31
 -10  16   6    6.46    0.89
  10 -16   6    7.18    1.03
  10  16  -6    9.43    1.35
 -10 -16  -6    6.81    4.19
  10  16   6    6.42    1.76
  10 -16  -6    7.41    1.05
  10  16   6    7.12    0.60
  10 -16  -6    7.92    0.41
 -10 -16   6    7.71    1.00
 -10 -16   6    8.08    1.14
 -10 -18  -6    7.79    0.61
  10 -18   6    7.46    1.06
  10  18  -6    6.92    1.72
  10 -18   6    9.43    1.14
  10  18  -6    9.96    1.51
 -10 -18  -6    9.44    2.41
  10  18   6    7.22    0.61
 -10 -18   6    8.32    1.31
  10 -18  -6    7.89    0.35
  10  18   6    6.79    1.79
  10 -18  -6    9.58    1.14
  10 -18  -6    8.51    0.41
 -10 -18   6    7.99    1.71
  10 -18  -6    8.53    0.96
 -10 -20  -6   27.34    1.18
  10 -20   6   25.56    1.88
  10  20  -6   23.34    1.73
  10 -20   6   24.01    1.97
 -10 -20  -6   23.52    3.54
  10  20  -6   28.12    4.02
  10 -20  -6   25.52    0.82
  10  20   6   23.26    2.78
  10 -20  -6   23.98    1.90
  10  20   6   24.12    1.11
 -10 -20   6   25.13    3.70
  10 -20  -6   25.90    1.64
  10 -20  -6   26.66    1.10
 -10 -20   6   28.63    1.82
 -10 -22  -6   14.82    0.87
  10 -22   6   15.14    1.54
  10 -22   6   13.35    1.72
  10  22  -6   16.08    1.36
  10  22  -6   19.34    2.21
 -10 -22  -6   18.22    2.72
  10 -22  -6   14.82    0.63
  10  22   6   13.37    2.19
  10  22   6   14.23    0.82
  10 -22  -6   14.20    1.57
 -10 -22   6   15.85    2.08
  10 -22  -6   15.42    1.27
  10 -22  -6   15.30    0.80
 -10 -22   6   15.24    1.42
 -10 -24  -6   51.10    2.05
  10 -24   6   53.02    5.14
  10 -24   6   51.52    3.25
  10  24  -6   51.03    2.70
 -10 -24  -6   53.05    4.81
  10  24  -6   58.44    4.34
  10 -24  -6   52.82    2.76
 -10 -24   6   56.87    4.26
  10  24   6   51.50    4.02
  10 -24  -6   50.58    2.17
  10  24   6   48.22    1.91
  10 -24  -6   49.67    3.13
 -10 -24   6   54.80    2.97
  10 -24  -6   54.91    1.58
 -10 -26  -6   10.75    0.78
  10 -26   6   11.32    2.58
  10  26  -6    9.36    3.54
  10 -26   6   11.65    1.73
  10  26  -6   10.74    1.18
 -10 -26  -6   11.89    2.28
  10 -26  -6    9.68    0.59
  10 -26  -6    9.44    1.21
  10  26   6   11.09    1.81
  10 -26  -6   10.30    1.52
 -10 -26   6   10.95    2.18
 -10 -26   6   11.19    1.32
  10 -26  -6   11.08    0.47
  10  26   6    9.61    0.74
 -10 -28  -6    6.60    0.63
  10 -28   6    6.28    1.40
  10 -28   6    6.59    1.50
  10  28  -6    7.04    1.79
  10  28  -6    5.12    0.94
 -10 -28  -6    6.63    1.85
  10  28   6    6.60    2.40
  10  28   6    4.32    0.58
  10 -28  -6    5.75    1.63
  10 -28  -6    5.45    1.31
 -10 -28   6    6.16    2.00
 -10 -28   6    7.01    1.77
  10 -30   6    1.12    0.82
  10  30  -6    0.07    0.95
  10 -30   6    0.87    0.86
 -10 -30  -6    0.36    1.67
  10  30  -6    0.06    0.51
 -10 -30  -6    0.02    0.35
  10 -30  -6   -0.39    0.60
  10  30   6   -0.59    0.80
  10  30   6    0.11    0.31
  10 -30  -6    0.13    0.75
 -10 -30   6    0.24    1.16
 -10 -30   6    0.73    0.99
  10 -32   6   16.41    2.47
  10  32  -6   17.50    2.62
  10 -32   6   17.81    2.53
 -10 -32  -6   19.85    2.72
  10  32  -6   15.74    2.37
 -10 -32  -6   17.07    1.11
  10 -32  -6   17.93    1.88
  10 -32  -6   15.58    2.23
 -10 -32   6   16.20    3.02
  10  32   6   13.82    2.13
 -10 -32   6   17.71    2.76
  10 -34   6   12.22    2.37
  10  34  -6   10.70    2.27
  10 -34   6    9.23    2.29
 -10 -34  -6   12.58    2.37
  10  34  -6   11.14    1.36
 -10 -34  -6   12.04    0.98
  10 -34  -6   11.53    1.71
  10 -34  -6   10.58    2.01
 -10 -34   6    9.06    2.57
  10  34   6   11.17    1.86
 -10 -34   6   12.02    2.47
  12   0   6    0.13    0.34
  12   0  -6    0.40    0.54
  12   0   6    0.03    0.87
 -12   0  -6   -0.41    0.46
 -12   0   6   -0.43    0.44
  12   0  -6   -0.18    0.37
 -12   0   6    0.14    0.24
  12   2  -6  267.07   12.79
 -12  -2  -6  268.91   11.58
  12  -2   6  283.55   13.18
 -12  -2  -6  271.27   13.50
 -12   2   6  278.68   14.39
  12   2  -6  299.55   13.05
 -12   2   6  248.75    9.95
  12  -2   6  270.79   11.70
  12   2   6  292.64   15.27
 -12   2  -6  271.35   13.16
 -12   2  -6  268.63   11.91
  12  -2  -6  298.23   12.52
 -12  -2   6  271.39   12.37
 -12  -2   6  255.37   10.60
  12   2   6  268.04   11.48
  12  -2  -6  263.49   12.57
 -12   4   6    3.39    0.59
  12  -4   6    4.83    0.68
  12   4  -6    3.93    0.95
 -12  -4  -6    4.22    0.59
  12  -4   6    4.92    0.63
 -12   4   6    4.47    0.77
 -12  -4  -6    4.28    1.92
  12   4  -6    4.61    0.75
  12   4   6    3.55    1.33
 -12   4  -6    4.70    0.70
 -12   4  -6    3.72    0.56
 -12  -4   6    3.85    0.83
  12  -4  -6    4.16    0.60
 -12  -4   6    3.32    0.87
  12   4   6    3.88    0.60
  12  -4  -6    3.81    0.94
  12  -6   6   15.33    1.11
 -12   6   6   14.97    0.62
  12   6  -6   17.65    1.53
 -12  -6  -6   17.88    0.99
 -12   6   6   17.05    1.23
 -12  -6  -6   17.99    2.25
  12   6  -6   19.04    1.29
  12  -6   6   17.24    0.88
  12   6   6   15.91    2.33
 -12   6  -6   17.97    1.14
 -12   6  -6   17.11    0.78
  12  -6  -6   19.02    0.95
 -12  -6   6   17.22    2.16
 -12  -6   6   15.17    0.97
  12   6   6   15.99    0.98
  12  -6  -6   17.58    1.47
  12  -8   6    2.97    0.64
 -12   8   6    2.97    0.29
 -12  -8  -6    3.40    0.82
  12   8  -6    3.10    0.88
  12  -8   6    2.94    0.34
 -12   8   6    4.18    0.66
  12   8  -6    3.67    0.76
 -12  -8  -6    2.99    1.54
 -12  -8   6    3.50    0.59
  12   8   6    3.55    1.52
 -12   8  -6    2.73    0.63
 -12   8  -6    2.45    0.30
  12  -8  -6    3.12    0.45
 -12  -8   6    3.14    0.78
  12   8   6    2.94    0.53
  12  -8  -6    3.11    0.84
  12 -10   6    3.82    0.73
 -12 -10  -6    4.41    0.55
 -12  10   6    3.93    0.47
  12  10  -6    4.58    1.63
  12 -10   6    4.63    0.29
 -12  10   6    3.71    0.75
  12  10  -6    5.59    0.88
 -12 -10  -6    4.43    2.11
 -12  10  -6    4.37    0.24
  12  10   6    4.10    1.78
 -12  10  -6    4.30    0.75
  12 -10  -6    4.48    0.77
 -12 -10   6    4.23    0.87
  12  10   6    4.19    0.57
  12 -10  -6    4.19    0.90
 -12 -10   6    4.60    1.15
  12 -12   6    8.61    1.00
 -12 -12  -6   10.13    1.16
 -12  12   6   10.58    0.42
  12  12  -6    8.88    1.24
 -12  12   6    9.78    1.53
  12  12  -6   11.67    1.23
 -12 -12  -6    8.49    3.26
  12  12   6    8.14    2.17
 -12  12  -6    9.57    0.28
  12 -12  -6   10.44    0.62
 -12 -12   6   10.12    1.16
  12  12   6    9.49    0.77
 -12 -12   6    9.33    1.00
  12 -12  -6    9.28    1.20
 -12 -14  -6  110.09    4.16
  12 -14   6  107.73    4.74
 -12  14   6  108.22    3.61
  12  14  -6  111.79    5.24
  12 -14   6  106.62    4.87
 -12  14   6  109.04    4.59
  12  14  -6  124.31    7.52
 -12 -14  -6  124.84   11.79
  12  14   6  101.48    7.16
 -12  14  -6   99.92    2.31
  12 -14  -6  119.29    3.87
 -12 -14   6  112.82    5.12
  12  14   6  102.72    3.94
 -12 -14   6  104.88    4.75
  12 -14  -6  106.13    5.07
 -12 -16  -6    0.28    0.39
  12 -16   6    0.64    0.59
  12  16  -6    0.54    0.65
 -12  16   6    0.43    0.18
 -12  16   6    0.40    0.49
  12  16  -6   -0.14    0.74
  12 -16   6    0.33    0.60
 -12 -16  -6    1.07    2.00
  12  16   6   -0.02    1.10
  12  16   6    0.24    0.39
  12 -16  -6    0.93    0.28
 -12 -16   6    1.10    0.63
  12 -16  -6    1.02    0.63
 -12 -16   6    0.18    0.64
 -12 -18  -6  221.65    9.24
  12 -18   6  212.49   10.13
 -12  18   6  203.43    7.30
  12  18  -6  214.28   10.37
  12 -18   6  208.22   10.30
  12  18  -6  240.38   12.10
 -12 -18  -6  224.97   17.03
  12  18   6  206.49   12.89
  12  18   6  208.03    9.83
  12 -18  -6  234.92    8.61
  12 -18  -6  207.55   10.23
 -12 -18   6  216.14   10.69
 -12 -18   6  226.95   10.76
 -12 -20  -6    2.44    0.91
  12 -20   6    3.10    0.90
  12  20  -6    3.19    1.56
  12  20  -6    3.54    1.19
  12 -20   6    2.48    0.94
 -12 -20  -6    3.53    2.11
  12  20   6    2.83    1.45
  12 -20  -6    3.75    0.30
  12  20   6    2.56    0.90
  12 -20  -6    3.70    0.62
  12 -20  -6    3.22    0.96
 -12 -20   6    3.50    1.09
 -12 -20   6    2.84    0.96
  12 -20  -6    3.06    0.76
 -12 -22  -6   18.33    1.08
  12 -22   6   19.20    1.75
  12  22  -6   19.00    2.25
  12 -22   6   18.74    1.80
  12  22  -6   20.68    1.67
 -12 -22  -6   19.63    3.35
  12  22   6   15.67    2.50
  12 -22  -6   17.83    0.71
  12  22   6   17.23    1.04
  12 -22  -6   19.99    1.39
  12 -22  -6   16.68    1.71
 -12 -22   6   19.04    2.10
  12 -22  -6   20.54    0.80
 -12 -22   6   21.77    1.76
 -12 -24  -6   11.02    0.86
  12 -24   6   11.62    1.50
  12  24  -6   13.05    3.11
  12  24  -6   11.40    1.33
 -12 -24  -6   12.44    2.63
  12 -24   6   11.76    1.53
  12 -24  -6   11.51    0.88
  12  24   6    9.62    0.80
  12  24   6   11.69    1.93
  12 -24  -6   10.72    2.28
  12 -24  -6   12.08    1.78
 -12 -24   6   10.32    3.04
 -12 -24   6   11.77    1.44
  12 -24  -6   12.01    0.89
 -12 -26  -6    6.14    1.10
  12 -26   6    7.14    1.32
  12 -26   6    7.00    1.36
  12  26  -6    6.40    1.77
  12  26  -6    6.04    1.78
 -12 -26  -6    6.81    2.10
  12 -26  -6    4.81    0.94
  12  26   6    6.46    0.66
  12  26   6    5.79    1.59
  12 -26  -6    4.85    1.20
 -12 -26   6    6.02    1.72
 -12 -26   6    6.64    1.21
 -12 -28  -6    0.07    0.39
  12 -28   6   -0.05    1.33
  12 -28   6    0.50    0.84
  12  28  -6    0.19    1.01
 -12 -28  -6    1.00    1.12
  12  28  -6   -0.32    0.59
  12  28   6   -0.04    0.36
  12  28   6    1.40    0.91
  12 -28  -6    0.65    0.53
  12 -28  -6   -0.36    0.70
 -12 -28   6    1.60    1.05
 -12 -28   6   -0.22    0.69
 -12 -30  -6   12.23    1.04
  12 -30   6   11.51    3.27
  12 -30   6   12.26    2.04
  12  30  -6   14.68    2.51
  12  30  -6   13.92    1.48
  12  30   6   11.23    2.11
  12  30   6   10.58    0.92
  12 -30  -6   13.38    2.17
  12 -30  -6   12.10    1.74
 -12 -30   6   12.10    2.69
 -12 -30   6   16.11    2.74
  14   0  -6   19.52    1.83
  14   0   6   26.10    2.04
 -14   0  -6   20.23    1.25
 -14   0  -6   20.25    1.36
  14   0  -6   21.82    1.32
 -14   0   6   24.67    1.55
  14   0   6   21.81    1.31
 -14   0   6   20.89    0.97
 -14   2   6    6.80    0.52
  14   2  -6    6.69    1.20
  14  -2   6    7.15    1.10
 -14  -2  -6    7.17    0.76
 -14  -2  -6    6.15    1.64
 -14   2   6    6.81    0.95
  14   2  -6    6.92    0.88
  14  -2   6    8.33    1.34
  14  -2  -6    8.40    1.19
  14   2   6    8.39    1.50
 -14   2  -6    7.25    0.81
 -14   2  -6    8.45    1.16
  14  -2  -6    8.13    0.81
 -14  -2   6    7.98    0.99
  14   2   6    7.31    0.81
 -14  -2   6    6.28    0.96
  14  -4   6    8.69    0.87
 -14   4   6    7.93    0.51
  14   4  -6    7.32    1.26
  14  -4   6    6.55    1.47
 -14  -4  -6    7.25    0.77
 -14  -4  -6    7.96    1.21
 -14   4   6    8.17    0.95
  14   4  -6    7.75    0.95
  14  -4  -6    7.73    1.19
  14   4   6    6.63    2.81
 -14   4  -6    7.69    0.85
 -14   4  -6    7.57    0.61
 -14  -4   6    7.24    1.04
  14  -4  -6    7.70    0.78
  14   4   6    6.96    0.80
 -14  -4   6    7.12    0.66
  14  -6   6    9.24    0.97
 -14   6   6    9.13    0.53
 -14  -6  -6   10.00    0.86
  14   6  -6   11.06    1.41
  14   6  -6   10.52    1.11
 -14  -6  -6   10.52    1.57
  14  -6   6   10.29    0.81
 -14   6   6   10.16    1.05
 -14   6  -6    8.26    0.55
 -14   6  -6   10.60    0.95
  14  -6  -6   11.51    0.82
 -14  -6   6   10.03    1.19
  14   6   6    9.86    0.87
 -14  -6   6    9.41    0.79
  14   6   6   10.69    3.47
  14  -6  -6   10.00    1.27
  14  -8   6   44.03    2.23
 -14   8   6   40.60    1.38
 -14  -8  -6   44.84    1.96
  14   8  -6   42.05    2.79
 -14  -8  -6   50.56    5.62
 -14   8   6   45.33    2.25
  14   8  -6   48.05    2.49
  14  -8   6   44.64    2.14
 -14   8  -6   44.15    2.23
  14  -8  -6   48.97    1.92
 -14  -8   6   44.45    2.56
  14   8   6   43.11    1.98
 -14  -8   6   39.52    2.76
  14   8   6   48.80    6.77
  14  -8  -6   43.80    2.68
  14 -10   6   11.05    1.12
 -14 -10  -6   12.39    0.92
 -14  10   6   10.41    0.79
  14  10  -6   11.01    1.49
  14 -10   6   11.94    0.77
 -14  10   6   11.13    1.70
 -14 -10  -6   10.24    2.34
  14  10  -6   11.66    1.28
 -14  10  -6   10.72    1.77
  14 -10  -6   12.02    0.80
 -14 -10   6   11.60    1.30
  14  10   6   11.09    0.91
 -14 -10   6    9.85    0.99
  14  10   6   12.40    3.94
  14 -10  -6   10.82    1.35
  14 -12   6   24.97    1.70
 -14 -12  -6   27.13    1.38
  14 -12   6   25.64    0.72
 -14  12   6   23.90    0.85
  14  12  -6   26.50    2.10
 -14  12   6   25.06    1.57
  14  12  -6   28.26    3.07
 -14 -12  -6   31.36    3.79
 -14  12  -6   27.27    1.71
  14 -12  -6   27.44    1.22
 -14 -12   6   24.64    1.90
  14  12   6   24.90    1.38
 -14 -12   6   22.54    1.57
  14 -12  -6   25.73    1.95
  14  12   6   23.25    5.15
  14 -14   6   13.90    2.03
 -14 -14  -6   13.92    0.95
 -14  14   6   12.03    0.54
  14  14  -6   12.51    1.52
  14 -14   6   12.47    1.29
 -14  14   6   14.38    1.11
 -14 -14  -6   14.99    3.44
  14  14  -6   14.34    1.47
  14  14   6    9.99    3.78
 -14  14  -6   11.82    0.35
  14 -14  -6   14.11    0.79
 -14 -14   6   13.61    1.45
  14  14   6   12.31    0.96
 -14 -14   6   11.96    1.23
  14 -14  -6   11.09    1.43
  14 -16   6   16.19    1.48
 -14 -16  -6   16.47    1.10
  14  16  -6   16.82    1.76
 -14  16   6   16.40    0.65
  14  16  -6   17.03    1.71
  14 -16   6   17.79    1.51
 -14  16   6   16.61    1.25
 -14 -16  -6   17.97    4.60
  14  16   6   12.33    2.60
  14  16   6   16.56    1.68
  14 -16  -6   18.51    0.90
 -14 -16   6   19.43    1.67
 -14 -16   6   16.48    1.50
  14 -16  -6   16.87    1.62
 -14 -18  -6    2.47    0.55
  14 -18   6    2.59    0.82
 -14  18   6    1.16    0.45
  14  18  -6    2.40    0.93
 -14  18   6    2.20    0.63
 -14 -18  -6    5.82    3.09
  14  18  -6    3.27    1.00
  14 -18   6    2.88    0.81
  14  18   6    2.49    1.39
  14  18   6    1.54    0.55
  14 -18  -6    2.83    0.42
 -14 -18   6    2.13    0.85
 -14 -18   6    3.00    1.48
  14 -18  -6    2.92    0.86
 -14 -20  -6    4.90    0.66
  14 -20   6    4.33    1.67
  14 -20   6    3.74    0.99
  14  20  -6    4.64    1.09
 -14 -20  -6    4.66    3.05
  14  20  -6    4.32    1.24
  14 -20  -6    4.67    0.77
  14  20   6    3.05    1.61
  14  20   6    4.82    0.65
  14 -20  -6    4.33    0.37
  14 -20  -6    4.30    0.49
 -14 -20   6    3.80    1.12
 -14 -20   6    5.37    1.11
  14 -20  -6    4.75    1.04
 -14 -22  -6    2.27    0.99
  14 -22   6    3.47    0.98
  14 -22   6    3.32    0.97
  14  22  -6    3.15    1.67
  14  22  -6    2.04    2.00
 -14 -22  -6    2.30    2.40
  14 -22  -6    2.93    0.71
  14  22   6    2.28    1.45
  14 -22  -6    2.96    0.33
  14  22   6    3.87    0.59
  14 -22  -6    2.11    0.71
 -14 -22   6    2.64    1.10
 -14 -22   6    2.60    1.04
  14 -22  -6    2.44    0.98
 -14 -24  -6   34.69    1.78
  14 -24   6   31.30    2.56
  14 -24   6   30.85    2.53
  14  24  -6   38.30    3.14
 -14 -24  -6   35.45    5.00
  14  24  -6   33.81    2.47
  14  24   6   30.83    3.33
  14 -24  -6   28.89    1.25
  14  24   6   29.21    1.59
  14 -24  -6   34.10    1.97
  14 -24  -6   33.38    1.38
 -14 -24   6   31.42    2.90
 -14 -24   6   35.12    2.68
  14 -24  -6   33.68    2.49
 -14 -26  -6    8.37    0.97
  14 -26   6    9.69    1.63
  14  26  -6    9.74    1.98
 -14 -26  -6   10.08    2.89
  14 -26   6    9.91    1.60
  14  26  -6   10.86    1.41
  14 -26  -6    9.30    1.11
  14  26   6    9.19    2.07
  14  26   6    7.85    0.88
 -14 -26   6    7.45    3.14
 -14 -26   6    8.77    1.62
  14 -26  -6    9.70    1.50
 -14 -28  -6   12.59    1.13
  14 -28   6   11.05    1.96
  14  28  -6   12.66    2.47
 -14 -28  -6   13.93    3.12
  14  28  -6   12.94    1.64
  14 -28   6    9.44    1.95
  14 -28  -6   14.28    1.31
  14  28   6   16.38    3.56
  14  28   6   11.48    1.04
 -14 -28   6   13.07    2.41
 -14 -28   6   12.34    1.87
  14 -28  -6   12.06    1.77
 -16   0   6    0.03    0.28
  16   0  -6   -0.08    1.11
 -16   0  -6    0.48    0.42
 -16   0  -6   -0.09    0.63
 -16   0   6   -0.51    0.50
  16   0  -6    0.44    0.74
  16   0   6    0.14    0.44
  16   0   6    0.36    0.74
 -16   2   6   31.06    1.31
  16   2  -6   34.29    2.61
 -16  -2  -6   33.67    1.83
  16  -2   6   38.23    3.74
 -16  -2  -6   33.98    1.94
 -16   2   6   35.41    2.05
  16   2  -6   36.22    1.95
  16  -2   6   34.00    1.88
  16  -2  -6   33.85    2.49
 -16   2  -6   34.87    1.87
 -16   2  -6   31.03    1.50
 -16  -2   6   35.46    2.11
  16  -2  -6   38.35    1.87
  16   2   6   35.41    1.90
  16   2   6   38.67    3.23
 -16  -2   6   30.92    2.04
 -16   4   6   25.00    1.10
  16   4  -6   28.86    2.35
 -16  -4  -6   29.18    1.61
  16  -4   6   30.12    1.90
 -16  -4  -6   27.90    2.91
 -16   4   6   28.69    1.80
  16   4  -6   31.43    1.80
  16  -4   6   28.85    1.74
  16  -4  -6   25.60    2.19
 -16   4  -6   25.28    1.15
 -16   4  -6   30.15    1.70
 -16  -4   6   30.14    1.97
  16  -4  -6   31.64    2.37
  16   4   6   28.38    1.64
  16   4   6   28.79    3.24
 -16  -4   6   26.34    1.34
  16  -6   6   32.13    1.90
 -16   6   6   27.35    1.15
 -16  -6  -6   30.57    1.70
  16  -6   6   33.73    1.77
  16   6  -6   32.22    2.48
 -16  -6  -6   33.02    2.35
 -16   6   6   32.13    1.88
  16   6  -6   32.81    2.02
  16  -6  -6   29.93    2.33
 -16   6  -6   32.50    1.84
  16  -6  -6   34.93    1.67
 -16  -6   6   32.72    2.12
  16   6   6   30.67    1.73
  16   6   6   33.38    3.73
 -16  -6   6   28.19    1.49
  16  -8   6   12.55    1.26
 -16   8   6   11.91    0.65
 -16  -8  -6   13.68    1.06
  16   8  -6   14.16    1.36
  16   8  -6   12.79    1.70
 -16  -8  -6   13.67    1.77
  16  -8   6   13.47    0.86
 -16   8   6   13.47    1.18
  16  -8  -6   11.38    1.53
 -16   8  -6   13.70    1.22
  16  -8  -6   13.74    0.97
 -16  -8   6   13.67    1.43
  16   8   6   13.01    1.07
  16   8   6   12.23    2.62
 -16  -8   6   11.95    1.57
  16 -10   6    1.75    0.73
 -16 -10  -6    2.45    0.60
 -16  10   6    1.98    0.33
  16  10  -6    2.33    0.96
 -16 -10  -6    3.20    1.23
 -16  10   6    2.32    0.65
  16  10  -6    2.10    0.80
  16 -10   6    1.66    0.54
  16 -10  -6    2.12    0.90
  16 -10  -6    2.48    0.53
 -16  10  -6    2.99    0.70
 -16 -10   6    2.51    0.85
  16  10   6    2.10    0.60
 -16 -10   6    2.47    0.62
  16  10   6    3.38    1.55
 -16  10  -6    1.67    0.21
  16 -12   6    7.98    1.10
 -16 -12  -6    7.82    0.88
 -16  12   6    7.54    0.49
  16  12  -6    7.23    1.40
 -16 -12  -6    9.15    3.37
 -16  12   6    8.03    0.95
  16  12  -6    8.72    1.22
 -16  12  -6    7.06    1.07
  16 -12  -6    8.69    0.75
 -16 -12   6    7.68    1.27
  16  12   6    8.02    0.89
 -16 -12   6    6.61    0.97
  16  12   6    8.27    2.14
  16 -12  -6    7.62    2.05
  16 -14   6   30.63    3.18
 -16 -14  -6   33.15    2.48
 -16  14   6   29.51    1.10
  16  14  -6   31.70    2.50
 -16 -14  -6   32.00    4.24
 -16  14   6   31.77    1.80
  16  14  -6   32.33    3.59
 -16  14  -6   31.90    2.05
  16 -14  -6   34.03    1.53
 -16 -14   6   31.99    2.34
  16  14   6   30.09    1.69
 -16 -14   6   30.73    1.93
  16  14   6   32.15    3.60
  16 -14  -6   28.56    2.28
  16 -16   6    1.41    0.86
 -16 -16  -6    2.71    0.63
 -16  16   6    2.59    0.33
  16  16  -6    2.57    1.07
 -16  16   6    3.12    0.67
 -16 -16  -6    2.98    2.20
  16  16  -6    2.29    0.96
  16 -16   6    2.54    0.84
  16  16   6    2.05    0.64
  16 -16  -6    2.02    0.51
 -16 -16   6    2.53    0.99
 -16 -16   6    2.52    0.82
  16  16   6    2.91    1.57
  16 -16  -6    2.85    0.95
  16 -18   6    3.70    1.05
 -16 -18  -6    4.69    0.72
 -16  18   6    4.20    0.39
  16 -18   6    4.58    1.00
 -16  18   6    4.07    0.75
 -16 -18  -6    4.54    3.03
  16  18  -6    3.61    1.21
  16  18  -6    3.58    1.20
  16  18   6    3.57    0.74
  16 -18  -6    3.71    0.92
 -16 -18   6    3.47    1.13
 -16 -18   6    2.98    1.68
  16  18   6    2.59    2.86
  16 -18  -6    4.07    1.10
  16 -20   6   11.53    2.39
 -16 -20  -6    9.69    1.06
 -16  20   6   10.88    0.60
 -16  20   6   10.70    1.08
 -16 -20  -6   12.24    4.89
  16  20  -6   10.28    1.67
  16  20  -6   10.69    1.73
  16 -20   6   10.79    1.41
  16  20   6    9.46    2.27
  16  20   6    9.62    1.02
  16 -20  -6   11.62    0.83
 -16 -20   6    9.46    1.67
 -16 -20   6   12.02    1.51
  16 -20  -6    9.80    2.48
 -16 -22  -6    0.18    0.46
  16 -22   6   -0.21    0.71
  16 -22   6    0.50    0.69
 -16 -22  -6    0.53    2.23
  16  22  -6    0.53    0.77
  16  22  -6    0.51    0.84
  16 -22  -6    0.13    0.49
  16  22   6    0.80    1.05
  16 -22  -6    0.09    0.25
  16  22   6   -0.39    0.45
  16 -22  -6    0.43    0.34
 -16 -22   6   -0.09    0.80
 -16 -22   6    0.51    0.75
  16 -22  -6   -0.02    0.70
 -16 -24  -6    5.98    0.91
  16 -24   6    5.81    1.37
  16 -24   6    5.47    1.35
 -16 -24  -6    6.43    3.38
  16  24  -6    5.53    1.44
  16  24  -6    6.77    2.69
  16  24   6    5.03    1.93
  16  24   6    4.81    1.36
  16 -24  -6    7.21    0.94
 -16 -24   6    5.95    1.53
 -16 -24   6    4.94    1.51
  16 -24  -6    4.93    1.29
 -18   0   6   74.43    3.02
 -18   0  -6   73.44    3.28
  18   0  -6   81.47    6.79
 -18   0  -6   83.69    3.85
 -18   0   6   81.38    4.08
  18   0  -6   89.30    4.03
  18   0   6   80.59    3.86
  18   0   6   89.86    5.57
 -18   2   6   18.12    1.04
 -18  -2  -6   21.85    1.56
 -18  -2  -6   19.29    1.41
  18   2  -6   19.53    2.19
 -18   2   6   21.43    1.65
  18   2  -6   22.58    1.62
  18  -2   6   20.62    1.64
  18  -2   6   23.62    2.14
 -18  -2   6   18.09    1.12
 -18   2  -6   18.67    1.10
  18  -2  -6   21.17    2.15
 -18   2  -6   18.90    1.55
 -18  -2   6   23.04    1.76
  18  -2  -6   21.28    1.50
  18   2   6   19.86    1.57
  18   2   6   23.73    2.72
 -18   4   6   78.00    3.75
 -18  -4  -6   89.83    4.09
  18  -4   6   88.97    6.14
 -18  -4  -6   83.31    4.16
  18   4  -6   89.89    5.20
 -18   4   6   89.23    5.61
  18   4  -6   94.16    4.41
  18  -4   6   87.55    4.32
 -18  -4   6   80.60    3.43
  18  -4  -6   86.63    5.09
 -18   4  -6   89.09    4.17
 -18  -4   6   89.72    4.56
  18  -4  -6   94.62    5.35
  18   4   6   85.35    4.04
  18   4   6   91.83    6.84
 -18   6   6    0.34    0.32
 -18  -6  -6    0.99    0.55
  18  -6   6   -0.00    0.55
 -18  -6  -6    0.66    1.13
  18   6  -6    1.28    0.87
 -18   6   6    0.81    0.59
  18   6  -6    0.40    1.09
  18  -6   6    0.51    0.63
 -18   6  -6    0.47    0.23
  18  -6  -6    0.21    1.39
 -18   6  -6    1.26    0.61
  18  -6  -6    0.71    0.52
 -18  -6   6    1.11    1.16
  18   6   6    0.35    0.97
  18   6   6    0.61    1.32
 -18  -6   6    0.80    0.46
 -18   8   6   16.82    0.88
 -18  -8  -6   18.51    1.40
  18  -8   6   19.87    1.82
 -18  -8  -6   17.55    1.94
  18   8  -6   19.75    2.12
 -18   8   6   19.67    2.28
  18   8  -6   19.78    1.71
  18  -8   6   18.86    1.64
  18  -8  -6   16.31    1.96
 -18   8  -6   18.23    1.52
  18  -8  -6   20.83    1.32
 -18  -8   6   20.68    1.83
  18   8   6   19.53    1.42
  18   8   6   16.43    3.21
 -18  -8   6   17.40    1.27
  18 -10   6   21.87    1.83
 -18 -10  -6   23.84    2.39
 -18  10   6   20.84    0.99
 -18 -10  -6   22.68    2.46
  18  10  -6   22.79    3.75
 -18  10   6   22.55    1.62
  18  10  -6   24.89    1.99
  18 -10  -6   23.36    2.21
 -18  10  -6   22.96    1.81
 -18 -10   6   23.03    2.08
  18 -10  -6   25.03    1.47
  18  10   6   23.41    1.63
  18  10   6   21.89    3.42
 -18 -10   6   22.08    1.52
  18 -12   6   45.03    2.79
 -18 -12  -6   45.66    2.42
 -18  12   6   40.07    1.58
 -18 -12  -6   45.99    3.98
  18  12  -6   43.56    3.41
 -18  12   6   44.83    2.42
  18  12  -6   47.95    3.04
  18 -12  -6   41.48    4.76
 -18  12  -6   45.19    2.72
 -18 -12   6   48.32    4.69
  18  12   6   42.85    2.39
  18 -12  -6   49.18    2.25
  18  12   6   45.38    4.78
 -18 -12   6   42.24    2.39
  18 -14   6    8.78    2.09
 -18 -14  -6    6.91    0.97
 -18  14   6    5.98    0.55
 -18 -14  -6    7.56    3.50
  18  14  -6    6.12    1.59
 -18  14   6    7.55    0.96
  18  14  -6    6.85    1.36
  18 -14  -6    7.10    1.40
 -18  14  -6    6.27    1.19
  18 -14  -6    7.48    0.84
 -18 -14   6    7.05    1.41
  18  14   6    7.45    1.00
 -18 -14   6    5.94    1.10
  18  14   6    6.06    2.19
  18 -16   6  125.49    6.62
 -18 -16  -6  128.31    7.36
 -18  16   6  115.53    4.36
 -18 -16  -6  132.51   14.71
  18 -16   6  124.23    6.40
 -18  16   6  123.54    5.69
  18  16  -6  123.85    7.33
  18  16  -6  129.10    6.92
  18 -16  -6  118.86    6.73
  18  16   6  121.07    5.68
  18 -16  -6  132.63    5.51
 -18 -16   6  129.87    7.11
 -18 -16   6  121.61    6.23
  18  16   6  117.37    9.00
  18 -18   6    1.34    0.90
 -18 -18  -6    0.50    0.65
 -18  18   6    1.30    0.34
 -18 -18  -6    0.97    2.08
  18 -18   6    0.65    0.86
 -18  18   6    1.18    1.03
  18  18  -6    0.52    1.10
  18  18  -6    1.37    0.99
  18 -18  -6    1.15    0.94
  18  18   6    1.07    1.10
  18 -18  -6    0.97    0.52
 -18 -18   6    1.00    1.02
 -18 -18   6    1.32    0.83
  18  18   6    0.46    1.45
 -20   0   6    0.22    0.35
 -20   0  -6   -0.03    0.37
 -20   0  -6    0.35    0.52
  20   0  -6   -0.36    0.77
 -20   0   6   -0.02    0.57
  20   0  -6    0.19    0.55
  20   0   6    0.17    0.56
  20   0   6   -0.96    0.85
 -20   2   6    3.51    0.61
 -20  -2  -6    3.22    1.22
 -20  -2  -6    4.44    0.92
  20   2  -6    4.36    1.40
 -20   2   6    3.87    0.98
  20   2  -6    5.83    0.97
  20  -2   6    4.52    1.01
  20  -2   6    3.28    1.31
 -20   2  -6    3.18    0.55
 -20  -2   6    5.37    0.66
 -20   2  -6    4.42    0.95
  20  -2  -6    3.88    1.36
 -20  -2   6    4.23    1.03
  20  -2  -6    6.18    0.94
  20   2   6    4.57    1.00
  20   2   6    6.21    1.70
 -20   4   6    1.27    0.43
 -20  -4  -6    1.08    0.67
 -20  -4  -6    1.30    0.71
  20   4  -6    1.38    1.09
 -20   4   6    1.74    0.73
  20   4  -6    1.33    0.77
  20  -4   6    1.51    0.81
  20  -4   6    1.20    1.38
 -20   4  -6    0.80    0.35
 -20  -4   6    1.62    0.88
  20  -4  -6    1.95    1.04
 -20   4  -6    0.91    0.74
 -20  -4   6    1.47    0.81
  20  -4  -6    0.95    0.67
  20   4   6    1.61    1.25
  20   4   6    2.07    1.47
 -20   6   6   39.25    1.79
 -20  -6  -6   44.71    2.77
 -20  -6  -6   45.19    2.61
  20  -6   6   45.67    2.70
  20   6  -6   45.54    3.63
 -20   6   6   45.11    2.63
  20   6  -6   49.59    4.30
  20  -6   6   47.44    2.93
 -20  -6   6   41.01    2.21
  20  -6  -6   44.12    3.50
 -20   6  -6   43.90    2.70
 -20  -6   6   45.81    2.99
  20  -6  -6   47.99    2.58
  20   6   6   44.96    2.66
  20   6   6   49.19    5.08
  -1  -1  -7   58.48    2.95
   1  -1   7   61.73    1.80
  -1   1   7   62.95    1.96
  -1  -1  -7   61.09    2.47
  -1   1   7   63.07    2.06
   1   1  -7   60.53    2.40
   1  -1   7   65.66    4.48
   1   1  -7   60.72    2.67
  -1   1  -7   61.94    2.90
   1   1   7   61.55    1.98
  -1  -1   7   60.87    1.82
  -1   1  -7   62.41    2.37
  -1  -1   7   64.20    2.51
   1  -1  -7   63.25    2.53
   1   1   7   74.28    4.46
   1  -1  -7   59.65    3.91
  -1   3   7    7.33    0.36
   1  -3   7    6.69    0.46
  -1  -3  -7    7.02    0.77
   1  -3   7    8.13    1.68
  -1  -3  -7    6.52    1.07
  -1   3   7    6.36    0.36
   1   3  -7    6.66    1.07
   1   3   7    6.61    0.43
  -1  -3   7    8.13    0.80
   1   3   7    9.53    1.25
   1  -3  -7    5.10    0.79
  -1  -3   7    8.52    0.99
  -1   3  -7    6.34    0.59
  -1   3  -7    7.91    1.38
   1  -3  -7    5.51    0.93
  -1   5   7   36.57    0.72
   1  -5   7   37.14    1.38
  -1  -5  -7   36.10    1.88
   1  -5   7   37.60    3.37
  -1  -5  -7   38.00    2.43
   1   5  -7   36.43    1.52
   1   5  -7   36.40    2.12
  -1   5   7   35.53    0.77
   1  -5  -7   37.96    3.22
   1   5   7   37.29    0.83
  -1  -5   7   36.59    1.70
   1   5   7   40.63    1.89
   1  -5  -7   36.46    1.89
  -1  -5   7   40.55    2.69
  -1   5  -7   39.36    1.42
  -1   5  -7   36.52    1.76
  -1  -7  -7  104.00    5.48
   1  -7   7  104.21    4.69
  -1  -7  -7  102.49    4.53
   1  -7   7  102.97    9.09
   1   7  -7  103.53    4.48
   1   7  -7  100.42    4.04
   1  -7  -7  104.18    4.85
  -1  -7   7  103.96    3.92
   1  -7  -7  104.88    4.44
   1   7   7  112.27    4.16
  -1  -7   7  115.71    6.64
  -1   7  -7  108.58    3.59
  -1   7  -7   99.52    3.90
   1   7   7  102.40    2.49
  -1  -9  -7   54.09    3.51
   1  -9   7   54.05    2.27
   1   9  -7   52.88    2.50
  -1  -9  -7   53.72    2.83
   1  -9   7   54.45    4.14
   1   9  -7   54.11    1.93
  -1  -9   7   54.24    2.09
   1  -9  -7   53.51    2.73
   1   9   7   53.24    1.16
  -1  -9   7   60.93    4.58
   1  -9  -7   53.13    4.42
  -1   9  -7   55.45    2.28
   1   9   7   49.39    1.02
  -1   9  -7   51.96    2.08
  -1 -11  -7   19.49    2.27
   1 -11   7   17.98    1.30
   1  11  -7   20.04    1.51
  -1 -11  -7   17.87    1.69
   1 -11   7   18.18    2.53
   1  11  -7   18.61    0.90
  -1 -11   7   17.12    2.51
   1 -11  -7   19.20    1.61
  -1 -11   7   18.42    0.99
   1 -11  -7   19.01    1.79
  -1  11  -7   18.70    0.97
  -1  11  -7   19.35    0.78
  -1 -13  -7   19.63    2.53
   1  13  -7   21.81    1.78
   1 -13   7   19.04    0.97
  -1 -13  -7   19.59    2.03
   1 -13   7   22.32    2.61
   1  13  -7   20.54    0.94
   1 -13  -7   22.67    2.03
  -1 -13   7   20.93    2.49
   1 -13  -7   20.08    1.86
  -1 -13   7   21.99    1.04
  -1  13  -7   22.02    1.17
  -1 -15  -7   49.34    6.34
   1  15  -7   47.69    2.23
  -1 -15  -7   46.03    3.44
   1 -15   7   45.27    1.62
   1  15  -7   47.69    4.50
   1 -15   7   48.04    5.77
  -1  15  -7   47.65    1.46
   1 -15  -7   48.56    3.36
  -1  15  -7   48.77    2.76
   1 -15  -7   47.39    3.15
  -1 -15   7   44.95    2.33
  -1 -15   7   44.84    3.61
   1  17  -7   29.73    1.13
  -1 -17  -7   26.57    2.91
   1  17  -7   31.76    3.86
   1 -17   7   29.13    1.53
  -1 -17  -7   29.35    3.46
   1 -17   7   28.20    2.78
  -1  17  -7   30.71    2.22
   1 -17  -7   31.51    4.37
  -1  17  -7   29.08    0.94
   1 -17  -7   27.70    4.21
  -1 -17   7   29.31    1.19
  -1 -17   7   28.10    2.70
   1  19  -7    7.20    0.76
  -1 -19  -7    6.65    1.84
   1  19  -7    7.86    2.30
   1 -19   7    6.83    0.46
   1 -19   7    6.50    1.49
  -1 -19  -7    7.17    2.03
   1 -19  -7    7.88    1.63
  -1  19  -7    6.78    0.37
   1 -19  -7    6.31    1.62
  -1 -19   7    7.21    0.54
  -1 -19   7    6.37    2.43
  -1  19  -7    7.66    1.29
   1  21  -7    4.65    0.40
  -1 -21  -7    4.76    1.80
   1  21  -7    5.50    2.06
   1 -21   7    4.98    0.38
   1 -21   7    5.95    1.31
  -1 -21  -7    5.38    1.90
  -1  21  -7    5.93    1.24
   1 -21  -7    4.29    1.65
  -1  21  -7    4.41    0.46
  -1 -21   7    4.79    0.45
  -1 -21   7    4.34    1.26
   1 -21  -7    5.32    2.56
  -1 -23  -7    7.03    2.16
   1 -23   7    5.81    0.37
   1  23  -7    5.51    0.42
   1 -23   7    4.92    1.35
  -1 -23  -7    6.63    2.14
   1  23  -7    5.99    1.29
  -1  23  -7    7.17    1.37
   1 -23  -7    5.43    1.99
  -1  23  -7    5.87    0.44
  -1 -23   7    6.59    0.47
  -1 -23   7    5.07    1.34
   1 -23  -7    7.48    1.76
   1 -25   7   20.17    2.09
  -1 -25  -7   17.46    3.37
   1  25  -7   17.12    2.02
  -1 -25  -7   22.86    5.25
   1 -25   7   18.98    0.94
   1  25  -7   14.75    0.96
   1 -25  -7   16.08    3.39
  -1 -25   7   19.54    0.82
  -1 -25   7   19.61    2.03
   1 -25  -7   17.27    4.64
  -1  25  -7   19.35    2.13
  -1 -27  -7    1.05    1.49
   1  27  -7    2.50    0.98
  -1 -27  -7    1.85    1.72
   1 -27   7    1.96    0.38
   1  27  -7    1.52    0.25
   1 -27   7    1.49    1.01
  -1  27  -7    2.85    1.04
   1 -27  -7    0.62    2.05
   1 -27  -7    0.46    1.53
  -1 -27   7    1.77    0.53
  -1 -27   7    2.11    1.01
  -1  27  -7    1.39    0.25
  -1 -29  -7   18.88    2.74
   1  29  -7   22.98    2.13
  -1 -29  -7   21.26    3.57
   1 -29   7   20.45    0.88
   1 -29   7   21.06    2.16
  -1  29  -7   18.58    0.79
   1 -29  -7   20.17    3.42
  -1  29  -7   23.99    2.23
   1 -29  -7   26.07    3.32
  -1 -29   7   19.38    2.11
  -1 -29   7   21.41    1.23
   1  31  -7    1.31    0.60
  -1 -31  -7    3.87    1.85
  -1 -31  -7    3.36    1.39
   1 -31   7    3.81    1.91
   1  31  -7    3.71    1.12
  -1  31  -7    4.52    1.17
   1 -31  -7    3.89    1.86
   1 -31  -7    3.48    1.58
  -1 -31   7    3.18    1.17
  -1 -31   7    3.83    0.60
   1 -33   7    8.99    1.63
  -1 -33  -7    8.83    2.30
  -1 -33  -7    8.74    1.77
   1  33  -7    9.73    1.59
  -1  33  -7   10.00    1.69
   1 -33  -7   10.74    2.66
   1 -33  -7   10.37    1.96
  -1 -33   7    9.23    1.68
  -1 -35  -7   26.16    3.38
  -1 -35  -7   26.78    2.60
   1  35  -7   25.02    3.92
   1 -35   7   22.20    2.50
   1 -35  -7   28.58    3.72
  -1 -35   7   21.96    2.52
   1 -35  -7   25.69    2.75
  -1 -37  -7    2.19    1.41
   1  37  -7    2.03    1.07
   1 -37   7    2.47    1.11
  -1 -37  -7    0.73    1.76
   1 -37   7    0.80    1.11
   1 -37  -7    1.20    1.49
   1 -37  -7    0.91    1.81
  -1 -37   7    2.08    1.10
  -3  -1  -7  166.60   11.23
   3  -1   7  168.32    5.66
  -3   1   7  169.88    7.03
   3  -1   7  160.82    7.04
   3   1  -7  169.35    6.05
  -3  -1  -7  168.34    6.62
  -3   1   7  163.73    5.82
   3   1  -7  173.29    6.85
   3   1   7  168.51    5.48
  -3   1  -7  162.86    8.08
   3  -1  -7  167.49    5.47
  -3  -1   7  163.84    5.66
  -3  -1   7  173.25    6.99
  -3   1  -7  171.12    7.45
   3  -1  -7  171.98    8.28
   3   1   7  163.22    6.78
  -3  -3  -7   52.10    3.67
   3  -3   7   53.47    1.72
  -3   3   7   54.39    2.54
   3   3  -7   51.83    2.10
  -3  -3  -7   52.69    2.29
   3  -3   7   52.38    3.96
   3   3  -7   52.25    2.18
  -3   3   7   50.12    1.25
   3   3   7   53.76    1.45
  -3   3  -7   50.54    2.95
  -3  -3   7   55.10    2.34
  -3  -3   7   53.03    2.69
  -3   3  -7   52.71    1.85
   3   3   7   51.99    2.05
   3  -3  -7   51.67    2.37
  -3  -5  -7   15.25    2.13
   3  -5   7   17.79    0.81
  -3   5   7   14.80    0.30
  -3  -5  -7   15.05    1.18
   3  -5   7   15.09    1.50
   3   5  -7   15.18    1.14
   3   5  -7   14.96    0.98
   3   5   7   14.35    0.47
  -3  -5   7   15.27    1.08
  -3   5  -7   14.63    1.35
   3   5   7   14.30    0.79
  -3  -5   7   14.79    1.05
  -3   5  -7   15.53    1.10
   3  -5  -7   14.47    1.18
   3  -5  -7   15.63    1.26
   3  -7   7   78.03    2.83
  -3  -7  -7   75.25    3.62
   3   7  -7   79.16    3.74
   3  -7   7   79.46    4.28
  -3  -7  -7   76.08    8.12
   3   7  -7   78.50    3.01
   3   7   7   76.47    2.47
  -3  -7   7   80.65    3.12
   3  -7  -7   77.01    3.50
  -3   7  -7   75.67    4.68
  -3   7  -7   78.34    2.46
  -3  -7   7   83.47    3.77
   3  -7  -7   77.99    3.57
   3   7   7   78.27    2.32
   3  -9   7  130.10    6.86
   3  -9   7  128.35    4.97
  -3  -9  -7  124.58    6.03
   3   9  -7  133.62    6.46
  -3  -9  -7  125.79    8.42
   3   9  -7  129.79    4.87
  -3   9  -7  126.61    5.28
  -3  -9   7  133.96    5.17
   3  -9  -7  128.77    5.75
  -3  -9   7  136.89    6.53
   3   9   7  129.37    4.59
  -3   9  -7  130.34    4.15
   3  -9  -7  131.21    5.87
   3   9   7  125.99    3.85
   3 -11   7  259.26   13.07
   3 -11   7  268.68   14.69
   3  11  -7  287.65   14.59
  -3 -11  -7  268.58   16.56
   3  11  -7  269.69   11.09
   3 -11  -7  269.64   12.86
  -3 -11   7  274.68   11.48
   3 -11  -7  262.09   12.63
  -3  11  -7  272.86   11.67
  -3 -11   7  284.28   14.98
   3  11   7  246.78    8.47
  -3  11  -7  274.07    9.97
   3  13  -7  256.21   10.44
   3 -13   7  246.50   11.31
  -3 -13  -7  268.78    9.62
   3  13  -7  277.19   14.53
   3 -13   7  248.96   17.52
  -3 -13  -7  254.83   21.76
   3 -13  -7  256.96   12.46
   3 -13  -7  247.81   14.68
  -3 -13   7  259.42   10.90
  -3  13  -7  264.23   10.95
   3  13   7  255.90   13.64
   3  13   7  238.44    8.01
  -3 -13   7  271.04   15.24
  -3  13  -7  261.35    9.92
   3  15  -7   46.59    1.86
  -3 -15  -7   50.83    1.37
   3 -15   7   51.08    2.60
   3  15  -7   51.82    3.49
  -3 -15  -7   52.33    5.22
   3 -15   7   48.09    3.72
  -3  15  -7   47.88    1.29
   3 -15  -7   45.54    2.95
  -3 -15   7   50.12    2.00
  -3  15  -7   52.23    1.90
   3 -15  -7   49.30    2.95
  -3 -15   7   51.18    4.58
   3  15   7   45.42    1.08
   3  15   7   50.23    3.79
   3  17  -7   60.41    2.26
  -3 -17  -7   63.22    1.47
   3 -17   7   58.33    3.14
   3  17  -7   64.51    4.03
   3 -17   7   59.65    4.36
  -3 -17  -7   65.34    6.08
  -3  17  -7   58.87    1.54
   3 -17  -7   57.97    3.60
  -3  17  -7   69.09    2.71
   3 -17  -7   61.70    3.55
  -3 -17   7   62.46    2.37
  -3 -17   7   60.02    4.79
   3  17   7   57.51    1.69
   3  17   7   61.58    4.63
  -3 -19  -7   28.22    0.63
   3  19  -7   26.63    1.72
   3 -19   7   25.59    3.14
  -3 -19  -7   26.17    3.93
   3  19  -7   30.10    2.49
   3 -19   7   27.54    4.52
   3 -19  -7   27.39    2.32
   3 -19  -7   27.06    2.50
   3  19   7   25.14    0.74
  -3  19  -7   30.93    0.96
  -3 -19   7   28.25    1.25
  -3 -19   7   25.48    2.89
   3  19   7   26.25    3.30
   3  21  -7    3.72    1.23
  -3 -21  -7    4.39    0.27
   3 -21   7    2.93    1.08
   3  21  -7    4.72    0.80
  -3 -21  -7    3.53    2.14
   3 -21   7    2.65    1.39
   3 -21  -7    3.67    1.23
   3  21   7    4.68    0.41
   3 -21  -7    4.06    1.41
  -3  21  -7    4.23    0.25
  -3 -21   7    4.95    0.52
  -3 -21   7    3.10    1.38
   3  21   7    3.76    1.94
  -3 -23  -7   97.55    2.50
   3 -23   7   92.46    5.17
  -3 -23  -7  101.27    8.28
   3  23  -7  100.33    5.51
   3  23  -7   88.41    3.17
   3 -23   7   90.55    5.90
   3 -23  -7   97.66    5.79
  -3  23  -7   87.31    2.42
   3 -23  -7   89.18    9.06
   3  23   7   86.01    2.53
  -3 -23   7   89.59    5.59
  -3 -23   7   96.88    4.28
   3  23   7  102.64    7.53
  -3 -25  -7  285.55   10.05
  -3 -25  -7  288.38   18.99
   3 -25   7  278.14   15.22
   3  25  -7  299.58   18.82
   3 -25   7  267.16   19.02
   3  25  -7  250.94   10.66
   3 -25  -7  286.85   19.96
   3  25   7  251.63    9.52
   3 -25  -7  267.61   17.42
  -3 -25   7  253.59   14.50
  -3 -25   7  279.12   11.89
   3  25   7  281.03   17.41
  -3 -27  -7   85.48    2.32
  -3 -27  -7   82.57    6.82
   3 -27   7   88.34    5.39
   3  27  -7   86.51    5.08
   3 -27   7   78.37    5.24
   3  27   7   78.65    2.69
   3 -27  -7   80.15    7.30
  -3 -27   7   79.95    7.44
  -3 -27   7   85.81    3.22
   3  27   7   85.65    5.96
   3 -27  -7   87.42    6.12
  -3 -29  -7    4.66    1.59
   3 -29   7    2.73    1.18
   3 -29   7    2.46    1.17
   3  29  -7    1.47    1.04
   3 -29  -7    1.66    2.04
  -3 -29   7    2.93    1.17
  -3 -29   7    1.97    0.46
   3  29   7    3.60    1.25
   3 -29  -7    2.61    2.49
  -3 -31  -7    2.23    1.36
   3 -31   7    1.43    1.06
   3  31  -7    1.60    0.97
   3 -31   7    1.85    1.01
   3  31  -7    0.81    0.32
   3 -31  -7    1.28    1.52
   3 -31  -7    3.23    1.42
  -3 -31   7    2.08    1.05
  -3 -31   7    1.85    0.41
   3  31   7    1.15    1.07
  -3 -33  -7   24.81    3.20
   3 -33   7   25.02    4.10
   3  33  -7   24.66    2.46
   3 -33   7   21.68    2.54
   3 -33  -7   26.38    3.14
   3 -33  -7   27.50    5.87
  -3 -33   7   22.13    2.53
  -3 -33   7   27.11    1.26
   3  33   7   22.30    2.50
   3 -35   7   26.79    4.01
   3  35  -7   27.41    3.97
   3 -35   7   23.41    2.54
  -3 -35  -7   24.05    4.96
   3 -35  -7   19.79    3.69
   3 -35  -7   23.82    4.37
  -3 -35   7   21.28    2.54
   3  35   7   22.79    2.41
   5  -1   7  172.73    6.06
  -5  -1  -7  168.50    6.72
  -5   1   7  174.81    8.78
   5  -1   7  170.47    6.72
  -5  -1  -7  171.71   11.44
   5   1  -7  171.31    8.57
  -5   1   7  160.80    5.18
   5   1  -7  171.09    7.33
   5   1   7  171.24    5.88
   5   1   7  173.57    6.53
  -5   1  -7  167.84    6.42
   5  -1  -7  169.57    7.63
  -5  -1   7  172.44    7.16
  -5   1  -7  172.54   11.10
   5  -1  -7  170.50    7.12
  -5  -1   7  166.39    6.38
   5  -3   7   44.31    1.57
  -5  -3  -7   43.88    2.10
   5  -3   7   43.95    2.85
  -5   3   7   45.48    2.27
   5   3  -7   45.99    2.59
  -5  -3  -7   44.94    4.80
   5   3  -7   44.87    2.10
  -5   3   7   41.47    1.05
   5   3   7   43.47    1.77
   5  -3  -7   46.43    1.54
   5   3   7   45.19    1.67
  -5   3  -7   45.32    1.62
  -5  -3   7   45.17    3.11
  -5   3  -7   48.28    4.12
   5  -3  -7   44.17    2.26
  -5  -3   7   42.97    2.21
   5  -5   7  164.84    6.03
  -5  -5  -7  165.45    5.82
  -5   5   7  168.08    7.07
   5  -5   7  159.89    6.90
   5   5  -7  168.68    8.30
  -5  -5  -7  164.40   11.77
   5   5  -7  161.30    6.59
  -5   5   7  154.45    4.57
   5   5   7  164.16    5.34
   5  -5  -7  159.71    4.97
  -5   5  -7  164.07    5.67
  -5  -5   7  165.14    6.73
  -5   5  -7  172.20   13.23
   5  -5  -7  160.45    6.94
  -5  -5   7  163.68    6.28
   5   5   7  164.28    7.16
  -5   7   7  131.52    3.25
   5  -7   7  129.52    4.82
  -5  -7  -7  132.37    4.35
  -5  -7  -7  131.07   10.08
  -5   7   7  132.18    5.76
   5  -7   7  127.46    7.35
   5   7  -7  136.16    7.13
   5   7  -7  131.22    5.26
   5  -7  -7  127.57    3.20
  -5   7  -7  131.00    4.20
  -5   7  -7  138.84    9.94
  -5  -7   7  129.65    5.30
   5  -7  -7  127.26    5.57
  -5  -7   7  128.98    5.22
   5   7   7  129.00    6.05
   5   7   7  126.80    3.95
   5  -9   7   12.26    0.93
   5  -9   7   13.09    1.38
  -5  -9  -7   14.31    0.60
  -5  -9  -7   13.56    3.17
   5   9  -7   14.44    1.86
   5   9  -7   13.65    1.04
  -5   9  -7   16.87    1.48
  -5  -9   7   13.05    1.04
  -5   9  -7   14.39    0.78
  -5  -9   7   12.59    1.24
   5  -9  -7   13.84    1.33
   5  -9  -7   14.57    1.30
   5   9   7   12.08    0.51
   5   9   7   11.72    2.57
   5  11  -7  120.68    4.86
   5 -11   7  121.17    4.95
  -5 -11  -7  127.23    4.41
  -5 -11  -7  119.42   10.02
   5  11  -7  132.91    7.31
   5 -11   7  120.68    8.00
   5  11   7  131.36    6.82
  -5 -11   7  122.86    5.79
  -5  11  -7  128.92    5.40
   5 -11  -7  119.78    5.65
  -5 -11   7  126.82    5.05
  -5  11  -7  125.88    3.67
   5  11   7  117.40    3.56
   5 -11  -7  125.04    7.36
   5  13  -7  176.64    7.11
  -5 -13  -7  184.63    6.49
   5 -13   7  172.98    7.44
  -5 -13  -7  176.78   13.39
   5 -13   7  169.19    8.81
   5  13  -7  186.90   10.00
   5  13   7  181.37    9.98
  -5  13  -7  179.94    7.13
   5 -13  -7  171.81    8.16
  -5 -13   7  174.94    7.18
  -5 -13   7  177.43    8.84
   5 -13  -7  180.36    8.17
   5  13   7  163.59    5.33
  -5  13  -7  178.74    5.82
   5  15  -7   10.88    0.90
  -5 -15  -7   10.85    0.43
   5 -15   7    9.73    1.73
  -5 -15  -7   11.57    3.02
   5 -15   7   10.61    1.60
   5  15  -7   11.39    1.76
   5 -15  -7   13.57    1.27
   5  15   7   10.73    1.99
  -5  15  -7   10.10    0.62
   5 -15  -7   11.10    1.36
  -5 -15   7   10.02    1.41
   5  15   7    9.75    0.62
  -5 -15   7   12.04    1.66
  -5  15  -7   10.15    0.42
  -5 -17  -7   52.23    1.41
   5  17  -7   48.41    2.93
  -5 -17  -7   52.79    5.45
   5 -17   7   47.49    2.59
   5  17  -7   53.54    3.63
   5 -17   7   49.10    3.46
   5 -17  -7   50.70    2.87
   5  17   7   51.41    4.39
  -5  17  -7   50.30    1.64
   5 -17  -7   46.45    2.98
  -5 -17   7   51.23    3.87
  -5 -17   7   52.63    2.20
  -5 -19  -7   43.23    1.13
  -5 -19  -7   38.95    4.47
   5 -19   7   36.53    2.34
   5  19  -7   39.84    2.42
   5 -19   7   37.05    3.09
   5  19  -7   43.88    3.09
  -5 -19   7   41.41    3.73
   5  19   7   44.45    4.22
   5  19   7   35.37    1.05
   5 -19  -7   38.41    2.78
   5 -19  -7   39.63    2.50
  -5 -19   7   38.98    1.78
  -5 -21  -7   15.66    0.51
   5 -21   7   11.53    3.22
  -5 -21  -7   15.89    2.82
   5 -21   7   13.59    1.51
   5  21  -7   15.18    1.48
   5  21  -7   14.39    1.94
   5  21   7   14.52    2.68
  -5 -21   7   13.95    2.52
   5 -21  -7   12.96    1.82
   5  21   7   12.95    0.78
   5 -21  -7   14.67    1.56
  -5 -21   7   15.05    1.00
  -5 -23  -7   75.91    2.14
  -5 -23  -7   76.02    9.16
   5 -23   7   69.63    4.03
   5  23  -7   81.49    4.73
   5  23  -7   70.22    3.66
   5 -23   7   71.32    4.93
   5  23   7   73.88    5.47
   5 -23  -7   73.89    4.28
   5 -23  -7   69.63    4.65
   5  23   7   64.98    2.14
  -5 -23   7   76.83    3.06
  -5 -23   7   70.87    5.33
  -5 -25  -7   49.01    1.71
  -5 -25  -7   47.78    4.58
   5 -25   7   47.67    3.29
   5  25  -7   51.36    3.58
   5 -25   7   48.79    4.00
   5  25  -7   46.49    2.63
   5  25   7   48.38    4.00
   5 -25  -7   51.53    4.99
   5 -25  -7   46.68    3.90
   5  25   7   42.33    1.54
  -5 -25   7   43.44    3.94
  -5 -25   7   48.93    2.15
  -5 -27  -7   22.25    0.76
  -5 -27  -7   22.40    3.05
   5 -27   7   21.65    3.69
   5 -27   7   21.02    2.61
   5  27  -7   20.49    1.68
   5  27  -7   22.25    2.37
   5 -27  -7   22.63    2.38
   5  27   7   19.42    2.52
  -5 -27   7   19.30    2.58
   5  27   7   21.71    0.95
   5 -27  -7   23.43    2.97
  -5 -27   7   22.80    1.30
  -5 -29  -7   17.19    0.91
  -5 -29  -7   17.00    4.26
   5 -29   7   18.38    3.50
   5  29  -7   17.85    2.09
   5 -29   7   17.60    2.40
   5  29  -7   14.86    1.42
   5  29   7   18.81    2.17
   5  29   7   15.55    0.76
   5 -29  -7   17.15    2.90
  -5 -29   7   16.40    2.29
  -5 -29   7   17.40    1.14
   5 -29  -7   17.22    2.33
   5 -31   7   33.43    4.84
   5  31  -7   34.38    2.85
   5 -31   7   32.88    4.89
   5  31  -7   27.84    1.44
  -5 -31  -7   32.50    3.51
   5  31   7   32.57    2.82
   5 -31  -7   35.25    6.70
  -5 -31   7   29.36    3.03
  -5 -31   7   34.17    1.69
   5 -31  -7   36.41    3.40
   5 -33   7   20.37    2.60
   5 -33   7   22.82    4.22
   5  33  -7   22.91    2.46
   5  33  -7   18.00    1.19
  -5 -33  -7   24.89    2.94
   5  33   7   21.62    2.34
   5 -33  -7   24.12    3.13
   5 -33  -7   23.75    3.11
  -5 -33   7   21.56    2.53
  -5 -33   7   23.28    1.37
   5 -35   7   34.60    3.21
   5  35  -7   33.00    4.64
   5 -35   7   30.91    3.14
  -5 -35  -7   32.81    3.57
   5 -35  -7   32.96    3.46
   5 -35  -7   32.91    4.06
  -5 -35   7   34.44    1.79
  -5 -35   7   27.03    3.10
   5  35   7   28.77    4.35
   7  -1   7    2.15    0.65
  -7  -1  -7    2.10    2.05
  -7  -1  -7    2.08    0.44
  -7   1   7    2.32    1.10
   7   1  -7    2.12    0.81
   7   1  -7    1.56    0.68
  -7   1   7    1.57    0.26
   7  -1   7    1.97    0.46
   7   1   7    2.11    0.61
  -7   1  -7    1.28    1.65
  -7   1  -7    3.02    0.48
  -7  -1   7    1.65    0.64
   7  -1  -7    2.19    0.68
  -7  -1   7    1.66    0.31
   7  -1  -7    2.09    1.18
   7   1   7    2.51    0.54
   7  -3   7   11.12    1.18
  -7  -3  -7   13.07    3.03
  -7  -3  -7   12.03    0.73
   7  -3   7   11.41    0.90
  -7   3   7   11.35    1.10
   7   3  -7   14.14    1.48
   7   3  -7   11.28    1.83
  -7   3   7   10.83    0.41
   7   3   7   10.73    0.63
  -7   3  -7   13.95    2.15
   7   3   7   11.10    1.08
  -7   3  -7   11.84    0.69
   7  -3  -7   12.30    1.66
  -7  -3   7   11.40    1.74
   7  -3  -7   11.01    1.17
  -7  -3   7   11.09    0.67
  -7   5   7   40.91    1.01
   7  -5   7   43.25    1.73
  -7  -5  -7   41.54    5.00
  -7  -5  -7   44.04    1.60
  -7   5   7   43.95    2.27
   7   5  -7   50.59    3.16
   7  -5   7   43.42    2.87
   7   5  -7   43.02    2.22
  -7   5  -7   47.78    4.98
   7   5   7   44.98    2.47
  -7   5  -7   42.83    1.42
   7  -5  -7   46.60    2.60
  -7  -5   7   44.89    2.21
   7  -5  -7   42.77    2.36
  -7  -5   7   42.00    1.72
   7   5   7   42.84    1.44
  -7   7   7   47.31    1.07
   7  -7   7   48.72    2.00
  -7  -7  -7   48.46    5.20
  -7  -7  -7   49.02    1.66
   7  -7   7   47.30    2.35
  -7   7   7   49.59    2.53
   7   7  -7   56.20    3.65
   7   7  -7   48.80    2.43
  -7   7  -7   52.71    2.92
   7   7   7   51.07    2.99
  -7   7  -7   48.60    1.44
   7  -7  -7   52.20    1.73
  -7  -7   7   51.71    3.44
   7  -7  -7   48.33    3.88
  -7  -7   7   46.99    2.07
   7   7   7   48.20    1.57
   7   9  -7   26.01    1.62
  -7   9   7   25.04    0.58
   7  -9   7   24.80    1.34
  -7  -9  -7   26.90    1.00
  -7  -9  -7   21.22    3.75
  -7   9   7   26.61    1.73
   7   9  -7   30.86    2.64
   7  -9   7   24.73    1.66
  -7   9  -7   26.66    1.53
   7   9   7   27.30    2.32
   7  -9  -7   26.92    0.84
  -7   9  -7   26.47    0.77
  -7  -9   7   26.16    1.56
   7  -9  -7   25.39    1.81
  -7  -9   7   25.16    1.51
   7   9   7   25.22    0.95
   7  11  -7   18.98    2.20
  -7 -11  -7   20.09    5.56
   7 -11   7   20.19    1.28
  -7 -11  -7   22.19    0.83
   7 -11   7   20.88    1.62
   7  11  -7   26.33    2.50
   7  11   7   23.67    2.33
   7 -11  -7   21.69    0.55
  -7 -11   7   22.93    1.39
  -7  11  -7   21.81    0.76
   7 -11  -7   21.99    1.69
  -7 -11   7   21.39    1.55
   7  11   7   20.31    0.79
  -7  11  -7   22.88    1.02
   7  13  -7   13.21    1.11
  -7 -13  -7   11.39    2.69
  -7 -13  -7   14.29    0.60
   7 -13   7   13.16    1.05
   7  13  -7   16.84    2.01
   7 -13   7   14.47    1.39
   7  13   7   15.82    2.09
   7 -13  -7   13.63    1.35
  -7 -13   7   12.91    1.10
  -7  13  -7   13.53    0.33
   7  13   7   12.65    0.58
   7 -13  -7   13.63    1.27
  -7  13  -7   13.68    0.74
  -7 -15  -7    4.62    1.95
  -7 -15  -7    5.34    0.38
   7  15  -7    6.09    0.78
   7 -15   7    4.61    0.81
   7 -15   7    5.34    1.08
   7  15  -7    5.85    1.42
   7  15   7    7.30    1.63
   7 -15  -7    4.68    1.01
  -7 -15   7    5.19    0.76
  -7 -15   7    6.99    1.11
   7 -15  -7    5.98    0.92
   7  15   7    4.94    0.38
  -7 -17  -7   16.60    2.76
  -7 -17  -7   17.28    0.68
   7 -17   7   19.18    1.37
   7  17  -7   18.99    1.20
   7 -17   7   16.33    1.77
   7  17  -7   16.73    2.20
   7  17   7   20.80    2.70
   7 -17  -7   15.84    1.60
  -7 -17   7   19.19    3.04
   7  17   7   15.37    0.93
   7 -17  -7   17.33    1.47
  -7 -17   7   17.57    1.90
  -7 -19  -7   12.59    0.55
  -7 -19  -7   13.70    2.37
   7 -19   7   11.46    1.22
   7  19  -7   13.00    0.98
   7 -19   7   10.00    1.61
   7  19  -7   13.99    1.91
   7 -19  -7   11.71    1.27
   7  19   7   10.56    0.51
   7  19   7   11.44    2.26
  -7 -19   7   12.59    1.80
  -7 -19   7   10.98    1.03
  -7 -21  -7    6.41    0.63
  -7 -21  -7    6.23    3.09
   7 -21   7    5.10    1.08
   7  21  -7    5.72    0.75
   7 -21   7    7.01    2.31
   7  21  -7    5.71    1.50
   7 -21  -7    5.55    1.74
   7  21   7    7.73    1.73
   7 -21  -7    6.08    1.22
   7  21   7    5.60    0.38
  -7 -21   7    5.75    1.66
  -7 -21   7    7.16    0.82
  -7 -23  -7    3.33    0.33
   7 -23   7    2.19    0.99
   7  23  -7    3.40    1.05
   7 -23   7    4.12    1.23
   7  23  -7    3.60    1.31
  -7 -23  -7    4.39    1.62
  -7 -23   7    3.99    1.58
   7  23   7    4.28    1.38
   7 -23  -7    2.98    1.15
   7 -23  -7    2.81    0.93
   7  23   7    2.36    0.50
  -7 -23   7    3.20    0.69
  -7 -25  -7   11.01    0.81
   7 -25   7    9.33    1.50
   7  25  -7    9.00    0.90
   7  25  -7   10.76    1.78
   7 -25   7   10.51    1.83
  -7 -25  -7   11.91    2.18
   7 -25  -7    9.13    1.41
   7  25   7   10.33    1.84
   7  25   7    7.78    0.77
   7 -25  -7   10.68    1.70
  -7 -25   7   10.16    2.35
  -7 -25   7    9.74    1.60
  -7 -27  -7   15.69    0.69
   7 -27   7   14.68    1.86
   7 -27   7   13.77    2.23
   7  27  -7   14.29    1.06
   7  27  -7   15.54    2.10
  -7 -27  -7   14.93    2.44
   7 -27  -7   14.37    1.75
   7  27   7   14.92    2.04
   7  27   7   13.03    0.73
   7 -27  -7   15.82    2.18
  -7 -27   7   12.92    2.49
  -7 -27   7   14.94    1.18
  -7 -29  -7    7.38    0.80
   7 -29   7    8.78    1.67
   7  29  -7    6.87    1.66
   7 -29   7    8.21    1.89
   7  29  -7    6.37    0.79
  -7 -29  -7    7.97    3.18
   7 -29  -7    7.14    1.55
   7  29   7    6.72    0.97
   7  29   7    7.90    1.57
   7 -29  -7    9.34    1.88
  -7 -29   7    8.42    2.00
  -7 -29   7    8.00    0.93
  -7 -31  -7   50.96    1.84
   7 -31   7   48.79    4.06
   7  31  -7   55.03    4.02
   7 -31   7   45.63    6.35
   7  31  -7   44.95    2.27
  -7 -31  -7   53.27    4.46
   7 -31  -7   53.60    3.89
   7  31   7   45.98    5.39
   7  31   7   44.29    2.68
   7 -31  -7   50.12    4.75
  -7 -31   7   45.79    4.38
  -7 -31   7   52.77    2.65
   7 -33   7   14.01    2.34
   7  33  -7   13.91    3.46
   7 -33   7   12.63    2.45
  -7 -33  -7   12.30    2.43
   7  33  -7   11.86    1.08
   7  33   7   12.63    1.95
   7 -33  -7   17.71    2.76
  -7 -33   7   14.25    2.45
   7 -33  -7   16.02    2.31
  -7 -33   7   14.51    1.27
   9  -1   7    2.16    0.68
   9  -1   7    1.30    0.46
  -9  -1  -7    1.71    0.43
  -9   1   7    1.45    0.64
   9   1  -7    1.62    0.60
   9   1  -7    1.24    0.70
  -9   1   7    1.21    0.27
  -9  -1  -7    2.01    1.24
   9   1   7    1.72    0.66
   9   1   7    1.74    0.91
  -9   1  -7    2.71    0.47
   9  -1  -7    1.76    0.90
  -9  -1   7    2.10    0.64
   9  -1  -7    1.24    0.69
  -9   1  -7    1.98    1.65
  -9  -1   7    1.23    0.30
   9  -3   7   20.29    0.97
   9  -3   7   20.49    1.08
  -9  -3  -7   21.02    1.05
  -9   3   7   19.39    1.46
   9   3  -7   24.11    1.55
  -9   3   7   18.80    0.64
  -9  -3  -7   21.86    3.13
   9   3  -7   21.58    2.45
   9   3   7   21.24    1.47
  -9   3  -7   21.77    1.19
   9   3   7   21.79    1.49
  -9  -3   7   20.53    1.44
   9  -3  -7   20.30    1.56
  -9   3  -7   19.81    1.78
  -9  -3   7   18.77    1.34
   9  -3  -7   22.00    1.16
  -9   5   7  116.39    3.47
   9  -5   7  123.70    4.70
  -9  -5  -7  127.64    4.66
  -9   5   7  125.63    5.41
   9   5  -7  143.86    7.89
   9  -5   7  114.97    3.95
  -9  -5  -7  135.73    9.99
   9   5  -7  121.62    5.39
  -9   5  -7  116.83    4.89
   9   5   7  130.17    6.07
   9  -5  -7  136.99    4.80
  -9  -5   7  126.61    5.44
   9  -5  -7  122.08    5.52
  -9  -5   7  114.83    4.31
  -9   5  -7  129.18    5.40
   9   5   7  122.02    5.10
   9   7  -7  161.36    7.22
  -9   7   7  157.96    4.86
   9  -7   7  162.28    6.52
  -9  -7  -7  169.60    6.26
  -9   7   7  169.07    8.92
   9   7  -7  187.42    8.57
   9  -7   7  157.60    6.89
  -9  -7  -7  179.75   13.74
  -9   7  -7  166.12    6.05
   9   7   7  174.81   10.80
   9  -7  -7  177.32    7.06
  -9  -7   7  169.34    7.25
  -9   7  -7  163.87    6.47
   9  -7  -7  160.62    7.39
  -9  -7   7  157.44    6.31
   9   7   7  160.58    5.86
   9  -9   7   99.84    4.33
   9   9  -7   96.93    5.94
   9  -9   7  101.27    4.07
  -9   9   7  100.90    2.67
  -9  -9  -7  102.32    3.57
   9   9  -7  111.78    5.45
  -9   9   7  105.47    4.52
  -9  -9  -7   98.81    8.37
  -9   9  -7  100.70    2.90
   9  -9  -7  110.01    4.08
  -9   9  -7   95.34    3.25
  -9  -9   7  104.95    5.88
   9  -9  -7   94.64    6.19
  -9  -9   7   98.44    5.12
   9   9   7  110.19    5.92
   9   9   7   99.42    3.41
   9  11  -7  100.41    4.46
   9 -11   7  104.20    4.22
  -9 -11  -7  104.45    4.21
  -9  11   7  103.21    2.66
  -9  11   7  106.10    4.55
   9 -11   7  100.93    4.56
   9  11  -7  111.83    5.76
  -9 -11  -7   97.11    7.82
  -9  11  -7   92.12    2.85
  -9  11  -7  102.63    2.74
   9 -11  -7  111.29    3.34
  -9 -11   7  110.06    4.65
   9 -11  -7   97.79    4.70
  -9 -11   7   99.04    4.30
   9  11   7   99.01    3.36
   9  11   7  110.43    6.36
   9 -13   7   28.28    1.63
  -9 -13  -7   29.69    1.13
   9  13  -7   28.77    1.82
  -9  13   7   28.32    0.74
  -9  13   7   29.59    1.77
   9  13  -7   32.22    2.63
   9 -13   7   28.47    1.86
  -9 -13  -7   30.81    3.72
   9 -13  -7   31.42    0.87
  -9 -13   7   30.04    1.75
  -9  13  -7   28.60    0.69
   9 -13  -7   28.83    1.96
  -9 -13   7   27.96    2.70
   9  13   7   27.75    1.08
   9  13   7   31.28    3.01
  -9 -15  -7   23.10    0.94
   9 -15   7   22.74    1.47
   9  15  -7   21.86    1.54
   9 -15   7   21.78    1.75
   9  15  -7   24.36    2.46
  -9 -15  -7   24.13    3.20
   9 -15  -7   21.81    0.60
   9 -15  -7   24.10    0.82
   9 -15  -7   20.72    1.73
  -9 -15   7   24.01    1.53
  -9 -15   7   23.45    1.75
   9  15   7   21.58    1.32
   9  15   7   25.26    2.88
   9 -15  -7   23.34    1.61
  -9 -17  -7   64.74    2.69
   9 -17   7   59.98    3.01
   9  17  -7   62.76    4.12
   9 -17   7   61.17    3.44
   9  17  -7   66.57    4.49
  -9 -17  -7   62.67    5.23
   9 -17  -7   61.66    1.58
   9 -17  -7   65.50    1.69
   9 -17  -7   60.99    3.38
   9  17   7   57.06    1.97
  -9 -17   7   65.50    3.04
  -9 -17   7   61.97    3.50
   9  17   7   66.02    4.96
   9 -17  -7   65.73    4.36
  -9 -19  -7   51.63    1.76
   9 -19   7   49.12    2.72
   9  19  -7   48.35    2.46
   9 -19   7   50.10    3.13
   9  19  -7   57.33    6.25
  -9 -19  -7   53.12    6.99
   9 -19  -7   47.06    3.03
   9  19   7   44.56    1.59
  -9 -19   7   51.20    2.57
   9 -19  -7   52.01    2.69
  -9 -19   7   51.81    3.36
   9  19   7   49.49    4.09
  -9 -21  -7   21.65    1.33
   9 -21   7   21.69    2.11
   9 -21   7   21.39    2.73
   9  21  -7   21.60    1.46
   9  21  -7   23.60    2.65
  -9 -21  -7   19.27    3.02
   9 -21  -7   23.48    1.69
   9  21   7   19.07    0.84
   9 -21  -7   22.14    2.02
  -9 -21   7   20.94    2.37
  -9 -21   7   22.89    2.37
   9  21   7   21.05    2.57
  -9 -23  -7   37.59    1.41
   9 -23   7   37.26    2.54
   9  23  -7   35.74    2.03
   9 -23   7   35.72    2.94
   9  23  -7   38.30    3.43
  -9 -23  -7   37.99    3.76
   9 -23  -7   37.03    2.35
   9 -23  -7   35.70    4.15
  -9 -23   7   37.10    2.16
   9  23   7   35.87    3.33
  -9 -25  -7   65.29    2.29
   9 -25   7   62.07    3.80
   9  25  -7   69.85    6.93
   9  25  -7   61.20    4.10
   9 -25   7   63.07    6.35
  -9 -25  -7   65.79    5.21
   9 -25  -7   63.15    3.53
   9 -25  -7   58.50    4.01
  -9 -25   7   64.52    7.80
  -9 -25   7   64.58    3.27
   9  25   7   62.64    6.57
  -9 -27  -7   51.28    1.90
   9 -27   7   46.75    3.46
   9  27  -7   51.64    4.16
   9  27  -7   47.06    2.49
   9 -27   7   46.93    3.92
  -9 -27  -7   50.01    4.39
   9  27   7   47.22    5.63
   9 -27  -7   51.36    4.46
   9 -27  -7   46.35    3.71
  -9 -27   7   48.45    4.85
  -9 -27   7   51.75    2.78
  -9 -29  -7   33.07    1.37
   9 -29   7   28.90    2.96
   9  29  -7   31.64    3.25
   9 -29   7   28.93    3.22
   9  29  -7   29.05    1.84
  -9 -29  -7   31.68    5.70
   9 -29  -7   34.48    2.55
   9  29   7   30.27    2.93
   9 -29  -7   30.49    3.08
  -9 -29   7   29.45    4.10
  -9 -29   7   32.67    2.13
  -9 -31  -7   16.75    0.94
   9 -31   7   17.40    2.37
   9  31  -7   18.37    2.47
   9 -31   7   16.03    2.58
  -9 -31  -7   16.28    2.78
   9  31  -7   15.17    1.34
   9 -31  -7   18.94    2.02
   9  31   7   14.95    2.17
   9 -31  -7   17.05    2.50
  -9 -31   7   15.36    2.94
  -9 -31   7   18.50    1.56
  -9 -33  -7   16.42    1.57
   9 -33   7   21.52    2.73
   9  33  -7   22.40    2.71
   9 -33   7   18.80    2.97
  -9 -33  -7   20.49    3.00
   9  33  -7   19.49    2.35
   9 -33  -7   21.91    2.36
   9  33   7   18.46    2.34
   9 -33  -7   22.47    2.95
  -9 -33   7   17.52    5.13
  -9 -33   7   22.40    1.76
  11  -1   7   63.34    3.22
 -11  -1  -7   63.02    2.50
  11  -1   7   65.31    2.64
 -11   1   7   65.90    3.01
  11   1  -7   72.14    3.82
 -11  -1  -7   66.72    3.68
 -11   1   7   57.29    1.86
  11   1  -7   63.49    3.23
  11   1   7   62.40    2.39
 -11   1  -7   63.82    3.43
 -11  -1   7   65.42    2.99
 -11   1  -7   63.82    3.17
  11  -1  -7   73.28    2.81
  11   1   7   67.44    4.00
 -11  -1   7   57.95    1.99
  11  -1  -7   63.70    4.57
 -11   3   7    3.03    0.30
  11  -3   7    3.78    0.56
  11   3  -7    3.06    1.42
 -11  -3  -7    3.23    0.53
  11  -3   7    2.76    0.78
 -11   3   7    3.69    0.76
  11   3  -7    3.58    0.70
 -11  -3  -7    3.76    1.22
 -11   3  -7    3.09    0.60
  11  -3  -7    3.79    0.55
 -11  -3   7    3.55    0.76
 -11   3  -7    3.17    0.67
  11   3   7    3.51    0.82
 -11  -3   7    3.42    0.42
  11  -3  -7    3.51    0.85
  11   3   7    3.02    0.49
  11   5  -7    0.46    0.55
 -11   5   7   -0.01    0.17
  11  -5   7    0.39    0.38
 -11  -5  -7    0.22    0.33
  11  -5   7    0.61    0.26
 -11   5   7    0.40    0.50
  11   5  -7    0.22    0.50
 -11  -5  -7    3.02    1.00
  11  -5  -7    0.45    0.55
 -11   5  -7    0.17    0.41
 -11   5  -7    0.29    0.36
 -11  -5   7    0.05    0.50
  11   5   7   -0.13    0.62
 -11  -5   7    0.69    0.32
  11  -5  -7    0.15    0.95
  11   5   7   -0.09    0.32
  11  -7   7   27.94    0.95
  11  -7   7   27.15    2.17
 -11   7   7   26.02    0.79
  11   7  -7   28.21    1.94
 -11  -7  -7   27.80    1.26
  11   7  -7   30.41    1.89
 -11   7   7   30.36    1.72
 -11  -7  -7   30.69    3.65
 -11   7  -7   26.57    1.54
 -11   7  -7   26.51    1.54
  11  -7  -7   30.27    1.20
 -11  -7   7   27.89    2.71
  11  -7  -7   25.77    1.89
  11   7   7   31.57    2.40
 -11  -7   7   27.13    1.30
  11   7   7   28.31    1.22
  11  -9   7   42.36    2.00
  11   9  -7   43.50    2.44
 -11   9   7   40.45    1.11
 -11  -9  -7   43.59    1.69
  11  -9   7   42.29    2.16
 -11   9   7   43.00    3.23
  11   9  -7   45.71    2.62
 -11  -9  -7   46.03    5.33
 -11   9  -7   37.18    1.60
 -11   9  -7   42.78    1.18
  11  -9  -7   45.94    2.07
 -11  -9   7   45.08    2.33
 -11  -9   7   39.37    1.85
  11  -9  -7   41.29    2.50
  11   9   7   43.60    3.32
  11   9   7   41.19    1.60
  11 -11   7    3.59    1.13
 -11 -11  -7    3.48    0.48
  11  11  -7    3.44    0.90
  11 -11   7    3.08    0.77
 -11  11   7    3.96    0.77
  11  11  -7    4.25    0.98
 -11 -11  -7    2.54    2.53
 -11  11  -7    3.55    0.20
 -11 -11   7    3.46    0.82
  11 -11  -7    3.77    0.40
  11 -11  -7    3.03    0.90
 -11 -11   7    3.68    1.12
  11  11   7    4.06    0.48
  11  11   7    3.44    2.31
  11 -13   7   10.68    1.05
 -11 -13  -7   11.96    1.11
  11  13  -7   11.03    1.26
 -11  13   7   10.97    0.50
 -11  13   7   10.85    1.12
  11 -13   7   10.71    1.16
  11  13  -7   12.23    1.51
 -11 -13  -7   11.82    3.16
  11  13   7    9.69    3.50
 -11  13  -7   10.86    0.31
  11 -13  -7   12.12    0.56
 -11 -13   7   11.60    1.19
  11 -13  -7   10.62    1.32
 -11 -13   7   10.61    1.11
  11  13   7   10.81    0.71
  11 -15   7   35.97    2.06
 -11 -15  -7   38.31    1.52
  11  15  -7   36.57    2.26
 -11  15   7   35.59    1.12
 -11  15   7   36.79    2.07
  11 -15   7   35.19    2.18
  11  15  -7   39.59    2.84
 -11 -15  -7   39.43    4.74
  11  15   7   38.77    5.61
  11 -15  -7   41.07    1.23
 -11 -15   7   36.90    2.26
  11  15   7   34.43    1.44
  11 -15  -7   36.86    2.37
 -11 -15   7   34.50    2.17
 -11 -17  -7    1.43    0.63
  11 -17   7    1.41    0.67
  11  17  -7    1.46    0.71
  11 -17   7    1.57    0.77
  11  17  -7    1.71    1.02
 -11 -17  -7    1.33    1.62
  11 -17  -7    1.24    0.26
  11 -17  -7    1.52    0.24
 -11 -17   7    1.39    0.71
  11 -17  -7    1.33    1.31
  11  17   7    1.19    0.38
 -11 -17   7    1.84    1.28
  11  17   7    0.37    2.00
  11 -17  -7    1.39    0.66
 -11 -19  -7   10.95    0.74
  11 -19   7   11.40    1.26
  11  19  -7   10.64    2.01
  11 -19   7   10.32    1.43
  11  19  -7   12.52    1.92
 -11 -19  -7   11.84    2.59
  11 -19  -7   11.07    0.56
  11 -19  -7   12.70    0.67
  11  19   7   10.56    0.71
 -11 -19   7   10.82    2.05
  11 -19  -7   11.38    1.41
 -11 -19   7   11.82    1.50
  11  19   7   11.87    3.27
  11 -19  -7   12.66    1.92
 -11 -21  -7    4.27    0.53
  11 -21   7    4.84    1.00
  11  21  -7    5.20    0.93
  11  21  -7    5.22    1.54
 -11 -21  -7    4.47    1.90
  11 -21   7    4.46    1.14
  11  21   7    4.27    0.51
  11 -21  -7    5.19    0.89
  11 -21  -7    4.40    1.09
 -11 -21   7    3.55    1.25
 -11 -21   7    4.66    0.96
  11  21   7    4.79    1.47
 -11 -23  -7    3.17    0.48
  11 -23   7    4.26    1.57
  11 -23   7    3.49    1.08
  11  23  -7    3.27    0.83
  11  23  -7    3.03    1.41
 -11 -23  -7    3.92    1.66
  11 -23  -7    2.97    0.84
  11  23   7    2.60    0.44
  11 -23  -7    1.99    1.06
 -11 -23   7    3.33    1.27
 -11 -23   7    3.40    0.87
  11  23   7    4.56    1.31
 -11 -25  -7   14.09    0.84
  11 -25   7   13.87    1.66
  11 -25   7   13.22    1.92
  11  25  -7   14.85    2.38
  11  25  -7   12.72    2.14
 -11 -25  -7   14.56    2.59
  11 -25  -7   14.43    1.41
  11  25   7   11.88    0.78
  11 -25  -7   11.69    1.77
 -11 -25   7   13.50    2.20
 -11 -25   7   15.37    1.47
  11  25   7   12.43    2.04
 -11 -27  -7    2.27    0.78
  11 -27   7    2.16    1.10
  11 -27   7    2.57    1.24
  11  27  -7    3.14    1.45
  11  27  -7    3.06    0.81
 -11 -27  -7    2.61    1.59
  11 -27  -7    2.46    0.87
  11  27   7    2.03    0.43
  11 -27  -7    1.43    1.87
 -11 -27   7    2.02    1.54
 -11 -27   7    2.26    0.89
  11  27   7    1.32    1.21
 -11 -29  -7   20.89    1.17
  11 -29   7   19.01    2.41
  11 -29   7   22.39    2.65
  11  29  -7   21.16    2.93
 -11 -29  -7   22.52    4.97
  11  29  -7   19.75    1.69
  11 -29  -7   22.78    2.97
  11 -29  -7   18.91    3.90
 -11 -29   7   20.06    5.47
 -11 -29   7   20.34    1.90
  11  29   7   20.14    2.47
 -13   1   7   51.73    1.81
  13  -1   7   55.87    2.38
  13   1  -7   58.15    3.22
 -13  -1  -7   56.95    3.30
 -13  -1  -7   58.20    2.99
 -13   1   7   59.11    2.89
  13   1  -7   64.57    2.74
  13  -1   7   59.87    2.68
  13  -1  -7   56.26    4.74
 -13   1  -7   59.31    2.54
 -13   1  -7   56.90    3.68
 -13  -1   7   59.70    4.20
  13  -1  -7   63.22    2.64
  13   1   7   61.12    2.96
 -13  -1   7   51.78    1.88
  13   1   7   56.12    2.34
  13  -3   7    1.77    0.55
 -13   3   7    1.57    0.30
  13   3  -7    1.70    1.41
 -13  -3  -7    2.05    0.52
 -13  -3  -7    1.66    0.89
 -13   3   7    2.22    0.71
  13   3  -7    2.58    0.65
  13  -3   7    1.88    0.79
 -13   3  -7    1.77    0.57
 -13   3  -7    2.17    0.51
  13   3   7    1.84    1.36
 -13  -3   7    2.35    0.74
  13  -3  -7    2.55    0.53
 -13  -3   7    1.85    0.65
  13   3   7    2.02    0.51
  13  -3  -7    2.01    0.83
  13  -5   7   30.23    1.59
 -13   5   7   26.54    1.27
  13   5  -7   27.20    2.13
 -13  -5  -7   29.38    2.10
  13  -5   7   29.74    1.24
 -13   5   7   29.20    1.84
 -13  -5  -7   28.17    4.08
  13   5  -7   30.48    2.77
 -13   5  -7   29.93    1.61
 -13   5  -7   27.20    1.22
  13   5   7   32.45    2.45
 -13  -5   7   29.77    1.91
  13  -5  -7   31.81    2.07
  13   5   7   28.17    1.42
 -13  -5   7   26.26    1.27
  13  -5  -7   26.63    2.09
  13  -7   7   96.11    5.22
 -13   7   7   89.00    2.80
  13   7  -7   98.29    6.77
 -13  -7  -7   96.58    3.77
  13   7  -7  101.40    4.65
  13  -7   7   96.37    3.22
 -13   7   7   97.76    5.77
 -13  -7  -7   97.11    6.22
 -13   7  -7   82.38    2.88
 -13   7  -7   95.70    4.17
  13   7   7  103.74    5.89
  13  -7  -7  106.02    3.76
 -13  -7   7  101.32    4.60
  13   7   7   93.85    4.59
 -13  -7   7   87.51    3.52
  13   7   7   93.62    4.60
  13  -7  -7   93.81    4.76
  13  -9   7   11.72    1.05
  13  -9   7   10.04    0.46
 -13   9   7    9.70    0.44
 -13  -9  -7   10.28    1.27
  13   9  -7   10.30    1.40
 -13   9   7   10.29    1.11
  13   9  -7   10.41    1.23
 -13  -9  -7   10.59    2.30
 -13   9  -7    9.60    1.07
  13   9   7   11.89    1.92
  13  -9  -7   10.16    0.72
 -13  -9   7   10.78    1.24
 -13  -9   7    9.47    0.89
  13   9   7   11.55    0.83
  13  -9  -7    8.27    1.38
  13 -11   7   36.02    2.05
 -13 -11  -7   38.52    1.69
 -13  11   7   36.36    1.36
  13  11  -7   36.45    2.53
  13 -11   7   37.74    2.19
 -13  11   7   39.77    3.11
  13  11  -7   42.33    2.52
 -13 -11  -7   43.23    4.69
 -13  11  -7   38.34    1.00
  13  11   7   41.65    3.69
  13 -11  -7   41.98    1.56
 -13 -11   7   37.43    3.58
  13  11   7   35.80    1.61
 -13 -11   7   35.27    1.90
  13 -11  -7   35.32    2.50
  13 -13   7   63.91    3.10
 -13 -13  -7   64.49    3.35
  13  13  -7   64.54    3.56
 -13  13   7   63.41    1.83
  13  13  -7   69.69    3.84
  13 -13   7   65.82    3.33
 -13  13   7   66.12    3.13
 -13 -13  -7   74.86    7.24
  13  13   7   67.71    5.25
 -13  13  -7   60.99    1.56
  13 -13  -7   71.09    2.37
 -13 -13   7   65.24    3.49
  13  13   7   62.65    2.52
 -13 -13   7   61.67    4.12
  13 -13  -7   63.71    3.57
  13 -15   7   43.19    2.48
 -13 -15  -7   45.92    1.92
 -13  15   7   43.21    1.50
  13  15  -7   44.08    2.75
 -13  15   7   45.34    2.41
  13 -15   7   41.73    2.59
  13  15  -7   51.43    3.20
 -13 -15  -7   53.49    6.84
  13  15   7   43.99    4.04
  13 -15  -7   50.73    2.14
 -13 -15   7   44.39    2.72
  13  15   7   42.49    1.85
 -13 -15   7   41.94    2.44
  13 -15  -7   43.91    2.84
  13 -17   7   14.63    1.43
 -13 -17  -7   16.44    1.01
  13  17  -7   16.26    1.63
 -13  17   7   15.81    0.55
 -13  17   7   16.34    1.36
  13 -17   7   13.96    1.56
  13  17  -7   18.01    1.94
 -13 -17  -7   18.09    3.88
  13  17   7   14.17    2.42
  13 -17  -7   17.89    0.77
 -13 -17   7   16.34    1.62
  13  17   7   14.90    0.98
 -13 -17   7   16.39    1.53
  13 -17  -7   14.92    1.70
 -13 -19  -7   55.14    2.29
  13 -19   7   54.61    3.10
  13  19  -7   53.59    3.16
  13 -19   7   54.61    3.32
 -13 -19  -7   52.90    6.04
  13  19  -7   59.70    3.96
  13  19   7   51.18    4.30
  13 -19  -7   55.89    2.34
  13  19   7   51.57    2.14
 -13 -19   7   58.26    4.66
  13 -19  -7   50.94    4.82
 -13 -19   7   55.46    4.80
  13 -19  -7   55.83    2.87
 -13 -21  -7    7.28    0.71
  13 -21   7    6.70    1.21
  13 -21   7    7.79    1.31
  13  21  -7    6.38    2.01
  13  21  -7    8.36    1.66
 -13 -21  -7    6.86    2.46
  13  21   7    7.65    1.76
  13  21   7    6.66    0.67
  13 -21  -7    5.94    1.65
 -13 -21   7    7.58    1.24
  13 -21  -7    6.72    1.30
 -13 -21   7    6.64    1.39
 -13 -23  -7   26.28    2.00
  13 -23   7   26.64    2.25
  13  23  -7   26.46    2.14
  13 -23   7   25.22    2.40
  13  23  -7   30.88    3.08
 -13 -23  -7   24.13    3.88
  13  23   7   24.50    2.90
  13  23   7   25.25    1.27
  13 -23  -7   28.01    1.88
 -13 -23   7   29.47    2.25
  13 -23  -7   24.57    2.36
 -13 -23   7   26.86    2.60
 -13 -25  -7   32.12    1.60
  13 -25   7   29.32    4.02
  13 -25   7   30.10    2.82
  13  25  -7   29.92    3.54
  13  25  -7   29.87    2.36
 -13 -25  -7   30.77    4.21
  13 -25  -7   33.21    2.14
  13  25   7   30.32    3.19
  13  25   7   28.79    2.06
 -13 -25   7   33.52    2.55
  13 -25  -7   29.64    2.67
 -13 -25   7   31.54    3.15
 -13 -27  -7    6.00    0.73
  13 -27   7    7.54    1.45
  13 -27   7    4.97    1.61
  13  27  -7    5.63    3.14
  13  27  -7    7.03    1.20
 -13 -27  -7    5.92    2.19
  13 -27  -7    5.79    1.09
  13  27   7    5.17    0.68
 -13 -27   7    6.62    1.31
  13 -27  -7    4.44    1.45
 -13 -27   7    4.60    1.87
  13  27   7    5.14    2.76
 -15   1   7   38.36    1.46
  15   1  -7   41.67    2.84
 -15  -1  -7   43.30    2.12
 -15  -1  -7   39.93    2.21
  15  -1   7   43.55    3.26
 -15   1   7   44.97    2.48
  15   1  -7   46.24    2.26
  15  -1   7   41.81    2.08
 -15  -1   7   38.18    1.55
  15  -1  -7   41.56    4.29
 -15   1  -7   42.64    2.13
 -15   1  -7   39.77    1.95
  15   1   7   46.18    2.66
 -15  -1   7   43.90    2.48
  15  -1  -7   45.63    2.16
  15   1   7   42.99    2.08
 -15   3   7   38.96    1.44
  15   3  -7   42.74    2.87
 -15  -3  -7   42.97    2.09
 -15  -3  -7   41.52    2.53
 -15   3   7   44.92    2.45
  15   3  -7   48.51    3.34
  15  -3   7   43.85    2.04
  15  -3   7   43.26    2.15
 -15  -3   7   38.73    2.25
  15  -3  -7   41.59    2.82
 -15   3  -7   43.70    2.19
 -15   3  -7   39.33    1.74
  15   3   7   47.76    3.01
 -15  -3   7   43.32    2.55
  15  -3  -7   47.15    2.08
  15   3   7   43.58    2.90
  15  -5   7    7.82    0.95
 -15   5   7    6.47    0.48
  15   5  -7    8.34    1.40
 -15  -5  -7    9.09    0.84
 -15  -5  -7    9.00    1.30
 -15   5   7    7.03    1.05
  15   5  -7    9.55    1.05
  15  -5   7    7.78    0.67
  15  -5  -7    8.79    1.31
 -15   5  -7    7.64    0.90
 -15   5  -7    7.72    0.94
  15   5   7    8.06    1.48
  15  -5  -7    8.75    0.80
 -15  -5   7    9.50    1.83
  15   5   7    8.41    0.83
 -15  -5   7    7.05    0.67
  15  -7   7   19.04    2.16
  15   7  -7   18.72    1.92
 -15  -7  -7   17.72    1.23
  15  -7   7   18.78    0.88
 -15  -7  -7   24.09    2.23
 -15   7   7   18.63    1.49
  15   7  -7   20.71    1.59
 -15   7  -7   21.77    1.45
  15   7   7   19.61    2.37
  15  -7  -7   20.89    1.70
 -15  -7   7   19.02    1.66
  15   7   7   18.34    1.22
 -15  -7   7   18.54    1.15
  15  -7  -7   19.19    1.86
  15  -9   7   62.31    3.08
 -15   9   7   57.99    1.91
 -15  -9  -7   66.05    3.68
  15   9  -7   61.58    3.78
  15  -9   7   60.35    2.01
 -15  -9  -7   66.16    4.81
 -15   9   7   64.10    3.20
  15   9  -7   68.32    3.48
 -15   9  -7   62.32    3.16
  15   9   7   63.39    7.10
 -15  -9   7   65.86    3.52
  15  -9  -7   69.68    2.68
  15   9   7   62.11    2.69
 -15  -9   7   59.97    2.67
  15  -9  -7   62.31    3.65
  15 -11   7   97.56    4.51
 -15 -11  -7   98.47    4.11
 -15  11   7   90.76    3.40
  15  11  -7   98.55    5.31
 -15  11   7   99.24    4.57
 -15 -11  -7  105.03   10.61
  15  11  -7  106.50    5.25
 -15  11  -7   96.53    4.66
  15  11   7   97.44    9.72
  15 -11  -7  107.69    3.98
 -15 -11   7  103.16    6.84
  15  11   7   96.71    5.08
 -15 -11   7   90.90    4.12
  15 -11  -7   94.07    5.12
  15 -13   7   54.57    2.88
 -15 -13  -7   53.65    2.38
 -15  13   7   47.95    1.55
  15  13  -7   52.14    3.35
  15 -13   7   54.73    2.99
 -15  13   7   53.87    2.77
 -15 -13  -7   59.38    5.60
  15  13  -7   55.65    4.71
  15  13   7   50.78    6.83
  15 -13  -7   59.45    2.86
 -15 -13   7   57.76    3.27
  15  13   7   52.19    2.32
 -15 -13   7   50.25    2.61
  15 -13  -7   49.37    4.77
  15 -15   7   31.27    2.13
 -15 -15  -7   32.68    1.64
 -15  15   7   29.90    1.00
  15  15  -7   31.12    2.45
  15 -15   7   30.83    2.17
 -15  15   7   31.17    1.93
 -15 -15  -7   30.98    5.01
  15  15  -7   33.82    2.56
  15  15   7   30.14    5.25
  15 -15  -7   34.59    1.44
 -15 -15   7   33.36    2.38
  15  15   7   29.79    1.59
 -15 -15   7   30.47    2.00
  15 -15  -7   30.34    2.45
  15 -17   7    6.01    1.84
 -15 -17  -7    6.04    0.76
 -15  17   7    6.18    0.38
  15  17  -7    5.00    1.30
 -15  17   7    6.17    0.97
 -15 -17  -7    5.28    3.28
  15 -17   7    6.45    1.14
  15  17  -7    6.47    1.42
  15  17   7    4.96    1.78
  15 -17  -7    6.41    0.59
 -15 -17   7    8.95    1.25
  15  17   7    6.11    0.74
 -15 -17   7    6.25    1.08
  15 -17  -7    6.84    1.27
  15 -19   7   20.99    1.85
 -15 -19  -7   21.52    1.95
  15  19  -7   21.57    2.06
  15 -19   7   18.68    1.87
 -15 -19  -7   24.59    5.16
  15  19  -7   24.37    3.69
  15  19   7   21.35    2.69
  15  19   7   20.26    1.25
 -15 -19   7   22.55    3.15
 -15 -19   7   20.30    1.86
  15 -19  -7   15.22    1.54
  15 -19  -7   20.42    2.08
  15 -21   7    6.68    1.29
 -15 -21  -7    6.69    0.81
  15  21  -7    8.29    1.35
 -15 -21  -7    5.28    3.11
  15  21  -7    5.72    1.62
  15 -21   7    5.02    1.35
  15  21   7    5.78    1.80
  15  21   7    4.32    1.23
 -15 -21   7    7.30    1.39
 -15 -21   7    5.15    2.21
  15 -21  -7    6.94    1.04
  15 -21  -7    5.82    2.29
  15 -23   7   48.19    3.48
 -15 -23  -7   60.00    2.63
  15 -23   7   48.88    3.54
 -15 -23  -7   54.42    6.45
  15  23  -7   56.36    4.43
  15  23  -7   50.47    5.12
  15  23   7   45.08    4.32
  15  23   7   47.38    2.30
  15 -23  -7   52.42    2.92
 -15 -23   7   53.76    3.65
 -15 -23   7   47.67    3.71
  15 -23  -7   47.67    3.61
 -17   1   7   21.19    1.04
  17   1  -7   23.49    2.30
 -17  -1  -7   23.99    1.56
 -17  -1  -7   22.93    1.48
  17  -1   7   24.70    1.77
 -17   1   7   25.37    1.82
  17   1  -7   25.30    1.63
  17  -1   7   24.49    1.63
 -17  -1   7   22.15    1.08
  17  -1  -7   22.09    3.57
 -17   1  -7   21.73    1.28
 -17   1  -7   22.92    1.59
  17   1   7   26.38    2.03
 -17  -1   7   25.16    1.88
  17  -1  -7   26.17    2.35
  17   1   7   22.49    2.38
 -17   3   7    6.36    0.55
  17   3  -7    7.68    1.45
 -17  -3  -7    8.19    0.92
 -17  -3  -7    7.30    1.02
  17  -3   7    8.68    0.92
 -17   3   7    8.10    1.12
  17   3  -7    8.29    1.06
  17  -3   7    8.19    1.60
 -17  -3   7    6.18    1.06
  17  -3  -7    7.67    1.42
 -17   3  -7    6.28    1.02
 -17   3  -7    7.91    1.00
  17   3   7    6.64    2.26
 -17  -3   7    7.96    1.16
  17  -3  -7    8.98    0.90
  17   3   7    6.67    0.95
 -17   5   7    7.51    0.56
 -17  -5  -7    8.34    0.95
  17   5  -7    8.92    1.53
 -17  -5  -7    9.82    1.97
 -17   5   7    8.66    1.80
  17   5  -7    7.48    1.82
  17  -5   7    9.09    0.78
  17  -5   7    9.73    1.05
 -17  -5   7    8.64    0.75
  17  -5  -7    7.84    1.48
 -17   5  -7    6.32    0.56
  17   5   7    9.11    1.68
 -17   5  -7    7.39    1.04
  17  -5  -7    9.35    0.88
 -17  -5   7    9.99    1.99
  17   5   7    9.43    0.97
  17  -7   7    8.37    1.75
 -17   7   7    7.04    0.81
 -17  -7  -7    8.95    0.94
  17   7  -7    8.22    1.50
 -17  -7  -7    7.09    1.39
 -17   7   7   10.26    1.09
  17   7  -7    8.48    1.16
  17  -7   7    7.40    0.63
  17  -7  -7    7.59    2.38
  17   7   7   10.54    1.84
 -17   7  -7    6.60    1.08
 -17  -7   7    9.68    1.29
  17  -7  -7    7.76    0.87
  17   7   7    8.85    1.53
 -17  -7   7    7.59    0.79
  17  -9   7    8.87    1.18
 -17   9   7    7.73    0.81
 -17  -9  -7    9.07    1.55
  17   9  -7    6.84    2.59
 -17  -9  -7    8.72    1.71
 -17   9   7    8.72    1.84
  17   9  -7    9.69    1.31
  17  -9  -7    7.97    1.54
  17   9   7   11.19    2.13
 -17   9  -7   10.48    1.17
 -17  -9   7    8.88    1.36
  17  -9  -7   10.29    0.90
  17   9   7    9.79    0.97
 -17  -9   7    8.38    0.90
  17 -11   7    6.66    1.79
 -17 -11  -7    6.04    0.87
 -17  11   7    5.84    0.70
  17  11  -7    5.85    1.45
 -17 -11  -7    5.70    1.78
 -17  11   7    6.05    1.02
  17  11  -7    6.24    1.20
  17 -11  -7    7.99    1.40
  17  11   7    4.98    1.98
 -17  11  -7    6.77    1.07
  17 -11  -7    7.67    0.76
 -17 -11   7    7.43    2.09
  17  11   7    6.05    0.87
 -17 -11   7    6.40    0.90
  17 -13   7   33.14    2.28
 -17 -13  -7   33.59    1.88
 -17  13   7   31.45    1.17
  17  13  -7   34.07    4.48
 -17  13   7   34.28    3.12
  17  13  -7   36.05    2.62
  17 -13   7   33.53    2.35
 -17 -13  -7   32.32    6.30
  17 -13  -7   32.59    2.77
  17  13   7   32.00    3.80
  17 -13  -7   37.07    1.72
 -17 -13   7   35.71    2.66
  17  13   7   32.43    2.72
 -17 -13   7   31.73    1.99
  17 -15   7    0.66    0.72
 -17 -15  -7   -0.15    0.84
 -17  15   7    0.56    0.25
  17  15  -7    1.44    0.89
  17 -15   7    0.65    0.70
 -17  15   7    0.82    0.61
 -17 -15  -7    1.51    2.61
  17  15  -7    0.61    1.38
  17  15   7    0.47    1.19
  17 -15  -7    0.20    0.42
 -17 -15   7    0.84    0.83
  17  15   7    0.34    0.52
 -17 -15   7    0.37    1.05
  17 -15  -7   -0.03    0.83
 -17 -17  -7   18.79    1.39
  17  17  -7   17.73    2.18
 -17  17   7   18.81    1.53
 -17 -17  -7   19.35    4.29
  17  17  -7   18.97    2.16
  17 -17   7   17.71    2.88
  17  17   7   17.96    2.83
 -17 -17   7   16.84    2.06
  17  17   7   18.41    1.34
 -17 -17   7   17.82    1.68
  17 -17  -7   18.25    2.12
 -19   1   7    4.11    0.53
 -19  -1  -7    3.41    0.74
 -19  -1  -7    3.89    0.88
  19   1  -7    4.02    1.37
  19  -1   7    4.21    0.99
 -19   1   7    4.42    1.03
  19   1  -7    4.55    0.93
  19  -1   7    4.19    0.95
 -19  -1   7    4.02    0.58
 -19   1  -7    3.81    0.62
  19  -1  -7    3.91    1.39
  19   1   7    4.81    1.86
 -19   1  -7    4.26    0.91
 -19  -1   7    5.11    1.03
  19  -1  -7    4.22    0.87
  19   1   7    4.18    0.91
 -19   3   7    1.18    0.63
 -19  -3  -7    1.43    0.68
 -19  -3  -7    1.60    0.66
  19   3  -7    0.95    1.09
  19  -3   7    1.43    0.65
 -19   3   7    1.48    0.77
  19   3  -7    1.30    0.75
  19  -3   7    1.30    0.75
 -19  -3   7    1.44    0.77
 -19   3  -7    0.82    0.39
  19  -3  -7    2.18    1.08
  19   3   7    1.75    1.03
 -19   3  -7    1.26    0.71
 -19  -3   7    1.70    0.83
  19  -3  -7    1.79    0.64
  19   3   7    1.10    0.70
 -19   5   7   14.42    0.85
 -19  -5  -7   18.34    2.25
 -19  -5  -7   16.11    1.53
  19   5  -7   16.22    3.58
  19  -5   7   15.79    1.78
 -19   5   7   17.19    2.50
  19   5  -7   19.32    1.66
  19  -5   7   15.97    1.61
 -19  -5   7   14.97    1.12
  19  -5  -7   16.76    2.17
  19   5   7   19.26    2.34
 -19   5  -7   16.79    1.53
 -19  -5   7   16.90    2.83
  19  -5  -7   17.78    1.34
  19   5   7   16.81    1.45
 -19   7   7    5.33    0.55
 -19  -7  -7    7.42    1.00
 -19  -7  -7    6.00    2.07
  19   7  -7    8.18    1.60
 -19   7   7    7.91    1.12
  19   7  -7    8.20    1.21
  19  -7   7    6.69    1.16
 -19  -7   7    6.87    0.82
  19  -7  -7    5.33    2.52
  19   7   7    5.70    1.91
 -19   7  -7    6.88    1.15
 -19  -7   7    7.45    1.32
  19  -7  -7    7.02    0.93
  19   7   7    6.89    1.01
   0   0   8  609.46   32.87
   0   0  -8  566.69   31.66
   0   0   8  614.24   29.34
   0   0  -8  595.82   31.38
   0  -2  -8    0.50    0.57
   0   2   8    0.02    0.13
   0  -2   8    0.27    0.21
   0  -2  -8    0.30    0.42
   0   2   8    0.03    0.29
   0   2  -8    0.28    0.36
   0   2  -8    1.01    0.49
   0  -2   8    0.62    0.61
   0  -4  -8  149.64    9.13
   0   4   8  155.24    4.47
   0  -4   8  155.98    5.47
   0  -4  -8  148.70    6.31
   0  -4   8  170.72   11.73
   0   4  -8  150.58    6.50
   0   4  -8  155.46    6.99
   0   4   8  151.13    4.85
   0   6   8    0.04    0.11
   0  -6   8   -0.02    0.50
   0  -6  -8    0.34    0.49
   0  -6  -8    0.77    0.63
   0  -6   8    0.70    1.76
   0   6   8    0.26    0.16
   0   6  -8    0.16    0.53
   0   6  -8    0.67    0.71
   0  -8   8  526.62   26.70
   0  -8  -8  515.78   28.01
   0  -8   8  550.16   40.07
   0  -8  -8  503.40   28.88
   0   8  -8  520.98   27.00
   0   8  -8  538.03   27.67
   0 -10  -8    1.76    0.76
   0 -10   8    0.02    0.42
   0 -10  -8    0.97    1.00
   0 -10   8    0.23    1.58
   0  10  -8    0.39    0.38
   0  10  -8   -0.04    0.28
   0  12  -8  140.29    6.09
   0 -12  -8  143.19    7.68
   0 -12   8  140.20    5.43
   0 -12  -8  137.66    6.77
   0 -12   8  139.80   10.98
   0  12  -8  144.00    5.00
   0 -14  -8    0.31    0.89
   0 -14   8    0.44    0.34
   0 -14  -8    0.37    0.69
   0 -14   8    1.10    0.85
   0  14  -8    1.34    0.55
   0  14  -8   -0.01    0.25
   0 -16  -8   52.38    3.89
   0  16  -8   50.57    2.12
   0 -16   8   51.04    1.89
   0 -16  -8   49.21    3.32
   0  16  -8   51.55    2.87
   0 -16   8   49.95    3.60
   0 -18  -8   -0.06    1.53
   0  18  -8    0.07    0.21
   0 -18   8    0.11    0.44
   0 -18  -8    0.80    1.33
   0  18  -8    0.09    0.59
   0 -18   8    0.60    0.74
   0  20  -8   36.49    1.58
   0  20  -8   39.89    2.76
   0 -20  -8   37.76    3.43
   0 -20   8   36.39    1.39
   0 -20   8   38.25    2.92
   0 -20  -8   38.75    3.81
   0  22  -8    0.36    0.21
   0 -22  -8   -0.11    1.13
   0 -22   8    0.65    0.80
   0 -22  -8   -0.17    1.15
   0  22  -8   -0.38    0.78
   0  24  -8   93.77    5.39
   0 -24  -8   78.87    7.00
   0 -24   8   87.23    2.97
   0 -24  -8   88.51    7.13
   0 -24   8   82.59    7.17
   0 -26  -8   -0.35    1.35
   0 -26   8    0.29    0.23
   0 -26  -8    0.52    1.24
   0 -26   8    0.90    0.75
   0  26  -8    0.02    0.15
   0  26  -8   -0.40    0.76
   0 -28  -8   83.86   10.33
   0 -28  -8   74.37    7.10
   0 -28   8   75.06    2.61
   0  28  -8   86.37    5.02
   0 -28   8   72.89    4.68
   0 -30  -8    0.32    1.34
   0 -30  -8    0.24    1.17
   0  30  -8   -0.31    0.79
   0 -30   8    0.50    0.76
   0  32  -8   16.85    2.02
   0 -32  -8   15.93    3.41
   0 -32  -8   14.58    2.58
   0 -32   8   13.29    1.95
   0  34  -8    0.38    0.85
   0 -34  -8   -0.50    1.36
   0 -34  -8    0.50    0.99
   0 -34   8    0.03    0.84
   2   0   8    0.59    1.41
   2   0   8    0.17    0.30
  -2   0  -8   -0.18    1.05
  -2   0   8    0.18    0.17
  -2   0  -8    0.38    0.36
   2   0  -8   -0.01    0.41
  -2   0   8    0.19    0.40
   2   0  -8    0.28    0.48
   2  -2   8    8.30    0.48
  -2  -2  -8    9.75    1.40
  -2   2   8    8.52    0.31
  -2  -2  -8   10.17    0.87
   2  -2   8    8.87    1.77
   2   2  -8   10.09    0.84
  -2   2   8    8.47    0.61
   2   2  -8    9.26    0.97
   2   2   8    8.28    0.37
   2   2   8   13.29    2.80
  -2  -2   8    8.08    0.50
  -2   2  -8    9.84    0.71
  -2   2  -8   10.17    1.17
   2  -2  -8    9.43    0.94
  -2  -2   8    8.62    0.70
   2  -2  -8    9.24    1.76
   2   4  -8   37.44    1.46
  -2   4   8   39.11    0.96
   2  -4   8   37.10    1.32
  -2  -4  -8   36.86    2.86
  -2  -4  -8   37.92    2.82
   2  -4   8   39.88    3.38
  -2   4   8   35.58    1.02
   2   4  -8   38.07    1.70
   2   4   8   38.23    0.98
  -2  -4   8   38.38    1.93
   2   4   8   49.10    4.88
  -2   4  -8   37.40    2.20
  -2   4  -8   38.30    1.48
   2  -4  -8   37.96    1.97
   2  -4  -8   37.19    2.21
  -2  -4   8   38.65    1.86
  -2  -6  -8    6.64    2.64
   2  -6   8    9.36    0.97
   2   6  -8    8.72    1.17
  -2  -6  -8    6.91    0.97
   2  -6   8    8.65    1.79
   2   6  -8    7.88    0.73
   2   6   8    7.99    0.27
  -2  -6   8    7.85    0.87
   2   6   8   10.04    1.55
  -2   6  -8    8.28    1.58
   2  -6  -8    8.84    1.01
  -2  -6   8    7.41    1.09
  -2   6  -8    7.74    0.58
   2  -6  -8    8.67    1.88
  -2  -8  -8    4.43    1.35
   2   8  -8    3.90    0.64
   2  -8   8    3.34    0.51
  -2  -8  -8    3.50    1.38
   2  -8   8    3.82    1.42
   2   8  -8    3.31    0.54
  -2   8  -8    3.78    0.68
   2  -8  -8    3.92    0.93
  -2  -8   8    4.20    0.63
   2   8   8    2.45    0.47
   2  -8  -8    3.78    0.82
  -2  -8   8    4.08    1.02
  -2   8  -8    3.13    0.40
   2   8   8    2.96    0.24
  -2 -10  -8   52.30    4.05
   2 -10   8   49.08    2.93
   2  10  -8   52.53    2.55
  -2 -10  -8   49.65    2.85
   2 -10   8   50.44    5.89
   2  10  -8   50.62    1.98
  -2  10  -8   50.12    2.26
   2 -10  -8   49.57    2.98
  -2 -10   8   50.28    2.16
   2  10   8   52.50    1.76
   2 -10  -8   48.05    2.77
  -2 -10   8   55.62    5.71
  -2  10  -8   51.09    2.12
   2 -12   8    2.96    0.63
   2  12  -8    3.94    0.81
  -2 -12  -8    3.80    0.97
   2 -12   8    4.52    1.36
  -2 -12  -8    3.58    1.52
   2  12  -8    3.49    0.48
  -2  12  -8    2.50    0.56
  -2 -12   8    3.50    0.91
   2 -12  -8    2.57    1.56
   2 -12  -8    3.72    1.00
  -2 -12   8    3.57    2.39
  -2  12  -8    3.12    0.34
   2  14  -8    7.08    0.60
   2 -14   8    6.99    0.90
   2  14  -8    6.89    1.12
  -2 -14  -8    7.64    1.36
   2 -14   8    7.94    1.65
  -2 -14  -8    7.74    1.99
  -2  14  -8    8.99    0.67
  -2 -14   8    7.32    0.68
   2 -14  -8    7.56    1.24
   2 -14  -8    8.37    1.31
  -2 -14   8    7.77    3.19
  -2  14  -8    6.74    0.65
   2  16  -8    3.05    0.42
   2 -16   8    2.52    1.20
  -2 -16  -8    2.26    1.89
  -2 -16  -8    2.79    1.61
   2  16  -8    3.23    1.55
   2 -16   8    3.24    1.22
  -2  16  -8    2.12    0.27
   2 -16  -8    2.39    1.06
  -2 -16   8    3.30    0.47
   2 -16  -8    2.55    1.01
  -2 -16   8    2.99    2.19
  -2  16  -8    2.75    0.72
   2 -18   8   72.96    6.90
   2  18  -8   72.92    2.54
   2 -18   8   68.63    3.59
  -2 -18  -8   71.06    4.94
   2  18  -8   76.23    5.98
  -2 -18  -8   74.74    6.28
  -2  18  -8   70.68    2.03
   2 -18  -8   74.16    4.59
  -2 -18   8   69.85    7.13
   2 -18  -8   70.02    4.39
  -2 -18   8   72.06    3.38
  -2  18  -8   76.21    3.19
   2  20  -8   15.91    0.80
   2 -20   8   16.76    1.67
  -2 -20  -8   17.04    2.60
   2  20  -8   19.46    3.04
   2 -20   8   16.77    2.09
  -2 -20  -8   18.29    3.20
   2 -20  -8   16.13    2.25
   2 -20  -8   18.00    3.65
  -2 -20   8   17.56    0.92
  -2 -20   8   17.12    2.21
  -2  20  -8   18.65    1.17
   2 -22   8    3.86    1.11
  -2 -22  -8    4.46    1.86
   2  22  -8    3.67    1.19
  -2 -22  -8    4.65    2.14
   2 -22   8    3.93    1.30
   2  22  -8    2.77    0.72
   2 -22  -8    4.35    1.51
  -2  22  -8    4.18    0.24
   2 -22  -8    4.85    2.69
  -2 -22   8    3.91    0.51
  -2 -22   8    3.18    1.36
  -2  22  -8    4.20    0.56
   2 -24   8   64.58    4.08
  -2 -24  -8   61.95    6.07
  -2 -24  -8   68.22    6.44
   2  24  -8   66.51    4.10
   2 -24   8   59.59    4.22
   2  24  -8   58.14    2.08
  -2  24  -8   65.31    2.24
   2 -24  -8   63.88    5.60
  -2 -24   8   64.62    2.39
  -2 -24   8   60.33    4.31
   2 -24  -8   68.60    5.09
   2 -26   8   39.82    3.12
  -2 -26  -8   38.80    4.44
  -2 -26  -8   43.15    4.99
   2  26  -8   43.26    3.00
   2  26  -8   33.09    1.29
   2 -26   8   37.60    4.60
   2 -26  -8   36.65    4.69
  -2 -26   8   41.50    2.09
  -2 -26   8   37.28    3.07
   2 -26  -8   39.42    4.03
  -2 -28  -8    2.18    2.84
   2 -28   8    1.31    1.04
  -2 -28  -8    2.25    1.36
   2  28  -8    2.20    0.94
   2 -28   8    1.65    1.00
   2  28  -8    0.85    0.30
   2 -28  -8    0.92    1.98
   2 -28  -8    2.34    1.47
  -2 -28   8    1.46    0.59
  -2 -28   8    2.08    1.00
  -2 -30  -8    6.19    2.40
   2 -30   8    7.44    1.55
  -2 -30  -8    5.84    1.84
   2  30  -8    7.11    1.45
   2 -30   8    5.96    1.47
   2 -30  -8    5.51    2.80
   2 -30  -8    7.96    2.33
  -2 -30   8    7.38    0.91
  -2 -30   8    6.73    1.50
  -2 -32  -8   11.89    2.70
   2 -32   8   10.89    1.85
  -2 -32  -8   10.96    2.14
   2  32  -8   11.02    1.80
   2 -32   8   10.33    1.79
   2 -32  -8   11.88    4.59
   2 -32  -8   12.74    2.76
  -2 -32   8   11.10    3.02
  -2 -34  -8   11.69    2.68
   2 -34   8   11.45    1.90
  -2 -34  -8   11.46    2.00
   2  34  -8    9.06    1.78
   2 -34   8    9.57    1.87
   2 -34  -8   13.90    2.96
   2 -34  -8   10.53    2.40
  -2 -34   8   11.87    1.92
   4   0   8  336.27   13.65
   4   0  -8  330.48   13.50
  -4   0   8  343.02   16.08
  -4   0  -8  334.16   14.88
   4   0  -8  337.49   15.56
  -4   0   8  321.85   12.73
  -4   0  -8  333.04   23.74
   4   0   8  319.44   15.40
   4  -2   8    4.73    0.41
  -4   2   8    4.84    0.86
   4  -2   8    4.99    0.87
  -4  -2  -8    4.61    0.69
   4   2  -8    4.74    0.52
   4   2  -8    4.68    0.75
  -4  -2  -8    5.66    1.63
  -4   2   8    4.18    0.26
  -4   2  -8    5.57    1.37
   4   2   8    4.05    0.55
   4  -2  -8    4.35    0.47
   4   2   8    4.40    0.71
  -4  -2   8    4.45    0.80
  -4   2  -8    4.22    0.54
   4  -2  -8    4.83    0.80
  -4  -2   8    4.46    0.45
   4  -4   8   28.70    1.14
  -4   4   8   30.55    0.68
   4   4  -8   30.19    1.46
  -4  -4  -8   29.76    1.63
   4  -4   8   31.48    2.04
  -4  -4  -8   30.67    3.36
   4   4  -8   28.34    1.55
  -4   4  -8   29.18    2.55
   4   4   8   28.94    0.87
   4   4   8   29.02    1.42
  -4  -4   8   29.47    1.67
  -4   4  -8   28.39    1.18
   4  -4  -8   28.84    2.73
  -4  -4   8   28.81    1.29
   4  -4  -8   29.48    1.89
  -4   6   8   31.00    0.54
  -4   6   8   31.50    0.52
   4  -6   8   33.43    1.32
  -4  -6  -8   32.04    1.86
   4   6  -8   34.05    1.82
   4  -6   8   32.10    2.29
  -4  -6  -8   34.49    3.67
   4   6  -8   33.24    1.64
  -4   6  -8   34.48    2.55
   4   6   8   33.08    1.39
  -4  -6   8   33.25    1.73
  -4   6  -8   33.04    1.18
   4  -6  -8   33.81    1.93
  -4  -6   8   33.69    1.56
   4  -6  -8   32.96    2.04
   4   6   8   32.43    0.90
   4  -8   8   91.60    3.38
  -4  -8  -8   90.44    4.37
   4   8  -8   96.94    4.48
   4  -8   8   91.03    6.84
  -4  -8  -8   93.01   10.26
   4   8  -8   91.97    3.62
  -4   8  -8   99.29    5.00
   4   8   8   91.24    3.13
  -4  -8   8   92.80    3.80
  -4   8  -8   91.49    2.90
   4  -8  -8   91.76    5.75
  -4  -8   8   89.99    3.91
   4  -8  -8   94.62    4.39
   4   8   8   88.06    2.44
   4  10  -8    0.36    0.59
   4 -10   8    0.03    0.34
  -4 -10  -8    0.27    0.59
   4 -10   8   -0.15    0.69
  -4 -10  -8    0.09    1.16
   4  10  -8   -0.01    0.62
  -4  10  -8   -0.03    0.56
   4  10   8    0.42    0.22
  -4 -10   8    0.37    0.66
   4 -10  -8   -0.18    0.54
  -4 -10   8    0.01    0.55
   4 -10  -8    0.17    0.56
  -4  10  -8    0.24    0.19
   4  10   8    0.03    0.12
   4 -12   8  158.51    6.47
  -4 -12  -8  160.48    8.14
   4  12  -8  169.49    8.44
   4 -12   8  155.43    8.47
  -4 -12  -8  165.85   11.38
   4  12  -8  161.33    7.32
  -4  12  -8  182.03    7.62
   4 -12  -8  163.23    7.63
   4  12   8  165.39    5.98
  -4 -12   8  157.61    6.39
   4 -12  -8  155.16    7.41
  -4 -12   8  165.98    8.03
   4  12   8  141.99    4.60
  -4  12  -8  156.54    5.05
   4  14  -8   18.81    1.05
   4 -14   8   18.61    1.25
  -4 -14  -8   18.55    2.05
   4  14  -8   22.02    1.94
   4 -14   8   19.28    3.42
  -4 -14  -8   20.25    3.39
  -4  14  -8   20.93    1.15
   4 -14  -8   19.53    1.74
   4  14   8   19.61    0.65
  -4 -14   8   20.33    1.14
   4 -14  -8   16.41    2.75
  -4 -14   8   18.65    2.12
  -4  14  -8   18.84    0.59
   4  16  -8   17.24    0.97
   4 -16   8   18.59    1.31
  -4 -16  -8   17.76    0.53
  -4 -16  -8   16.85    3.24
   4  16  -8   17.88    1.89
   4 -16   8   17.92    2.13
  -4  16  -8   18.64    0.88
  -4  16  -8   16.80    0.50
   4  16   8   18.22    2.20
   4 -16  -8   16.24    1.75
  -4 -16   8   17.87    1.07
   4 -16  -8   17.29    1.69
   4  16   8   15.59    0.53
  -4 -16   8   19.57    2.34
   4  18  -8   13.54    0.86
   4 -18   8   13.58    1.26
  -4 -18  -8   14.28    0.55
  -4 -18  -8   13.14    3.05
   4 -18   8   12.19    1.97
   4  18  -8   13.72    1.73
   4  18   8   14.15    2.22
  -4  18  -8   12.53    0.52
   4 -18  -8   12.70    1.66
  -4 -18   8   13.98    0.93
   4  18   8   12.13    0.35
   4 -18  -8   12.81    1.60
  -4 -18   8   13.36    2.42
  -4  18  -8   13.56    0.62
   4  20  -8   29.71    1.97
   4 -20   8   30.20    2.10
  -4 -20  -8   32.82    0.93
  -4 -20  -8   34.18    4.58
   4  20  -8   33.45    2.65
   4 -20   8   31.96    4.85
   4  20   8   35.57    3.63
   4 -20  -8   34.38    2.56
   4 -20  -8   29.44    2.73
  -4  20  -8   30.64    1.17
  -4 -20   8   32.15    1.50
  -4 -20   8   32.07    3.58
   4  20   8   28.97    0.79
  -4 -22  -8   45.02    8.30
  -4 -22  -8   44.23    1.04
   4  22  -8   40.37    2.35
   4 -22   8   42.86    4.17
   4  22  -8   47.66    3.26
   4 -22   8   41.98    3.66
   4  22   8   51.06    4.64
   4 -22  -8   43.46    3.29
   4 -22  -8   39.56    3.68
  -4 -22   8   43.67    2.61
  -4 -22   8   40.24    3.98
   4 -24   8   48.95    3.98
  -4 -24  -8   49.63    1.21
  -4 -24  -8   49.08    5.42
   4 -24   8   47.69    3.26
   4  24  -8   53.62    5.28
   4  24  -8   48.11    2.56
   4 -24  -8   49.84    3.86
   4  24   8   53.86    4.93
   4 -24  -8   50.15    6.71
  -4 -24   8   51.53    2.14
  -4 -24   8   48.00    4.07
  -4 -26  -8    5.68    2.08
   4 -26   8    5.87    1.32
   4  26  -8    6.42    1.34
   4 -26   8    2.41    1.54
   4  26  -8    3.93    0.90
   4 -26  -8    5.70    1.61
   4  26   8    6.07    1.85
   4 -26  -8    5.74    3.32
  -4 -26   8    6.86    0.66
  -4 -26   8    5.30    1.59
  -4 -28  -8    6.71    3.56
   4 -28   8    8.72    1.50
   4 -28   8    5.50    1.59
   4  28  -8    5.10    0.92
   4  28  -8    7.19    1.44
   4  28   8    7.39    1.82
   4 -28  -8    7.06    2.42
  -4 -28   8    7.24    0.71
  -4 -28   8    6.70    1.62
   4 -28  -8    7.30    1.89
  -4 -30  -8    1.06    1.25
   4 -30   8    0.58    0.94
   4  30  -8    0.57    0.84
   4 -30   8    0.72    0.93
   4  30  -8    0.15    0.53
   4  30   8   -0.22    1.00
   4 -30  -8    1.05    1.62
  -4 -30   8    0.24    0.39
  -4 -30   8    1.63    1.59
   4 -30  -8    1.49    1.20
  -4 -32  -8   29.27    3.59
   4 -32   8   29.40    2.99
   4  32  -8   27.79    2.69
   4 -32   8   26.83    2.78
   4  32   8   24.43    2.91
   4 -32  -8   27.95    4.39
   4 -32  -8   27.65    3.90
  -4 -32   8   29.24    1.46
  -4 -32   8   26.13    2.88
   4 -34   8    6.78    1.72
   4  34  -8    7.07    1.61
   4 -34   8    6.36    1.65
  -4 -34  -8    6.73    3.52
   4 -34  -8    5.50    2.23
   4 -34  -8    6.95    2.39
  -4 -34   8    5.98    1.71
   6   0   8    0.14    0.39
   6   0  -8    0.45    0.34
  -6   0  -8    0.32    1.21
   6   0   8    0.26    0.35
  -6   0  -8    0.17    0.32
  -6   0   8   -0.07    0.47
   6   0  -8   -0.24    0.46
  -6   0   8    0.00    0.29
   6  -2   8   24.46    1.45
  -6  -2  -8   25.03    1.34
  -6  -2  -8   26.36    3.83
   6  -2   8   23.90    2.10
  -6   2   8   27.39    1.64
   6   2  -8   26.69    1.54
   6   2  -8   24.48    2.38
  -6   2   8   23.05    0.65
   6   2   8   25.20    0.90
  -6   2  -8   27.10    3.51
   6   2   8   25.75    1.75
  -6   2  -8   24.90    1.09
  -6  -2   8   26.72    1.58
   6  -2  -8   25.44    1.04
   6  -2  -8   25.22    1.59
  -6  -2   8   23.96    0.91
   6  -4   8    2.33    0.40
  -6  -4  -8    4.60    0.63
  -6  -4  -8    1.57    1.86
  -6   4   8    2.71    0.73
   6  -4   8    3.29    0.63
   6   4  -8    3.02    1.27
   6   4  -8    1.83    0.65
  -6   4   8    2.06    0.16
   6   4   8    2.04    0.31
  -6   4  -8    2.12    1.40
   6   4   8    2.73    0.44
   6  -4  -8    2.47    0.27
  -6   4  -8    2.77    0.61
  -6  -4   8    2.03    0.66
   6  -4  -8    2.08    0.72
  -6  -4   8    2.11    0.40
  -6   6   8  313.89   11.17
   6  -6   8  315.03   13.75
  -6  -6  -8  316.85   21.98
  -6   6   8  325.70   15.59
   6  -6   8  311.31   17.10
   6   6  -8  345.99   20.02
   6   6  -8  326.35   15.00
  -6   6  -8  321.89   18.02
   6  -6  -8  329.03   12.23
  -6   6  -8  331.56   14.19
  -6  -6   8  323.02   15.10
   6  -6  -8  325.21   15.54
  -6  -6   8  310.49   14.87
   6   6   8  313.24   12.47
   6  -8   8    0.57    0.35
  -6  -8  -8    0.47    0.26
  -6  -8  -8    0.59    1.43
   6  -8   8    0.39    0.56
   6   8  -8   -0.33    1.20
   6   8  -8    0.06    0.45
   6   8   8    0.30    0.58
  -6   8  -8   -0.06    0.68
  -6  -8   8    1.00    0.46
  -6   8  -8    0.30    0.20
   6  -8  -8    0.06    0.59
  -6  -8   8    0.32    0.40
   6   8   8    0.07    0.19
   6 -10   8  179.97    7.35
  -6 -10  -8  198.41    7.02
  -6 -10  -8  192.39   13.84
   6  10  -8  203.75   12.80
   6 -10   8  181.01    8.72
   6  10  -8  191.49    7.87
   6  10   8  190.90    9.33
  -6  10  -8  195.85    9.07
  -6 -10   8  191.18    8.11
  -6  10  -8  191.67    6.36
   6 -10  -8  186.62    8.55
  -6 -10   8  183.84    7.96
   6 -10  -8  193.75    8.77
   6  10   8  176.16    6.49
   6  12  -8    8.29    0.81
   6  12  -8    8.65    2.29
   6 -12   8    6.99    1.22
   6 -12   8    7.37    0.76
  -6 -12  -8    6.57    4.08
  -6 -12  -8    7.67    0.44
  -6  12  -8    9.98    1.42
   6  12   8    6.87    1.38
  -6 -12   8    8.90    0.84
   6 -12  -8    8.22    1.14
   6 -12  -8    7.81    1.08
  -6 -12   8    8.26    1.01
  -6  12  -8    7.42    0.31
   6  12   8    6.89    0.36
   6  14  -8    7.43    0.81
   6 -14   8    6.75    0.85
  -6 -14  -8    7.76    2.49
  -6 -14  -8    8.40    0.42
   6  14  -8    8.90    1.45
   6 -14   8    8.33    1.32
  -6  14  -8    8.05    0.65
   6  14   8    9.53    1.56
  -6 -14   8    7.26    0.83
   6 -14  -8    8.14    1.21
   6 -14  -8    8.68    1.15
  -6 -14   8    7.93    1.19
   6  14   8    6.73    0.35
  -6  14  -8    8.95    0.29
   6  16  -8    1.83    0.57
  -6 -16  -8    2.81    0.26
  -6 -16  -8    2.47    1.67
   6 -16   8    1.46    1.06
   6 -16   8    2.71    1.67
   6  16  -8    2.42    1.05
   6 -16  -8    2.20    0.83
  -6  16  -8    2.11    0.13
  -6  16  -8    2.07    0.41
   6  16   8    2.05    2.04
   6 -16  -8    1.87    1.51
  -6 -16   8    2.58    0.58
  -6 -16   8    2.20    0.98
   6  16   8    1.77    0.21
  -6 -18  -8  157.81    5.47
   6  18  -8  144.70    5.95
  -6 -18  -8  145.76   10.34
   6 -18   8  140.35    6.58
   6  18  -8  154.43    8.36
   6 -18   8  147.61    8.30
   6 -18  -8  153.69    7.46
   6  18   8  164.88    9.83
   6 -18  -8  141.40    7.55
  -6 -18   8  152.27    6.39
  -6 -18   8  157.49    8.71
  -6 -20  -8    1.36    0.21
  -6 -20  -8    0.37    2.42
   6 -20   8    1.11    0.71
   6  20  -8    1.26    0.49
   6  20  -8    1.07    0.97
   6 -20   8    1.25    1.05
   6  20   8    2.14    1.35
   6 -20  -8    1.97    0.94
   6 -20  -8    1.35    0.83
   6  20   8    1.08    0.18
  -6 -20   8    1.28    0.52
  -6 -20   8    1.11    1.22
  -6 -22  -8   39.05    4.31
  -6 -22  -8   43.22    1.50
   6 -22   8   38.78    2.56
   6  22  -8   38.34    2.60
   6  22  -8   41.08    3.25
   6 -22   8   38.94    3.43
   6  22   8   47.18    4.29
   6 -22  -8   42.94    2.86
   6 -22  -8   36.40    3.20
  -6 -22   8   41.17    2.84
  -6 -22   8   43.69    6.55
  -6 -24  -8    9.00    2.27
  -6 -24  -8    9.22    0.40
   6 -24   8    9.09    1.39
   6  24  -8    9.48    2.63
   6 -24   8    9.28    1.84
   6  24  -8    7.57    1.25
   6 -24  -8    8.26    1.54
   6  24   8   10.05    2.03
   6  24   8    7.87    0.45
   6 -24  -8    7.92    1.79
  -6 -24   8   10.35    0.90
  -6 -24   8    9.33    3.81
  -6 -26  -8   83.04    6.41
   6 -26   8   80.70    6.73
   6  26  -8   86.61    5.20
   6 -26   8   81.02    5.79
   6  26  -8   79.14    3.29
   6 -26  -8   84.04    5.11
   6  26   8   83.86    5.84
   6 -26  -8   75.92    5.89
  -6 -26   8   84.62    3.66
  -6 -26   8   81.75    9.28
   6 -28   8    1.05    1.22
   6 -28   8    1.53    1.66
   6  28  -8    1.61    1.00
   6  28  -8    0.96    0.47
  -6 -28  -8    1.34    2.32
   6 -28  -8    1.24    1.09
   6  28   8    0.64    1.89
   6 -28  -8    1.38    1.42
  -6 -28   8    1.47    0.54
  -6 -28   8    0.74    1.32
   6 -30   8   38.13    3.42
   6 -30   8   40.83    3.77
   6  30  -8   43.62    3.35
   6  30  -8   33.61    1.74
  -6 -30  -8   43.12    4.21
   6 -30  -8   39.96    5.65
   6  30   8   38.93    3.43
   6 -30  -8   39.83    7.36
  -6 -30   8   41.35    2.10
  -6 -30   8   37.91    3.82
   6 -32   8    1.32    2.08
   6 -32   8    0.87    1.21
   6  32  -8    1.96    1.11
   6  32  -8    0.84    0.49
  -6 -32  -8    1.70    1.41
   6  32   8    1.16    1.11
   6 -32  -8    0.50    3.01
  -6 -32   8    1.74    0.57
  -6 -32   8    1.38    1.29
   6 -32  -8    1.58    1.36
   8   0   8   14.29    1.12
  -8   0  -8   14.52    2.55
  -8   0  -8   15.45    0.90
  -8   0   8   14.58    1.23
   8   0   8   15.55    0.94
   8   0  -8   16.94    2.30
   8   0  -8   15.55    1.29
  -8   0   8   13.23    0.78
   8  -2   8   16.68    0.86
  -8  -2  -8   20.82    3.19
  -8  -2  -8   17.80    0.96
   8  -2   8   16.81    1.07
  -8   2   8   17.93    1.36
   8   2  -8   21.35    2.79
   8   2  -8   16.41    1.36
   8   2   8   17.39    1.16
  -8   2  -8   21.40    2.29
  -8   2  -8   17.48    0.89
   8   2   8   17.58    1.11
   8  -2  -8   20.51    1.33
  -8  -2   8   17.80    1.33
   8  -2  -8   17.53    2.20
  -8  -2   8   16.01    0.69
  -8   4   8   27.10    0.91
   8  -4   8   30.27    1.28
  -8  -4  -8   30.37    3.97
  -8  -4  -8   31.79    1.30
  -8   4   8   30.03    1.83
   8   4  -8   36.14    2.51
   8  -4   8   29.55    1.54
   8   4  -8   31.21    1.80
  -8   4  -8   32.97    2.47
  -8   4  -8   31.01    1.14
   8  -4  -8   33.07    1.52
  -8  -4   8   30.86    1.75
   8   4   8   30.25    1.69
   8  -4  -8   29.86    1.90
  -8  -4   8   28.03    1.12
   8   4   8   29.90    1.10
  -8   6   8   26.32    0.62
  -8  -6  -8   28.03    3.62
   8  -6   8   28.17    1.26
  -8  -6  -8   27.90    1.14
   8  -6   8   27.36    1.56
  -8   6   8   28.87    1.77
   8   6  -8   31.17    2.44
   8   6  -8   26.60    1.67
  -8   6  -8   28.76    2.94
   8   6   8   28.33    2.66
  -8   6  -8   27.30    0.95
   8  -6  -8   27.63    1.13
  -8  -6   8   28.69    2.52
   8  -6  -8   26.04    2.80
  -8  -6   8   25.54    1.73
   8   6   8   26.65    1.00
  -8  -8  -8    1.06    1.19
   8  -8   8    0.09    0.58
  -8   8   8    0.30    0.07
  -8  -8  -8    0.37    0.43
  -8   8   8    0.48    0.52
   8   8  -8   -0.17    0.77
   8  -8   8   -0.22    0.49
   8   8  -8    0.44    0.82
   8   8   8    0.42    0.59
  -8   8  -8    0.32    0.18
  -8  -8   8    0.45    0.47
   8  -8  -8    0.27    0.18
   8  -8  -8    0.43    0.56
  -8  -8   8    0.15    0.36
   8   8   8    0.03    0.22
  -8   8  -8   -0.12    0.46
   8  10  -8    2.84    0.71
  -8 -10  -8    2.83    1.70
   8 -10   8    3.90    0.58
  -8 -10  -8    3.53    0.39
  -8  10   8    2.53    0.78
   8 -10   8    3.37    0.78
   8  10  -8    4.80    1.16
   8  10   8    4.09    1.01
   8 -10  -8    2.95    0.18
  -8 -10   8    3.19    0.70
  -8  10  -8    3.22    0.24
   8 -10  -8    3.02    0.87
  -8 -10   8    3.76    0.62
  -8  10  -8    2.02    0.80
   8  10   8    2.37    0.55
   8  12  -8   84.70    3.70
  -8 -12  -8   80.03    6.35
   8 -12   8   82.34    4.45
   8  12  -8   93.49    5.33
  -8 -12  -8   87.24    2.85
   8 -12   8   81.97    4.11
   8  12   8   86.45    5.04
  -8 -12   8   86.58    3.75
  -8  12  -8   84.17    2.45
   8 -12  -8   84.49    4.16
  -8 -12   8   82.25    3.69
   8 -12  -8   87.81    4.10
   8  12   8   79.18    2.53
  -8  12  -8   81.26    3.11
  -8 -14  -8   13.90    2.56
   8  14  -8   13.40    1.18
   8 -14   8   12.98    1.10
  -8 -14  -8   14.82    0.66
   8 -14   8   14.02    1.50
   8  14  -8   16.63    3.06
   8  14   8   14.71    2.03
  -8 -14   8   13.89    1.15
   8 -14  -8   15.09    1.51
  -8 -14   8   14.29    1.33
   8 -14  -8   14.09    1.40
   8  14   8   13.05    0.59
  -8  14  -8   13.69    0.43
  -8 -16  -8   52.34    4.73
   8  16  -8   53.09    2.54
   8 -16   8   49.99    2.55
  -8 -16  -8   55.57    1.77
   8 -16   8   55.13    4.73
   8  16  -8   58.00    3.91
   8  16   8   55.42    4.30
  -8 -16   8   53.93    2.56
   8 -16  -8   53.23    3.20
   8 -16  -8   54.61    2.96
  -8 -16   8   52.44    4.45
   8  16   8   46.27    1.91
  -8 -18  -8   18.73    1.08
   8 -18   8   18.46    2.30
   8  18  -8   18.67    1.33
   8 -18   8   18.14    2.01
   8  18  -8   17.68    2.28
  -8 -18  -8   21.90    4.66
   8  18   8   20.86    2.74
   8 -18  -8   18.18    2.95
  -8 -18   8   18.17    1.37
   8 -18  -8   18.64    2.61
  -8 -18   8   19.10    1.93
  -8 -20  -8   56.05    1.78
   8 -20   8   50.56    2.88
   8  20  -8   50.26    2.47
   8 -20   8   53.36    3.76
   8  20  -8   60.04    4.03
  -8 -20  -8   52.32    4.74
   8 -20  -8   54.17    3.17
   8  20   8   56.72    4.73
   8 -20  -8   49.50    3.50
  -8 -20   8   53.58    2.67
  -8 -20   8   55.84    3.89
  -8 -22  -8   33.55    1.51
   8 -22   8   29.33    2.26
   8  22  -8   36.22    3.00
   8 -22   8   31.68    2.91
   8  22  -8   32.13    1.75
  -8 -22  -8   31.61    3.63
   8  22   8   34.29    3.42
   8 -22  -8   30.77    2.38
   8 -22  -8   30.79    2.70
  -8 -22   8   32.85    1.88
  -8 -22   8   32.05    3.24
  -8 -24  -8   72.54    2.36
   8 -24   8   65.08    3.92
   8  24  -8   70.50    4.25
   8  24  -8   76.79    7.03
   8 -24   8   66.05    4.83
  -8 -24  -8   70.35    5.58
   8  24   8   68.57    5.20
   8 -24  -8   69.61    4.08
   8 -24  -8   65.71    4.63
  -8 -24   8   70.14    3.38
  -8 -24   8   72.48    5.73
  -8 -26  -8    6.49    0.70
   8 -26   8    5.70    1.39
   8  26  -8    6.37    1.60
   8 -26   8    4.44    2.79
   8  26  -8    6.32    0.86
  -8 -26  -8    7.86    1.96
   8 -26  -8    5.92    1.36
   8  26   8    7.74    1.69
   8 -26  -8    5.65    1.69
  -8 -26   8    6.36    0.93
  -8 -26   8    6.39    2.23
   8 -28   8    2.46    1.21
   8  28  -8    3.16    1.32
   8 -28   8    3.35    1.47
   8  28  -8    2.32    0.67
  -8 -28  -8    2.94    1.61
   8 -28  -8    3.30    1.16
   8  28   8    2.42    1.35
   8 -28  -8    3.53    1.53
  -8 -28   8    2.24    1.23
  -8 -28   8    3.31    1.87
   8 -30   8    4.06    2.26
   8  30  -8    3.78    1.42
   8 -30   8    4.02    1.63
   8  30  -8    3.16    0.70
  -8 -30  -8    4.21    1.71
   8 -30  -8    3.04    1.36
   8  30   8    3.39    1.37
   8 -30  -8    2.78    1.78
  -8 -30   8    4.18    1.87
  -8 -30   8    3.77    1.33
  10   0   8   -0.08    0.47
 -10   0  -8    0.01    0.34
 -10   0   8    0.16    0.47
  10   0   8   -0.12    0.32
  10   0  -8    0.46    0.46
 -10   0  -8    0.01    0.68
  10   0  -8   -0.06    0.51
 -10   0   8    0.06    0.17
  10  -2   8    2.48    0.47
 -10  -2  -8    2.63    0.49
 -10   2   8    1.95    0.73
  10   2  -8    2.47    0.77
  10  -2   8    1.93    0.43
 -10  -2  -8    3.69    1.25
 -10   2   8    2.34    0.24
  10   2  -8    2.52    0.78
  10   2   8    2.13    0.70
 -10   2  -8    3.16    0.55
  10   2   8    2.14    0.58
 -10  -2   8    2.60    0.72
  10  -2  -8    3.81    0.66
 -10   2  -8    3.18    0.86
 -10  -2   8    1.75    0.33
  10  -2  -8    2.57    0.81
 -10   4   8   16.82    0.55
  10  -4   8   19.23    1.04
 -10  -4  -8   18.66    1.00
  10  -4   8   18.25    1.22
 -10   4   8   19.11    1.45
  10   4  -8   21.26    1.69
 -10  -4  -8   18.54    2.78
  10   4  -8   17.24    1.49
  10   4   8   18.88    1.36
 -10   4  -8   18.62    0.84
  10  -4  -8   21.24    1.85
 -10  -4   8   19.35    1.43
 -10   4  -8   18.86    2.13
  10  -4  -8   18.50    1.55
 -10  -4   8   16.05    0.83
  10   4   8   17.99    0.88
  10   6  -8   33.55    2.10
 -10   6   8   33.21    1.07
  10  -6   8   34.36    1.58
 -10  -6  -8   34.06    1.43
  10  -6   8   35.79    1.85
 -10   6   8   37.26    2.10
  10   6  -8   39.36    3.71
 -10  -6  -8   35.01    6.63
  10   6   8   37.34    3.21
 -10   6  -8   33.19    1.13
  10  -6  -8   38.10    2.22
 -10  -6   8   36.47    2.05
 -10   6  -8   33.98    1.64
 -10  -6   8   32.53    1.37
  10  -6  -8   32.46    2.17
  10   6   8   35.45    1.34
  10   8  -8   13.87    1.35
  10  -8   8   14.69    0.98
 -10   8   8   13.59    0.53
  10  -8   8   13.88    1.17
 -10  -8  -8   14.10    0.80
 -10   8   8   14.62    1.31
  10   8  -8   17.08    1.76
 -10  -8  -8   15.72    5.39
  10   8   8   15.56    1.55
 -10   8  -8   14.26    0.54
  10  -8  -8   15.00    1.19
 -10  -8   8   14.68    2.04
 -10   8  -8   12.83    0.79
  10  -8  -8   13.42    1.45
 -10  -8   8   13.48    1.38
  10   8   8   13.94    0.73
  10  10  -8   30.76    1.99
  10 -10   8   31.07    1.60
 -10  10   8   30.07    0.70
 -10 -10  -8   31.43    1.29
 -10  10   8   34.37    1.98
  10 -10   8   31.34    1.87
  10  10  -8   34.61    2.75
 -10 -10  -8   31.79    6.64
  10  10   8   34.07    2.58
 -10  10  -8   30.50    1.05
 -10  10  -8   28.21    1.39
  10 -10  -8   33.18    1.48
 -10 -10   8   33.43    1.93
  10 -10  -8   30.38    2.14
 -10 -10   8   30.87    1.57
  10  10   8   31.47    1.66
  10 -12   8   14.43    1.15
  10  12  -8   15.98    2.25
 -10 -12  -8   15.75    1.19
 -10  12   8   14.55    0.43
 -10  12   8   15.11    1.38
  10 -12   8   15.47    1.41
  10  12  -8   19.45    2.07
 -10 -12  -8   12.96    4.71
  10  12   8   17.24    2.03
  10 -12  -8   16.16    0.55
 -10  12  -8   15.34    0.53
 -10 -12   8   14.85    1.33
  10 -12  -8   15.60    2.46
 -10 -12   8   15.15    1.84
  10  12   8   14.59    0.73
  10 -14   8    4.41    0.76
  10  14  -8    5.46    0.90
 -10 -14  -8    5.67    0.47
  10 -14   8    4.24    0.95
  10  14  -8    4.54    1.37
 -10 -14  -8    4.54    1.89
  10 -14  -8    4.53    0.13
  10  14   8    5.54    1.47
  10 -14  -8    4.33    0.20
 -10 -14   8    4.49    1.42
  10 -14  -8    4.22    1.05
 -10 -14   8    4.31    0.83
  10  14   8    3.75    0.43
  10 -14  -8    5.32    0.93
 -10  14  -8    4.37    0.18
  10 -16   8    2.84    0.97
  10 -16   8    1.99    0.75
 -10 -16  -8    3.01    0.67
  10  16  -8    3.78    0.80
  10  16  -8    3.62    1.40
 -10 -16  -8    3.42    1.65
  10  16   8    4.19    1.46
 -10 -16   8    3.72    0.80
  10 -16  -8    3.07    0.99
  10  16   8    2.94    0.39
 -10 -16   8    3.26    0.86
  10 -16  -8    2.57    0.86
  10 -18   8   90.66    5.03
  10 -18   8   86.12    4.18
 -10 -18  -8   96.39    3.31
  10  18  -8   88.55    4.12
  10  18  -8  102.30    6.25
 -10 -18  -8   90.56    6.75
  10  18   8  100.77    6.80
 -10 -18   8   93.21    4.39
  10 -18  -8   95.50    4.62
  10  18   8   80.39    2.86
  10 -18  -8   85.84    4.85
 -10 -18   8   89.37    4.77
 -10 -20  -8   31.10    1.67
  10 -20   8   29.76    2.06
  10  20  -8   30.62    1.92
  10 -20   8   32.50    3.93
  10  20  -8   33.81    3.06
 -10 -20  -8   32.36    3.55
  10  20   8   32.93    3.29
 -10 -20   8   32.77    2.01
  10 -20  -8   30.07    2.17
  10  20   8   26.46    1.07
  10 -20  -8   29.53    3.77
 -10 -20   8   31.92    3.96
 -10 -22  -8    3.16    0.41
  10 -22   8    3.10    0.93
  10  22  -8    2.91    0.77
  10 -22   8    1.86    1.17
  10  22  -8    3.04    2.21
 -10 -22  -8    3.44    1.55
  10 -22  -8    3.13    0.92
  10  22   8    2.99    1.37
  10  22   8    2.45    0.35
 -10 -22   8    2.54    1.33
  10 -22  -8    3.25    1.14
 -10 -22   8    2.59    1.24
 -10 -24  -8   12.52    0.72
  10 -24   8   12.54    1.60
  10  24  -8   12.50    1.26
  10 -24   8   12.95    2.01
  10  24  -8   13.34    2.21
 -10 -24  -8   11.25    2.40
  10 -24  -8   13.01    2.42
  10  24   8   13.37    2.14
  10 -24  -8   10.45    1.89
 -10 -24   8   13.50    1.36
 -10 -24   8   13.46    2.22
 -10 -26  -8   29.72    1.70
  10 -26   8   28.62    2.49
  10  26  -8   26.65    2.86
  10  26  -8   33.20    3.17
  10 -26   8   28.80    2.99
 -10 -26  -8   27.94    3.50
  10  26   8   27.39    3.01
  10 -26  -8   28.87    2.37
  10 -26  -8   27.82    2.98
 -10 -26   8   29.14    2.09
 -10 -26   8   29.11    3.58
  10 -28   8    1.46    1.06
  10  28  -8    1.61    1.23
  10 -28   8    2.93    1.24
  10  28  -8    0.95    0.69
 -10 -28  -8    1.95    1.47
  10 -28  -8    0.97    0.96
  10  28   8    1.73    1.18
  10 -28  -8    1.20    1.29
 -10 -28   8    1.44    0.78
 -10 -28   8    1.34    1.66
  12   0   8   20.35    1.16
 -12   0  -8   22.56    1.29
  12   0   8   22.36    1.27
 -12   0   8   20.99    1.65
  12   0  -8   25.24    1.51
 -12   0  -8   22.41    1.74
  12   0  -8   28.10    1.90
 -12   2   8    3.83    0.34
  12  -2   8    5.30    0.63
  12   2  -8    4.91    1.71
 -12  -2  -8    4.83    0.64
  12  -2   8    4.75    0.57
 -12   2   8    5.05    0.92
  12   2  -8    5.41    0.85
 -12  -2  -8    4.31    1.87
 -12   2  -8    5.55    0.72
  12   2   8    4.59    0.77
 -12  -2   8    5.36    0.93
  12  -2  -8    6.01    0.73
 -12   2  -8    4.54    0.80
 -12  -2   8    4.29    0.43
  12   2   8    5.62    0.59
  12  -2  -8    5.00    1.06
  12  -4   8   77.59    3.15
  12   4  -8   78.90    4.03
 -12   4   8   68.88    2.53
 -12  -4  -8   80.25    3.16
 -12   4   8   81.45    3.83
  12   4  -8   86.38    4.04
  12  -4   8   78.93    2.82
 -12  -4  -8   81.70    5.06
 -12   4  -8   78.82    3.43
  12   4   8   81.72    3.89
 -12   4  -8   77.01    3.21
 -12  -4   8   80.50    3.84
  12  -4  -8   86.55    3.41
 -12  -4   8   73.44    3.29
  12  -4  -8   76.57    4.11
  12   4   8   78.47    2.98
  12  -6   8   -0.16    0.67
 -12   6   8    0.18    0.16
  12   6  -8   -0.14    1.03
 -12  -6  -8    0.15    0.34
 -12   6   8    0.18    0.53
  12   6  -8   -0.04    0.95
 -12  -6  -8    0.73    0.96
  12  -6   8    0.34    0.46
 -12   6  -8    0.03    0.45
 -12   6  -8    0.19    0.22
  12   6   8    0.61    0.58
 -12   6  -8    0.04    0.30
  12  -6  -8    0.30    0.35
 -12  -6   8    0.23    0.89
 -12  -6   8   -0.11    0.30
  12   6   8   -0.32    0.32
  12  -6  -8    0.81    0.63
  12  -8   8  182.94    7.81
  12   8  -8  184.74    8.86
 -12   8   8  170.24    6.06
 -12  -8  -8  185.74    7.52
  12  -8   8  180.56    8.23
 -12   8   8  187.25    8.52
  12   8  -8  210.65   10.06
 -12  -8  -8  191.76   12.54
 -12   8  -8  180.85    6.25
 -12   8  -8  162.80    6.26
  12   8   8  187.82    9.67
  12  -8  -8  199.96    7.62
 -12  -8   8  187.90    8.68
  12  -8  -8  179.37    8.85
 -12  -8   8  167.58    6.99
  12   8   8  180.10    7.06
  12 -10   8    6.72    0.86
  12  10  -8    7.19    1.19
 -12  10   8    6.97    0.30
  12 -10   8    8.15    1.60
 -12 -10  -8    7.79    0.69
 -12  10   8    7.27    1.06
 -12 -10  -8    7.64    2.51
  12  10  -8    9.17    1.32
 -12  10  -8    5.62    0.55
 -12  10  -8    7.35    0.32
  12  10   8    5.84    2.38
  12 -10  -8    8.26    0.94
 -12 -10   8    8.15    1.10
 -12 -10   8    5.04    1.23
  12  10   8    6.41    0.61
  12 -10  -8    6.57    1.26
  12 -12   8   34.59    1.92
  12  12  -8   34.88    2.35
 -12 -12  -8   35.96    1.50
 -12  12   8   34.51    0.89
 -12  12   8   36.41    2.16
  12 -12   8   34.93    2.17
  12  12  -8   36.81    2.78
 -12 -12  -8   39.71    5.24
 -12  12  -8   33.23    0.81
  12 -12  -8   38.44    1.78
 -12 -12   8   37.57    3.36
  12  12   8   32.87    1.40
 -12 -12   8   32.92    1.78
  12 -12  -8   34.05    2.46
  12  12   8   36.32    3.17
  12 -14   8    2.34    1.21
 -12 -14  -8    2.11    0.48
  12  14  -8    2.66    0.90
 -12  14   8    4.19    0.80
  12  14  -8    4.48    1.93
  12 -14   8    2.62    1.38
 -12 -14  -8    3.96    2.05
 -12 -14   8    3.23    0.84
  12  14   8    2.12    0.45
  12 -14  -8    2.59    1.59
 -12 -14   8    3.35    0.71
  12  14   8    4.13    1.35
  12 -16   8   48.84    2.63
 -12 -16  -8   50.99    2.00
  12  16  -8   50.75    4.19
  12 -16   8   48.22    3.05
  12  16  -8   57.92    4.05
 -12 -16  -8   53.41    5.35
 -12 -16   8   53.26    2.92
  12  16   8   46.17    1.83
  12 -16  -8   52.25    2.82
  12 -16  -8   48.53    3.17
 -12 -16   8   47.81    2.75
  12  16   8   53.71    4.28
  12 -18   8    2.74    0.84
 -12 -18  -8    3.28    0.47
  12  18  -8    1.97    0.88
  12 -18   8    3.10    0.99
  12  18  -8    3.05    1.33
 -12 -18  -8    2.20    1.79
 -12 -18   8    2.58    0.87
  12  18   8    2.38    0.44
  12 -18  -8    2.09    0.86
  12 -18  -8    1.53    1.04
 -12 -18   8    3.14    0.92
  12  18   8    3.67    1.44
  12  20  -8   71.62    3.84
  12 -20   8   73.65    5.44
 -12 -20  -8   75.24    3.55
  12  20  -8   82.66    7.88
 -12 -20  -8   70.47    6.33
  12 -20   8   74.01    4.48
  12  20   8   68.59    3.29
  12 -20  -8   75.80    3.94
 -12 -20   8   82.02    5.66
  12 -20  -8   67.35    4.32
 -12 -20   8   73.92    4.35
  12  20   8   76.65    5.41
 -12 -22  -8    5.22    0.60
  12 -22   8    4.50    1.15
  12  22  -8    6.80    1.78
 -12 -22  -8    5.04    2.08
  12 -22   8    4.97    1.40
  12  22  -8    5.88    1.07
  12  22   8    5.31    0.84
  12 -22  -8    4.99    1.09
 -12 -22   8    6.28    1.14
  12 -22  -8    4.42    2.29
 -12 -22   8    5.74    2.32
  12  22   8    5.49    2.71
 -12 -24  -8   47.97    1.98
  12 -24   8   47.92    3.23
  12  24  -8   46.64    2.88
  12 -24   8   46.22    3.73
  12  24  -8   51.35    4.41
 -12 -24  -8   50.94    4.84
  12 -24  -8   47.89    3.00
  12  24   8   45.67    6.04
  12  24   8   36.22    2.21
 -12 -24   8   49.69    3.09
  12 -24  -8   42.10    5.48
 -12 -24   8   48.89    3.87
 -12 -26  -8    4.01    0.91
  12 -26   8    4.00    1.27
  12 -26   8    4.33    1.50
  12  26  -8    5.39    1.73
  12  26  -8    4.73    0.99
 -12 -26  -8    5.62    3.23
  12  26   8    3.96    1.53
  12 -26  -8    3.50    1.78
  12  26   8    2.66    0.81
 -12 -26   8    4.14    1.11
  12 -26  -8    5.39    1.44
 -12 -26   8    4.00    1.66
 -14   0   8    0.19    0.22
  14   0  -8   -0.30    0.67
 -14   0  -8    0.34    0.44
 -14   0  -8    0.07    0.81
  14   0   8    0.21    0.42
 -14   0   8   -0.13    0.58
  14   0  -8    0.09    0.45
  14   0   8    0.58    0.39
  14   2  -8   34.08    3.83
 -14  -2  -8   34.23    1.78
 -14   2   8   33.93    2.19
 -14  -2  -8   34.07    2.21
  14   2  -8   35.39    1.99
  14  -2   8   32.03    2.17
  14  -2   8   31.85    2.46
  14  -2  -8   34.61    2.48
 -14   2  -8   35.69    1.85
 -14   2  -8   32.62    1.73
  14   2   8   34.23    1.96
 -14  -2   8   35.54    2.21
  14  -2  -8   37.23    2.65
  14   2   8   33.56    1.67
 -14  -2   8   28.12    1.65
  14  -4   8   40.10    1.98
  14   4  -8   40.11    2.77
 -14  -4  -8   40.50    1.95
  14  -4   8   39.25    1.59
 -14   4   8   41.62    2.41
 -14  -4  -8   40.47    2.86
  14   4  -8   43.22    2.38
 -14   4  -8   40.95    2.19
 -14   4  -8   36.48    1.66
 -14  -4   8   41.55    2.48
  14  -4  -8   44.80    1.98
  14   4   8   43.16    3.57
  14   4   8   38.43    1.85
 -14  -4   8   35.81    1.49
  14  -4  -8   37.87    2.74
  14  -6   8  103.42    4.42
 -14   6   8   92.87    3.46
  14   6  -8  103.89    5.35
 -14  -6  -8  106.04    4.35
 -14   6   8  109.31    5.04
  14   6  -8  115.14    5.34
  14  -6   8  101.17    3.59
 -14  -6  -8  109.29    6.26
 -14   6  -8  103.61    4.72
 -14   6  -8   87.43    4.01
  14  -6  -8  118.80    4.51
 -14  -6   8  106.76    5.21
  14   6   8  112.91    5.67
  14   6   8  102.56    4.07
 -14  -6   8   95.10    3.76
  14  -6  -8  104.60    5.46
  14  -8   8    4.27    0.69
 -14   8   8    1.99    0.25
  14   8  -8    2.98    0.98
 -14  -8  -8    2.32    0.55
  14  -8   8    1.70    0.73
 -14   8   8    2.76    0.79
 -14  -8  -8    1.74    2.23
  14   8  -8    2.22    0.86
 -14   8  -8    1.72    0.31
 -14   8  -8    0.50    0.72
 -14   8  -8    2.81    0.29
  14  -8  -8    2.97    0.50
 -14  -8   8    2.90    0.86
  14   8   8    1.97    0.52
  14   8   8    2.80    1.02
 -14  -8   8    1.56    0.51
  14  -8  -8    2.27    1.60
  14 -10   8    9.74    1.00
  14  10  -8    8.72    1.38
 -14  10   8    8.53    0.40
 -14 -10  -8    8.84    1.25
  14 -10   8    8.85    1.13
 -14  10   8    8.50    1.14
  14  10  -8    9.56    1.35
 -14 -10  -8    8.19    2.21
 -14 -10   8    8.89    1.22
  14 -10  -8   10.19    1.12
  14  10   8    8.50    0.75
 -14 -10   8    8.75    0.84
  14  10   8   10.58    1.66
  14 -10  -8    7.96    1.39
  14 -12   8    1.87    0.72
 -14 -12  -8    2.07    0.53
  14  12  -8    2.81    0.94
 -14  12   8    2.59    0.23
  14 -12   8    2.23    1.30
 -14  12   8    2.15    0.80
  14  12  -8    1.87    1.63
 -14 -12  -8    2.48    1.80
  14 -12  -8    2.06    0.45
 -14 -12   8    3.39    0.88
  14  12   8    1.41    0.50
 -14 -12   8    2.18    0.63
  14  12   8    3.62    1.25
  14 -12  -8    2.58    0.99
  14 -14   8   17.01    1.45
 -14 -14  -8   17.37    1.07
  14  14  -8   15.97    2.86
 -14  14   8   18.74    1.53
  14 -14   8   16.54    1.62
  14  14  -8   18.26    1.97
 -14 -14  -8   19.02    3.76
 -14 -14   8   16.68    1.68
  14  14   8   16.23    1.01
 -14 -14   8   16.74    1.35
  14  14   8   19.50    2.45
  14 -14  -8   14.44    1.90
  14 -16   8    3.18    0.83
 -14 -16  -8    2.18    0.56
  14  16  -8    2.85    0.99
 -14  16   8    2.44    0.83
  14 -16   8    3.77    1.53
  14  16  -8    3.75    1.19
 -14 -16  -8    1.56    2.43
 -14 -16   8    3.20    0.97
  14  16   8    1.42    0.86
  14 -16  -8    3.29    1.07
 -14 -16   8    2.85    1.35
  14  16   8    3.49    1.46
  14 -18   8   40.27    2.61
 -14 -18  -8   40.07    1.86
  14 -18   8   38.54    2.85
  14  18  -8   46.91    5.56
 -14 -18  -8   36.79    5.48
  14  18  -8   39.33    4.28
 -14 -18   8   43.09    2.81
  14  18   8   38.82    2.44
  14 -18  -8   41.16    2.57
 -14 -18   8   40.16    2.57
  14 -18  -8   37.26    3.12
  14  18   8   41.98    3.83
  14 -20   8   14.08    1.66
 -14 -20  -8   14.73    1.57
  14  20  -8   13.86    1.74
  14 -20   8   14.67    1.83
  14  20  -8   15.85    2.42
 -14 -20  -8   16.77    3.40
  14  20   8   14.88    0.96
 -14 -20   8   15.13    1.77
  14 -20  -8   15.16    1.55
 -14 -20   8   14.85    1.72
  14 -20  -8   12.67    1.97
  14  20   8   17.00    2.42
  14 -22   8    0.94    0.81
 -14 -22  -8    0.02    0.45
  14  22  -8    1.97    0.80
  14  22  -8    1.23    1.19
 -14 -22  -8    0.63    1.56
  14 -22   8    0.35    0.92
  14  22   8    1.06    0.40
  14 -22  -8   -0.00    0.73
 -14 -22   8    1.21    0.85
 -14 -22   8    0.11    0.88
  14 -22  -8    0.15    0.96
  14  22   8    1.67    1.09
 -16   0   8    7.10    0.54
  16   0  -8    8.88    1.49
 -16   0  -8    8.26    1.51
 -16   0  -8    8.40    0.91
  16   0   8    7.43    1.45
 -16   0   8    7.43    1.19
  16   0  -8    9.06    1.02
  16   0   8    8.86    0.93
 -16   2   8    7.03    0.52
  16   2  -8   10.32    1.49
 -16  -2  -8    8.16    0.95
 -16  -2  -8    8.97    1.09
  16  -2   8    8.07    0.81
 -16   2   8    8.62    1.22
  16   2  -8    9.06    1.67
  16  -2   8    8.82    0.95
 -16  -2   8    7.64    0.92
  16  -2  -8    8.32    2.45
 -16   2  -8    7.87    0.78
 -16   2  -8    9.11    1.01
 -16  -2   8    7.17    1.23
  16  -2  -8   10.57    0.97
  16   2   8    9.37    1.45
  16   2   8    8.79    1.09
 -16   4   8    2.37    0.33
  16   4  -8    2.74    1.08
 -16  -4  -8    2.62    0.65
 -16  -4  -8    0.94    1.46
  16  -4   8    2.93    0.76
 -16   4   8    2.19    0.85
  16   4  -8    2.01    0.78
  16  -4   8    3.09    0.69
 -16  -4   8    2.21    0.45
  16  -4  -8    2.81    1.05
 -16   4  -8    2.40    0.73
 -16   4  -8    2.16    0.72
  16  -4  -8    2.96    0.63
 -16  -4   8    3.12    1.48
  16   4   8    2.80    0.62
  16   4   8    2.41    0.88
  16  -6   8    4.73    0.81
 -16  -6  -8    3.35    1.16
 -16   6   8    3.10    0.35
  16   6  -8    4.99    1.22
 -16  -6  -8    4.76    0.72
  16  -6   8    3.63    0.44
 -16   6   8    4.92    1.52
  16   6  -8    4.12    0.94
  16  -6  -8    5.12    1.21
 -16   6  -8    3.00    0.42
 -16   6  -8    5.60    0.86
 -16  -6   8    5.26    1.02
  16  -6  -8    4.80    0.70
  16   6   8    4.16    0.69
  16   6   8    4.89    1.10
 -16  -6   8    3.43    0.56
  16  -8   8    0.57    0.61
 -16   8   8    0.65    0.24
 -16  -8  -8    0.73    0.51
  16   8  -8    0.96    0.87
 -16  -8  -8    1.15    1.00
 -16   8   8    1.09    0.68
  16   8  -8    1.29    1.18
  16  -8  -8    1.73    1.48
 -16   8  -8    1.33    0.65
 -16  -8   8    0.88    0.74
  16  -8  -8    0.81    0.46
  16   8   8    0.95    0.49
  16   8   8    0.74    0.91
 -16  -8   8    0.77    0.73
  16 -10   8    2.86    0.81
 -16  10   8    2.75    0.30
 -16 -10  -8    3.12    0.65
  16  10  -8    2.89    1.11
  16 -10   8    3.21    0.86
 -16  10   8    3.25    1.42
  16  10  -8    4.03    1.00
 -16 -10  -8    2.89    1.49
 -16 -10   8    2.17    1.63
  16 -10  -8    1.82    0.56
  16  10   8    2.95    0.61
  16  10   8    3.42    1.29
 -16 -10   8    3.06    0.63
  16 -10  -8    2.76    1.10
  16 -12   8   13.60    1.38
 -16 -12  -8   14.24    1.11
  16  12  -8   13.19    2.97
  16 -12   8   12.33    1.45
 -16  12   8   13.57    1.42
 -16 -12  -8   16.47    2.79
  16  12  -8   13.70    1.72
 -16 -12   8   13.16    1.64
  16  12   8   12.50    1.04
  16  12   8   14.44    3.54
 -16 -12   8   13.60    1.82
  16 -12  -8   11.16    1.80
  16 -14   8    2.37    1.45
 -16 -14  -8    2.54    0.64
  16  14  -8    3.32    1.12
  16 -14   8    3.15    0.95
 -16  14   8    3.27    1.40
 -16 -14  -8    1.63    3.37
  16  14  -8    3.59    1.15
 -16 -14   8    3.31    1.04
  16  14   8    2.11    0.62
 -16 -14   8    2.56    0.76
  16  14   8    2.28    2.42
  16 -14  -8    2.39    1.15
  16 -16   8    5.93    1.14
 -16 -16  -8    6.11    0.80
  16  16  -8    5.51    2.32
 -16  16   8    5.60    1.05
  16 -16   8    6.95    1.20
 -16 -16  -8    4.72    4.77
  16  16  -8    6.36    1.48
 -16 -16   8    5.78    1.31
  16  16   8    5.51    0.76
 -16 -16   8    6.22    1.02
  16  16   8    7.50    2.96
  16 -16  -8    3.43    2.40
 -18   0   8    0.25    0.31
  18   0  -8    0.29    0.92
 -18   0  -8    0.33    0.44
 -18   0  -8   -0.06    0.58
 -18   0   8    0.48    0.71
  18   0  -8    1.22    0.57
  18   0   8    0.65    0.57
  18   0   8    0.03    0.52
  18   2  -8   46.07    3.57
 -18  -2  -8   46.35    2.48
 -18  -2  -8   39.98    2.34
  18  -2   8   42.64    2.98
 -18   2   8   45.03    4.20
  18   2  -8   46.97    2.69
  18  -2   8   44.88    2.55
 -18  -2   8   36.96    1.69
  18  -2  -8   44.55    5.32
 -18   2  -8   38.00    1.88
 -18   2  -8   42.36    2.53
 -18  -2   8   44.88    2.92
  18  -2  -8   51.62    2.52
  18   2   8   42.52    2.39
  18   2   8   45.78    2.75
 -18   4   8    4.67    0.50
  18   4  -8    6.32    2.51
 -18  -4  -8    5.57    1.55
 -18  -4  -8    7.00    1.05
  18  -4   8    6.06    0.68
 -18   4   8    5.81    1.16
  18  -4   8    6.61    1.04
 -18  -4   8    5.26    0.65
  18  -4  -8    5.64    1.53
 -18   4  -8    5.19    0.58
 -18   4  -8    5.49    1.05
 -18  -4   8    6.55    2.06
  18   4   8    6.68    0.96
  18   4   8    7.81    1.21
   1  -1   9   43.34    1.60
  -1   1   9   44.23    1.16
  -1  -1  -9   44.27    2.66
  -1  -1  -9   44.11    1.97
   1   1  -9   43.72    2.35
   1   1  -9   45.30    2.76
  -1   1   9   42.52    1.37
   1  -1   9   46.27    2.77
   1  -1  -9   44.22    2.39
   1   1   9   44.20    1.20
  -1  -1   9   44.15    1.59
   1   1   9   45.41    3.01
  -1   1  -9   43.05    2.53
  -1   1  -9   45.21    1.86
  -1  -1   9   43.13    1.62
   1  -1  -9   43.46    2.04
  -1   3   9   25.16    0.61
   1  -3   9   25.05    1.23
  -1  -3  -9   24.77    1.44
   1  -3   9   29.81    2.65
  -1  -3  -9   26.16    3.16
   1   3  -9   26.17    1.60
  -1   3   9   24.11    0.69
   1   3  -9   26.40    1.30
   1  -3  -9   27.40    1.86
   1   3   9   25.18    0.65
  -1  -3   9   26.66    1.23
   1   3   9   25.54    1.13
   1  -3  -9   25.54    1.49
  -1  -3   9   26.32    1.40
  -1   3  -9   26.47    1.22
  -1   3  -9   24.27    2.64
  -1   5   9   11.17    0.24
   1  -5   9   12.35    0.62
  -1  -5  -9   11.84    1.55
  -1  -5  -9   10.42    1.64
   1  -5   9   13.79    2.46
   1   5  -9   11.93    1.66
  -1   5   9   10.95    0.27
   1   5  -9   11.27    0.81
   1   5   9   11.28    0.31
  -1  -5   9   12.27    0.65
   1   5   9   12.20    0.74
   1  -5  -9   11.76    1.07
  -1  -5   9   12.07    1.15
  -1   5  -9   12.58    0.76
  -1   5  -9   10.87    1.11
   1  -5  -9   11.08    1.35
  -1  -7  -9   55.17    3.61
   1  -7   9   57.60    2.04
  -1  -7  -9   56.28    2.72
   1  -7   9   62.95    4.65
   1   7  -9   55.35    2.54
   1   7  -9   56.22    2.17
  -1  -7   9   57.98    2.12
   1  -7  -9   56.39    2.75
   1  -7  -9   56.18    3.23
  -1  -7   9   60.91    3.40
   1   7   9   54.85    1.28
  -1   7  -9   57.80    2.04
   1   7   9   53.67    1.24
  -1   7  -9   55.00    2.62
  -1  -9  -9    1.91    1.77
   1  -9   9    1.30    0.71
  -1  -9  -9    1.96    0.73
   1  -9   9    0.99    1.22
   1   9  -9    1.82    0.55
   1   9  -9    2.26    0.43
  -1  -9   9    2.30    0.49
   1  -9  -9    1.83    0.73
   1  -9  -9    1.88    0.88
  -1  -9   9    2.44    1.09
  -1   9  -9    1.93    0.36
  -1   9  -9    1.86    0.58
  -1 -11  -9  119.38    7.15
   1 -11   9  117.34    4.72
  -1 -11  -9  116.71    5.64
   1 -11   9  116.58    7.01
   1  11  -9  122.06    4.38
   1 -11  -9  122.60    8.69
   1 -11  -9  115.62    5.57
  -1 -11   9  131.55    8.12
  -1  11  -9  118.91    5.97
  -1  11  -9  121.62    4.17
  -1 -13  -9   18.13    2.34
   1 -13   9   15.48    1.15
  -1 -13  -9   16.48    1.66
   1 -13   9   20.57    2.12
   1  13  -9   17.59    1.30
   1  13  -9   17.49    0.85
   1 -13  -9   16.79    1.99
  -1 -13   9   16.46    1.06
   1 -13  -9   15.69    1.67
  -1 -13   9   16.60    2.63
  -1  13  -9   17.97    1.10
  -1  13  -9   17.12    0.76
   1  15  -9   16.17    0.81
   1  15  -9   18.06    1.42
   1 -15   9   14.84    1.96
  -1 -15  -9   16.51    1.85
   1 -15   9   16.45    3.25
  -1 -15  -9   16.76    4.15
   1 -15  -9   16.58    2.11
  -1 -15   9   15.13    1.00
   1 -15  -9   14.47    1.79
  -1 -15   9   18.26    2.31
  -1  15  -9   16.26    1.01
  -1  15  -9   16.43    0.69
   1  17  -9   86.34    3.01
   1 -17   9   86.34    4.17
   1  17  -9   90.53    4.56
  -1 -17  -9   84.09    5.36
   1 -17   9   85.76    5.34
  -1 -17  -9   91.01    6.68
   1 -17  -9   91.46    5.91
  -1  17  -9   86.19    2.77
  -1 -17   9   88.97    3.43
   1 -17  -9   84.20    5.19
  -1 -17   9   83.65    5.61
  -1  17  -9   91.69    3.48
   1  19  -9  121.56    4.30
   1 -19   9  119.11    5.97
  -1 -19  -9  116.77    7.37
   1 -19   9  117.94    6.97
   1  19  -9  127.64    6.52
  -1 -19  -9  130.23    9.01
   1 -19  -9  124.73    7.90
  -1  19  -9  121.42    3.98
  -1 -19   9  123.78    5.66
   1 -19  -9  112.90    7.08
  -1 -19   9  116.15    7.08
  -1  19  -9  125.99    4.73
   1  21  -9    0.91    0.48
   1 -21   9    1.04    0.76
   1  21  -9    1.10    0.86
  -1 -21  -9    0.51    2.00
  -1 -21  -9    0.51    1.50
   1 -21   9    0.70    0.92
  -1  21  -9    0.82    0.22
  -1 -21   9    0.73    0.38
   1 -21  -9    1.75    1.92
  -1 -21   9    0.93    0.96
  -1  21  -9    0.99    0.34
   1 -21  -9    1.08    1.25
   1  23  -9   14.77    0.70
   1 -23   9   16.36    1.83
  -1 -23  -9   17.73    2.87
   1  23  -9   18.37    1.94
  -1 -23  -9   13.95    3.18
   1 -23   9   17.18    1.99
  -1  23  -9   14.08    0.79
  -1 -23   9   16.46    0.90
   1 -23  -9   15.82    2.74
  -1 -23   9   15.59    2.00
  -1  23  -9   16.57    0.80
   1 -23  -9   16.68    2.78
   1 -25   9   69.81    4.30
   1  25  -9   72.13    4.40
  -1 -25  -9   64.64    6.27
   1  25  -9   58.22    2.06
  -1 -25  -9   66.87    6.84
   1 -25   9   67.29    4.22
   1 -25  -9   60.97    6.08
  -1 -25   9   65.62    6.45
   1 -25  -9   68.49    5.98
  -1 -25   9   71.86    2.62
   1  27  -9   46.69    3.35
   1 -27   9   42.49    3.39
  -1 -27  -9   42.74    5.37
  -1 -27  -9   45.45    5.45
   1 -27   9   37.77    4.90
  -1 -27   9   39.98    1.73
   1 -27  -9   39.98    5.47
   1 -27  -9   43.54    5.00
  -1 -27   9   41.36    3.31
   1 -29   9   25.18    2.58
  -1 -29  -9   25.63    4.30
  -1 -29  -9   23.26    3.76
   1  29  -9   23.75    2.43
   1 -29   9   21.83    2.45
   1 -29  -9   20.16    4.60
   1 -29  -9   23.15    4.03
  -1 -29   9   20.01    2.51
  -1 -31  -9   15.57    6.20
   1 -31   9   17.45    2.23
  -1 -31  -9   15.73    3.02
   1  31  -9   17.30    2.22
   1 -31   9   15.58    2.12
   1 -31  -9   15.68    3.69
   1 -31  -9   16.34    3.50
  -1 -31   9   17.38    2.18
  -3  -1  -9  132.39    7.29
   3  -1   9  127.26    4.12
  -3   1   9  128.87    4.12
  -3  -1  -9  126.03    6.04
   3  -1   9  123.51    9.38
   3   1  -9  127.76    5.62
  -3   1   9  118.17    3.59
   3   1  -9  125.74    5.11
  -3   1  -9  124.94    6.77
   3   1   9  128.88    4.46
  -3  -1   9  128.08    4.06
   3   1   9  123.11    9.52
  -3   1  -9  127.79    4.89
   3  -1  -9  130.29    5.79
   3  -1  -9  129.37    5.37
  -3  -1   9  121.95    4.00
  -3  -3  -9   84.96    5.39
   3  -3   9   89.75    2.84
  -3   3   9   89.96    2.25
   3  -3   9   86.87    5.28
  -3  -3  -9   84.65    3.52
   3   3  -9   87.41    3.50
  -3   3   9   77.59    2.00
   3   3   9   88.67    2.50
  -3   3  -9   83.96    4.68
   3   3   9   91.96    7.59
  -3   3  -9   87.02    3.17
   3  -3  -9   87.78    3.73
   3  -3  -9   88.06    4.12
  -3  -3   9   86.08    2.90
  -3   5   9   36.97    0.74
   3  -5   9   37.74    1.81
   3   5  -9   43.51    1.57
  -3  -5  -9   37.47    1.89
   3  -5   9   35.75    3.06
   3   5  -9   36.39    1.73
  -3  -5  -9   35.44    3.23
   3   5   9   37.52    0.97
   3   5   9   43.12    4.00
  -3   5  -9   39.48    2.49
  -3  -5   9   39.48    1.97
  -3   5  -9   36.72    1.41
   3  -5  -9   36.35    2.02
   3  -5  -9   39.41    2.29
  -3  -5   9   37.47    1.62
   3  -7   9    8.19    0.61
  -3  -7  -9    9.28    0.98
   3  -7   9    8.63    1.66
   3   7  -9    9.10    1.17
  -3  -7  -9    8.84    1.90
   3   7  -9    8.93    0.77
   3  -7  -9   10.10    1.91
  -3   7  -9    9.43    1.16
  -3  -7   9    9.04    0.88
   3   7   9   13.23    1.46
   3  -7  -9    9.00    1.69
  -3  -7   9    8.57    1.41
  -3   7  -9    8.65    0.87
   3   7   9    8.45    0.29
   3  -9   9    4.71    0.53
   3   9  -9    4.26    0.66
  -3  -9  -9    3.72    0.88
   3  -9   9    4.21    1.35
  -3  -9  -9    3.68    1.63
   3   9  -9    3.40    0.94
   3  -9  -9    3.80    0.97
  -3   9  -9    3.45    0.87
   3   9   9    5.80    0.47
   3  -9  -9    3.37    0.87
  -3  -9   9    5.18    0.86
  -3   9  -9    3.76    0.39
  -3  -9   9    4.26    0.68
   3 -11   9    0.88    0.40
   3  11  -9    0.94    0.53
  -3 -11  -9    1.53    0.68
   3 -11   9    0.60    1.66
  -3 -11  -9    0.43    1.24
   3  11  -9    0.87    0.65
   3 -11  -9    0.97    0.73
  -3  11  -9    0.68    0.58
  -3 -11   9    0.81    0.46
   3  11   9    0.77    0.31
   3 -11  -9    1.94    0.67
  -3 -11   9    1.17    0.75
  -3  11  -9    0.55    0.24
   3 -13   9   31.05    1.57
   3  13  -9   30.78    1.98
  -3 -13  -9   31.86    2.35
   3 -13   9   28.63    2.86
  -3 -13  -9   30.50    6.04
   3  13  -9   30.87    1.37
  -3  13  -9   34.31    1.82
  -3 -13   9   31.09    1.54
   3 -13  -9   30.21    3.40
   3 -13  -9   28.60    2.38
  -3 -13   9   32.88    2.77
  -3  13  -9   30.38    0.99
   3  15  -9   98.19    3.65
   3 -15   9   96.20    4.27
  -3 -15  -9   95.76    5.58
   3 -15   9   97.41    6.23
  -3 -15  -9  101.57    7.87
   3  15  -9  102.12    5.07
  -3  15  -9  107.90    4.34
  -3 -15   9  100.03    4.02
   3 -15  -9   96.72    5.29
   3 -15  -9  101.16    5.47
  -3 -15   9  103.68    6.71
  -3  15  -9   96.52    2.99
   3  17  -9  110.91    4.19
   3 -17   9  108.26    5.03
   3  17  -9  125.38    6.29
  -3 -17  -9  112.44    6.81
   3 -17   9  112.17    6.92
  -3 -17  -9  119.55    9.29
  -3  17  -9  110.96    3.82
  -3  17  -9  121.78    4.57
   3 -17  -9  115.09    6.48
  -3 -17   9  116.14    4.68
   3 -17  -9  113.11    6.37
  -3 -17   9  118.68    8.47
   3  19  -9   84.33    3.14
   3 -19   9   79.98    5.58
   3  19  -9   98.01    5.15
  -3 -19  -9   82.28    5.86
   3 -19   9   84.79    7.84
  -3 -19  -9   89.78    7.81
  -3  19  -9   81.90    2.71
  -3  19  -9   89.53    3.13
   3 -19  -9   84.43    5.39
  -3 -19   9   88.86    3.50
   3 -19  -9   81.42    5.28
  -3 -19   9   85.56    6.50
   3  21  -9   18.22    1.42
   3 -21   9   19.02    1.72
  -3 -21  -9   18.97    3.61
   3  21  -9   22.12    2.03
  -3 -21  -9   18.68    4.56
   3 -21   9   16.28    2.26
   3 -21  -9   20.50    2.51
  -3  21  -9   19.91    1.07
  -3 -21   9   19.45    1.11
   3 -21  -9   19.68    2.47
  -3 -21   9   18.32    2.67
   3 -23   9    2.10    0.93
   3  23  -9    1.50    0.68
  -3 -23  -9    2.07    2.79
  -3 -23  -9    3.17    2.02
   3 -23   9    2.75    1.14
   3  23  -9    4.00    1.03
   3 -23  -9    2.48    1.37
   3 -23  -9    2.71    2.41
  -3 -23   9    2.61    0.82
  -3 -23   9    3.03    1.34
   3 -25   9    3.70    1.12
  -3 -25  -9    3.27    3.40
  -3 -25  -9    4.23    2.30
   3  25  -9    4.15    1.17
   3  25  -9    3.67    0.47
   3 -25   9    2.96    1.25
   3 -25  -9    4.46    1.91
  -3 -25   9    4.10    0.56
  -3 -25   9    3.74    1.44
   3 -25  -9    5.43    2.72
  -3 -27  -9    1.26    1.65
   3 -27   9    0.45    0.90
  -3 -27  -9    0.83    2.32
   3  27  -9    0.12    0.87
   3  27  -9    0.67    0.32
   3 -27   9    1.45    1.57
   3 -27  -9    0.55    1.66
  -3 -27   9    0.88    0.40
  -3 -27   9    0.70    1.03
   3 -27  -9    1.55    1.31
  -3 -29  -9    3.51    1.85
   3 -29   9    3.59    1.18
  -3 -29  -9    2.76    2.56
   3  29  -9    2.59    1.06
   3 -29   9    2.88    1.15
   3  29  -9    1.41    0.38
   3 -29  -9    1.82    2.32
  -3 -29   9    2.09    0.49
  -3 -29   9    0.96    1.24
   3 -29  -9    2.54    1.72
  -3 -31  -9   30.61    4.34
   3 -31   9   32.63    3.20
   3  31  -9   32.37    2.88
  -3 -31  -9   27.05    5.55
   3 -31   9   32.67    2.98
   3 -31  -9   30.69    5.85
   3 -31  -9   34.31    4.47
  -3 -31   9   30.48    3.14
   5  -1   9   52.71    1.68
   5   1  -9   51.40    1.70
  -5   1   9   54.15    2.67
   5  -1   9   51.31    3.70
  -5  -1  -9   51.52    2.13
  -5  -1  -9   56.14    4.69
   5   1  -9   52.43    2.44
   5   1   9   52.97    1.62
   5  -1  -9   52.21    1.83
  -5  -1   9   56.15    2.64
   5   1   9   61.30    2.66
  -5   1  -9   52.15    2.03
  -5   1  -9   52.80    6.66
   5  -1  -9   51.82    2.50
  -5  -1   9   48.30    1.46
   5  -3   9    1.94    0.33
  -5   3   9    1.68    0.17
   5   3  -9    1.31    0.42
  -5  -3  -9    2.20    0.53
   5  -3   9    2.39    0.74
  -5  -3  -9    0.47    1.50
   5   3  -9    2.26    0.59
   5   3   9    2.42    0.25
  -5  -3   9    1.71    0.64
   5   3   9    1.57    0.57
  -5   3  -9    2.04    0.38
   5  -3  -9    1.55    0.69
   5  -3  -9    1.75    0.65
  -5   3  -9    1.90    2.11
   5  -5   9    1.19    0.35
   5  -5   9    2.49    0.76
  -5   5   9    1.57    0.08
   5   5  -9    1.53    0.47
  -5  -5  -9    1.73    0.56
  -5  -5  -9    1.52    1.49
   5   5  -9    1.57    0.55
  -5   5   9    1.44    0.12
   5   5   9    2.67    0.79
  -5  -5   9    1.68    0.59
  -5   5  -9    1.55    0.54
   5  -5  -9    1.58    0.69
   5  -5  -9    1.89    0.67
  -5  -5   9    1.59    0.37
  -5   5  -9    1.06    1.88
   5   5   9    1.01    0.35
   5  -7   9   76.81    2.79
   5   7  -9   83.11    3.55
  -5  -7  -9   79.59    3.63
   5  -7   9   77.23    4.23
  -5  -7  -9   82.11    6.73
   5   7  -9   80.01    3.32
   5   7   9   81.58    3.12
  -5  -7   9   82.48    4.63
  -5   7  -9   80.37    3.09
   5  -7  -9   82.72    5.37
   5  -7  -9   78.88    3.79
  -5  -7   9   78.12    3.86
  -5   7  -9   89.18    7.10
   5   7   9   76.72    2.19
   5  -9   9   18.86    1.01
  -5  -9  -9   19.63    1.54
   5   9  -9   23.10    2.30
   5  -9   9   18.05    1.85
  -5  -9  -9   19.44    3.34
   5   9  -9   19.45    1.85
   5   9   9   20.19    0.99
  -5  -9   9   19.20    1.28
   5  -9  -9   19.99    1.58
   5  -9  -9   18.69    1.63
  -5   9  -9   19.44    1.03
  -5  -9   9   19.62    1.22
  -5   9  -9   21.25    2.79
   5   9   9   17.60    0.55
   5 -11   9    7.75    0.75
  -5 -11  -9    8.68    1.24
  -5 -11  -9    7.55    2.45
   5  11  -9   11.59    1.16
   5 -11   9    8.47    1.44
   5  11  -9    9.37    0.80
   5  11   9    9.40    0.91
  -5 -11   9    8.95    0.88
  -5  11  -9    9.54    1.72
   5 -11  -9    8.40    1.19
   5 -11  -9    9.96    1.21
  -5 -11   9    9.57    1.02
  -5  11  -9    8.57    0.41
   5  11   9    7.74    0.31
   5  13  -9    9.30    0.86
   5  13  -9   11.63    1.38
   5 -13   9    9.75    0.86
  -5 -13  -9   11.35    1.48
  -5 -13  -9   12.73    2.78
   5 -13   9    9.28    1.62
   5 -13  -9   10.15    1.38
   5  13   9   10.05    0.57
  -5 -13   9   11.05    1.48
  -5  13  -9   10.69    0.98
   5 -13  -9    9.78    1.35
  -5 -13   9   10.70    2.06
  -5  13  -9   10.14    0.62
   5  15  -9   25.88    1.38
   5 -15   9   26.86    1.54
  -5 -15  -9   28.20    2.53
  -5 -15  -9   27.35    4.18
   5  15  -9   28.91    2.35
   5 -15   9   27.50    2.54
   5 -15  -9   27.08    2.18
   5  15   9   27.64    0.98
  -5 -15   9   27.39    1.50
  -5  15  -9   27.27    1.38
   5 -15  -9   25.07    2.17
  -5 -15   9   27.91    2.25
  -5  15  -9   26.16    0.97
   5  17  -9    2.79    0.62
   5 -17   9    4.87    0.80
  -5 -17  -9    4.01    1.42
  -5 -17  -9    3.96    2.27
   5  17  -9    4.78    1.16
   5 -17   9    6.12    1.38
  -5  17  -9    4.35    0.35
  -5  17  -9    5.33    0.49
  -5 -17   9    3.15    0.66
   5 -17  -9    3.66    1.12
   5 -17  -9    3.24    1.19
  -5 -17   9    4.37    1.34
   5  19  -9   10.27    0.84
  -5 -19  -9   10.07    2.92
   5 -19   9   10.30    1.17
  -5 -19  -9    9.99    2.11
   5  19  -9   11.34    2.56
   5 -19   9   11.81    1.90
  -5 -19   9   10.42    0.94
   5 -19  -9   11.54    1.56
   5 -19  -9   10.86    1.71
  -5 -19   9    9.65    2.07
  -5 -21  -9    9.56    2.61
   5 -21   9    8.53    1.19
   5  21  -9    7.56    1.20
  -5 -21  -9   10.98    2.16
   5  21  -9   11.21    2.44
   5 -21   9    8.42    2.86
   5 -21  -9    9.52    1.58
  -5 -21   9    9.04    1.38
   5 -21  -9    8.56    1.81
  -5 -21   9   10.59    2.30
  -5 -23  -9    4.52    1.99
   5 -23   9    2.78    1.63
   5  23  -9    2.91    0.92
  -5 -23  -9    4.33    1.93
   5  23  -9    4.21    1.18
   5 -23   9    3.50    1.44
   5 -23  -9    3.57    1.32
  -5 -23   9    4.30    0.67
   5 -23  -9    4.11    1.54
  -5 -23   9    4.81    1.81
  -5 -25  -9    9.11    4.06
   5 -25   9    6.73    1.41
   5  25  -9    7.54    1.14
  -5 -25  -9    6.63    2.26
   5  25  -9   12.77    1.58
   5 -25   9    8.83    1.88
   5 -25  -9    7.36    1.84
   5 -25  -9    5.77    3.56
  -5 -25   9    9.63    0.87
  -5 -25   9    8.52    2.13
  -5 -27  -9    1.95    1.73
   5 -27   9    2.29    1.07
  -5 -27  -9    1.11    1.53
   5  27  -9    2.01    1.09
   5  27  -9    2.31    0.81
   5 -27   9    1.82    2.14
   5 -27  -9    2.70    1.40
   5 -27  -9    2.69    1.77
  -5 -27   9    2.16    0.58
  -5 -27   9    1.72    1.45
  -5 -29  -9   36.33    4.29
   5 -29   9   33.11    3.11
  -5 -29  -9   33.58    3.68
   5  29  -9   39.21    3.07
   5  29  -9   29.30    2.17
   5 -29   9   33.55    3.28
   5 -29  -9   32.31    5.00
  -5 -29   9   36.60    1.88
  -5 -29   9   30.52    3.57
   5 -29  -9   35.54    3.96
   7  -1   9   14.04    0.72
  -7  -1  -9   15.52    2.90
  -7  -1  -9   14.44    0.93
   7  -1   9   14.10    1.06
  -7   1   9   14.90    1.29
   7   1  -9   15.13    1.43
   7   1  -9   14.42    1.28
   7   1   9   13.98    0.67
  -7   1  -9   17.38    2.90
   7   1   9   13.82    1.50
  -7  -1   9   13.56    1.26
  -7   1  -9   14.24    0.83
   7  -1  -9   14.57    0.76
   7  -1  -9   14.15    1.27
   7  -3   9    8.30    0.60
  -7  -3  -9   10.17    2.47
  -7   3   9    9.96    1.08
  -7  -3  -9    8.60    0.82
   7  -3   9    9.81    0.95
   7   3  -9    8.18    1.00
   7   3  -9   10.15    0.91
   7   3   9    8.56    0.50
  -7   3  -9   10.47    2.07
   7   3   9    8.19    0.74
   7  -3  -9    9.16    0.68
  -7   3  -9    8.23    0.94
  -7  -3   9    8.68    1.03
   7  -3  -9    7.48    1.09
  -7  -3   9    7.71    0.49
   7  -5   9   27.49    1.18
  -7  -5  -9   27.19    3.86
  -7  -5  -9   27.60    1.63
  -7   5   9   27.06    1.88
   7   5  -9   31.01    1.85
   7  -5   9   26.39    1.78
   7   5  -9   28.90    1.71
  -7   5  -9   30.55    2.90
   7  -5  -9   29.23    0.73
   7   5   9   28.31    1.83
  -7  -5   9   27.48    1.72
  -7   5  -9   28.96    1.07
   7  -5  -9   29.71    1.86
  -7  -5   9   25.34    1.07
   7   5   9   26.35    0.92
   7  -7   9   -0.18    0.54
  -7  -7  -9   -0.66    1.26
  -7   7   9    0.24    0.07
  -7  -7  -9    0.67    0.51
   7   7  -9   -0.02    0.59
   7   7  -9    0.53    0.47
  -7   7  -9    0.23    0.73
   7   7   9    0.38    0.30
  -7  -7   9    0.20    0.47
  -7   7  -9    0.19    0.21
   7  -7  -9    0.46    0.58
   7  -7  -9   -0.26    0.57
  -7  -7   9    0.07    0.53
   7  -9   9    5.06    0.61
  -7  -9  -9    5.69    2.11
  -7  -9  -9    6.58    1.00
   7  -9   9    5.77    1.02
   7   9  -9    7.09    1.16
   7   9  -9    6.23    0.81
  -7   9  -9    5.74    1.01
   7   9   9    4.99    0.50
  -7  -9   9    6.41    0.84
  -7   9  -9    6.03    0.55
   7  -9  -9    6.64    1.02
   7  -9  -9    6.32    1.72
  -7  -9   9    5.25    0.66
   7   9   9    4.84    0.35
   7  11  -9    3.84    0.70
   7 -11   9    2.48    0.93
  -7 -11  -9    3.32    1.74
  -7 -11  -9    3.45    0.40
   7 -11   9    3.23    0.94
   7  11  -9    3.06    1.05
  -7  11  -9    2.50    0.67
  -7 -11   9    3.10    0.69
   7 -11  -9    3.09    1.46
  -7  11  -9    2.96    0.25
   7 -11  -9    3.82    0.95
   7  11   9    2.62    0.96
  -7 -11   9    2.92    1.08
   7  11   9    2.71    0.43
   7  13  -9   57.57    2.58
   7 -13   9   55.94    2.47
  -7 -13  -9   54.54    5.19
  -7 -13  -9   59.23    1.93
   7  13  -9   61.41    3.77
   7 -13   9   58.04    3.47
  -7  13  -9   56.13    2.17
  -7 -13   9   59.73    2.73
   7 -13  -9   58.26    3.22
   7 -13  -9   55.03    3.35
  -7 -13   9   56.64    2.82
   7  13   9   57.17    3.63
   7  13   9   50.30    1.52
  -7  13  -9   53.84    1.43
   7  15  -9    6.47    1.29
   7  15  -9    4.35    1.27
   7 -15   9    4.39    0.80
  -7 -15  -9    4.94    1.99
  -7 -15  -9    6.21    0.42
   7 -15   9    6.99    2.08
  -7 -15   9    4.39    0.83
   7 -15  -9    5.90    1.94
   7 -15  -9    6.56    1.83
  -7 -15   9    3.99    1.04
   7  15   9    4.24    0.44
   7  15   9    6.16    1.39
  -7  15  -9    5.52    0.22
  -7  15  -9    5.57    0.39
  -7 -17  -9   14.54    2.80
   7  17  -9   14.30    1.14
   7 -17   9   12.85    1.22
  -7 -17  -9   15.42    0.65
   7  17  -9   15.54    1.88
   7 -17   9   15.44    1.94
   7 -17  -9   14.84    1.62
  -7 -17   9   13.87    1.19
   7 -17  -9   15.06    1.75
  -7 -17   9   15.57    1.73
   7  17   9   15.03    2.25
  -7 -19  -9   21.67    3.23
   7 -19   9   20.95    1.61
   7  19  -9   20.59    1.35
  -7 -19  -9   22.98    1.10
   7  19  -9   25.94    2.31
   7 -19   9   22.39    2.46
   7 -19  -9   22.22    3.17
  -7 -19   9   21.39    1.45
   7 -19  -9   22.55    2.28
  -7 -19   9   19.48    2.37
   7  19   9   22.91    2.88
  -7 -21  -9   18.25    2.86
   7 -21   9   14.54    1.52
   7  21  -9   15.85    1.17
   7  21  -9   17.68    3.17
   7 -21   9   16.80    3.53
  -7 -21   9   17.73    1.29
   7 -21  -9   16.14    1.87
   7 -21  -9   16.50    2.13
  -7 -21   9   17.46    3.87
   7  21   9   18.55    2.72
  -7 -23  -9   26.41    3.41
   7 -23   9   23.41    2.09
   7  23  -9   24.92    1.46
   7  23  -9   27.71    2.50
   7 -23   9   25.04    2.89
   7 -23  -9   28.54    3.74
  -7 -23   9   27.63    2.46
   7 -23  -9   22.63    2.86
  -7 -23   9   29.41    3.38
   7  23   9   28.70    3.47
  -7 -25  -9   39.26    6.70
   7 -25   9   36.99    4.27
   7  25  -9   37.01    2.74
   7  25  -9   41.40    3.28
   7 -25   9   37.65    3.76
   7  25   9   41.49    4.10
   7 -25  -9   38.88    3.28
  -7 -25   9   41.13    2.20
   7 -25  -9   35.98    3.86
  -7 -25   9   38.76    4.68
   7 -27   9   10.67    1.81
   7  27  -9   13.84    1.92
   7  27  -9   11.67    1.05
   7 -27   9    9.56    2.29
  -7 -27  -9   12.69    2.66
   7  27   9   14.36    2.35
   7 -27  -9   13.04    3.29
  -7 -27   9   12.47    1.17
   7 -27  -9   10.64    4.27
  -7 -27   9   14.97    2.87
   7 -29   9    3.61    1.28
   7  29  -9    3.68    1.28
   7  29  -9    1.82    0.64
   7 -29   9    3.26    1.59
  -7 -29  -9    3.65    1.77
   7 -29  -9    3.55    1.48
   7  29   9    3.02    1.49
   7 -29  -9    2.27    3.17
  -7 -29   9    3.49    0.74
  -7 -29   9    2.67    1.81
   9  -1   9  320.20   14.11
   9   1  -9  351.42   19.25
  -9  -1  -9  324.81   14.95
   9  -1   9  322.32   15.25
  -9   1   9  333.49   18.76
   9   1  -9  330.70   16.29
  -9   1   9  263.91   10.63
  -9  -1  -9  343.89   24.99
   9   1   9  320.91   13.88
  -9   1  -9  328.87   14.52
   9  -1  -9  347.29   16.22
  -9  -1   9  339.32   16.66
   9   1   9  328.12   15.27
   9  -1  -9  328.98   16.27
  -9  -1   9  280.72   11.51
  -9   1  -9  338.40   19.40
   9  -3   9   74.72    2.86
  -9  -3  -9   80.86    9.38
  -9  -3  -9   76.97    3.33
   9  -3   9   73.77    3.40
  -9   3   9   76.08    3.86
   9   3  -9   89.75    5.94
   9   3  -9   76.50    3.83
   9   3   9   77.36    3.12
  -9   3  -9   75.89    3.32
   9  -3  -9   79.65    3.06
  -9  -3   9   80.05    3.86
   9  -3  -9   76.39    3.97
  -9  -3   9   67.04    2.31
   9   3   9   73.65    2.55
  -9   3  -9   73.79    4.42
  -9   5   9   20.25    0.68
   9  -5   9   21.91    1.10
  -9  -5  -9   21.57    3.41
  -9  -5  -9   22.57    1.14
   9  -5   9   20.95    2.18
  -9   5   9   22.29    1.72
   9   5  -9   23.72    3.21
   9   5  -9   22.04    1.61
   9   5   9   22.31    1.48
  -9   5  -9   21.37    0.87
   9  -5  -9   22.53    1.32
  -9  -5   9   22.53    1.59
   9  -5  -9   21.38    1.74
  -9  -5   9   19.11    0.91
   9   5   9   21.52    0.90
  -9   5  -9   22.33    1.76
   9  -7   9   64.04    2.54
  -9  -7  -9   63.32    5.59
  -9   7   9   60.98    1.44
  -9  -7  -9   67.49    2.49
  -9   7   9   68.37    3.41
   9  -7   9   63.57    3.15
   9   7  -9   74.77    5.95
   9   7  -9   66.72    4.49
   9   7   9   66.40    3.29
   9  -7  -9   67.69    1.92
  -9   7  -9   64.95    2.01
  -9  -7   9   69.26    3.26
   9  -7  -9   63.98    3.45
  -9  -7   9   58.99    2.30
  -9   7  -9   68.15    4.03
   9   7   9   62.23    2.09
   9   9  -9    7.11    0.94
  -9  -9  -9    5.12    3.28
   9  -9   9    6.01    0.70
  -9  -9  -9    6.23    0.56
  -9   9   9    6.28    1.08
   9  -9   9    4.52    0.97
   9   9  -9    5.51    1.38
   9   9   9    6.93    1.09
  -9  -9   9    6.88    0.94
  -9   9  -9    5.97    0.52
   9  -9  -9    5.42    1.82
  -9  -9   9    5.99    0.66
  -9   9  -9    5.52    0.64
   9   9   9    5.40    0.44
   9  11  -9   51.56    2.70
   9 -11   9   50.46    2.30
  -9 -11  -9   55.70    1.97
   9 -11   9   50.91    2.97
   9  11  -9   59.50    3.80
  -9 -11  -9   52.93    7.38
   9  11   9   53.19    3.34
  -9 -11   9   53.72    2.78
  -9  11  -9   51.65    1.40
   9 -11  -9   54.44    3.00
  -9  11  -9   50.97    1.83
   9 -11  -9   50.42    3.13
  -9 -11   9   48.75    2.29
   9  11   9   46.63    1.58
   9  13  -9  136.58    6.09
   9 -13   9  134.75    5.78
  -9 -13  -9  144.25    5.80
   9 -13   9  135.64    6.92
   9  13  -9  153.59    8.24
  -9 -13  -9  133.06    9.15
   9  13   9  146.44   10.09
  -9 -13   9  141.39    6.37
  -9  13  -9  119.81    4.05
   9 -13  -9  141.52    6.73
  -9  13  -9  133.89    3.89
   9 -13  -9  133.08    6.90
  -9 -13   9  128.50    5.78
   9  13   9  125.59    4.93
   9 -15   9   86.68    3.95
   9  15  -9   89.46    4.20
  -9 -15  -9   93.94    3.20
   9 -15   9   91.75    6.88
   9  15  -9   97.53    5.62
  -9 -15  -9   88.58    6.67
   9  15   9   91.67    5.70
  -9 -15   9   93.58    4.33
   9 -15  -9   89.23    4.65
   9 -15  -9   83.81    4.91
  -9 -15   9   88.88    5.74
   9  15   9   79.07    2.68
   9 -17   9   18.97    2.23
   9  17  -9   19.80    1.43
  -9 -17  -9   20.37    1.21
   9 -17   9   17.93    2.06
   9  17  -9   21.90    2.25
  -9 -17  -9   17.77    2.87
   9  17   9   19.99    2.52
  -9 -17   9   20.59    2.36
   9 -17  -9   20.43    1.83
   9 -17  -9   20.59    1.98
   9  17   9   16.83    0.69
  -9 -17   9   19.57    1.74
   9 -19   9    3.27    0.83
  -9 -19  -9    3.52    0.39
   9  19  -9    3.28    1.26
   9 -19   9    5.00    1.19
   9  19  -9    2.66    1.26
  -9 -19  -9    3.78    1.63
   9 -19  -9    3.88    1.01
   9  19   9    4.00    1.55
  -9 -19   9    3.35    0.80
   9 -19  -9    3.52    1.19
   9  19   9    1.95    0.48
  -9 -19   9    4.19    1.09
   9 -21   9    4.76    1.00
  -9 -21  -9    4.40    0.43
   9  21  -9    4.74    0.85
   9  21  -9    5.80    1.43
   9 -21   9    4.43    1.45
  -9 -21  -9    4.65    1.86
   9 -21  -9    4.96    1.19
   9  21   9    5.52    1.82
  -9 -21   9    5.42    0.90
   9 -21  -9    4.84    1.41
  -9 -21   9    4.90    1.41
   9 -23   9   25.09    2.17
   9  23  -9   26.60    1.74
   9  23  -9   27.70    2.81
   9 -23   9   25.54    2.91
  -9 -23  -9   29.87    3.36
   9  23   9   25.70    3.22
   9 -23  -9   28.37    2.43
  -9 -23   9   27.01    1.90
   9 -23  -9   24.48    2.97
  -9 -23   9   25.37    3.11
   9 -25   9   20.34    2.16
   9  25  -9   21.82    1.58
   9  25  -9   24.50    2.66
   9 -25   9   30.97    4.64
  -9 -25  -9   20.54    5.13
   9  25   9   21.68    2.88
   9 -25  -9   22.81    2.32
  -9 -25   9   23.12    1.76
   9 -25  -9   21.15    2.93
  -9 -25   9   22.04    3.28
  11  -1   9    2.62    0.47
 -11  -1  -9    2.48    0.56
  11  -1   9    2.07    0.59
 -11   1   9    3.14    0.80
  11   1  -9    3.36    0.96
 -11  -1  -9    2.31    1.04
 -11   1   9    2.26    0.38
  11   1  -9    3.00    0.85
  11   1   9    1.58    0.53
 -11   1  -9    3.10    0.46
 -11  -1   9    2.23    1.31
  11  -1  -9    3.71    0.86
 -11   1  -9    2.81    0.88
  11  -1  -9    2.52    0.87
 -11  -1   9    1.95    0.28
  11   1   9    2.62    0.75
  11  -3   9   10.47    0.73
 -11  -3  -9    8.55    0.78
  11  -3   9    8.95    0.89
 -11   3   9    8.92    1.13
  11   3  -9    9.29    1.45
 -11  -3  -9    9.49    1.76
  11   3  -9    8.74    1.19
 -11   3  -9    8.37    0.94
  11   3   9    8.30    0.88
  11  -3  -9   10.08    1.08
 -11  -3   9    9.27    1.16
 -11   3  -9    8.44    1.05
 -11  -3   9    7.19    0.50
  11  -3  -9    7.86    1.25
  11   3   9    8.13    0.64
  11   5  -9    5.27    0.98
 -11   5   9    3.96    0.24
  11  -5   9    4.75    0.98
 -11  -5  -9    5.34    0.95
  11  -5   9    4.02    0.77
 -11   5   9    5.41    0.91
  11   5  -9    5.25    1.24
 -11  -5  -9    4.06    1.65
 -11   5  -9    4.65    0.41
  11   5   9    3.36    1.29
  11  -5  -9    4.35    0.73
 -11  -5   9    4.70    0.91
 -11   5  -9    4.13    0.68
  11  -5  -9    4.66    1.02
 -11  -5   9    4.10    0.72
  11   5   9    4.26    0.49
  11   7  -9    2.71    0.80
  11  -7   9    2.22    0.53
 -11   7   9    2.24    0.17
 -11  -7  -9    2.02    0.47
 -11   7   9    2.68    0.80
  11   7  -9    2.07    1.72
  11  -7   9    2.69    0.67
 -11  -7  -9    1.58    1.63
  11   7   9    2.06    0.75
 -11   7  -9    2.18    0.28
  11  -7  -9    1.57    0.74
 -11  -7   9    2.10    1.27
 -11   7  -9    2.23    0.45
  11  -7  -9    1.84    0.89
 -11  -7   9    1.46    0.42
  11   7   9    1.43    0.39
  11  -9   9    8.35    0.83
  11   9  -9    8.39    1.21
 -11  -9  -9    8.85    1.08
 -11   9   9    8.19    1.19
  11  -9   9    8.19    1.72
  11   9  -9   12.86    2.73
 -11  -9  -9    7.85    2.63
  11   9   9    9.23    1.27
 -11   9  -9    8.63    0.58
 -11   9  -9    7.39    0.56
 -11  -9   9    8.42    1.15
 -11  -9   9    7.51    0.72
  11  -9  -9    7.81    1.30
  11   9   9    8.89    0.59
  11 -11   9   52.48    2.50
  11  11  -9   57.57    3.08
 -11 -11  -9   59.88    2.24
 -11  11   9   57.03    3.17
  11  11  -9   68.16    4.36
  11 -11   9   56.22    3.10
 -11 -11  -9   54.82    5.46
  11  11   9   59.64    3.67
 -11 -11   9   59.84    3.06
  11 -11  -9   56.91    3.39
 -11 -11   9   51.08    2.35
  11  11   9   52.87    1.94
  11 -13   9    2.15    0.61
  11  13  -9    2.30    0.79
 -11 -13  -9    1.39    0.41
  11 -13   9    1.30    0.81
  11  13  -9    0.72    1.14
 -11 -13  -9    1.97    1.56
  11  13   9    3.54    1.05
 -11 -13   9    2.31    1.24
  11 -13  -9    2.52    0.83
  11 -13  -9    1.89    0.91
 -11 -13   9    1.49    0.61
  11  13   9    1.51    0.36
  11 -15   9    3.16    0.72
 -11 -15  -9    2.51    0.44
  11  15  -9    2.89    0.84
  11 -15   9    2.72    0.97
  11  15  -9    3.42    1.29
 -11 -15  -9    2.59    1.66
  11  15   9    4.04    1.29
 -11 -15   9    3.38    0.83
  11 -15  -9    3.01    0.92
  11  15   9    2.24    0.61
  11 -15  -9    2.65    1.05
 -11 -15   9    1.44    0.74
  11 -17   9   19.70    1.56
 -11 -17  -9   19.85    0.98
  11  17  -9   18.49    1.63
  11 -17   9   19.81    2.02
  11  17  -9   22.93    2.43
 -11 -17  -9   20.18    3.04
  11  17   9   20.06    2.65
 -11 -17   9   21.05    1.68
  11 -17  -9   19.41    1.86
  11  17   9   17.15    1.19
  11 -17  -9   18.05    3.32
 -11 -17   9   19.98    2.62
  11 -19   9   19.39    1.67
 -11 -19  -9   20.97    1.42
  11  19  -9   20.42    1.63
  11 -19   9   18.59    3.38
  11  19  -9   22.07    4.08
 -11 -19  -9   18.26    2.98
  11  19   9   23.00    2.81
 -11 -19   9   19.77    1.68
  11 -19  -9   18.77    1.88
  11  19   9   17.08    1.21
  11 -19  -9   17.76    2.19
 -11 -19   9   18.90    1.86
  11 -21   9    4.74    1.05
 -11 -21  -9    4.32    0.51
  11  21  -9    3.85    1.57
  11 -21   9    4.18    1.39
  11  21  -9    6.06    1.56
 -11 -21  -9    3.64    1.84
  11 -21  -9    4.95    1.16
  11  21   9    5.57    1.73
 -11 -21   9    5.00    1.02
  11  21   9    3.84    0.41
  11 -21  -9    4.03    1.38
 -11 -21   9    5.90    1.28
  11 -23   9   14.37    1.70
  11  23  -9   15.28    1.47
  11 -23   9   12.53    2.19
  11  23  -9   17.86    2.33
 -11 -23  -9   16.16    4.60
  11 -23  -9   16.01    1.81
  11  23   9   13.62    2.45
 -11 -23   9   12.78    2.48
  11 -23  -9   14.70    2.21
 -11 -23   9   14.39    2.19
  13   1  -9   21.67    1.98
 -13  -1  -9   21.44    1.39
 -13   1   9   21.06    2.77
  13  -1   9   20.82    1.16
  13   1  -9   26.66    1.82
 -13  -1  -9   22.23    1.80
  13  -1   9   20.70    1.24
 -13   1  -9   21.40    1.43
 -13  -1   9   23.82    1.81
  13  -1  -9   26.02    1.72
 -13   1  -9   21.61    2.37
  13   1   9   21.91    1.32
  13   1   9   22.79    1.19
  13  -1  -9   21.02    1.99
  13  -3   9   21.44    1.29
  13   3  -9   22.19    1.98
 -13  -3  -9   22.77    1.34
  13  -3   9   21.70    1.49
 -13   3   9   21.69    1.81
  13   3  -9   26.86    1.97
 -13  -3  -9   23.02    2.13
 -13   3  -9   22.59    1.04
  13   3   9   22.43    1.45
 -13  -3   9   24.26    1.81
 -13   3  -9   20.95    1.36
  13  -3  -9   27.75    1.68
  13   3   9   22.12    1.19
  13  -3  -9   22.11    2.00
  13  -5   9   30.97    1.62
 -13   5   9   28.07    0.89
  13   5  -9   32.25    3.59
 -13  -5  -9   32.58    1.63
  13  -5   9   33.38    1.89
 -13   5   9   31.60    2.16
  13   5  -9   35.91    2.49
 -13  -5  -9   33.04    2.87
 -13   5  -9   32.36    1.18
  13   5   9   32.88    1.99
 -13   5  -9   28.97    2.02
  13  -5  -9   38.45    2.66
 -13  -5   9   35.18    3.29
  13   5   9   31.16    1.43
  13  -5  -9   31.10    3.76
 -13  -5   9   27.68    1.22
  13  -7   9    7.55    0.84
  13   7  -9    8.40    1.28
 -13  -7  -9    8.63    1.18
  13  -7   9    8.45    1.62
 -13   7   9    7.94    1.14
  13   7  -9    6.72    2.22
 -13  -7  -9    6.08    3.08
 -13   7  -9    7.70    0.44
  13   7   9    8.32    1.15
 -13   7  -9    6.57    0.58
  13  -7  -9    7.42    1.17
 -13  -7   9    8.98    1.14
  13   7   9    6.79    0.66
 -13  -7   9    7.00    0.62
  13  -7  -9    8.70    1.37
  13  -9   9    0.56    0.49
  13   9  -9    0.87    1.26
 -13  -9  -9    0.30    0.40
  13  -9   9    0.95    0.60
 -13   9   9    0.77    0.66
  13   9  -9    0.84    0.86
 -13  -9  -9    0.08    2.11
  13   9   9    0.67    1.20
 -13  -9   9    0.83    0.68
  13   9   9    0.76    0.58
 -13  -9   9    0.16    0.66
  13  -9  -9    0.14    0.81
  13 -11   9    8.26    0.94
  13  11  -9    7.86    1.33
 -13 -11  -9    9.10    0.74
 -13  11   9    8.23    1.21
  13 -11   9    7.64    1.17
  13  11  -9    9.22    1.68
 -13 -11  -9    8.16    2.57
  13  11   9    7.53    1.46
 -13 -11   9    8.12    1.96
  13  11   9    7.34    1.05
  13 -11  -9    7.39    1.42
 -13 -11   9    7.09    0.82
  13 -13   9   29.88    2.85
 -13 -13  -9   31.61    1.50
  13  13  -9   31.11    2.34
 -13  13   9   31.27    2.22
  13 -13   9   30.67    2.26
  13  13  -9   36.26    3.11
 -13 -13  -9   32.61    4.82
  13  13   9   34.11    2.93
 -13 -13   9   33.17    2.25
  13  13   9   29.85    1.34
  13 -13  -9   29.74    2.64
 -13 -13   9   30.54    1.72
  13 -15   9    0.62    0.60
 -13 -15  -9    0.83    0.39
  13  15  -9    0.51    0.73
  13 -15   9    0.35    0.75
  13  15  -9    0.59    1.05
 -13 -15  -9    1.52    1.55
  13  15   9    0.41    1.04
 -13 -15   9    0.46    0.72
  13 -15  -9    0.51    0.72
  13  15   9    0.71    0.35
 -13 -15   9    0.01    0.57
  13 -15  -9    0.06    0.86
  13 -17   9    0.38    0.59
 -13 -17  -9    0.52    0.58
  13  17  -9    0.29    0.67
  13 -17   9    0.17    1.20
  13  17  -9    0.08    1.00
 -13 -17  -9    1.31    1.36
  13  17   9   -0.33    1.02
 -13 -17   9   -0.35    0.66
  13 -17  -9   -0.03    0.66
  13  17   9    0.27    0.31
 -13 -17   9    0.18    0.59
  13 -17  -9    0.37    0.83
  13 -19   9    5.40    1.88
 -13 -19  -9    7.34    0.67
  13  19  -9    6.41    1.22
  13 -19   9    5.27    1.42
  13  19  -9    6.62    1.83
 -13 -19  -9    6.96    3.88
  13  19   9    6.91    1.91
 -13 -19   9    6.24    2.01
  13 -19  -9    7.13    1.24
  13  19   9    5.46    0.59
  13 -19  -9    6.10    2.49
 -13 -19   9    7.26    1.19
  15   1  -9   43.95    5.24
 -15  -1  -9   53.66    2.61
 -15  -1  -9   48.95    2.77
  15  -1   9   46.20    2.83
 -15   1   9   51.66    3.16
  15   1  -9   53.87    2.94
  15  -1   9   46.40    2.30
  15  -1  -9   48.70    3.52
 -15   1  -9   50.18    2.65
 -15   1  -9   45.63    2.42
  15   1   9   48.55    2.38
 -15  -1   9   49.27    3.10
  15  -1  -9   53.55    2.84
  15   1   9   48.28    2.32
  15   3  -9   38.26    2.97
 -15  -3  -9   40.21    2.12
 -15   3   9   40.38    2.64
 -15  -3  -9   39.64    3.89
  15   3  -9   43.34    2.64
  15  -3   9   37.98    1.67
  15  -3   9   39.02    2.05
  15  -3  -9   38.43    3.02
 -15   3  -9   38.69    2.27
 -15   3  -9   35.38    1.81
  15   3   9   39.82    2.20
 -15  -3   9   38.66    3.96
  15  -3  -9   45.27    2.34
  15   3   9   38.12    1.90
  15  -5   9    8.36    0.93
  15   5  -9    7.08    1.44
 -15   5   9    6.68    0.63
 -15  -5  -9    8.65    1.42
 -15   5   9    8.75    1.27
 -15  -5  -9    8.41    1.43
  15   5  -9    8.35    2.04
  15  -5   9    7.61    1.07
 -15   5  -9    7.13    1.01
 -15   5  -9    8.29    0.55
  15   5   9    9.93    1.76
  15  -5  -9    8.28    0.95
 -15  -5   9    6.16    1.28
  15   5   9    7.46    0.80
 -15  -5   9    6.39    0.61
  15  -5  -9    7.23    1.47
  15  -7   9    0.95    0.54
  15   7  -9    1.00    0.86
 -15  -7  -9    0.65    0.47
  15  -7   9    0.77    0.62
 -15   7   9    1.16    1.16
 -15  -7  -9    1.23    0.96
  15   7  -9    0.85    0.77
  15   7   9    0.67    0.71
 -15  -7   9    0.25    0.71
  15   7   9    0.50    0.43
 -15  -7   9   -0.00    0.38
  15  -7  -9    0.58    0.87
  15  -9   9    0.27    0.52
  15   9  -9    0.86    0.78
 -15  -9  -9    0.10    0.43
  15  -9   9    0.67    0.96
 -15   9   9    0.09    0.64
 -15  -9  -9    0.36    1.03
  15   9  -9   -0.27    0.76
  15   9   9    0.32    0.72
 -15  -9   9    0.47    0.67
  15   9   9    0.16    0.38
 -15  -9   9    0.42    0.38
  15  -9  -9   -0.30    0.80
  15 -11   9    0.08    0.51
 -15 -11  -9   -0.03    0.66
  15  11  -9    0.58    0.72
  15 -11   9    0.51    0.60
 -15  11   9    0.02    1.01
 -15 -11  -9    0.83    1.14
  15  11  -9   -0.47    0.77
  15  11   9    0.47    0.75
 -15 -11   9   -0.06    0.65
  15  11   9    0.23    0.35
 -15 -11   9   -0.21    0.40
  15 -11  -9   -0.53    1.28
  15 -13   9   10.67    2.07
 -15 -13  -9   11.13    0.96
  15  13  -9   13.03    1.67
 -15  13   9   11.82    1.44
  15 -13   9    9.88    1.44
  15  13  -9   13.77    3.16
 -15 -13  -9    9.23    2.96
  15  13   9   11.46    1.94
 -15 -13   9   11.77    1.54
  15  13   9   10.30    1.36
 -15 -13   9    9.48    1.07
  15 -13  -9   10.56    1.80
   0   0  10    0.59    0.16
   0   0 -10    0.65    0.65
   0   0  10    0.11    0.30
   0   0 -10    0.68    0.44
   0   2  10   82.57    2.26
   0  -2  10   84.48    2.58
   0  -2 -10   85.04    4.39
   0  -2 -10   86.63    4.61
   0  -2  10   83.20    4.14
   0   2  10   81.32    2.91
   0   2 -10   87.66    3.42
   0   2 -10   85.24    4.18
   0   4  10    0.15    0.09
   0  -4  10    0.32    0.21
   0  -4 -10    0.80    0.66
   0  -4 -10    0.22    0.44
   0  -4  10    0.49    0.49
   0   4  10    0.23    0.12
   0   4 -10   -0.28    0.35
   0   4 -10    0.69    0.53
   0  -6 -10  228.62   12.05
   0  -6  10  227.71    9.72
   0  -6 -10  229.73   12.28
   0  -6  10  234.49   11.93
   0   6 -10  235.33    9.69
   0   6 -10  221.39   10.63
   0  -8 -10    0.46    0.73
   0  -8  10    0.05    0.28
   0  -8 -10   -0.33    0.51
   0  -8  10    0.27    0.80
   0   8 -10    0.25    0.30
   0   8 -10    0.12    0.46
   0 -10 -10   85.88    5.34
   0 -10  10   83.53    3.26
   0 -10 -10   86.24    4.31
   0  10 -10   84.43    3.84
   0 -10  10   91.18    6.60
   0  10 -10   88.53    3.17
   0 -12  10    0.06    0.37
   0 -12 -10    0.17    1.04
   0  12 -10    0.05    0.43
   0 -12  10    0.80    1.10
   0  12 -10    0.30    0.28
   0 -12 -10    0.11    0.91
   0 -14  10   46.30    2.24
   0 -14 -10   48.65    3.08
   0  14 -10   46.90    2.23
   0 -14  10   49.03    4.09
   0  14 -10   46.96    1.70
   0 -14 -10   48.97    3.96
   0  16 -10    0.07    0.23
   0 -16  10   -0.17    0.72
   0 -16 -10    0.25    0.68
   0  16 -10   -0.01    0.36
   0 -16  10   -0.24    0.82
   0 -16 -10    0.42    0.93
   0  18 -10    7.00    0.51
   0 -18  10    6.20    1.04
   0 -18 -10   10.12    1.59
   0  18 -10    8.02    0.76
   0 -18  10    9.09    1.62
   0 -18 -10    8.88    2.06
   0  20 -10    0.48    0.39
   0 -20  10   -0.12    0.61
   0 -20 -10    0.70    0.95
   0  20 -10    0.01    0.36
   0 -20  10    0.05    0.84
   0 -20 -10    3.10    1.24
   0  22 -10   23.05    0.91
   0 -22  10   23.82    2.05
   0 -22 -10   24.87    3.06
   0  22 -10   24.98    1.23
   0 -22  10   22.48    2.45
   0 -22 -10   26.45    3.71
   0 -24  10    0.30    0.69
   0 -24 -10    0.55    1.90
   0 -24 -10    0.00    1.32
   0 -24  10   -0.16    0.78
   0 -26  10   46.18    3.48
   0 -26 -10   42.23    8.48
   0 -26 -10   47.87    5.85
   0 -26  10   43.19    5.33
   0 -28  10    0.88    0.94
   0 -28 -10   -0.67    2.77
   0 -28 -10    1.13    2.86
   0 -28  10    0.09    0.95
   2   0  10   12.55    0.49
  -2   0 -10   13.17    1.63
  -2   0  10   11.79    0.60
   2   0  10   13.10    1.37
  -2   0 -10   13.22    0.91
   2   0 -10   13.42    1.30
   2   0 -10   14.19    1.03
  -2   0  10   11.54    0.51
   2  -2  10   11.79    0.52
  -2   2  10   11.49    0.34
  -2  -2 -10   11.81    2.73
  -2  -2 -10   12.41    1.49
   2  -2  10   13.48    1.86
   2   2 -10   13.02    1.19
  -2   2  10   10.68    0.38
   2   2 -10   12.66    0.95
   2   2  10   11.79    0.41
  -2   2 -10   11.67    1.49
  -2  -2  10   12.02    0.50
   2   2  10   12.88    0.98
  -2   2 -10   12.40    0.84
  -2  -2  10   11.42    0.62
   2  -2 -10   13.35    1.68
   2  -2 -10   11.94    1.31
  -2   4  10    3.90    0.19
   2  -4  10    5.14    0.39
  -2  -4 -10    4.29    0.71
   2  -4  10    4.69    1.88
   2   4 -10    4.42    0.82
   2   4 -10    4.40    0.64
  -2  -4 -10    4.45    1.34
   2   4  10    4.34    0.22
  -2   4 -10    4.32    1.03
  -2  -4  10    4.53    0.38
   2   4  10    4.40    0.49
  -2   4 -10    3.58    0.53
   2  -4 -10    5.23    0.79
  -2  -4  10    5.53    0.86
   2  -4 -10    4.00    1.00
   2  -6  10   17.51    0.80
  -2  -6 -10   18.62    2.01
   2  -6  10   18.27    2.75
   2   6 -10   16.71    1.33
   2   6 -10   18.94    1.06
  -2  -6 -10   17.41    2.24
  -2   6 -10   17.16    2.48
  -2  -6  10   18.69    0.82
   2   6  10   16.66    0.84
   2  -6 -10   17.63    1.41
  -2  -6  10   18.12    1.16
  -2   6 -10   17.47    0.92
   2   6  10   15.72    0.53
   2  -6 -10   19.20    1.70
   2  -8  10   33.33    1.34
  -2  -8 -10   33.41    1.97
   2  -8  10   35.56    3.33
   2   8 -10   33.53    1.85
   2   8 -10   32.62    1.52
  -2  -8 -10   32.95    3.21
  -2  -8  10   34.67    1.42
  -2   8 -10   34.09    3.12
   2  -8 -10   33.75    2.46
   2  -8 -10   33.67    2.07
   2   8  10   30.67    0.70
  -2  -8  10   35.05    2.00
  -2   8 -10   32.84    1.29
   2 -10  10   13.18    0.81
  -2 -10 -10   11.71    1.32
   2 -10  10   12.29    1.99
   2  10 -10   12.78    1.07
  -2 -10 -10    6.77    3.71
   2  10 -10   12.62    0.84
  -2 -10  10   11.72    0.88
  -2  10 -10   11.77    1.20
   2 -10 -10   11.35    1.64
   2 -10 -10   12.00    1.35
  -2 -10  10   11.04    2.36
  -2  10 -10   12.02    0.66
   2 -12  10    3.80    0.91
  -2 -12 -10    3.05    1.54
   2 -12  10    3.51    1.26
   2  12 -10    2.52    0.65
  -2 -12 -10    3.22    1.62
   2  12 -10    2.23    0.82
  -2 -12  10    3.27    0.64
   2 -12 -10    2.12    1.86
   2 -12 -10    3.46    1.55
  -2 -12  10    3.32    1.98
  -2  12 -10    3.44    0.38
   2 -14  10   33.42    1.74
  -2 -14 -10   34.17    2.60
   2 -14  10   32.87    2.96
  -2 -14 -10   34.79    3.99
   2  14 -10   36.92    2.02
   2  14 -10   34.65    2.05
   2 -14 -10   35.36    2.99
  -2 -14  10   36.98    1.82
   2 -14 -10   34.25    2.56
  -2  14 -10   37.86    1.98
  -2 -14  10   37.07    3.49
  -2  14 -10   34.96    1.22
   2  16 -10    6.71    0.98
   2 -16  10    7.44    0.89
   2  16 -10    7.46    1.06
  -2 -16 -10    8.67    1.46
   2 -16  10    5.65    1.50
  -2 -16 -10    7.72    2.23
  -2  16 -10    6.85    0.46
   2 -16 -10    7.58    1.65
  -2 -16  10    8.55    0.81
   2 -16 -10    7.69    1.43
  -2  16 -10    8.19    0.84
  -2 -16  10    7.42    2.22
   2  18 -10   12.58    1.17
   2 -18  10   13.47    1.22
  -2 -18 -10   13.11    2.03
  -2 -18 -10   12.52    2.93
   2 -18  10   13.31    2.93
   2  18 -10   13.95    1.48
  -2  18 -10   12.42    0.57
  -2 -18  10   13.91    1.01
   2 -18 -10   14.00    1.92
  -2  18 -10   14.57    0.95
  -2 -18  10   14.28    2.57
   2 -18 -10   12.64    2.20
   2  20 -10   13.19    1.16
   2 -20  10   12.35    2.15
   2  20 -10   13.48    1.61
  -2 -20 -10   13.10    2.21
  -2 -20 -10   16.44    3.20
   2 -20  10   13.50    1.86
  -2  20 -10   12.45    0.78
  -2 -20  10   15.64    1.01
   2 -20 -10   12.59    2.15
  -2  20 -10   13.79    0.83
  -2 -20  10   13.78    2.35
   2 -20 -10   13.27    2.35
   2  22 -10    5.88    0.51
   2 -22  10    5.75    1.10
  -2 -22 -10    5.01    1.90
  -2 -22 -10    6.21    2.53
   2 -22  10    4.69    1.40
   2  22 -10    6.18    1.29
  -2 -22  10    5.47    0.68
   2 -22 -10    5.08    2.91
  -2 -22  10    4.80    1.68
   2 -22 -10    5.25    3.20
   2 -24  10    6.61    1.26
   2  24 -10    6.20    0.53
  -2 -24 -10    6.10    2.69
  -2 -24 -10    4.72    2.26
   2  24 -10    7.42    1.41
   2 -24  10    7.42    1.47
  -2 -24  10    6.60    1.11
   2 -24 -10    5.15    3.52
  -2 -24  10    6.06    2.79
   2 -24 -10    6.50    2.19
   2 -26  10    7.34    1.43
  -2 -26 -10    7.82    2.97
  -2 -26 -10    6.11    2.57
   2  26 -10    7.59    1.51
   2 -26  10    5.02    1.53
  -2 -26  10    6.76    1.13
   2 -26 -10    5.57    2.55
  -2 -26  10    6.98    1.77
   2 -26 -10    8.25    2.44
   2 -28  10    8.35    1.58
   2  28 -10    7.45    1.52
  -2 -28 -10    6.59    3.05
  -2 -28 -10    4.33    4.36
   2 -28  10    5.25    2.53
   2 -28 -10    5.62    2.89
   2 -28 -10    6.20    2.63
  -2 -28  10    5.79    1.75
   4   0  10    0.09    0.19
  -4   0  10    0.18    0.15
   4   0  10    0.90    1.20
  -4   0 -10    0.31    0.34
   4   0 -10    0.00    0.51
  -4   0 -10    0.90    0.91
   4   0 -10   -0.07    0.45
  -4   0  10    0.10    0.15
   4  -2  10   49.89    1.60
  -4   2  10   49.01    1.38
  -4  -2 -10   48.44    2.12
   4  -2  10   49.82    3.50
   4   2 -10   49.27    2.56
  -4  -2 -10   49.45    4.27
   4   2 -10   48.54    2.36
   4   2  10   48.76    1.76
  -4  -2  10   48.72    1.53
   4   2  10   53.18    5.00
  -4   2 -10   47.97    1.96
   4  -2 -10   49.61    3.90
  -4   2 -10   51.27    3.96
   4  -2 -10   47.61    2.45
  -4  -2  10   46.25    1.87
   4  -4  10   37.12    1.30
  -4   4  10   34.23    0.70
  -4  -4 -10   36.08    1.87
   4  -4  10   37.98    3.00
  -4  -4 -10   38.49    3.74
   4   4 -10   37.56    1.84
   4   4  10   35.74    1.02
  -4   4 -10   36.00    1.46
   4  -4 -10   37.35    2.35
   4  -4 -10   38.03    2.15
  -4  -4  10   35.74    1.34
  -4   4 -10   37.58    3.17
   4   6 -10  209.77    8.34
   4  -6  10  198.49    8.53
  -4  -6 -10  199.20   10.51
   4  -6  10  192.18   11.13
  -4  -6 -10  199.61   12.90
   4   6 -10  202.20    8.73
  -4  -6  10  206.18    9.32
   4   6  10  195.52   10.63
   4  -6 -10  207.26    9.99
  -4   6 -10  202.67    7.79
   4  -6 -10  204.90    9.50
  -4  -6  10  197.32    7.91
  -4   6 -10  217.93   14.35
   4   6  10  190.74    6.49
   4  -8  10    0.70    0.34
   4   8 -10    0.61    0.68
  -4  -8 -10    0.67    0.59
   4  -8  10    1.43    0.92
  -4  -8 -10    0.84    1.31
   4   8 -10    0.57    0.46
  -4  -8  10    0.63    0.54
   4   8  10    0.55    0.40
   4  -8 -10    1.50    0.64
  -4   8 -10    0.73    0.29
  -4  -8  10    0.66    0.45
   4   8  10    0.53    0.13
   4  -8 -10    0.77    0.73
  -4   8 -10    0.23    1.33
   4 -10  10   12.35    0.84
  -4 -10 -10   12.76    1.36
   4 -10  10    9.19    1.94
  -4 -10 -10   12.45    2.77
   4  10 -10   14.25    1.04
   4  10 -10   12.02    1.51
  -4 -10  10   13.63    1.76
   4  10  10   12.36    0.66
   4 -10 -10   13.07    1.43
  -4 -10  10   12.67    1.76
  -4  10 -10   12.22    0.61
   4 -10 -10   11.80    1.55
  -4  10 -10   12.04    2.42
   4 -12  10   25.60    1.36
   4  12 -10   27.22    1.70
  -4 -12 -10   26.98    3.26
   4 -12  10   26.06    2.60
  -4 -12 -10   29.27    3.90
   4  12 -10   26.82    1.38
  -4 -12  10   26.42    1.62
   4 -12 -10   26.06    3.55
   4 -12 -10   26.01    2.15
  -4 -12  10   25.94    1.89
  -4  12 -10   30.38    2.86
  -4  12 -10   27.18    1.27
   4  14 -10   52.21    2.21
   4 -14  10   50.61    2.31
   4  14 -10   56.14    2.93
  -4 -14 -10   51.96    3.40
   4 -14  10   49.91    3.90
  -4 -14 -10   52.60    5.64
  -4 -14  10   51.81    2.48
   4 -14 -10   52.56    3.52
   4 -14 -10   51.75    3.28
  -4 -14  10   53.77    3.35
  -4  14 -10   54.58    2.60
  -4  14 -10   52.36    1.60
   4  16 -10    9.03    0.80
   4 -16  10    9.53    0.97
  -4 -16 -10    9.18    2.82
   4  16 -10    8.97    1.27
  -4 -16 -10    8.09    1.59
   4 -16  10   10.32    1.78
  -4 -16  10    9.21    0.94
   4 -16 -10    9.27    1.65
   4 -16 -10    8.66    1.54
  -4 -16  10    9.73    1.71
  -4  16 -10   10.16    0.86
  -4  16 -10    9.21    0.43
   4  18 -10   73.46    2.93
   4 -18  10   68.50    3.44
  -4 -18 -10   69.90    7.14
  -4 -18 -10   70.66    5.01
   4 -18  10   70.43    4.93
   4  18 -10   82.02    4.35
   4 -18 -10   75.10    4.81
  -4 -18  10   74.82    4.22
   4 -18 -10   71.45    4.66
  -4 -18  10   74.45    5.62
   4  20 -10    2.10    0.47
   4 -20  10    1.62    0.75
  -4 -20 -10    2.78    2.02
   4  20 -10    2.83    0.97
  -4 -20 -10    1.95    1.35
   4 -20  10    1.38    1.85
   4 -20 -10    2.07    1.21
  -4 -20  10    2.08    0.58
   4 -20 -10    0.91    1.23
  -4 -20  10    1.77    1.64
   4 -22  10    0.65    1.18
   4  22 -10    0.65    0.39
  -4 -22 -10    1.78    2.97
   4  22 -10    0.85    0.86
  -4 -22 -10    0.11    1.29
   4 -22  10    1.51    0.98
  -4 -22  10    0.60    0.49
   4 -22 -10    0.89    1.18
  -4 -22  10    2.16    1.46
   4 -22 -10    1.06    1.15
  -4 -24 -10    4.81    2.52
   4 -24  10    3.96    1.14
   4  24 -10    4.44    0.58
   4  24 -10    5.43    1.31
  -4 -24 -10    3.66    2.09
   4 -24  10    4.58    1.46
  -4 -24  10    5.67    0.72
   4 -24 -10    3.67    3.17
  -4 -24  10    4.05    1.95
   4 -24 -10    4.76    1.80
  -4 -26 -10   13.73    3.43
   4 -26  10   14.10    1.84
   4  26 -10   16.56    2.00
  -4 -26 -10   13.95    3.21
   4  26 -10   14.42    0.93
   4 -26  10   14.98    2.11
  -4 -26  10   15.48    1.14
   4 -26 -10   15.78    3.22
  -4 -26  10   13.72    2.61
   4 -26 -10   17.99    4.51
   6   0  10    0.08    0.21
  -6   0 -10    0.43    1.10
   6   0 -10   -0.11    0.19
  -6   0  10    0.07    0.53
   6   0  10    0.76    0.52
  -6   0 -10    0.09    0.32
   6   0 -10    1.10    0.48
  -6   0  10    0.13    0.13
   6  -2  10    0.93    0.29
  -6   2  10    1.43    0.16
  -6  -2 -10    0.92    1.46
   6   2 -10    1.59    0.30
  -6  -2 -10    1.17    0.75
   6  -2  10    0.86    0.69
   6   2 -10    1.22    0.60
  -6   2  10    0.64    0.12
   6   2  10    0.87    0.25
  -6   2 -10    0.53    1.34
  -6  -2  10    1.01    0.64
   6   2  10    0.99    0.98
  -6   2 -10    1.07    0.37
   6  -2 -10    1.25    0.68
   6  -2 -10    1.05    0.63
  -6  -2  10    0.91    0.23
   6  -4  10   69.21    2.97
  -6   4  10   66.99    1.71
  -6  -4 -10   72.06    6.35
   6   4 -10   70.61    3.27
  -6  -4 -10   70.64    3.04
   6  -4  10   68.64    3.78
   6   4 -10   71.11    3.22
  -6   4 -10   71.68    5.27
   6   4  10   71.33    3.27
  -6  -4  10   74.70    4.68
  -6   4 -10   69.77    2.45
   6  -4 -10   70.69    3.65
   6  -4 -10   69.89    3.46
  -6  -4  10   63.42    2.16
   6   4  10   67.63    2.47
   6  -6  10    1.27    0.37
  -6  -6 -10    0.85    1.64
   6   6 -10    1.71    0.48
  -6  -6 -10    1.24    0.98
   6  -6  10    2.16    1.35
   6   6 -10    1.56    0.59
  -6   6 -10    1.26    1.04
   6   6  10    1.29    0.54
  -6  -6  10    1.48    0.66
  -6   6 -10    1.44    0.32
   6  -6 -10    1.43    0.78
   6  -6 -10    1.38    0.74
  -6  -6  10    1.12    0.37
   6   6  10    1.12    0.23
   6  -8  10  127.18    4.90
  -6  -8 -10  130.13   10.17
   6   8 -10  137.52    5.82
  -6  -8 -10  128.18    5.96
   6  -8  10  127.71    6.85
   6   8 -10  132.40    7.00
  -6   8 -10  124.47    6.86
   6   8  10  135.80    5.59
  -6  -8  10  130.67    5.85
   6  -8 -10  134.80    6.55
  -6   8 -10  130.33    4.43
   6  -8 -10  133.41    6.43
  -6  -8  10  120.94    4.82
   6   8  10  118.59    4.18
   6 -10  10    3.46    0.87
  -6 -10 -10    4.36    2.13
   6  10 -10    2.66    0.77
  -6 -10 -10    3.37    0.88
   6 -10  10    2.91    1.08
   6  10 -10    2.84    0.68
  -6  10 -10    3.16    0.93
   6  10  10    3.09    0.89
  -6 -10  10    4.23    1.24
   6 -10 -10    3.02    1.00
  -6  10 -10    2.93    0.33
   6 -10 -10    3.48    0.97
  -6 -10  10    3.95    0.62
   6  10  10    2.99    0.23
   6  12 -10   95.95    4.13
   6 -12  10   91.47    3.83
  -6 -12 -10   97.29    8.41
   6  12 -10  107.96    5.12
  -6 -12 -10   97.67    5.11
   6 -12  10   93.35    5.65
  -6  12 -10  101.56    4.84
   6  12  10  105.21    4.73
  -6 -12  10   97.79    4.45
   6 -12 -10   95.68    5.19
  -6 -12  10   92.27    4.24
  -6  12 -10   93.35    2.90
   6 -12 -10  104.76    5.36
   6  14 -10    0.79    0.51
   6 -14  10    1.13    0.49
  -6 -14 -10    0.18    1.61
  -6 -14 -10    1.30    1.45
   6  14 -10    1.03    0.75
   6 -14  10    1.31    0.96
  -6  14 -10    0.76    0.53
  -6 -14  10    1.20    0.57
   6 -14 -10    0.72    0.83
  -6 -14  10    1.00    0.66
  -6  14 -10    0.83    0.19
   6 -14 -10    1.76    0.84
   6  16 -10   54.61    2.47
   6 -16  10   52.28    2.59
  -6 -16 -10   53.87    5.67
  -6 -16 -10   53.21    3.90
   6  16 -10   60.25    3.58
   6 -16  10   51.41    3.98
  -6 -16  10   56.23    2.75
   6 -16 -10   57.52    5.27
   6 -16 -10   53.59    3.63
  -6 -16  10   55.95    3.39
   6  18 -10    4.48    0.74
   6 -18  10    5.60    0.88
  -6 -18 -10    4.61    2.21
  -6 -18 -10    5.65    1.58
   6  18 -10    4.79    1.25
   6 -18  10    3.83    1.51
  -6 -18  10    4.57    1.31
   6 -18 -10    6.95    1.29
   6 -18 -10    5.65    1.39
  -6 -18  10    4.93    1.36
   6 -20  10   54.80    3.07
   6  20 -10   57.13    2.56
  -6 -20 -10   59.90    5.72
  -6 -20 -10   57.94    5.00
   6  20 -10   66.23    3.99
   6 -20  10   57.08    6.77
  -6 -20  10   60.04    2.91
   6 -20 -10   57.56    4.05
   6 -20 -10   58.93    4.37
  -6 -20  10   59.41    4.62
   6 -22  10    3.60    0.96
   6  22 -10    2.66    0.64
  -6 -22 -10    3.22    1.76
   6  22 -10    3.50    1.19
   6 -22  10    3.45    1.45
   6 -22 -10    2.54    1.37
  -6 -22  10    4.72    0.75
   6 -22 -10    3.55    1.55
  -6 -22  10    2.68    1.78
  -6 -24 -10   96.56    8.08
   6 -24  10   90.42    6.99
   6  24 -10   90.44    3.94
  -6 -24 -10   95.72    8.05
   6  24 -10  104.12    5.96
   6 -24  10   91.65    6.67
   6 -24 -10   95.41    6.53
  -6 -24  10   98.72    4.56
   6 -24 -10   91.29   10.42
  -6 -24  10  100.65    8.56
   8   0  10   -0.08    0.23
  -8   0 -10    0.76    1.59
   8   0 -10    0.02    0.39
   8   0  10    0.21    0.40
  -8   0  10    0.14    0.50
  -8   0 -10    0.12    0.30
   8   0 -10   -0.27    0.50
  -8   0  10    0.03    0.11
   8  -2  10    1.57    0.38
  -8  -2 -10    2.60    2.63
  -8   2  10    3.53    0.80
   8   2 -10    2.87    0.49
   8  -2  10    2.03    1.10
  -8  -2 -10    1.10    0.85
   8   2 -10    2.51    0.76
   8   2  10    2.51    0.34
  -8   2 -10    3.47    2.12
   8  -2 -10    2.16    0.29
   8   2  10    1.40    0.60
  -8  -2  10    2.50    0.77
  -8   2 -10    2.13    0.42
   8  -2 -10    2.03    0.81
  -8  -2  10    2.05    0.25
   8  -4  10   21.75    1.47
  -8  -4 -10   21.93    5.00
  -8   4  10   23.38    1.74
  -8  -4 -10   21.56    1.37
   8  -4  10   24.71    1.63
   8   4 -10   23.51    1.34
   8   4 -10   22.27    1.63
  -8   4 -10   23.16    2.31
   8  -4 -10   21.34    0.61
   8   4  10   22.13    1.87
  -8  -4  10   23.00    1.65
  -8   4 -10   22.01    0.95
   8  -4 -10   22.39    1.74
  -8  -4  10   18.75    0.80
   8   4  10   20.74    0.83
   8  -6  10    2.62    0.46
  -8  -6 -10    2.15    2.66
  -8  -6 -10    2.83    0.69
   8   6 -10    2.88    0.72
   8  -6  10    2.95    0.81
   8   6 -10    2.76    0.76
  -8   6 -10    2.21    0.96
   8   6  10    2.75    0.53
  -8  -6  10    3.03    0.78
  -8   6 -10    2.68    0.35
   8  -6 -10    2.98    0.88
   8  -6 -10    1.90    0.88
  -8  -6  10    2.97    0.40
   8   6  10    2.88    0.32
  -8  -8 -10   -0.72    1.86
   8  -8  10   -0.00    0.33
  -8  -8 -10    0.51    0.53
   8   8 -10    0.66    0.56
   8  -8  10    0.75    0.99
   8   8 -10    0.32    0.50
  -8   8 -10   -0.03    0.54
   8   8  10    0.22    0.34
  -8  -8  10    0.18    0.52
  -8   8 -10    0.27    0.21
   8  -8 -10    0.49    0.63
   8  -8 -10    0.04    0.62
  -8  -8  10    0.78    0.52
   8   8  10    0.06    0.20
   8  10 -10   24.15    1.61
  -8 -10 -10   22.88    3.22
   8 -10  10   24.31    1.27
  -8 -10 -10   25.12    1.88
   8  10 -10   27.12    3.00
   8 -10  10   26.55    2.05
   8  10  10   24.67    1.65
  -8 -10  10   25.67    1.66
   8 -10 -10   25.44    3.08
  -8  10 -10   23.18    1.04
   8 -10 -10   24.08    2.00
  -8 -10  10   21.67    1.26
   8  10  10   20.91    0.77
  -8  10 -10   24.27    1.46
   8  12 -10   21.77    2.34
  -8 -12 -10   22.83    3.13
   8 -12  10   20.64    1.28
  -8 -12 -10   22.53    1.98
   8  12 -10   24.65    3.14
   8 -12  10   23.04    2.07
   8  12  10   22.68    1.08
  -8 -12  10   23.05    2.45
   8 -12 -10   22.41    1.94
  -8  12 -10   20.98    0.66
   8 -12 -10   22.55    2.00
  -8 -12  10   20.92    2.05
   8  12  10   18.74    0.97
  -8  12 -10   21.39    1.11
   8  14 -10    0.99    0.55
  -8 -14 -10    0.45    1.26
   8 -14  10    0.84    0.49
  -8 -14 -10    2.50    0.87
   8  14 -10    1.02    0.81
   8 -14  10    0.44    1.39
   8  14  10    0.35    0.33
  -8 -14  10    0.97    0.59
   8 -14 -10    1.16    0.79
   8 -14 -10    1.17    1.39
  -8 -14  10    1.68    0.58
   8  14  10    0.47    0.19
  -8 -16 -10   10.36    2.42
   8  16 -10   10.24    1.11
   8 -16  10   10.28    1.64
  -8 -16 -10   11.86    1.82
   8  16 -10   10.99    1.62
   8 -16  10   10.50    1.71
  -8 -16  10    9.52    1.16
   8 -16 -10   10.71    1.66
  -8 -16  10    9.88    1.27
   8 -16 -10    9.17    1.55
  -8 -18 -10   35.71    4.05
   8 -18  10   36.25    2.11
   8  18 -10   35.97    2.04
   8  18 -10   42.44    2.99
   8 -18  10   35.99    3.25
  -8 -18  10   38.86    2.17
   8 -18 -10   35.37    3.12
   8  18  10   24.15    3.19
  -8 -18  10   34.46    2.65
   8 -18 -10   35.70    2.85
  -8 -20 -10    2.43    1.41
   8 -20  10    0.55    0.67
   8  20 -10    1.39    0.59
   8  20 -10    1.29    0.97
   8 -20  10    0.68    1.82
  -8 -20  10    1.31    1.08
   8 -20 -10    0.60    0.96
   8 -20 -10    1.62    1.10
  -8 -20  10    1.76    1.67
   8  20  10    0.47    1.26
   8 -22  10    2.93    0.87
   8  22 -10    1.80    0.68
   8  22 -10    3.59    1.15
   8 -22  10    1.56    1.41
  -8 -22 -10    2.32    1.69
   8 -22 -10    1.91    1.17
  -8 -22  10    2.01    1.25
   8 -22 -10    3.04    1.39
  -8 -22  10    2.13    1.36
   8  22  10    2.01    1.63
  10   0  10   11.14    0.71
  10   0  10   10.67    0.99
 -10   0 -10   10.78    0.79
 -10   0  10   11.32    1.30
  10   0 -10   12.23    0.94
  10   0 -10   11.08    1.35
 -10   0 -10   11.38    1.81
  10  -2  10    8.10    0.67
  10  -2  10    7.74    1.49
 -10  -2 -10    8.61    0.80
 -10   2  10    9.23    1.21
  10   2 -10   10.01    1.60
  10   2 -10    8.12    1.96
 -10  -2 -10    9.79    1.88
  10   2  10    8.13    0.85
  10  -2 -10    8.65    0.68
 -10   2 -10    9.16    0.64
 -10  -2  10   10.15    1.89
 -10   2 -10   10.41    2.22
  10  -2 -10    8.67    1.27
  10   2  10    8.75    0.61
  10  -4  10    0.64    0.61
 -10  -4 -10    0.83    0.49
 -10   4  10    0.70    0.69
  10  -4  10    0.46    0.57
  10   4 -10    3.05    1.08
 -10  -4 -10    1.25    1.24
  10   4 -10    1.19    0.66
  10   4  10    0.60    0.71
 -10  -4  10    0.37    0.67
 -10   4 -10    0.38    0.49
 -10   4 -10    0.88    0.65
  10  -4 -10    1.35    0.73
 -10  -4  10    0.53    0.42
  10   4  10    0.76    0.31
  10  -6  10    6.64    0.68
 -10  -6 -10    7.78    0.93
 -10   6  10    6.52    1.15
  10  -6  10    5.99    1.01
  10   6 -10    8.00    1.92
 -10  -6 -10    6.45    2.28
  10   6 -10    7.30    1.76
  10   6  10    8.31    0.72
 -10  -6  10    7.11    1.07
 -10   6 -10    7.00    0.45
 -10   6 -10    6.89    0.88
  10  -6 -10    7.05    1.23
 -10  -6  10    5.76    0.52
  10   6  10    6.40    0.51
  10   8 -10    6.74    1.07
  10  -8  10    6.37    0.72
 -10  -8 -10    6.53    1.04
 -10   8  10    6.99    1.16
  10  -8  10    9.01    1.11
  10   8 -10    8.44    1.32
 -10  -8 -10    5.52    2.18
  10   8  10    6.71    0.68
 -10  -8  10    7.34    1.76
 -10   8 -10    7.18    0.62
 -10   8 -10    6.77    0.72
  10  -8 -10    7.41    1.26
 -10  -8  10    6.14    0.60
  10   8  10    6.40    0.49
  10 -10  10    6.46    0.73
  10  10 -10    5.53    1.04
 -10 -10 -10    6.13    0.63
  10 -10  10    6.96    1.12
  10  10 -10    7.23    2.18
 -10 -10 -10    6.12    2.00
  10  10  10    5.93    1.11
 -10 -10  10    6.27    1.04
  10 -10 -10    6.11    1.19
  10 -10 -10    6.74    1.25
 -10 -10  10    5.05    1.06
  10  10  10    5.25    0.44
  10  12 -10   26.71    1.89
  10 -12  10   26.35    1.54
 -10 -12 -10   29.12    1.30
  10 -12  10   27.51    2.21
  10  12 -10   32.23    3.90
 -10 -12 -10   29.49    3.46
  10  12  10   29.22    2.32
 -10 -12  10   28.58    1.96
  10 -12 -10   28.66    2.23
  10 -12 -10   25.42    2.37
 -10 -12  10   25.05    1.47
  10  12  10   24.30    0.97
  10 -14  10   20.77    1.42
  10  14 -10   21.63    1.69
 -10 -14 -10   22.68    1.53
  10  14 -10   23.22    2.29
  10 -14  10   21.74    2.10
 -10 -14 -10   22.39    3.07
  10  14  10   23.65    2.29
 -10 -14  10   22.01    1.73
  10 -14 -10   21.31    2.00
  10  14  10   18.65    0.80
  10 -14 -10   20.37    3.39
 -10 -14  10   18.61    2.18
  10 -16  10    4.86    0.85
  10  16 -10    4.38    1.58
 -10 -16 -10    4.81    0.54
  10  16 -10    4.94    1.38
  10 -16  10    5.71    1.33
 -10 -16 -10    3.67    1.86
  10  16  10    5.06    1.50
 -10 -16  10    5.18    1.00
  10 -16 -10    4.87    1.19
  10 -16 -10    4.43    1.33
 -10 -16  10    3.71    0.92
  10 -18  10    0.73    0.66
  10  18 -10    1.20    0.68
  10  18 -10    0.70    1.01
  10 -18  10    0.71    1.01
 -10 -18 -10    0.97    1.38
  10  18  10    1.03    1.18
 -10 -18  10    1.38    0.72
  10 -18 -10    0.77    1.03
 -10 -18  10    1.64    0.77
  10 -18 -10    0.86    0.89
  10 -20  10    0.99    0.72
  10  20 -10    1.12    0.67
  10  20 -10    0.59    1.06
  10 -20  10    1.87    1.11
 -10 -20 -10    0.47    2.29
 -10 -20  10    0.99    0.75
  10  20  10    2.20    1.29
  10 -20 -10    0.69    1.12
 -10 -20  10    1.21    0.90
  10 -20 -10    1.20    0.94
 -12   0  10    0.03    0.15
 -12   0 -10    0.31    0.52
  12   0  10    0.31    0.41
 -12   0  10    0.46    0.58
  12   0 -10    0.24    0.53
 -12   0 -10   -0.29    0.59
  12   0  10   -0.04    0.31
  12   0 -10   -0.22    0.62
  12  -2  10    5.41    0.68
 -12  -2 -10    6.88    0.76
  12  -2  10    6.78    0.88
 -12   2  10    6.78    1.16
  12   2 -10    8.38    1.25
 -12  -2 -10    6.55    1.41
  12   2 -10    7.03    1.23
  12   2  10    6.15    0.82
 -12   2 -10    7.03    0.59
 -12  -2  10    6.74    1.14
  12  -2 -10    3.97    1.45
 -12   2 -10    5.02    1.61
  12   2  10    6.67    1.00
  12  -2 -10    6.05    2.08
  12  -4  10    5.19    1.10
  12   4 -10    5.27    1.19
 -12  -4 -10    6.29    0.81
  12  -4  10    5.76    0.92
 -12   4  10    6.39    1.14
  12   4 -10    6.92    1.33
 -12  -4 -10    4.98    1.60
  12   4  10    6.12    0.76
 -12   4 -10    5.42    0.49
 -12  -4  10    7.07    1.10
 -12   4 -10    6.58    0.78
  12  -4 -10    6.11    1.23
 -12  -4  10    4.39    0.44
  12   4  10    5.02    0.58
  12  -6  10   77.84    3.35
  12   6 -10   80.91    4.38
 -12  -6 -10   85.29    3.55
  12  -6  10   82.13    5.27
 -12   6  10   84.29    6.10
  12   6 -10   94.54    5.42
 -12  -6 -10   85.58    6.25
 -12   6 -10   81.83    3.21
 -12  -6  10   83.92    4.36
 -12   6 -10   76.37    3.23
  12   6  10   83.43    3.97
 -12  -6  10   68.22    2.63
  12   6  10   77.62    2.94
  12  -6 -10   80.76    4.70
  12  -8  10    4.97    0.77
  12   8 -10    5.26    1.19
 -12  -8 -10    6.73    0.70
 -12   8  10    4.96    1.17
  12  -8  10    5.15    1.04
  12   8 -10    5.93    1.44
 -12  -8 -10    5.33    3.43
 -12  -8  10    6.25    1.14
  12  -8 -10    5.66    1.31
 -12  -8  10    3.96    0.92
  12   8  10    5.28    0.55
  12   8  10    5.11    1.05
  12 -10  10   84.62    3.81
  12  10 -10   85.81    4.63
 -12 -10 -10   90.60    4.44
 -12  10  10   88.27    4.75
  12 -10  10   86.58    4.64
  12  10 -10  100.38    8.00
 -12 -10 -10   96.57   11.51
  12  10  10   88.93    4.85
 -12 -10  10   86.93    4.63
  12  10  10   78.63    2.99
  12 -10 -10   87.18    5.23
 -12 -10  10   76.10    3.25
  12 -12  10    1.50    0.58
  12  12 -10    1.90    0.81
 -12 -12 -10    1.14    0.45
  12 -12  10    1.35    0.82
  12  12 -10    1.02    1.06
 -12 -12 -10    1.51    2.61
  12  12  10    1.18    0.91
 -12 -12  10    1.80    1.28
  12 -12 -10    1.05    0.86
  12  12  10    0.72    0.33
 -12 -12  10    0.09    0.51
  12 -12 -10    1.66    0.96
  12 -14  10    7.53    1.05
  12  14 -10    7.79    1.34
 -12 -14 -10    9.18    0.77
  12 -14  10    8.97    1.47
  12  14 -10    9.95    1.79
 -12 -14 -10   10.41    4.03
  12  14  10    8.11    2.68
 -12 -14  10   10.75    1.32
  12 -14 -10    9.21    1.44
  12  14  10    8.23    0.60
 -12 -14  10    7.98    0.98
  12 -14 -10    8.00    1.67
  12 -16  10    5.95    0.94
  12  16 -10    5.06    1.11
 -12 -16 -10    7.18    0.97
  12 -16  10    4.90    1.34
  12  16 -10    5.36    1.56
 -12 -16 -10    6.04    3.37
  12  16  10    6.42    2.54
 -12 -16  10    5.05    1.11
  12 -16 -10    5.22    1.24
  12  16  10    4.28    0.48
  12 -16 -10    4.89    1.45
 -12 -16  10    3.97    0.93
  14   0 -10   81.13    5.03
 -14   0 -10   80.87    3.42
  14   0  10   83.42    4.07
 -14   0  10   84.13    4.73
  14   0 -10  101.05    5.32
 -14   0 -10   80.63    4.22
  14   0  10   81.56    4.50
  14   2 -10    0.22    0.84
 -14  -2 -10    0.63    0.53
  14  -2  10    1.14    0.59
 -14   2  10    0.42    0.74
  14   2 -10    0.59    0.87
 -14  -2 -10    0.83    1.18
  14  -2  10    0.95    0.46
 -14  -2  10    0.12    0.21
 -14   2 -10    0.73    0.58
 -14  -2  10    1.29    0.76
 -14   2 -10    0.82    0.51
  14   2  10    0.02    0.45
  14   2  10    0.51    0.44
  14  -2 -10    0.59    1.44
  14  -4  10   13.51    1.11
  14   4 -10   14.53    1.84
 -14  -4 -10   15.46    1.19
  14  -4  10   14.50    2.15
 -14   4  10   14.87    1.68
  14   4 -10   16.57    2.05
 -14  -4 -10   13.59    1.81
  14   4  10   15.73    1.24
 -14   4 -10   13.37    0.76
 -14   4 -10   12.42    1.03
 -14  -4  10   16.38    1.69
  14   4  10   13.70    0.97
  14  -4 -10   14.00    1.92
  14  -6  10    5.92    0.82
  14   6 -10    4.74    1.32
 -14  -6 -10    5.12    0.81
  14  -6  10    5.38    1.00
 -14   6  10    5.61    1.21
  14   6 -10    5.79    2.43
 -14  -6 -10    6.18    1.52
 -14  -6  10    8.22    1.22
  14   6  10    5.58    0.95
  14   6  10    5.91    0.66
 -14  -6  10    4.24    0.54
  14  -6 -10    5.06    1.41
  14  -8  10   42.80    2.33
  14   8 -10   46.96    4.95
 -14  -8 -10   47.08    2.24
 -14   8  10   49.32    4.55
  14  -8  10   45.05    2.76
  14   8 -10   60.56    6.01
 -14  -8 -10   46.40    4.20
 -14  -8  10   48.25    3.07
  14   8  10   46.72    4.07
  14   8  10   42.80    2.56
  14  -8 -10   47.35    5.24
 -14  -8  10   38.16    1.78
  -1   1  11   48.17    1.47
   1  -1  11   48.84    1.72
  -1  -1 -11   48.82    3.39
   1  -1  11   47.38    1.99
  -1  -1 -11   49.73    2.29
   1   1 -11   51.09    2.36
  -1   1  11   46.58    1.35
   1   1 -11   49.82    2.94
   1   1  11   48.34    1.34
  -1  -1  11   48.61    1.39
  -1   1 -11   47.99    3.24
   1  -1 -11   50.23    3.07
   1   1  11   48.22    1.70
  -1   1 -11   50.71    2.18
  -1  -1  11   45.52    1.54
   1  -1 -11   49.98    2.43
   1  -3  11    2.18    0.28
  -1  -3 -11    2.14    1.08
  -1  -3 -11    2.54    0.61
   1  -3  11    2.98    0.63
   1   3 -11    2.15    0.54
   1   3 -11    1.78    0.81
   1   3  11    1.51    0.25
  -1  -3  11    2.15    0.27
  -1   3 -11    2.06    1.47
   1  -3 -11    2.37    0.94
   1  -3 -11    2.35    0.65
  -1  -3  11    2.16    0.41
   1   3  11    1.84    0.39
  -1   3 -11    2.17    0.50
   1  -5  11   15.33    0.97
  -1  -5 -11   17.07    3.24
  -1  -5 -11   14.38    1.24
   1  -5  11   15.32    1.55
   1   5 -11   13.08    1.54
   1   5 -11   13.94    1.41
  -1  -5  11   14.92    0.65
  -1   5 -11   15.03    1.57
   1  -5 -11   13.28    1.76
   1  -5 -11   14.95    1.29
  -1  -5  11   15.17    0.99
  -1   5 -11   14.72    0.93
   1  -7  11   43.90    1.55
  -1  -7 -11   38.12    3.31
   1  -7  11   41.22    3.25
   1   7 -11   39.67    1.78
   1   7 -11   41.02    2.39
  -1  -7 -11   41.29    3.53
   1  -7 -11   41.12    4.61
  -1  -7  11   40.48    1.48
  -1   7 -11   39.33    2.56
   1  -7 -11   40.55    2.34
  -1  -7  11   40.54    3.15
  -1   7 -11   41.39    2.29
   1  -9  11    1.80    0.40
   1   9 -11    1.81    1.12
  -1  -9 -11    2.33    0.75
   1  -9  11    2.16    2.23
   1   9 -11    1.66    0.46
  -1  -9 -11    2.33    1.28
   1  -9 -11    1.76    1.08
  -1  -9  11    1.94    0.41
  -1   9 -11    1.72    0.76
   1  -9 -11    1.67    0.78
  -1  -9  11    1.82    0.80
  -1   9 -11    1.67    0.40
   1 -11  11   18.05    1.03
   1  11 -11   17.71    1.43
  -1 -11 -11   19.71    1.71
   1 -11  11   26.21    5.64
   1  11 -11   18.55    1.01
  -1 -11 -11   17.16    2.66
   1 -11 -11   19.75    2.30
  -1 -11  11   18.94    1.07
  -1  11 -11   18.94    1.54
   1 -11 -11   19.46    1.73
  -1 -11  11   19.37    2.09
  -1  11 -11   18.05    0.92
   1 -13  11   22.32    1.28
  -1 -13 -11   23.03    3.16
   1  13 -11   24.06    1.58
   1 -13  11   23.16    3.08
  -1 -13 -11   26.77    3.24
   1  13 -11   23.37    1.14
  -1 -13  11   22.81    1.32
  -1  13 -11   22.99    1.67
   1 -13 -11   22.43    3.19
  -1 -13  11   22.41    2.91
  -1  13 -11   23.90    1.04
   1 -13 -11   24.15    4.42
   1  15 -11   10.96    0.72
   1 -15  11   10.98    0.96
  -1 -15 -11   11.21    1.59
   1  15 -11   10.51    1.07
   1 -15  11   10.82    2.04
  -1 -15 -11   10.33    2.52
  -1 -15  11   10.92    1.03
  -1  15 -11   10.58    1.09
   1 -15 -11   11.58    1.63
  -1 -15  11   10.19    2.64
  -1  15 -11   10.35    0.64
   1 -15 -11   12.04    2.16
   1  17 -11    8.51    0.65
   1 -17  11    7.77    1.00
  -1 -17 -11    9.25    1.66
   1  17 -11    9.42    0.95
   1 -17  11    8.72    1.79
  -1 -17 -11   10.31    2.53
  -1  17 -11    8.50    0.87
  -1 -17  11    8.89    1.06
  -1  17 -11   10.04    0.97
   1 -17 -11   10.55    1.69
  -1 -17  11    8.99    2.54
   1 -17 -11   10.55    2.20
   1  19 -11   10.24    0.69
   1 -19  11   10.44    1.17
  -1 -19 -11   11.11    1.95
  -1 -19 -11   11.10    4.67
   1  19 -11   10.10    0.98
   1 -19  11    9.08    1.84
  -1  19 -11   10.29    0.60
  -1 -19  11   10.17    1.96
  -1  19 -11   10.82    0.92
   1 -19 -11   10.52    1.93
  -1 -19  11   10.07    2.36
   1 -19 -11   10.67    2.55
   1  21 -11   12.80    0.75
   1 -21  11   14.47    2.28
  -1 -21 -11   14.96    2.40
  -1 -21 -11   14.38    3.36
   1  21 -11   13.74    1.08
   1 -21  11   13.07    1.99
  -1 -21  11   12.88    1.54
   1 -21 -11   10.96    2.36
  -1 -21  11   14.29    2.40
   1 -21 -11   14.75    3.01
   1 -23  11   23.27    2.06
  -1 -23 -11   25.65    3.42
  -1 -23 -11   27.12    4.53
   1 -23  11   20.02    2.51
  -1 -23  11   23.63    2.20
   1 -23 -11   23.79    3.41
  -1 -23  11   23.62    2.97
   1 -23 -11   26.45    4.13
   3  -1  11   41.52    1.30
  -3   1  11   39.69    1.20
   3   1 -11   42.49    2.58
   3  -1  11   42.11    2.78
  -3  -1 -11   41.36    1.94
   3   1 -11   42.58    2.11
  -3  -1 -11   38.85    5.46
   3   1  11   41.02    1.22
  -3  -1  11   41.60    1.19
   3   1  11   44.22    2.32
  -3   1 -11   41.92    2.56
   3  -1 -11   43.68    2.23
  -3  -1  11   37.28    1.50
   3  -1 -11   40.92    3.87
  -3   1 -11   41.80    3.49
   3  -3  11   16.32    0.69
  -3  -3 -11   16.32    1.18
   3   3 -11   17.89    1.52
   3  -3  11   17.75    2.18
  -3  -3 -11   16.27    2.45
   3   3 -11   17.59    1.21
   3   3  11   15.89    0.72
  -3  -3  11   16.45    0.64
   3   3  11   18.39    1.58
  -3   3 -11   17.09    0.98
   3  -3 -11   16.78    1.37
  -3  -3  11   15.44    0.71
   3  -3 -11   16.89    1.69
  -3   3 -11   16.18    2.14
   3  -5  11   10.54    0.57
  -3  -5 -11   10.14    1.03
   3   5 -11    8.48    1.17
   3  -5  11   12.54    2.19
  -3  -5 -11   10.37    2.17
   3   5 -11    9.98    0.89
  -3  -5  11   10.59    0.56
   3   5  11   12.44    0.61
  -3   5 -11   10.69    0.73
   3  -5 -11    8.99    1.16
  -3  -5  11    9.18    0.66
   3  -5 -11    8.38    1.41
   3   5  11    8.84    0.44
  -3   5 -11   11.86    1.64
   3  -7  11   11.62    0.68
   3   7 -11   10.63    1.25
  -3  -7 -11   12.62    1.85
   3  -7  11   13.05    2.03
  -3  -7 -11   11.29    2.38
   3   7 -11   12.47    0.96
  -3  -7  11   11.28    0.69
   3  -7 -11   14.90    2.54
   3  -7 -11   10.65    1.31
  -3  -7  11   11.35    1.33
  -3   7 -11   12.12    0.72
  -3   7 -11   14.72    1.67
   3  -9  11   40.42    2.22
  -3  -9 -11   43.39    2.52
   3   9 -11   39.48    2.35
   3  -9  11   42.85    3.44
  -3  -9 -11   42.05    4.38
   3   9 -11   40.64    1.93
  -3  -9  11   40.27    1.74
   3  -9 -11   41.70    3.07
   3  -9 -11   41.80    2.64
  -3  -9  11   40.04    2.06
  -3   9 -11   44.30    2.12
  -3   9 -11   46.91    3.02
   3 -11  11   69.97    2.81
  -3 -11 -11   71.33    3.87
   3  11 -11   73.56    3.54
   3 -11  11   69.73    4.72
  -3 -11 -11   72.73    9.49
   3  11 -11   71.60    3.85
  -3 -11  11   69.80    3.02
   3 -11 -11   75.07    4.61
   3 -11 -11   70.72    4.01
  -3 -11  11   72.12    3.64
  -3  11 -11   72.17    3.05
  -3  11 -11   81.98    4.34
   3 -13  11   44.95    2.05
  -3 -13 -11   46.69    3.03
   3  13 -11   47.82    2.48
  -3 -13 -11   46.89    5.19
   3 -13  11   44.86    3.53
   3  13 -11   44.86    2.00
   3 -13 -11   46.40    3.59
  -3 -13  11   46.40    2.28
   3 -13 -11   44.72    4.60
  -3 -13  11   46.61    3.07
  -3  13 -11   46.77    1.59
  -3  13 -11   48.35    2.75
   3  15 -11   18.25    1.09
   3 -15  11   17.81    1.25
  -3 -15 -11   21.05    3.22
   3  15 -11   15.87    1.34
  -3 -15 -11   19.59    3.56
   3 -15  11   18.74    2.17
   3 -15 -11   19.99    2.37
   3 -15 -11   17.76    2.03
  -3 -15  11   19.24    2.28
  -3 -15  11   17.97    1.38
  -3  15 -11   18.54    0.77
  -3  15 -11   21.83    1.45
   3  17 -11   15.39    0.98
   3 -17  11   14.05    1.23
   3  17 -11   15.61    1.49
  -3 -17 -11   16.23    2.07
  -3 -17 -11   18.55    3.51
   3 -17  11   13.78    3.16
   3 -17 -11   16.71    2.36
  -3 -17  11   15.85    1.27
   3 -17 -11   14.79    2.01
  -3 -17  11   12.87    4.04
   3  19 -11   27.53    1.34
   3 -19  11   27.87    1.85
  -3 -19 -11   27.88    7.22
  -3 -19 -11   25.98    2.97
   3 -19  11   26.61    2.56
   3  19 -11   28.39    2.17
  -3 -19  11   27.39    1.70
   3 -19 -11   26.19    2.88
  -3 -19  11   31.37    6.34
   3 -19 -11   26.21    3.27
   3  21 -11    3.81    0.54
   3 -21  11    3.66    1.50
  -3 -21 -11    4.85    2.45
   3  21 -11    4.32    1.13
  -3 -21 -11    3.45    1.65
   3 -21  11    3.07    1.27
  -3 -21  11    3.34    0.72
   3 -21 -11    3.29    1.62
  -3 -21  11    3.73    3.58
   3 -21 -11    3.62    1.75
   3  23 -11   34.01    1.57
   3 -23  11   36.65    2.57
  -3 -23 -11   40.05    5.81
   3  23 -11   40.23    3.09
  -3 -23 -11   36.67    4.25
   3 -23  11   35.73    3.10
  -3 -23  11   39.52    2.07
   3 -23 -11   32.44    6.53
  -3 -23  11   40.41    6.95
   3 -23 -11   42.86    6.91
   5  -1  11   37.05    1.28
   5  -1  11   40.47    3.09
   5   1 -11   39.35    2.39
  -5  -1 -11   39.55    4.14
  -5  -1 -11   38.11    1.80
   5   1 -11   38.34    2.15
   5   1  11   36.52    1.20
  -5  -1  11   37.39    1.13
   5   1  11   45.68    3.08
  -5   1 -11   43.59    4.13
   5  -1 -11   40.16    3.63
  -5   1 -11   38.18    2.32
   5  -1 -11   39.27    2.22
   5  -3  11   12.21    0.65
   5  -3  11   15.25    1.85
   5   3 -11   13.06    1.38
  -5  -3 -11   14.70    2.73
  -5  -3 -11   12.92    1.62
   5   3 -11   14.96    1.20
   5   3  11   12.46    0.53
  -5  -3  11   13.14    0.60
   5   3  11   16.20    1.59
  -5   3 -11   15.49    2.41
   5  -3 -11   13.50    1.50
  -5   3 -11   14.32    0.83
   5  -3 -11   13.95    1.31
  -5  -3  11   11.49    0.56
   5  -5  11   58.93    2.11
  -5  -5 -11   61.43    2.82
   5  -5  11   62.52    4.21
  -5  -5 -11   64.22    5.84
   5   5 -11   58.59    3.13
   5   5 -11   63.70    2.90
  -5  -5  11   57.35    2.04
   5   5  11   59.76    3.06
  -5   5 -11   65.52    4.94
   5  -5 -11   63.81    3.54
  -5   5 -11   60.02    2.23
   5  -5 -11   61.21    3.25
  -5  -5  11   53.91    1.94
   5   5  11   56.92    1.95
   5  -7  11   22.35    1.04
   5   7 -11   23.93    1.16
  -5  -7 -11   21.66    1.62
   5  -7  11   23.25    2.43
  -5  -7 -11   22.43    3.69
   5   7 -11   23.29    1.49
  -5  -7  11   23.23    1.74
  -5   7 -11   27.11    2.58
  -5   7 -11   23.32    1.01
   5  -7 -11   24.28    1.90
   5  -7 -11   23.51    2.05
   5  -9  11    9.56    0.73
  -5  -9 -11   -0.18    4.39
   5   9 -11   11.05    0.85
  -5  -9 -11   10.78    1.20
   5  -9  11    8.00    2.86
   5   9 -11   11.22    1.55
  -5  -9  11   10.54    1.15
  -5   9 -11    9.48    1.54
   5  -9 -11   10.62    1.37
  -5  -9  11    9.25    0.82
  -5   9 -11    9.87    0.58
   5  -9 -11   10.26    1.52
   5 -11  11    8.66    0.75
  -5 -11 -11    0.19    2.71
   5  11 -11    9.24    0.93
  -5 -11 -11   10.20    1.25
   5 -11  11    8.91    1.70
   5  11 -11    9.02    0.91
  -5 -11  11   10.31    1.09
  -5  11 -11    9.53    1.27
   5 -11 -11    9.30    1.40
  -5 -11  11    8.55    0.94
  -5  11 -11    8.66    0.50
   5 -11 -11    8.36    1.49
   5  13 -11   35.00    1.80
   5 -13  11   33.68    1.69
  -5 -13 -11   35.53    4.84
   5  13 -11   36.66    2.91
  -5 -13 -11   35.54    2.59
   5 -13  11   32.68    3.10
  -5 -13  11   35.99    3.02
  -5  13 -11   36.86    2.25
   5 -13 -11   32.86    2.89
   5 -13 -11   34.00    2.69
  -5 -13  11   34.33    2.13
  -5  13 -11   34.37    1.14
   5  15 -11    0.19    0.43
   5 -15  11    0.14    0.72
  -5 -15 -11   -0.26    1.58
   5  15 -11    0.29    0.58
  -5 -15 -11    0.53    0.78
   5 -15  11    0.43    0.88
  -5 -15  11    0.69    0.52
   5 -15 -11    0.18    0.87
   5 -15 -11    0.24    0.80
  -5 -15  11    0.01    0.67
   5  17 -11    9.40    1.30
   5 -17  11    7.20    0.92
  -5 -17 -11    6.48    2.87
   5  17 -11    7.90    1.19
  -5 -17 -11    7.57    2.63
   5 -17  11    5.82    1.64
  -5 -17  11    7.15    0.98
   5 -17 -11    5.61    2.72
   5 -17 -11    7.53    1.63
  -5 -17  11    5.54    1.51
   5  19 -11   16.47    1.15
   5 -19  11   15.68    1.40
  -5 -19 -11   16.72    3.81
   5  19 -11   17.43    1.80
  -5 -19 -11   17.45    2.41
   5 -19  11   14.60    3.55
   5 -19 -11   16.30    2.39
  -5 -19  11   16.06    1.36
   5 -19 -11   15.02    2.35
  -5 -19  11   16.80    2.47
   5 -21  11   17.12    1.62
   5  21 -11   17.97    1.20
  -5 -21 -11   17.65    3.93
   5  21 -11   21.54    2.08
  -5 -21 -11   18.59    2.85
   5 -21  11   18.76    2.39
   5 -21 -11   18.43    2.76
  -5 -21  11   20.89    1.46
   5 -21 -11   17.76    2.78
  -5 -21  11   23.53    3.19
   7  -1  11   17.49    0.83
  -7  -1 -11   22.72    3.25
   7   1 -11   20.09    0.76
   7  -1  11   21.26    1.77
  -7  -1 -11   19.68    1.15
   7   1 -11   21.35    1.58
   7   1  11   17.95    0.78
  -7   1 -11   21.49    3.19
  -7  -1  11   19.38    1.68
   7   1  11   21.14    1.70
  -7   1 -11   19.39    1.07
   7  -1 -11   21.07    1.76
   7  -1 -11   18.90    2.55
   7  -3  11   17.44    0.85
  -7  -3 -11   17.11    3.19
   7   3 -11   19.77    1.21
   7  -3  11   19.29    2.70
  -7  -3 -11   17.33    1.19
   7   3 -11   18.57    2.35
  -7   3 -11   20.61    2.78
  -7  -3  11   18.58    1.61
   7   3  11   18.62    1.57
  -7   3 -11   18.36    1.37
   7  -3 -11   19.50    1.72
   7  -3 -11   17.91    1.62
   7   3  11   16.66    0.70
   7  -5  11   18.74    0.95
  -7  -5 -11   18.67    3.32
   7   5 -11   20.98    1.03
  -7  -5 -11   19.51    1.35
   7  -5  11   19.78    1.92
   7   5 -11   20.20    1.52
  -7   5 -11   21.35    2.52
  -7  -5  11   21.35    1.66
   7   5  11   22.80    1.59
   7  -5 -11   19.28    2.89
  -7   5 -11   19.53    0.91
   7  -5 -11   21.41    1.77
   7   5  11   18.46    0.73
   7  -7  11    0.65    0.61
  -7  -7 -11   -0.10    1.50
   7   7 -11    1.17    0.45
  -7  -7 -11    0.81    0.60
   7  -7  11    0.52    0.84
   7   7 -11    1.01    0.61
  -7   7 -11    0.73    0.93
  -7  -7  11    1.38    1.13
   7   7  11    0.56    0.61
   7  -7 -11    1.34    0.80
  -7   7 -11    1.48    0.30
   7  -7 -11    0.93    0.74
  -7  -7  11    0.74    0.34
   7   7  11    0.94    0.34
   7  -9  11    6.87    0.66
  -7  -9 -11    0.13    2.30
   7   9 -11    7.09    1.31
  -7  -9 -11    6.58    1.67
   7  -9  11    8.23    1.39
   7   9 -11    5.77    0.95
  -7   9 -11    6.23    1.24
  -7  -9  11    6.61    1.05
   7  -9 -11    8.64    1.28
  -7   9 -11    6.74    0.46
   7  -9 -11    7.79    1.26
  -7  -9  11    7.23    0.65
   7  11 -11    5.38    0.89
   7 -11  11    6.27    0.69
  -7 -11 -11    0.09    2.18
   7  11 -11    6.87    1.49
  -7 -11 -11    6.08    1.10
   7 -11  11    6.04    2.29
  -7  11 -11    4.26    1.55
  -7 -11  11    5.99    1.01
  -7  11 -11    5.86    0.39
   7 -11 -11    5.50    1.24
  -7 -11  11    6.57    0.73
   7 -11 -11    6.45    2.14
   7  13 -11   41.63    3.16
   7 -13  11   40.02    1.94
  -7 -13 -11   41.14    4.66
   7  13 -11   43.86    2.61
  -7 -13 -11   41.15    2.87
   7 -13  11   38.82    3.31
  -7 -13  11   39.89    2.41
   7 -13 -11   37.95    2.96
  -7 -13  11   38.46    2.16
   7 -13 -11   40.73    3.09
   7  15 -11    1.29    0.59
   7 -15  11    1.55    0.89
  -7 -15 -11    1.39    1.55
   7  15 -11    0.80    0.80
  -7 -15 -11    0.97    0.97
   7 -15  11    1.23    1.05
  -7 -15  11    1.72    1.10
   7 -15 -11    1.71    0.99
  -7 -15  11   -0.08    0.70
   7 -15 -11    1.51    0.98
  -7 -17 -11    2.84    2.95
   7  17 -11    2.01    0.68
   7 -17  11    2.25    0.69
   7  17 -11    2.67    1.01
  -7 -17 -11    2.38    1.24
   7 -17  11    1.61    1.29
  -7 -17  11    2.51    0.77
   7 -17 -11    2.86    1.18
   7 -17 -11    2.81    1.25
  -7 -17  11    2.00    0.93
  -7 -19 -11   18.75    3.34
   7 -19  11   16.74    1.49
   7  19 -11   18.13    1.35
   7  19 -11   22.01    2.10
  -7 -19 -11   20.33    2.59
   7 -19  11   16.86    4.11
  -7 -19  11   17.60    1.55
   7 -19 -11   16.61    2.37
   7 -19 -11   19.32    2.60
  -7 -19  11   17.86    2.14
   9  -1  11    5.76    0.52
  -9  -1 -11    5.52    1.77
  -9   1  11    5.99    1.13
   9  -1  11    5.56    0.99
  -9  -1 -11    5.19    0.66
   9   1 -11    6.47    1.11
   9   1  11    5.36    0.78
  -9   1 -11    6.36    2.55
  -9  -1  11    5.94    1.13
   9   1  11    6.26    0.93
  -9   1 -11    5.78    0.62
   9  -1 -11    6.17    1.86
   9  -3  11   21.74    1.07
  -9  -3 -11   22.97    3.23
  -9   3  11   23.28    1.93
   9   3 -11   21.65    1.15
   9  -3  11   22.20    1.79
  -9  -3 -11   21.68    1.32
   9   3 -11   22.54    1.82
   9   3  11   22.29    2.27
  -9  -3  11   22.88    1.86
  -9   3 -11   20.46    1.04
   9  -3 -11   21.15    1.96
  -9   3 -11   21.40    3.47
   9   3  11   20.37    1.29
   9  -5  11   49.10    2.02
  -9  -5 -11   48.59    4.71
   9   5 -11   51.60    2.29
  -9  -5 -11   49.17    3.41
   9  -5  11   50.89    4.34
   9   5 -11   49.02    2.84
   9   5  11   50.31    2.48
  -9  -5  11   50.29    3.00
  -9   5 -11   48.15    2.23
   9  -5 -11   51.09    3.15
   9  -5 -11   48.61    3.14
  -9  -5  11   41.49    1.52
   9   5  11   48.00    2.13
  -9   5 -11   48.65    3.12
   9  -7  11   67.05    3.55
  -9  -7 -11   65.76    5.83
  -9  -7 -11   67.01    3.42
   9   7 -11   75.31    4.55
   9  -7  11   65.90    4.03
   9   7 -11   67.10    3.59
   9   7  11   69.47    3.25
  -9  -7  11   70.53    3.83
   9  -7 -11   72.19    4.21
  -9   7 -11   68.14    2.30
   9  -7 -11   70.29    4.05
   9   7  11   64.42    2.71
  -9   7 -11   69.22    3.63
   9   9 -11   63.68    3.40
  -9  -9 -11   62.32    5.43
   9  -9  11   61.90    2.69
  -9  -9 -11   64.78    3.47
   9   9 -11   70.91    3.53
   9  -9  11   66.63    4.02
   9   9  11   65.15    2.96
  -9  -9  11   68.82    5.00
   9  -9 -11   63.70    5.64
   9  -9 -11   63.18    3.95
  -9  -9  11   56.37    2.34
   9   9  11   56.82    1.94
  -9 -11 -11    9.98    2.38
   9  11 -11   10.48    2.01
   9 -11  11   10.45    1.43
  -9 -11 -11    9.85    1.41
   9  11 -11   10.76    1.40
   9 -11  11    8.91    2.64
  -9 -11  11   11.43    1.32
   9 -11 -11   10.82    1.63
   9 -11 -11   10.98    1.66
  -9 -11  11    9.63    0.86
  -9 -13 -11    2.02    2.86
   9  13 -11    3.19    0.86
   9 -13  11    3.48    0.67
  -9 -13 -11    3.26    1.80
   9  13 -11    3.70    1.07
   9 -13  11    3.45    1.23
  -9 -13  11    2.76    0.92
   9 -13 -11    2.73    1.15
   9 -13 -11    2.90    1.19
   9 -15  11    8.44    0.95
   9  15 -11    7.59    1.11
  -9 -15 -11    6.79    1.57
   9  15 -11    8.87    1.47
   9 -15  11    7.06    1.67
  -9 -15 -11    7.40    3.63
  -9 -15  11    7.34    1.21
   9 -15 -11    9.15    1.64
  -9 -15  11    7.37    1.02
   9 -15 -11    6.86    1.54
  11  -1  11   21.12    1.64
 -11   1  11   23.03    3.17
  11  -1  11   22.21    1.66
 -11  -1 -11   21.70    1.23
 -11  -1 -11   22.59    2.43
  11   1 -11   20.96    2.05
  11   1  11   23.23    1.59
 -11  -1  11   20.87    2.00
 -11   1 -11   21.52    1.14
 -11   1 -11   25.08    2.12
  11  -1 -11   22.41    2.10
  11   1  11   20.57    1.06
  11  -3  11    2.49    0.48
 -11   3  11    2.95    0.94
 -11  -3 -11   -0.04    0.58
  11  -3  11    2.14    0.75
 -11  -3 -11    0.59    1.27
  11   3 -11    2.04    0.92
  11   3  11    1.88    1.03
 -11  -3  11    2.87    0.92
 -11   3 -11    2.10    0.41
 -11   3 -11    1.75    1.26
  11  -3 -11    2.06    1.01
  11   3  11    1.74    0.41
  11  -5  11    3.95    0.58
  11   5 -11    2.89    1.04
 -11   5  11    3.92    1.09
  11  -5  11    2.59    0.93
  11   5 -11    3.16    1.33
 -11  -5 -11    3.03    1.66
  11   5  11    2.88    0.69
 -11  -5  11    4.43    1.69
 -11   5 -11    3.29    0.41
 -11   5 -11    2.81    0.76
 -11  -5  11    2.97    0.37
  11   5  11    3.10    0.44
  11  -5 -11    3.46    1.16
  11   7 -11   31.30    2.33
  11  -7  11   29.91    2.27
 -11  -7 -11   30.95    2.94
  11  -7  11   32.22    2.32
  11   7 -11   34.05    2.29
 -11  -7 -11   30.36    3.97
  11   7  11   31.96    1.75
 -11  -7  11   31.18    2.38
  11  -7 -11   32.88    2.56
  11  -7 -11   31.84    2.65
 -11  -7  11   24.30    1.68
  11   7  11   27.68    1.20
  11  -9  11    4.07    0.67
  11   9 -11    3.40    1.02
 -11  -9 -11    4.08    0.94
  11  -9  11    4.29    1.08
  11   9 -11    4.07    1.08
 -11  -9 -11    2.74    1.94
  11   9  11    3.52    1.04
 -11  -9  11    3.53    1.04
  11  -9 -11    3.67    1.17
  11   9  11    3.08    0.41
  11  -9 -11    4.17    1.25
 -11  -9  11    3.14    0.52
   0   0 -12  145.53    8.32
   0   0 -12  152.02    6.76
   0  -2 -12   -0.19    0.81
   0   2 -12   -0.49    1.20
   0  -2 -12   -0.24    0.49
   0   2 -12    0.65    0.43
   0  -4  12   58.13    1.91
   0  -4 -12   59.23    4.33
   0   4 -12   62.94    3.84
   0  -4 -12   59.92    3.04
   0  -4  12   59.16    2.45
   0   4 -12   61.15    2.68
   0  -6 -12   -0.17    1.46
   0  -6  12    0.14    0.37
   0   6 -12    0.31    0.64
   0  -6 -12    0.00    0.55
   0  -6  12    0.46    0.43
   0   6 -12   -0.04    0.37
   0  -8  12   18.40    0.90
   0   8 -12   21.67    1.85
   0  -8 -12   22.17    1.69
   0  -8  12   19.57    1.60
   0   8 -12   20.44    1.15
   0  -8 -12   19.33    2.73
   0 -10  12    0.07    0.29
   0  10 -12    0.02    0.60
   0 -10 -12    0.11    0.62
   0 -10  12    1.25    0.71
   0  10 -12   -0.01    0.33
   0 -10 -12   -0.08    1.01
   0 -12  12   78.87    3.25
   0  12 -12   82.54    4.27
   0 -12 -12   77.70    4.55
   0 -12  12   84.36    5.66
   0  12 -12   78.68    3.11
   0 -12 -12   76.47    6.27
   0 -14  12   -0.12    0.37
   0  14 -12    0.04    0.54
   0 -14 -12    0.30    1.18
   0 -14  12    1.71    1.11
   0 -14 -12    0.85    1.92
   0  14 -12    0.03    0.29
   0  16 -12   92.01    3.50
   0 -16  12   90.51    4.18
   0  16 -12   99.02    4.75
   0 -16 -12   92.63    5.85
   0 -16  12  101.26    9.14
   0 -16 -12   96.95    8.10
   2   0 -12   -0.15    1.21
  -2   0 -12    0.74    0.44
   2   0 -12    0.13    0.52
  -2   0 -12   -0.13    0.97
   2  -2  12    5.90    0.57
   2  -2  12    6.04    0.74
  -2  -2 -12    6.14    0.83
   2   2 -12    6.07    1.37
   2   2 -12    6.92    1.19
  -2  -2 -12   -0.24    1.75
   2  -2 -12    8.23    1.32
  -2   2 -12    6.18    0.74
   2  -2 -12    6.19    1.53
  -2   2 -12    5.63    1.56
   2  -4  12   19.49    1.09
  -2  -4 -12   20.27    1.43
   2  -4  12   20.03    1.54
   2   4 -12   19.95    1.32
   2   4 -12   20.71    1.80
  -2  -4 -12   20.28    2.74
  -2  -4  12   19.37    0.74
   2  -4 -12   18.75    2.14
  -2   4 -12   21.51    1.75
   2  -4 -12   21.21    1.58
  -2  -4  12   18.35    0.87
  -2   4 -12   19.09    2.31
   2  -6  12   14.41    0.71
  -2  -6 -12   16.57    1.36
   2  -6  12   13.60    1.68
  -2  -6 -12   13.94    2.63
   2   6 -12   16.75    1.15
   2   6 -12   16.21    1.59
  -2  -6  12   15.28    0.71
   2  -6 -12   16.06    1.99
   2  -6 -12   16.51    1.51
  -2  -6  12   14.52    1.38
  -2   6 -12   15.95    0.96
  -2   6 -12   16.26    2.02
   2  -8  12    3.02    0.41
  -2  -8 -12    3.44    1.37
   2  -8  12    3.12    1.21
  -2  -8 -12   -0.02    1.68
   2   8 -12    2.43    0.58
   2   8 -12    2.22    0.88
   2  -8 -12    3.55    1.24
  -2  -8  12    2.30    0.64
   2  -8 -12    2.35    0.88
  -2  -8  12    2.52    0.58
  -2   8 -12    2.43    0.48
  -2   8 -12    3.37    1.77
   2 -10  12    6.89    0.97
   2  10 -12    6.90    1.77
  -2 -10 -12    7.69    1.16
   2 -10  12    5.92    1.92
  -2 -10 -12    0.25    2.26
   2  10 -12    7.33    0.76
  -2  10 -12   -0.06    2.11
   2 -10 -12    7.45    1.71
  -2 -10  12    6.88    0.62
   2 -10 -12    7.74    1.24
  -2 -10  12    6.44    0.97
   2 -12  12   31.92    1.52
   2  12 -12   31.67    2.18
  -2 -12 -12   33.18    2.46
   2 -12  12   32.10    3.70
  -2 -12 -12   35.33    4.35
   2  12 -12   32.16    1.58
  -2  12 -12   30.51    3.58
   2 -12 -12   31.31    3.27
  -2 -12  12   31.02    2.15
   2 -12 -12   30.04    2.56
  -2 -12  12   30.51    2.34
  -2  12 -12   31.42    1.33
   2  14 -12    5.39    0.67
   2 -14  12    5.60    1.13
   2  14 -12    7.77    0.98
  -2 -14 -12    5.92    3.98
  -2 -14 -12    4.85    1.33
   2 -14  12    5.97    1.68
  -2 -14  12    5.21    0.76
   2 -14 -12    5.14    1.36
  -2 -14  12    5.44    2.30
  -2  14 -12    5.34    0.52
  -2  14 -12    3.58    1.73
   2 -14 -12    5.59    1.89
   2  16 -12    5.92    1.06
   2 -16  12    6.39    0.82
  -2 -16 -12    5.51    2.35
   2  16 -12    6.15    0.98
  -2 -16 -12    7.81    2.61
   2 -16  12    5.25    1.64
  -2 -16  12    5.70    0.88
   2 -16 -12    6.28    1.51
  -2 -16  12    6.28    3.02
   2 -16 -12    5.69    2.01
   4   0  12   21.05    0.78
   4   0  12   22.76    1.65
  -4   0 -12   22.51    1.94
  -4   0 -12   27.35    5.02
   4   0 -12   22.49    1.65
   4   0 -12   24.04    3.11
   4  -2  12    9.92    0.79
   4   2 -12   12.17    1.43
  -4  -2 -12    0.05    4.01
   4  -2  12    9.15    1.45
  -4  -2 -12   10.89    0.97
   4   2 -12   11.24    1.13
  -4   2 -12    9.95    0.84
  -4   2 -12   12.71    2.24
   4  -2 -12   10.44    1.22
   4  -2 -12   12.33    1.51
   4  -4  12    2.35    0.35
   4   4 -12    3.18    0.92
  -4  -4 -12   -0.06    1.80
  -4  -4 -12    4.35    1.11
   4  -4  12    1.50    1.15
   4   4 -12    3.85    0.71
  -4   4 -12    3.25    1.49
   4  -4 -12    3.04    0.86
   4  -4 -12    3.31    1.07
   4  -6  12   10.65    0.65
   4   6 -12   10.10    1.35
  -4  -6 -12   -0.06    2.73
  -4  -6 -12   12.27    1.12
   4  -6  12   14.13    2.05
   4   6 -12   10.28    1.04
  -4  -6  12   10.57    0.89
  -4   6 -12    9.96    1.15
   4  -6 -12   12.71    2.16
  -4   6 -12   12.61    2.06
  -4  -6  12   10.17    1.01
   4  -6 -12   10.43    1.64
   4  -8  12    0.41    0.33
   4   8 -12    1.70    1.13
  -4  -8 -12   -0.19    1.54
  -4  -8 -12    0.96    0.62
   4  -8  12    0.82    0.98
   4   8 -12    1.19    0.52
  -4  -8  12    0.79    0.33
   4  -8 -12    0.66    0.92
   4  -8 -12    0.42    0.74
  -4   8 -12    1.53    1.01
  -4  -8  12    0.81    0.39
  -4   8 -12    0.70    0.33
   4 -10  12    4.96    0.92
   4  10 -12    5.29    1.02
  -4 -10 -12    5.62    1.68
  -4 -10 -12   -0.14    2.40
   4 -10  12    5.85    1.43
   4  10 -12    4.86    0.79
  -4 -10  12    4.53    0.59
   4 -10 -12    5.33    1.45
   4 -10 -12    6.34    1.22
  -4  10 -12    4.93    1.27
  -4 -10  12    4.82    1.13
  -4  10 -12    5.16    0.49
   4 -12  12   26.04    1.37
   4  12 -12   27.76    1.96
  -4 -12 -12   25.94    2.20
  -4 -12 -12   26.78    7.13
   4 -12  12   28.82    2.62
   4  12 -12   26.95    1.54
  -4 -12  12   25.50    1.46
   4 -12 -12   28.76    2.82
   4 -12 -12   26.11    3.74
  -4 -12  12   26.74    1.75
  -4  12 -12   29.18    3.28
  -4  12 -12   26.36    1.07
   4  14 -12   14.53    1.09
   4 -14  12   14.71    1.06
  -4 -14 -12   15.83    3.57
   4  14 -12   14.26    1.43
  -4 -14 -12   15.19    1.79
   4 -14  12   13.89    1.98
   4 -14 -12   15.30    2.34
  -4 -14  12   14.30    1.18
   4 -14 -12   12.71    1.93
  -4 -14  12   15.47    1.55
   6   0  12    0.01    0.34
  -6   0 -12   -0.17    1.23
   6   0  12    0.36    0.77
   6   0 -12    0.38    0.66
  -6   0 -12    0.15    0.37
   6   0 -12   -0.21    0.58
   6  -2  12   86.96    3.63
  -6  -2 -12   93.37    8.09
   6   2 -12   91.24    4.98
   6  -2  12   96.68    5.98
  -6  -2 -12   91.12    3.92
   6   2 -12   91.20    4.61
  -6   2 -12   96.43    7.62
   6  -2 -12   92.56    5.18
  -6   2 -12   89.59    3.60
   6  -2 -12   91.96    4.73
   6  -4  12    0.11    0.27
  -6  -4 -12   -0.15    1.45
   6   4 -12    0.96    0.68
   6  -4  12   -0.15    1.43
  -6  -4 -12    0.67    0.49
   6   4 -12    0.30    0.58
  -6   4 -12    0.21    1.10
   6  -4 -12    0.42    0.76
  -6   4 -12    0.33    0.34
   6  -4 -12    0.55    0.68
   6  -6  12    0.51    0.33
  -6  -6 -12    0.15    1.60
   6   6 -12    1.20    0.71
  -6  -6 -12    0.55    0.57
   6  -6  12    0.68    1.52
   6   6 -12    0.93    0.59
  -6   6 -12    0.13    1.08
  -6   6 -12    0.74    0.34
   6  -6 -12    0.69    0.73
   6  -6 -12    0.76    0.85
   6  -8  12    0.53    0.36
  -6  -8 -12    0.01    1.67
   6   8 -12    0.93    0.71
  -6  -8 -12    1.27    0.63
   6  -8  12    1.45    0.94
   6   8 -12    0.37    0.58
  -6   8 -12    0.64    0.96
  -6  -8  12    0.51    0.36
  -6   8 -12    0.56    0.49
   6  -8 -12    1.42    0.77
  -6  -8  12    0.54    0.35
   6  -8 -12    0.46    0.88
   6 -10  12    1.26    0.42
  -6 -10 -12    0.08    3.02
   6  10 -12    1.00    0.48
  -6 -10 -12    1.46    0.74
   6 -10  12    1.17    1.05
   6  10 -12    1.35    0.60
  -6  10 -12    0.91    1.48
  -6 -10  12    1.23    0.74
   6 -10 -12    1.10    0.91
  -6 -10  12    0.82    0.45
  -6  10 -12    0.94    0.49
   6 -10 -12    0.52    1.01
   6  12 -12    0.39    0.55
   6 -12  12    1.00    0.43
  -6 -12 -12   -0.28    1.66
   6  12 -12    1.03    0.51
  -6 -12 -12    0.41    1.23
   6 -12  12   -0.44    1.00
  -6 -12  12    0.76    0.67
   6 -12 -12    0.95    0.96
   6 -12 -12    1.33    1.48
  -6 -12  12   -0.07    0.49
   8   0  12   36.65    1.47
  -8   0 -12   42.51    4.35
   8   0  12   42.32    2.91
   8   0 -12   40.33    2.94
  -8   0 -12   40.06    1.88
   8   0 -12   41.56    4.11
   8  -2  12   13.46    0.77
  -8  -2 -12   17.74    4.57
   8  -2  12   15.50    1.78
  -8  -2 -12   15.83    1.68
   8   2 -12   14.62    1.73
   8   2 -12   15.06    1.59
  -8   2 -12   15.78    2.40
   8  -2 -12   16.70    1.81
   8   2  12   14.86    1.63
  -8   2 -12   14.70    0.92
   8  -2 -12   14.71    1.67
   8   2  12   12.93    0.69
   8  -4  12    9.46    1.05
  -8  -4 -12    8.83    3.99
   8  -4  12    9.74    1.57
  -8  -4 -12   10.56    0.99
   8   4 -12   10.21    1.29
  -8   4 -12    9.71    1.79
  -8  -4  12    9.37    1.43
   8  -4 -12    8.89    2.50
  -8   4 -12    8.98    0.69
   8  -4 -12   10.71    1.50
   8  -6  12    8.77    0.71
  -8  -6 -12   11.71    2.37
   8  -6  12    9.85    1.61
  -8  -6 -12    7.80    1.04
   8   6 -12    9.81    1.23
  -8   6 -12   10.50    1.52
  -8  -6  12    8.75    1.36
   8  -6 -12   10.25    1.54
  -8   6 -12    8.47    0.62
   8  -6 -12    8.23    1.48
   1   1 -13    4.34    1.20
  -1  -1 -13    2.83    0.70
   1   1 -13    2.42    0.68
  -1  -1 -13   -0.09    1.41
   1  -1 -13    2.86    1.22
  -1   1 -13    1.63    1.03
   1  -1 -13    2.63    0.73
  -1   1 -13   -0.02    1.37
   0   0   0    0.00    0.00
;
_shelx_hkl_checksum              70184
loop_
_space_group_symop_operation_xyz
'x, y, z'
'-x, -y, z'
'-x+1/4, y+1/4, z+1/4'
'x+3/4, -y+3/4, z+1/4'
'x, y+1/2, z+1/2'
'-x, -y+1/2, z+1/2'
'-x+1/4, y+3/4, z+3/4'
'x+3/4, -y+5/4, z+3/4'
'x+1/2, y, z+1/2'
'-x+1/2, -y, z+1/2'
'-x+3/4, y+1/4, z+3/4'
'x+5/4, -y+3/4, z+3/4'
'x+1/2, y+1/2, z'
'-x+1/2, -y+1/2, z'
'-x+3/4, y+3/4, z+1/4'
'x+5/4, -y+5/4, z+1/4'
loop_
_atom_site_label
_atom_site_type_symbol
_atom_site_fract_x
_atom_site_fract_y
_atom_site_fract_z
_atom_site_U_iso_or_equiv
_atom_site_adp_type
_atom_site_occupancy
_atom_site_site_symmetry_order
_atom_site_calc_flag
_atom_site_refinement_flags_posn
_atom_site_refinement_flags_adp
_atom_site_refinement_flags_occupancy
_atom_site_disorder_assembly
_atom_site_disorder_group
Ba1 Ba 0.08731(2) 0.25460(2) 0.08640(4) 0.02223(9) Uani 1 1 d . . . . .
Ba2 Ba 0.10806(2) 0.08407(2) 0.10842(4) 0.02425(10) Uani 1 1 d . . . . .
Ba3 Ba 0.13337(3) 0.17116(2) 0.35986(5) 0.02855(11) Uani 1 1 d . . . . .
Ba4 Ba 0.16914(2) 0.05741(2) 0.48867(4) 0.02463(11) Uani 1 1 d . . . . .
Ba5 Ba 0.24476(2) 0.17017(2) 0.01808(5) 0.02742(11) Uani 1 1 d . . . . .
Ba6 Ba 0.33265(2) 0.05832(2) 0.00849(4) 0.02328(10) Uani 1 1 d . . . . .
Ba7 Ba 0.0000 0.0000 0.32857(7) 0.02385(13) Uani 1 2 d S T P . .
Si1 Si 0.05254(18) 0.35417(10) 0.0359(3) 0.0259(7) Uani 0.625 1 d . . P . .
Si2 Si 0.2454(2) 0.64673(11) 0.1484(4) 0.0312(8) Uani 0.625 1 d . . P . .
B1 B 0.0333(4) 0.1566(2) 0.0342(8) 0.0184(14) Uani 1 1 d . . . . .
B2 B 0.1894(4) 0.0001(2) 0.1903(8) 0.0175(14) Uani 1 1 d . . . . .
B3 B 0.0000 0.0000 -0.0010(11) 0.0144(18) Uani 1 2 d S T P . .
B4 B 0.0000 0.0000 0.6191(11) 0.0154(19) Uani 1 2 d S T P . .
N11 N 0.0883(17) 0.3372(9) 0.098(4) 0.019(5) Uiso 0.1875 1 d . . P . .
N12 N 0.0639(18) 0.3376(10) 0.131(3) 0.019(5) Uiso 0.1875 1 d . . P . .
N21 N 0.0328(16) 0.0825(8) 0.343(3) 0.012(4) Uiso 0.1875 1 d . . P . .
N22 N 0.0095(16) 0.0803(9) 0.322(3) 0.012(4) Uiso 0.1875 1 d . . P . .
N3 N 0.0750(4) 0.5024(2) 0.1152(7) 0.0315(16) Uani 1 1 d . . . . .
N4 N 0.0917(4) 0.17523(18) 0.0889(8) 0.0315(15) Uani 1 1 d . . . . .
N5 N 0.0974(4) 0.2466(2) 0.5536(7) 0.0329(17) Uani 1 1 d . . . . .
N6 N 0.2284(4) 0.1149(2) 0.2325(7) 0.0330(16) Uani 1 1 d . . . . .
N7 N 0.2299(4) 0.0019(2) 0.0795(7) 0.0334(17) Uani 1 1 d . . . . .
N8 N 0.2539(5) 0.2114(2) 0.2471(11) 0.051(2) Uani 1 1 d . . . . .
loop_
_atom_site_aniso_label
_atom_site_aniso_U_11
_atom_site_aniso_U_22
_atom_site_aniso_U_33
_atom_site_aniso_U_23
_atom_site_aniso_U_13
_atom_site_aniso_U_12
Ba1 0.0250(2) 0.01996(19) 0.0218(2) -0.00076(18) 0.00604(15) -0.00230(16)
Ba2 0.02158(19) 0.0263(2) 0.0249(2) -0.00175(19) -0.00465(16) -0.00116(16)
Ba3 0.0341(2) 0.0247(2) 0.0269(2) -0.0041(2) -0.00484(19) 0.00421(18)
Ba4 0.0250(2) 0.0263(2) 0.0226(2) 0.00202(17) 0.00204(16) -0.00132(17)
Ba5 0.0231(2) 0.0241(2) 0.0350(3) 0.0044(2) -0.00114(18) -0.00208(17)
Ba6 0.0238(2) 0.0247(2) 0.0214(2) -0.00122(17) 0.00111(16) -0.00145(16)
Ba7 0.0175(3) 0.0284(3) 0.0256(3) 0.000 0.000 0.0015(2)
Si1 0.0274(15) 0.0248(16) 0.0256(16) -0.0067(14) -0.0009(13) -0.0038(13)
Si2 0.0328(18) 0.0291(19) 0.0318(19) -0.0103(16) -0.0007(14) 0.0040(14)
B1 0.020(3) 0.016(3) 0.019(3) 0.003(3) 0.002(3) 0.007(3)
B2 0.017(3) 0.017(3) 0.019(4) -0.001(3) -0.006(3) 0.000(3)
B3 0.011(4) 0.018(5) 0.014(4) 0.000 0.000 0.003(4)
B4 0.019(5) 0.011(4) 0.016(5) 0.000 0.000 0.000(3)
N3 0.020(3) 0.053(5) 0.022(3) 0.000(3) 0.001(3) -0.002(3)
N4 0.028(3) 0.024(3) 0.043(4) -0.005(3) -0.012(3) 0.002(3)
N5 0.024(3) 0.054(5) 0.021(3) 0.001(3) -0.002(3) -0.001(3)
N6 0.026(3) 0.030(4) 0.043(4) 0.000(3) -0.012(3) 0.003(3)
N7 0.025(3) 0.052(5) 0.024(3) -0.003(3) 0.005(3) -0.004(3)
N8 0.050(4) 0.028(4) 0.075(6) -0.004(5) -0.024(4) 0.003(3)
loop_
_atom_type_symbol
_atom_type_description
_atom_type_scat_dispersion_real
_atom_type_scat_dispersion_imag
_atom_type_scat_source
B B 0.0013 0.0007 'International Tables Vol C Tables 4.2.6.8 and 6.1.1.4'
N N 0.0061 0.0033 'International Tables Vol C Tables 4.2.6.8 and 6.1.1.4'
Si Si 0.0817 0.0704 'International Tables Vol C Tables 4.2.6.8 and 6.1.1.4'
Ba Ba -0.3244 2.2819 'International Tables Vol C Tables 4.2.6.8 and 6.1.1.4'
loop_
_exptl_crystal_face_index_h
_exptl_crystal_face_index_k
_exptl_crystal_face_index_l
_exptl_crystal_face_perp_dist
15.24 7.36 -4.62 0.1264
-15.61 0.00 4.74 0.1606
0.00 34.09 0.00 0.0235
-3.96 -30.00 -4.20 0.0472
-8.35 -0.01 -8.86 0.0667
-0.49 -34.03 -0.52 0.0098
7.79 -12.28 8.26 0.0353
5.81 24.47 6.17 0.0380
loop_
_geom_angle_atom_site_label_1
_geom_angle_atom_site_label_2
_geom_angle_atom_site_label_3
_geom_angle
_geom_angle_site_symmetry_1
_geom_angle_site_symmetry_3
N3 Ba1 N4 87.9(2) 7_544 .
N3 Ba1 N7 170.4(2) 7_544 3
N4 Ba1 N7 88.3(2) . 3
N3 Ba1 N11 93.2(7) 7_544 .
N4 Ba1 N11 176.6(7) . .
N7 Ba1 N11 90.0(7) 3 .
N3 Ba1 N12 103.6(7) 7_544 .
N4 Ba1 N12 168.5(7) . .
N7 Ba1 N12 80.3(7) 3 .
N11 Ba1 N12 10.8(8) . .
N3 Ba1 B2 95.6(2) 7_544 8_444
N4 Ba1 B2 88.62(19) . 8_444
N7 Ba1 B2 93.2(2) 3 8_444
N11 Ba1 B2 94.5(6) . 8_444
N12 Ba1 B2 90.2(6) . 8_444
N3 Ba1 N7 71.25(19) 7_544 8_444
N4 Ba1 N7 87.4(2) . 8_444
N7 Ba1 N7 117.41(4) 3 8_444
N11 Ba1 N7 96.0(7) . 8_444
N12 Ba1 N7 96.1(6) . 8_444
B2 Ba1 N7 24.3(2) 8_444 8_444
N3 Ba1 N5 119.15(19) 7_544 6_554
N4 Ba1 N5 90.96(19) . 6_554
N7 Ba1 N5 69.77(18) 3 6_554
N11 Ba1 N5 91.3(6) . 6_554
N12 Ba1 N5 83.4(6) . 6_554
B2 Ba1 N5 23.6(2) 8_444 6_554
N7 Ba1 N5 47.93(16) 8_444 6_554
N3 Ba1 B3 84.6(2) 7_544 3
N4 Ba1 B3 85.60(13) . 3
N7 Ba1 B3 86.3(2) 3 3
N11 Ba1 B3 91.3(6) . 3
N12 Ba1 B3 95.4(6) . 3
B2 Ba1 B3 174.21(14) 8_444 3
N7 Ba1 B3 155.0(2) 8_444 3
N5 Ba1 B3 155.9(2) 6_554 3
N3 Ba1 Si1 90.48(16) 7_544 .
N4 Ba1 Si1 168.38(15) . .
N7 Ba1 Si1 94.94(17) 3 .
N11 Ba1 Si1 15.0(7) . .
N12 Ba1 Si1 17.3(6) . .
B2 Ba1 Si1 80.08(15) 8_444 .
N7 Ba1 Si1 81.18(15) 8_444 .
N5 Ba1 Si1 79.77(14) 6_554 .
B3 Ba1 Si1 105.71(5) 3 .
N3 Ba1 Ba6 144.33(15) 7_544 3
N4 Ba1 Ba6 119.01(16) . 3
N7 Ba1 Ba6 44.32(15) 3 3
N11 Ba1 Ba6 61.3(7) . 3
N12 Ba1 Ba6 50.6(6) . 3
B2 Ba1 Ba6 64.68(16) 8_444 3
N7 Ba1 Ba6 86.13(12) 8_444 3
N5 Ba1 Ba6 44.55(12) 6_554 3
B3 Ba1 Ba6 118.11(15) 3 3
Si1 Ba1 Ba6 58.25(6) . 3
N3 Ba1 Ba4 45.67(14) 7_544 3_554
N4 Ba1 Ba4 117.87(17) . 3_554
N7 Ba1 Ba4 143.20(15) 3 3_554
N11 Ba1 Ba4 65.0(7) . 3_554
N12 Ba1 Ba4 71.6(6) . 3_554
B2 Ba1 Ba4 64.26(16) 8_444 3_554
N7 Ba1 Ba4 45.69(13) 8_444 3_554
N5 Ba1 Ba4 83.57(12) 6_554 3_554
B3 Ba1 Ba4 118.98(15) 3 3_554
Si1 Ba1 Ba4 54.50(6) . 3_554
Ba6 Ba1 Ba4 98.886(13) 3 3_554
N8 Ba2 N12 91.4(7) 8_444 7_544
N8 Ba2 N6 167.3(2) 8_444 .
N12 Ba2 N6 88.3(7) 7_544 .
N8 Ba2 N21 90.7(7) 8_444 .
N12 Ba2 N21 177.8(10) 7_544 .
N6 Ba2 N21 89.7(6) . .
N8 Ba2 N22 82.0(7) 8_444 .
N12 Ba2 N22 172.0(10) 7_544 .
N6 Ba2 N22 99.1(7) . .
N21 Ba2 N22 9.8(8) . .
N8 Ba2 N11 82.1(7) 8_444 7_544
N12 Ba2 N11 11.2(8) 7_544 7_544
N6 Ba2 N11 98.7(7) . 7_544
N21 Ba2 N11 170.3(9) . 7_544
N22 Ba2 N11 160.8(9) . 7_544
N8 Ba2 B1 94.3(2) 8_444 .
N12 Ba2 B1 88.7(7) 7_544 .
N6 Ba2 B1 98.4(2) . .
N21 Ba2 B1 90.9(6) . .
N22 Ba2 B1 87.2(7) . .
N11 Ba2 B1 83.2(6) 7_544 .
N8 Ba2 N4 119.4(2) 8_444 .
N12 Ba2 N4 87.1(7) 7_544 .
N6 Ba2 N4 73.28(19) . .
N21 Ba2 N4 91.6(6) . .
N22 Ba2 N4 92.1(7) . .
N11 Ba2 N4 86.3(6) 7_544 .
B1 Ba2 N4 25.1(2) . .
N8 Ba2 N6 69.4(2) 8_444 8_444
N12 Ba2 N6 90.5(7) 7_544 8_444
N6 Ba2 N6 123.24(4) . 8_444
N21 Ba2 N6 90.1(6) . 8_444
N22 Ba2 N6 82.9(7) . 8_444
N11 Ba2 N6 81.4(6) 7_544 8_444
B1 Ba2 N6 24.9(2) . 8_444
N4 Ba2 N6 50.00(17) . 8_444
N8 Ba2 B2 84.2(2) 8_444 .
N12 Ba2 B2 91.5(7) 7_544 .
N6 Ba2 B2 83.10(19) . .
N21 Ba2 B2 88.9(6) . .
N22 Ba2 B2 92.4(7) . .
N11 Ba2 B2 96.8(6) 7_544 .
B1 Ba2 B2 178.5(2) . .
N4 Ba2 B2 156.37(17) . .
N6 Ba2 B2 153.63(18) 8_444 .
N8 Ba2 Si2 93.6(3) 8_444 4_455
N12 Ba2 Si2 166.5(7) 7_544 4_455
N6 Ba2 Si2 89.56(17) . 4_455
N21 Ba2 Si2 12.6(6) . 4_455
N22 Ba2 Si2 14.0(6) . 4_455
N11 Ba2 Si2 160.8(6) 7_544 4_455
B1 Ba2 Si2 78.44(17) . 4_455
N4 Ba2 Si2 79.50(16) . 4_455
N6 Ba2 Si2 79.62(15) 8_444 4_455
B2 Ba2 Si2 101.42(16) . 4_455
N8 Ba2 Si1 92.1(3) 8_444 7_544
N12 Ba2 Si1 9.6(7) 7_544 7_544
N6 Ba2 Si1 89.67(17) . 7_544
N21 Ba2 Si1 169.7(6) . 7_544
N22 Ba2 Si1 164.7(6) . 7_544
N11 Ba2 Si1 10.5(6) 7_544 7_544
B1 Ba2 Si1 79.07(16) . 7_544
N4 Ba2 Si1 78.40(16) . 7_544
N6 Ba2 Si1 81.73(15) 8_444 7_544
B2 Ba2 Si1 101.17(16) . 7_544
Si2 Ba2 Si1 157.13(8) 4_455 7_544
N8 Ba3 N4 77.5(3) . .
N8 Ba3 N6 72.4(2) . .
N4 Ba3 N6 75.84(19) . .
N8 Ba3 N22 74.5(6) . 16_445
N4 Ba3 N22 148.8(6) . 16_445
N6 Ba3 N22 82.6(6) . 16_445
N8 Ba3 B2 89.7(2) . 3
N4 Ba3 B2 95.7(2) . 3
N6 Ba3 B2 161.4(2) . 3
N22 Ba3 B2 97.8(6) 16_445 3
N8 Ba3 N5 90.1(2) . .
N4 Ba3 N5 118.75(18) . .
N6 Ba3 N5 154.86(18) . .
N22 Ba3 N5 75.2(6) 16_445 .
B2 Ba3 N5 23.5(2) 3 .
N8 Ba3 Si2 159.7(2) . 4_455
N4 Ba3 Si2 87.44(15) . 4_455
N6 Ba3 Si2 90.89(15) . 4_455
N22 Ba3 Si2 115.6(6) 16_445 4_455
B2 Ba3 Si2 105.46(16) 3 4_455
N5 Ba3 Si2 109.20(14) . 4_455
N8 Ba3 Si2 91.1(2) . 5_545
N4 Ba3 Si2 158.28(15) . 5_545
N6 Ba3 Si2 83.14(15) . 5_545
N22 Ba3 Si2 17.2(6) 16_445 5_545
B2 Ba3 Si2 102.73(17) 3 5_545
N5 Ba3 Si2 79.19(14) . 5_545
Si2 Ba3 Si2 98.40(8) 4_455 5_545
N8 Ba3 Si1 163.37(18) . 6
N4 Ba3 Si1 103.37(15) . 6
N6 Ba3 Si1 124.08(15) . 6
N22 Ba3 Si1 107.4(6) 16_445 6
B2 Ba3 Si1 73.70(15) 3 6
N5 Ba3 Si1 74.82(13) . 6
Si2 Ba3 Si1 34.39(8) 4_455 6
Si2 Ba3 Si1 92.82(8) 5_545 6
N8 Ba3 Ba2 101.6(2) . .
N4 Ba3 Ba2 52.24(13) . .
N6 Ba3 Ba2 43.10(13) . .
N22 Ba3 Ba2 120.9(6) 16_445 .
B2 Ba3 Ba2 141.27(16) 3 .
N5 Ba3 Ba2 162.01(12) . .
Si2 Ba3 Ba2 58.21(7) 4_455 .
Si2 Ba3 Ba2 113.82(6) 5_545 .
Si1 Ba3 Ba2 91.59(5) 6 .
N8 Ba3 Ba5 43.0(2) . .
N4 Ba3 Ba5 45.15(14) . .
N6 Ba3 Ba5 46.57(15) . .
N22 Ba3 Ba5 103.7(6) 16_445 .
B2 Ba3 Ba5 116.16(15) 3 .
N5 Ba3 Ba5 128.00(12) . .
Si2 Ba3 Ba5 116.87(7) 4_455 .
Si2 Ba3 Ba5 114.88(6) 5_545 .
Si1 Ba3 Ba5 145.62(5) 6 .
Ba2 Ba3 Ba5 59.522(11) . .
N8 Ba3 Ba2 41.75(17) . 16_445
N4 Ba3 Ba2 105.07(14) . 16_445
N6 Ba3 Ba2 51.66(13) . 16_445
N22 Ba3 Ba2 43.8(6) 16_445 16_445
B2 Ba3 Ba2 117.10(14) 3 16_445
N5 Ba3 Ba2 103.32(12) . 16_445
Si2 Ba3 Ba2 133.59(7) 4_455 16_445
Si2 Ba3 Ba2 56.20(6) 5_545 16_445
Si1 Ba3 Ba2 148.09(5) 6 16_445
Ba2 Ba3 Ba2 94.452(13) . 16_445
Ba5 Ba3 Ba2 59.931(11) . 16_445
N5 Ba4 N3 75.1(2) 7_544 5_545
N5 Ba4 N7 75.6(2) 7_544 10
N3 Ba4 N7 75.7(2) 5_545 10
N5 Ba4 N21 78.5(6) 7_544 .
N3 Ba4 N21 86.3(6) 5_545 .
N7 Ba4 N21 151.4(6) 10 .
N5 Ba4 B1 85.6(2) 7_544 16_445
N3 Ba4 B1 160.0(2) 5_545 16_445
N7 Ba4 B1 94.8(2) 10 16_445
N21 Ba4 B1 95.0(6) . 16_445
N5 Ba4 Si1 159.98(16) 7_544 7_545
N3 Ba4 Si1 90.23(16) 5_545 7_545
N7 Ba4 Si1 87.76(15) 10 7_545
N21 Ba4 Si1 114.7(6) . 7_545
B1 Ba4 Si1 107.13(15) 16_445 7_545
N5 Ba4 Si2 93.82(15) 7_544 4_455
N3 Ba4 Si2 84.13(15) 5_545 4_455
N7 Ba4 Si2 158.96(15) 10 4_455
N21 Ba4 Si2 16.6(6) . 4_455
B1 Ba4 Si2 102.54(16) 16_445 4_455
Si1 Ba4 Si2 98.23(9) 7_545 4_455
N5 Ba4 Si2 159.45(15) 7_544 5_545
N3 Ba4 Si2 124.76(16) 5_545 5_545
N7 Ba4 Si2 102.62(15) 10 5_545
N21 Ba4 Si2 105.9(6) . 5_545
B1 Ba4 Si2 74.08(15) 16_445 5_545
Si1 Ba4 Si2 35.32(8) 7_545 5_545
Si2 Ba4 Si2 93.60(4) 4_455 5_545
N5 Ba4 Ba7 43.77(14) 7_544 .
N3 Ba4 Ba7 53.12(14) 5_545 .
N7 Ba4 Ba7 104.72(14) 10 .
N21 Ba4 Ba7 47.0(6) . .
B1 Ba4 Ba7 114.80(14) 16_445 .
Si1 Ba4 Ba7 134.63(6) 7_545 .
Si2 Ba4 Ba7 57.16(6) 4_455 .
Si2 Ba4 Ba7 150.20(6) 5_545 .
N5 Ba4 Ba1 104.24(14) 7_544 7_545
N3 Ba4 Ba1 43.57(14) 5_545 7_545
N7 Ba4 Ba1 53.72(14) 10 7_545
N21 Ba4 Ba1 123.5(6) . 7_545
B1 Ba4 Ba1 141.35(14) 16_445 7_545
Si1 Ba4 Ba1 56.19(6) 7_545 7_545
Si2 Ba4 Ba1 113.71(6) 4_455 7_545
Si2 Ba4 Ba1 90.21(6) 5_545 7_545
Ba7 Ba4 Ba1 96.466(14) . 7_545
N5 Ba4 Ba6 44.95(14) 7_544 10
N3 Ba4 Ba6 46.05(14) 5_545 10
N7 Ba4 Ba6 43.88(14) 10 10
N21 Ba4 Ba6 108.0(6) . 10
B1 Ba4 Ba6 115.45(14) 16_445 10
Si1 Ba4 Ba6 115.04(6) 7_545 10
Si2 Ba4 Ba6 116.38(6) 4_455 10
Si2 Ba4 Ba6 143.53(6) 5_545 10
Ba7 Ba4 Ba6 61.011(9) . 10
Ba1 Ba4 Ba6 59.803(10) 7_545 10
N5 Ba4 Ba1 54.99(14) 7_544 16_445
N3 Ba4 Ba1 105.21(14) 5_545 16_445
N7 Ba4 Ba1 43.32(14) 10 16_445
N21 Ba4 Ba1 125.3(6) . 16_445
B1 Ba4 Ba1 58.10(15) 16_445 16_445
Si1 Ba4 Ba1 118.44(6) 7_545 16_445
Si2 Ba4 Ba1 141.66(7) 4_455 16_445
Si2 Ba4 Ba1 109.51(6) 5_545 16_445
Ba7 Ba4 Ba1 98.506(13) . 16_445
Ba1 Ba4 Ba1 96.861(11) 7_545 16_445
Ba6 Ba4 Ba1 59.424(11) 10 16_445
N8 Ba5 N4 79.0(2) . .
N8 Ba5 N6 73.2(3) . .
N4 Ba5 N6 75.7(2) . .
N8 Ba5 N11 76.3(7) . 14
N4 Ba5 N11 150.2(7) . 14
N6 Ba5 N11 81.3(6) . 14
N8 Ba5 B4 87.2(3) . 3_554
N4 Ba5 B4 95.55(15) . 3_554
N6 Ba5 B4 159.6(2) . 3_554
N11 Ba5 B4 99.7(6) 14 3_554
N8 Ba5 N12 144.9(6) . 7_544
N4 Ba5 N12 81.7(6) . 7_544
N6 Ba5 N12 73.8(6) . 7_544
N11 Ba5 N12 109.9(8) 14 7_544
B4 Ba5 N12 123.8(6) 3_554 7_544
N8 Ba5 Si1 163.4(2) . 7_544
N4 Ba5 Si1 88.66(16) . 7_544
N6 Ba5 Si1 93.13(15) . 7_544
N11 Ba5 Si1 111.5(6) 14 7_544
B4 Ba5 Si1 105.21(18) 3_554 7_544
N12 Ba5 Si1 19.5(6) 7_544 7_544
N8 Ba5 N3 87.4(2) . 12_454
N4 Ba5 N3 118.30(18) . 12_454
N6 Ba5 N3 153.81(17) . 12_454
N11 Ba5 N3 77.1(6) 14 12_454
B4 Ba5 N3 23.26(11) 3_554 12_454
N12 Ba5 N3 127.7(6) 7_544 12_454
Si1 Ba5 N3 108.42(13) 7_544 12_454
N8 Ba5 Si1 91.04(18) . 14
N4 Ba5 Si1 160.21(16) . 14
N6 Ba5 Si1 85.05(14) . 14
N11 Ba5 Si1 14.7(6) 14 14
B4 Ba5 Si1 101.07(5) 3_554 14
N12 Ba5 Si1 97.7(6) 7_544 14
Si1 Ba5 Si1 97.19(7) 7_544 14
N3 Ba5 Si1 77.81(12) 12_454 14
N8 Ba5 Si2 160.4(2) . 5_544
N4 Ba5 Si2 105.28(17) . 5_544
N6 Ba5 Si2 126.42(15) . 5_544
N11 Ba5 Si2 103.5(7) 14 5_544
B4 Ba5 Si2 73.42(19) 3_554 5_544
N12 Ba5 Si2 54.1(6) 7_544 5_544
Si1 Ba5 Si2 34.75(8) 7_544 5_544
N3 Ba5 Si2 73.67(14) 12_454 5_544
Si1 Ba5 Si2 89.83(8) 14 5_544
N8 Ba5 Ba2 103.4(2) . .
N4 Ba5 Ba2 52.47(13) . .
N6 Ba5 Ba2 43.27(13) . .
N11 Ba5 Ba2 118.2(6) 14 .
B4 Ba5 Ba2 142.01(5) 3_554 .
N12 Ba5 Ba2 42.4(5) 7_544 .
Si1 Ba5 Ba2 60.09(6) 7_544 .
N3 Ba5 Ba2 162.77(11) 12_454 .
Si1 Ba5 Ba2 114.88(5) 14 .
Si2 Ba5 Ba2 94.02(6) 5_544 .
N8 Ba5 Ba6 120.59(16) . 8_444
N4 Ba5 Ba6 56.91(16) . 8_444
N6 Ba5 Ba6 122.91(13) . 8_444
N11 Ba5 Ba6 152.4(7) 14 8_444
B4 Ba5 Ba6 62.67(10) 3_554 8_444
N12 Ba5 Ba6 69.8(6) 7_544 8_444
Si1 Ba5 Ba6 58.90(6) 7_544 8_444
N3 Ba5 Ba6 81.93(11) 12_454 8_444
Si1 Ba5 Ba6 141.41(5) 14 8_444
Si2 Ba5 Ba6 52.81(5) 5_544 8_444
Ba2 Ba5 Ba6 81.000(12) . 8_444
N7 Ba6 N5 77.4(2) . 16_444
N7 Ba6 N3 76.8(2) . 14
N5 Ba6 N3 74.6(2) 16_444 14
N7 Ba6 N12 77.1(6) . 7_544
N5 Ba6 N12 89.4(6) 16_444 7_544
N3 Ba6 N12 151.8(6) 14 7_544
N7 Ba6 B1 81.61(19) . 16_445
N5 Ba6 B1 158.5(2) 16_444 16_445
N3 Ba6 B1 96.0(2) 14 16_445
N12 Ba6 B1 90.5(6) 7_544 16_445
N7 Ba6 N4 83.83(18) . 16_445
N5 Ba6 N4 146.30(18) 16_444 16_445
N3 Ba6 N4 73.96(18) 14 16_445
N12 Ba6 N4 113.5(6) 7_544 16_445
B1 Ba6 N4 23.26(18) 16_445 16_445
N7 Ba6 Si2 161.86(16) . 12_454
N5 Ba6 Si2 89.11(16) 16_444 12_454
N3 Ba6 Si2 88.04(15) 14 12_454
N12 Ba6 Si2 115.4(6) 7_544 12_454
B1 Ba6 Si2 110.22(15) 16_445 12_454
N4 Ba6 Si2 101.67(13) 16_445 12_454
N7 Ba6 Si1 158.57(16) . 14
N5 Ba6 Si1 123.82(16) 16_444 14
N3 Ba6 Si1 104.50(14) 14 14
N12 Ba6 Si1 103.7(6) 7_544 14
B1 Ba6 Si1 76.98(14) 16_445 14
N4 Ba6 Si1 76.18(12) 16_445 14
Si2 Ba6 Si1 35.75(9) 12_454 14
N7 Ba6 Si1 91.48(16) . 7_544
N5 Ba6 Si1 84.14(15) 16_444 7_544
N3 Ba6 Si1 157.45(15) 14 7_544
N12 Ba6 Si1 16.8(6) 7_544 7_544
B1 Ba6 Si1 101.26(15) 16_445 7_544
N4 Ba6 Si1 124.47(12) 16_445 7_544
Si2 Ba6 Si1 99.27(8) 12_454 7_544
Si1 Ba6 Si1 93.48(4) 14 7_544
N7 Ba6 Ba1 43.78(14) . 7_544
N5 Ba6 Ba1 55.54(14) 16_444 7_544
N3 Ba6 Ba1 105.35(14) 14 7_544
N12 Ba6 Ba1 47.1(6) 7_544 7_544
B1 Ba6 Ba1 110.69(13) 16_445 7_544
N4 Ba6 Ba1 123.23(11) 16_445 7_544
Si2 Ba6 Ba1 135.04(7) 12_454 7_544
Si1 Ba6 Ba1 148.07(5) 14 7_544
Si1 Ba6 Ba1 54.91(5) 7_544 7_544
N7 Ba6 Ba1 54.04(15) . 16_445
N5 Ba6 Ba1 104.33(15) 16_444 16_445
N3 Ba6 Ba1 43.56(14) 14 16_445
N12 Ba6 Ba1 123.2(6) 7_544 16_445
B1 Ba6 Ba1 58.39(15) 16_445 16_445
N4 Ba6 Ba1 42.73(11) 16_445 16_445
Si2 Ba6 Ba1 119.64(6) 12_454 16_445
Si1 Ba6 Ba1 112.03(5) 14 16_445
Si1 Ba6 Ba1 139.93(6) 7_544 16_445
Ba1 Ba6 Ba1 97.436(11) 7_544 16_445
N7 Ba6 Ba5 116.17(15) . 16_445
N5 Ba6 Ba5 122.88(14) 16_444 16_445
N3 Ba6 Ba5 58.01(14) 14 16_445
N12 Ba6 Ba5 146.3(6) 7_544 16_445
B1 Ba6 Ba5 63.17(14) 16_445 16_445
N4 Ba6 Ba5 44.26(11) 16_445 16_445
Si2 Ba6 Ba5 61.40(6) 12_454 16_445
Si1 Ba6 Ba5 52.31(5) 14 16_445
Si1 Ba6 Ba5 143.71(5) 7_544 16_445
Ba1 Ba6 Ba5 159.286(16) 7_544 16_445
Ba1 Ba6 Ba5 62.171(11) 16_445 16_445
N5 Ba7 N5 169.4(3) 8_444 7_544
N5 Ba7 N22 88.8(6) 8_444 2
N5 Ba7 N22 90.9(6) 7_544 2
N5 Ba7 N22 90.9(6) 8_444 .
N5 Ba7 N22 88.8(6) 7_544 .
N22 Ba7 N22 177.1(13) 2 .
N5 Ba7 N21 81.1(6) 8_444 2
N5 Ba7 N21 99.4(6) 7_544 2
N22 Ba7 N21 9.2(7) 2 2
N22 Ba7 N21 171.8(8) . 2
N5 Ba7 N21 99.4(6) 8_444 .
N5 Ba7 N21 81.1(6) 7_544 .
N22 Ba7 N21 171.8(8) 2 .
N22 Ba7 N21 9.2(7) . .
N21 Ba7 N21 174.4(12) 2 .
N5 Ba7 B4 95.29(14) 8_444 .
N5 Ba7 B4 95.29(14) 7_544 .
N22 Ba7 B4 91.4(7) 2 .
N22 Ba7 B4 91.4(7) . .
N21 Ba7 B4 87.2(6) 2 .
N21 Ba7 B4 87.2(6) . .
N5 Ba7 N3 119.94(19) 8_444 5_545
N5 Ba7 N3 70.62(18) 7_544 5_545
N22 Ba7 N3 94.3(7) 2 5_545
N22 Ba7 N3 88.3(7) . 5_545
N21 Ba7 N3 93.8(6) 2 5_545
N21 Ba7 N3 81.1(6) . 5_545
B4 Ba7 N3 24.81(11) . 5_545
N5 Ba7 N3 70.62(18) 8_444 6
N5 Ba7 N3 119.94(19) 7_544 6
N22 Ba7 N3 88.3(7) 2 6
N22 Ba7 N3 94.3(7) . 6
N21 Ba7 N3 81.1(6) 2 6
N21 Ba7 N3 93.8(6) . 6
B4 Ba7 N3 24.81(11) . 6
N3 Ba7 N3 49.6(2) 5_545 6
N5 Ba7 B3 84.71(14) 8_444 .
N5 Ba7 B3 84.71(14) 7_544 .
N22 Ba7 B3 88.6(7) 2 .
N22 Ba7 B3 88.6(7) . .
N21 Ba7 B3 92.8(6) 2 .
N21 Ba7 B3 92.8(6) . .
B4 Ba7 B3 180.0 . .
N3 Ba7 B3 155.19(11) 5_545 .
N3 Ba7 B3 155.19(11) 6 .
N5 Ba7 Si2 87.34(17) 8_444 4_455
N5 Ba7 Si2 94.72(17) 7_544 4_455
N22 Ba7 Si2 169.1(7) 2 4_455
N22 Ba7 Si2 13.6(6) . 4_455
N21 Ba7 Si2 160.9(6) 2 4_455
N21 Ba7 Si2 15.4(6) . 4_455
B4 Ba7 Si2 78.76(6) . 4_455
N3 Ba7 Si2 78.86(15) 5_545 4_455
N3 Ba7 Si2 80.75(15) 6 4_455
B3 Ba7 Si2 101.24(6) . 4_455
N5 Ba7 Si2 94.72(17) 8_444 3_545
N5 Ba7 Si2 87.34(17) 7_544 3_545
N22 Ba7 Si2 13.6(6) 2 3_545
N22 Ba7 Si2 169.1(7) . 3_545
N21 Ba7 Si2 15.4(6) 2 3_545
N21 Ba7 Si2 160.9(6) . 3_545
B4 Ba7 Si2 78.76(6) . 3_545
N3 Ba7 Si2 80.75(15) 5_545 3_545
N3 Ba7 Si2 78.86(15) 6 3_545
B3 Ba7 Si2 101.24(6) . 3_545
Si2 Ba7 Si2 157.52(12) 4_455 3_545
N11 Si1 N12 29(2) . .
N11 Si1 Si2 165.9(17) . 7_544
N12 Si1 Si2 160.4(17) . 7_544
N11 Si1 Ba5 96.4(19) . 3
N12 Si1 Ba5 78.1(17) . 3
Si2 Si1 Ba5 83.98(14) 7_544 3
N11 Si1 Ba4 99.6(19) . 3_554
N12 Si1 Ba4 118.5(17) . 3_554
Si2 Si1 Ba4 79.35(14) 7_544 3_554
Ba5 Si1 Ba4 163.31(12) 3 3_554
N11 Si1 Ba1 43.6(17) . .
N12 Si1 Ba1 49.9(16) . .
Si2 Si1 Ba1 144.16(16) 7_544 .
Ba5 Si1 Ba1 126.73(11) 3 .
Ba4 Si1 Ba1 69.30(6) 3_554 .
N11 Si1 Ba6 99.3(16) . 14
N12 Si1 Ba6 112.3(16) . 14
Si2 Si1 Ba6 67.66(12) 7_544 14
Ba5 Si1 Ba6 68.78(6) 3 14
Ba4 Si1 Ba6 103.67(9) 3_554 14
Ba1 Si1 Ba6 135.65(10) . 14
N11 Si1 Ba6 78.3(18) . 3
N12 Si1 Ba6 51.7(16) . 3
Si2 Si1 Ba6 114.95(15) 7_544 3
Ba5 Si1 Ba6 72.35(7) 3 3
Ba4 Si1 Ba6 115.62(9) 3_554 3
Ba1 Si1 Ba6 66.84(6) . 3
Ba6 Si1 Ba6 140.54(10) 14 3
N11 Si1 Ba2 28.8(19) . 3
N12 Si1 Ba2 23.4(16) . 3
Si2 Si1 Ba2 148.53(16) 7_544 3
Ba5 Si1 Ba2 67.61(6) 3 3
Ba4 Si1 Ba2 128.28(10) 3_554 3
Ba1 Si1 Ba2 67.28(6) . 3
Ba6 Si1 Ba2 88.83(7) 14 3
Ba6 Si1 Ba2 70.12(6) 3 3
N11 Si1 Ba5 47.4(18) . 14
N12 Si1 Ba5 75.8(17) . 14
Si2 Si1 Ba5 119.93(16) 7_544 14
Ba5 Si1 Ba5 115.39(9) 3 14
Ba4 Si1 Ba5 73.14(6) 3_554 14
Ba1 Si1 Ba5 67.42(6) . 14
Ba6 Si1 Ba5 68.70(6) 14 14
Ba6 Si1 Ba5 125.03(10) 3 14
Ba2 Si1 Ba5 65.24(6) 3 14
N11 Si1 Ba3 131.2(16) . 6_554
N12 Si1 Ba3 115.4(16) . 6_554
Si2 Si1 Ba3 61.55(12) 7_544 6_554
Ba5 Si1 Ba3 104.98(8) 3 6_554
Ba4 Si1 Ba3 67.56(6) 3_554 6_554
Ba1 Si1 Ba3 89.91(7) . 6_554
Ba6 Si1 Ba3 129.21(10) 14 6_554
Ba6 Si1 Ba3 67.73(6) 3 6_554
Ba2 Si1 Ba3 137.29(10) 3 6_554
Ba5 Si1 Ba3 139.62(9) 14 6_554
N21 Si2 N22 24.1(18) 12_454 12_454
N21 Si2 Si1 165.9(16) 12_454 3
N22 Si2 Si1 169.8(15) 12_454 3
N21 Si2 Ba3 87.1(15) 12_454 12_454
N22 Si2 Ba3 103.8(15) 12_454 12_454
Si1 Si2 Ba3 84.06(14) 3 12_454
N21 Si2 Ba6 111.9(15) 12_454 4_455
N22 Si2 Ba6 95.4(15) 12_454 4_455
Si1 Si2 Ba6 76.59(13) 3 4_455
Ba3 Si2 Ba6 160.65(14) 12_454 4_455
N21 Si2 Ba4 48.7(15) 12_454 12_454
N22 Si2 Ba4 71.2(16) 12_454 12_454
Si1 Si2 Ba4 117.88(17) 3 12_454
Ba3 Si2 Ba4 73.05(7) 12_454 12_454
Ba6 Si2 Ba4 116.31(10) 4_455 12_454
N21 Si2 Ba2 31.8(15) 12_454 12_454
N22 Si2 Ba2 36.4(15) 12_454 12_454
Si1 Si2 Ba2 148.55(17) 3 12_454
Ba3 Si2 Ba2 68.42(7) 12_454 12_454
Ba6 Si2 Ba2 130.03(12) 4_455 12_454
Ba4 Si2 Ba2 69.35(7) 12_454 12_454
N21 Si2 Ba7 43.1(15) 12_454 7_554
N22 Si2 Ba7 34.9(16) 12_454 7_554
Si1 Si2 Ba7 141.91(16) 3 7_554
Ba3 Si2 Ba7 129.22(11) 12_454 7_554
Ba6 Si2 Ba7 69.18(7) 4_455 7_554
Ba4 Si2 Ba7 66.40(7) 12_454 7_554
Ba2 Si2 Ba7 69.53(7) 12_454 7_554
N21 Si2 Ba3 77.1(15) 12_454 5_554
N22 Si2 Ba3 54.0(16) 12_454 5_554
Si1 Si2 Ba3 116.71(16) 3 5_554
Ba3 Si2 Ba3 117.54(10) 12_454 5_554
Ba6 Si2 Ba3 72.27(7) 4_455 5_554
Ba4 Si2 Ba3 125.18(12) 12_454 5_554
Ba2 Si2 Ba3 67.14(7) 12_454 5_554
Ba7 Si2 Ba3 68.24(7) 7_554 5_554
N21 Si2 Ba4 121.3(15) 12_454 5_554
N22 Si2 Ba4 111.0(16) 12_454 5_554
Si1 Si2 Ba4 65.33(13) 3 5_554
Ba3 Si2 Ba4 69.49(7) 12_454 5_554
Ba6 Si2 Ba4 101.61(9) 4_455 5_554
Ba4 Si2 Ba4 141.84(11) 12_454 5_554
Ba2 Si2 Ba4 90.09(8) 12_454 5_554
Ba7 Si2 Ba4 137.05(11) 7_554 5_554
Ba3 Si2 Ba4 69.04(7) 5_554 5_554
N21 Si2 Ba5 111.0(15) 12_454 5
N22 Si2 Ba5 121.5(16) 12_454 5
Si1 Si2 Ba5 61.27(12) 3 5
Ba3 Si2 Ba5 104.95(10) 12_454 5
Ba6 Si2 Ba5 65.79(6) 4_455 5
Ba4 Si2 Ba5 70.22(7) 12_454 5
Ba2 Si2 Ba5 139.13(11) 12_454 5
Ba7 Si2 Ba5 89.08(8) 7_554 5
Ba3 Si2 Ba5 137.26(10) 5_554 5
Ba4 Si2 Ba5 126.60(11) 5_554 5
N6 B1 N4 174.7(7) 8_444 .
N6 B1 Ba2 87.7(5) 8_444 .
N4 B1 Ba2 87.0(4) . .
N6 B1 Ba4 90.1(5) 8_444 8_444
N4 B1 Ba4 92.4(5) . 8_444
Ba2 B1 Ba4 117.4(3) . 8_444
N6 B1 Ba6 94.0(5) 8_444 8_444
N4 B1 Ba6 88.1(5) . 8_444
Ba2 B1 Ba6 115.1(2) . 8_444
Ba4 B1 Ba6 127.5(2) 8_444 8_444
N5 B2 N7 176.1(8) 7_544 .
N5 B2 Ba1 90.2(5) 7_544 16_445
N7 B2 Ba1 86.6(4) . 16_445
N5 B2 Ba3 86.6(5) 7_544 7_544
N7 B2 Ba3 92.7(5) . 7_544
Ba1 B2 Ba3 116.3(2) 16_445 7_544
N5 B2 Ba2 94.5(5) 7_544 .
N7 B2 Ba2 89.2(5) . .
Ba1 B2 Ba2 123.1(2) 16_445 .
Ba3 B2 Ba2 120.6(2) 7_544 .
N8 B3 N8 178.4(14) 7_544 8_444
N8 B3 Ba7 90.8(7) 7_544 .
N8 B3 Ba7 90.8(7) 8_444 .
N8 B3 Ba1 84.3(5) 7_544 8_444
N8 B3 Ba1 94.9(4) 8_444 8_444
Ba7 B3 Ba1 119.52(17) . 8_444
N8 B3 Ba1 94.9(4) 7_544 7_544
N8 B3 Ba1 84.3(5) 8_444 7_544
Ba7 B3 Ba1 119.52(17) . 7_544
Ba1 B3 Ba1 121.0(3) 8_444 7_544
N3 B4 N3 176.6(11) 6 5_545
N3 B4 Ba7 88.3(6) 6 .
N3 B4 Ba7 88.3(6) 5_545 .
N3 B4 Ba5 92.2(4) 6 8_445
N3 B4 Ba5 89.4(4) 5_545 8_445
Ba7 B4 Ba5 118.74(18) . 8_445
N3 B4 Ba5 89.4(4) 6 7_545
N3 B4 Ba5 92.2(4) 5_545 7_545
Ba7 B4 Ba5 118.74(18) . 7_545
Ba5 B4 Ba5 122.5(4) 8_445 7_545
N12 N11 Si1 83(5) . .
N12 N11 Ba2 72(6) . 3
Si1 N11 Ba2 141(2) . 3
N12 N11 Ba1 93(5) . .
Si1 N11 Ba1 121(2) . .
Ba2 N11 Ba1 90.1(9) 3 .
N12 N11 Ba5 157(6) . 14
Si1 N11 Ba5 118(2) . 14
Ba2 N11 Ba5 85.0(8) 3 14
Ba1 N11 Ba5 85.1(8) . 14
N11 N12 Si1 69(5) . .
N11 N12 Ba2 96(6) . 3
Si1 N12 Ba2 147(2) . 3
N11 N12 Ba1 77(5) . .
Si1 N12 Ba1 113(2) . .
Ba2 N12 Ba1 90.8(9) 3 .
N11 N12 Ba6 157(6) . 3
Si1 N12 Ba6 111.6(19) . 3
Ba2 N12 Ba6 93.7(10) 3 3
Ba1 N12 Ba6 82.3(8) . 3
N11 N12 Ba5 122(6) . 3
Si1 N12 Ba5 82.4(17) . 3
Ba2 N12 Ba5 81.0(8) 3 3
Ba1 N12 Ba5 160.5(12) . 3
Ba6 N12 Ba5 80.7(8) 3 3
Si2 N21 Ba2 136(2) 4_455 .
Si2 N21 Ba7 121.6(18) 4_455 .
Ba2 N21 Ba7 94.3(9) . .
Si2 N21 Ba4 114.7(19) 4_455 .
Ba2 N21 Ba4 92.0(8) . .
Ba7 N21 Ba4 84.5(8) . .
Si2 N22 Ba7 132(2) 4_455 .
Si2 N22 Ba2 130(2) 4_455 .
Ba7 N22 Ba2 96.0(9) . .
Si2 N22 Ba3 108.8(18) 4_455 8_444
Ba7 N22 Ba3 87.5(8) . 8_444
Ba2 N22 Ba3 85.6(8) . 8_444
B4 N3 Ba1 123.3(6) 5_554 3
B4 N3 Ba4 130.2(5) 5_554 5_554
Ba1 N3 Ba4 90.76(19) 3 5_554
B4 N3 Ba6 122.5(5) 5_554 14
Ba1 N3 Ba6 90.0(2) 3 14
Ba4 N3 Ba6 88.66(18) 5_554 14
B4 N3 Ba7 66.9(6) 5_554 5_554
Ba1 N3 Ba7 169.8(2) 3 5_554
Ba4 N3 Ba7 81.68(18) 5_554 5_554
Ba6 N3 Ba7 83.08(18) 14 5_554
B4 N3 Ba5 67.4(4) 5_554 4_455
Ba1 N3 Ba5 81.17(18) 3 4_455
Ba4 N3 Ba5 86.10(19) 5_554 4_455
Ba6 N3 Ba5 169.7(2) 14 4_455
Ba7 N3 Ba5 104.92(19) 5_554 4_455
B1 N4 Ba1 116.8(5) . .
B1 N4 Ba5 128.0(6) . .
Ba1 N4 Ba5 95.0(2) . .
B1 N4 Ba3 125.3(6) . .
Ba1 N4 Ba3 93.8(2) . .
Ba5 N4 Ba3 89.36(18) . .
B1 N4 Ba2 67.9(4) . .
Ba1 N4 Ba2 175.2(3) . .
Ba5 N4 Ba2 82.26(16) . .
Ba3 N4 Ba2 82.33(18) . .
B1 N4 Ba6 68.7(5) . 8_444
Ba1 N4 Ba6 79.80(18) . 8_444
Ba5 N4 Ba6 78.8(2) . 8_444
Ba3 N4 Ba6 165.9(2) . 8_444
Ba2 N4 Ba6 103.4(2) . 8_444
B2 N5 Ba7 124.6(5) 3 3
B2 N5 Ba6 130.6(5) 3 8_445
Ba7 N5 Ba6 93.1(2) 3 8_445
B2 N5 Ba4 117.0(5) 3 3
Ba7 N5 Ba4 90.6(2) 3 3
Ba6 N5 Ba4 90.0(2) 8_445 3
B2 N5 Ba1 66.2(4) 3 6
Ba7 N5 Ba1 168.8(3) 3 6
Ba6 N5 Ba1 79.91(17) 8_445 6
Ba4 N5 Ba1 80.72(17) 3 6
B2 N5 Ba3 69.8(4) 3 .
Ba7 N5 Ba3 84.01(18) 3 .
Ba6 N5 Ba3 85.9(2) 8_445 .
Ba4 N5 Ba3 173.0(3) 3 .
Ba1 N5 Ba3 103.98(19) 6 .
B1 N6 Ba2 123.1(5) 16_445 .
B1 N6 Ba3 129.1(5) 16_445 .
Ba2 N6 Ba3 90.27(19) . .
B1 N6 Ba5 125.7(5) 16_445 .
Ba2 N6 Ba5 89.41(19) . .
Ba3 N6 Ba5 87.34(19) . .
B1 N6 Ba2 67.4(4) 16_445 16_445
Ba2 N6 Ba2 169.4(3) . 16_445
Ba3 N6 Ba2 82.95(18) . 16_445
Ba5 N6 Ba2 82.21(18) . 16_445
B2 N7 Ba1 121.3(5) . 7_544
B2 N7 Ba6 127.6(5) . .
Ba1 N7 Ba6 91.9(2) 7_544 .
B2 N7 Ba4 125.0(5) . 10_554
Ba1 N7 Ba4 90.6(2) 7_544 10_554
Ba6 N7 Ba4 90.01(19) . 10_554
B2 N7 Ba1 69.1(4) . 16_445
Ba1 N7 Ba1 169.4(3) 7_544 16_445
Ba6 N7 Ba1 82.25(18) . 16_445
Ba4 N7 Ba1 80.60(18) 10_554 16_445
B3 N8 Ba2 127.9(6) 3 16_445
B3 N8 Ba5 122.0(8) 3 .
Ba2 N8 Ba5 95.4(3) 16_445 .
B3 N8 Ba3 116.6(6) 3 .
Ba2 N8 Ba3 94.1(3) 16_445 .
Ba5 N8 Ba3 92.5(2) . .
loop_
_geom_bond_atom_site_label_1
_geom_bond_atom_site_label_2
_geom_bond_distance
_geom_bond_site_symmetry_2
Ba1 N3 2.710(7) 7_544
Ba1 N4 2.711(6) .
Ba1 N7 2.716(7) 3
Ba1 N11 2.82(3) .
Ba1 N12 2.90(3) .
Ba1 B2 3.005(8) 8_444
Ba1 N7 3.212(7) 8_444
Ba1 N5 3.286(7) 6_554
Ba1 B3 3.313(6) 3
Ba1 Si1 3.492(4) .
Ba1 Ba6 3.9234(6) 3
Ba1 Ba4 3.9314(6) 3_554
Ba2 N8 2.657(8) 8_444
Ba2 N12 2.67(3) 7_544
Ba2 N6 2.683(6) .
Ba2 N21 2.70(3) .
Ba2 N22 2.76(3) .
Ba2 N11 2.79(3) 7_544
Ba2 B1 2.906(7) .
Ba2 N4 3.132(6) .
Ba2 N6 3.145(6) 8_444
Ba2 B2 3.311(7) .
Ba2 Si2 3.589(4) 4_455
Ba2 Si1 3.669(3) 7_544
Ba3 N8 2.778(10) .
Ba3 N4 2.822(8) .
Ba3 N6 2.854(7) .
Ba3 N22 3.08(3) 16_445
Ba3 B2 3.094(7) 3
Ba3 N5 3.290(7) .
Ba3 Si2 3.388(4) 4_455
Ba3 Si2 3.608(4) 5_545
Ba3 Si1 3.833(3) 6
Ba3 Ba5 3.9577(7) .
Ba3 Ba2 3.9797(6) 16_445
Ba4 N5 2.801(7) 7_544
Ba4 N3 2.813(7) 5_545
Ba4 N7 2.851(7) 10
Ba4 N21 2.95(3) .
Ba4 B1 3.131(8) 16_445
Ba4 Si1 3.422(3) 7_545
Ba4 Si2 3.567(4) 4_455
Ba4 Si2 3.700(4) 5_545
Ba4 Ba7 3.9222(5) .
Ba4 Ba1 3.9314(6) 7_545
Ba4 Ba6 3.9567(6) 10
Ba4 Ba1 3.9593(6) 16_445
Ba5 N8 2.702(10) .
Ba5 N4 2.806(7) .
Ba5 N6 2.877(7) .
Ba5 N11 3.07(3) 14
Ba5 B4 3.110(5) 3_554
Ba5 N12 3.31(3) 7_544
Ba5 Si1 3.349(3) 7_544
Ba5 N3 3.370(7) 12_454
Ba5 Si1 3.686(3) 14
Ba5 Si2 3.798(4) 5_544
Ba5 Ba6 3.9448(6) 8_444
Ba6 N7 2.743(7) .
Ba6 N5 2.796(7) 16_444
Ba6 N3 2.850(7) 14
Ba6 N12 3.06(3) 7_544
Ba6 B1 3.140(8) 16_445
Ba6 N4 3.369(8) 16_445
Ba6 Si2 3.446(4) 12_454
Ba6 Si1 3.624(3) 14
Ba6 Si1 3.629(3) 7_544
Ba6 Ba1 3.9235(6) 7_544
Ba6 Ba1 3.9324(6) 16_445
Ba6 Ba5 3.9448(6) 16_445
Ba7 N5 2.714(7) 8_444
Ba7 N5 2.714(7) 7_544
Ba7 N22 2.75(3) 2
Ba7 N22 2.75(3) .
Ba7 N21 2.88(3) 2
Ba7 N21 2.88(3) .
Ba7 B4 2.918(11) .
Ba7 N3 3.171(7) 5_545
Ba7 N3 3.171(7) 6
Ba7 B3 3.309(12) .
Ba7 Si2 3.596(4) 4_455
Ba7 Si2 3.596(4) 3_545
Si1 N11 1.06(3) .
Si1 N12 1.13(3) .
Si1 Si2 2.177(5) 7_544
Si1 Ba5 3.349(3) 3
Si1 Ba4 3.422(3) 3_554
Si1 Ba6 3.624(3) 14
Si1 Ba6 3.629(3) 3
Si1 Ba2 3.669(3) 3
Si1 Ba5 3.686(3) 14
Si1 Ba3 3.833(3) 6_554
Si2 N21 1.12(3) 12_454
Si2 N22 1.13(3) 12_454
Si2 Si1 2.177(5) 3
Si2 Ba3 3.388(4) 12_454
Si2 Ba6 3.446(4) 4_455
Si2 Ba4 3.567(4) 12_454
Si2 Ba2 3.589(4) 12_454
Si2 Ba7 3.596(4) 7_554
Si2 Ba3 3.608(4) 5_554
Si2 Ba4 3.700(4) 5_554
Si2 Ba5 3.798(4) 5
B1 N6 1.325(10) 8_444
B1 N4 1.331(10) .
B1 Ba4 3.131(8) 8_444
B1 Ba6 3.140(8) 8_444
B2 N5 1.317(11) 7_544
B2 N7 1.325(11) .
B2 Ba1 3.005(8) 16_445
B2 Ba3 3.094(7) 7_544
B3 N8 1.319(8) 7_544
B3 N8 1.319(8) 8_444
B3 Ba1 3.313(6) 8_444
B3 Ba1 3.313(6) 7_544
B4 N3 1.331(6) 6
B4 N3 1.331(6) 5_545
B4 Ba5 3.110(5) 8_445
B4 Ba5 3.110(5) 7_545
N11 N12 0.55(4) .
N11 Ba2 2.79(3) 3
N11 Ba5 3.07(3) 14
N12 Ba2 2.67(3) 3
N12 Ba6 3.06(3) 3
N12 Ba5 3.31(3) 3
N21 Si2 1.12(3) 4_455
N22 Si2 1.13(3) 4_455
N22 Ba3 3.08(3) 8_444
N3 B4 1.331(6) 5_554
N3 Ba1 2.710(7) 3
N3 Ba4 2.813(7) 5_554
N3 Ba6 2.849(7) 14
N3 Ba7 3.171(7) 5_554
N3 Ba5 3.370(7) 4_455
N4 Ba6 3.369(8) 8_444
N5 B2 1.317(11) 3
N5 Ba7 2.714(7) 3
N5 Ba6 2.796(7) 8_445
N5 Ba4 2.801(7) 3
N5 Ba1 3.286(7) 6
N6 B1 1.325(10) 16_445
N6 Ba2 3.145(6) 16_445
N7 Ba1 2.716(7) 7_544
N7 Ba4 2.851(7) 10_554
N7 Ba1 3.212(7) 16_445
N8 B3 1.319(8) 3
N8 Ba2 2.657(8) 16_445
