#------------------------------------------------------------------------------
#$Date: 2021-04-19 11:00:44 +0300 (Mon, 19 Apr 2021) $
#$Revision: 264300 $
#$URL: file:///home/coder/svn-repositories/cod/cif/1/56/19/1561906.cif $
#------------------------------------------------------------------------------
#
# This file is available in the Crystallography Open Database (COD),
# http://www.crystallography.net/
#
# All data on this site have been placed in the public domain by the
# contributors.
#
data_1561906
loop_
_publ_author_name
'Yamane, Hisanori'
'Yoshimura, Fumitaka'
_publ_section_title
;
 Synthesis, crystal structure and photoluminescence of
 (Ba0.99Eu0.01)Al3Si4N9
;
_journal_name_full               'Journal of Solid State Chemistry'
_journal_page_first              258
_journal_page_last               265
_journal_paper_doi               10.1016/j.jssc.2015.04.046
_journal_volume                  228
_journal_year                    2015
_chemical_formula_moiety
;
Al3 N3 Si4, N1.50,(N0.50), N, N, N, Ba0.99 EU0.01
;
_chemical_formula_sum            'Al3 Ba0.99 Eu0.01 N9 Si4'
_chemical_formula_weight         456.88
_chemical_name_common
;
barium aluminum silicon nitride
;
_chemical_name_systematic
;
monobarium trialuminum tetrasilicon nonanitrogen
;
_space_group_crystal_system      orthorhombic
_space_group_IT_number           43
_space_group_name_Hall           'F 2 -2d'
_space_group_name_H-M_alt        'F d d 2'
_cell_angle_alpha                90
_cell_angle_beta                 90
_cell_angle_gamma                90
_cell_formula_units_Z            16
_cell_length_a                   10.028(2)
_cell_length_b                   53.353(9)
_cell_length_c                   5.9215(11)
_cell_measurement_reflns_used    3676
_cell_measurement_temperature    293(2)
_cell_measurement_theta_max      27.48
_cell_measurement_theta_min      3.055
_cell_volume                     3168.1(10)
_computing_cell_refinement       'RAPID-AUTO (Rigaku Corporation, 2005)'
_computing_data_collection       'RAPID-AUTO (Rigaku Corporation, 2005)'
_computing_data_reduction        'RAPID-AUTO (Rigaku Corporation, 2005)'
_computing_molecular_graphics    'VESTA (Momma & "Izumi," 2008)'
_computing_publication_material  'SHELXL-2014/7 (Sheldrick, 2014)'
_computing_structure_refinement  'SHELXL-2014/7 (Sheldrick, 2014)'
_computing_structure_solution    'SIR2004 (Burla et "al.," 2005)'
_diffrn_ambient_temperature      293(2)
_diffrn_detector_area_resol_mean 10.0
_diffrn_measured_fraction_theta_full 0.994
_diffrn_measured_fraction_theta_max 0.993
_diffrn_measurement_device_type  'Rigaku RAXIS-RAPID II'
_diffrn_measurement_method       \w
_diffrn_radiation_monochromator  graphite
_diffrn_radiation_source         'fine-focus sealed tube'
_diffrn_radiation_type           MoK\a
_diffrn_radiation_wavelength     0.71073
_diffrn_reflns_av_R_equivalents  0.1596
_diffrn_reflns_av_unetI/netI     0.1202
_diffrn_reflns_Laue_measured_fraction_full 0.994
_diffrn_reflns_Laue_measured_fraction_max 0.993
_diffrn_reflns_limit_h_max       12
_diffrn_reflns_limit_h_min       -12
_diffrn_reflns_limit_k_max       68
_diffrn_reflns_limit_k_min       -58
_diffrn_reflns_limit_l_max       7
_diffrn_reflns_limit_l_min       -7
_diffrn_reflns_number            7353
_diffrn_reflns_point_group_measured_fraction_full 0.996
_diffrn_reflns_point_group_measured_fraction_max 0.996
_diffrn_reflns_theta_full        25.242
_diffrn_reflns_theta_max         27.484
_diffrn_reflns_theta_min         3.054
_exptl_absorpt_coefficient_mu    5.965
_exptl_absorpt_correction_T_max  0.912427
_exptl_absorpt_correction_T_min  0.551183
_exptl_absorpt_correction_type   numerical
_exptl_absorpt_process_details
;               
 (NUMABS; "Higashi," 1999)            
;
_exptl_crystal_colour            'pale green'
_exptl_crystal_density_diffrn    3.831
_exptl_crystal_description       platelet
_exptl_crystal_F_000             3425
_exptl_crystal_size_max          0.161
_exptl_crystal_size_mid          0.155
_exptl_crystal_size_min          0.016
_refine_diff_density_max         1.814
_refine_diff_density_min         -3.039
_refine_diff_density_rms         0.351
_refine_ls_abs_structure_details
;
 Refined as an inversion twin.
;
_refine_ls_abs_structure_Flack   0.52(10)
_refine_ls_extinction_coef       .
_refine_ls_extinction_method     none
_refine_ls_goodness_of_fit_ref   1.046
_refine_ls_hydrogen_treatment    undef
_refine_ls_matrix_type           full
_refine_ls_number_parameters     122
_refine_ls_number_reflns         1782
_refine_ls_number_restraints     1
_refine_ls_restrained_S_all      1.045
_refine_ls_R_factor_all          0.1150
_refine_ls_R_factor_gt           0.0785
_refine_ls_shift/su_max          0.149
_refine_ls_shift/su_mean         0.029
_refine_ls_structure_factor_coef Fsqd
_refine_ls_weighting_details
'w=1/[\s^2^(Fo^2^)+(0.0916P)^2^] where P=(Fo^2^+2Fc^2^)/3'
_refine_ls_weighting_scheme      calc
_refine_ls_wR_factor_gt          0.1942
_refine_ls_wR_factor_ref         0.2203
_reflns_Friedel_coverage         0.827
_reflns_Friedel_fraction_full    1.000
_reflns_Friedel_fraction_max     0.999
_reflns_number_gt                1048
_reflns_number_total             1782
_reflns_threshold_expression     'I > 2\s(I)'
_cod_data_source_file            JSSC-2015-228-258.cif
_cod_data_source_block           2
_cod_database_code               1561906
_shelx_space_group_comment
;
The symmetry employed for this shelxl refinement is uniquely defined
by the following loop, which should always be used as a source of
symmetry information in preference to the above space-group names.
They are only intended as comments.
;
_iucr_refine_instruction_details
;
TITL   Fdd2 No.43   M140522_E  Ba0.99Eu0.01Al3Si4N9
CELL   0.71073 10.028 53.353  5.9215   90.000   90.000   90.000
ZERR   16        0.002  0.009  0.0011    0.000    0.000    0.000
LATT   -4
SYMM   -X,-Y,+Z
SYMM   1/4-X,1/4+Y,1/4+Z
SYMM   3/4+X,3/4-Y,1/4+Z
SFAC      N    Al  SI   BA      Eu
UNIT     144   48  64   15.84  0.16
L.S.      8
acta
rem     2  22  -2      24468.83       7541.89       8.23       0.054       1.76
rem     4   2   4      36872.87          8.62       7.06       0.002       1.27
rem     4  36   0      10529.54       1902.21       6.26       0.027       1.28
rem     4   4   0      17535.15       2184.77       5.70       0.029       2.46
rem     2  24   0       4632.51        634.73       5.26       0.016       2.03
rem     6   0   6      80988.22          7.22       5.22       0.002       0.85
 
omit 2 22 -2
omit 4 2 4
omit 4 36 0
omit 4 4 0
omit 2 24 0
omit 6 0 6

EXYZ  BA1 EU1
EADP  BA1 EU1

EXYZ  Si1 Al1
EADP  Si1 Al1
EXYZ  Si2 Al2
EADP  Si2 Al2
EXYZ  Si3 Al3
EADP  Si3 Al3
EXYZ  Si4 Al4
EADP  Si4 Al4
EXYZ  Si51 Al51
EADP  Si51 Al51  Si52 Al52
EXYZ  Si52 Al52
 
EXYZ  Si61 Al61
EADP  Si61 Al61 Si62 Al62
EXYZ  Si62 Al62
 
EXYZ  Si71 Al71
EADP  Si71 Al71 Si72 Al72
EXYZ  Si72 Al72
 
EADP  N41 N42
EADP  N51 N52
EADP  N61 N62
EADP  N71 N72
EADP  N81 N82
EADP  N91 N92
 
twin
WGHT      0.0916      0.0000 
BASF   0.51980
FVAR       0.04519
BA1   4    0.124889    0.182782    0.509991    10.99000    0.01104    0.08249 =
         0.01650   -0.00306    0.00056    0.00023
EU1   5    0.124889    0.182782    0.509991    10.01000    0.01104    0.08249 =
         0.01650   -0.00306    0.00056    0.00023
SI1   3    0.125134    0.115185    0.010212    10.57143    0.00770    0.01573 =
         0.01247    0.00260    0.00520    0.00126
AL1   2    0.125134    0.115185    0.010212    10.42857    0.00770    0.01573 =
         0.01247    0.00260    0.00520    0.00126
SI2   3    0.125352    0.114272    0.508988    10.57143    0.00899    0.01213 =
         0.01051    0.00211   -0.00225    0.00067
AL2   2    0.125352    0.114272    0.508988    10.42857    0.00899    0.01213 =
         0.01051    0.00211   -0.00225    0.00067
SI3   3    0.196093    0.067399    0.255061    10.57143    0.00756    0.02640 =
         0.01216   -0.00133    0.00797    0.00083
AL3   2    0.196093    0.067399    0.255061    10.42857    0.00756    0.02640 =
         0.01216   -0.00133    0.00797    0.00083
SI4   3    0.303692    0.182668    0.007788    10.57143    0.00526    0.02469 =
         0.00847   -0.00187   -0.00467    0.00433
AL4   2    0.303692    0.182668    0.007788    10.42857    0.00526    0.02469 =
         0.00847   -0.00187   -0.00467    0.00433
SI51  3    0.160938    0.016195    0.005305    10.28571    0.01338
AL51  2    0.160938    0.016195    0.005305    10.21429    0.01338
SI52  3    0.087377    0.016582    0.011410    10.28571    0.01338
AL52  2    0.087377    0.016582    0.011410    10.21429    0.01338
SI61  3    0.087225    0.016546    0.502903    10.28571    0.01552
AL61  2    0.087225    0.016546    0.502903    10.21429    0.01552
SI62  3    0.160942    0.016389    0.509120    10.28571    0.01552
AL62  2    0.160942    0.016389    0.509120    10.21429    0.01552
SI71  3    0.100637    0.220192    0.015729    10.28571    0.01638
AL71  2    0.100637    0.220192    0.015729    10.21429    0.01638
SI72  3    0.151794    0.220380    0.013309    10.28571    0.01638
AL72  2    0.151794    0.220380    0.013309    10.21429    0.01638
N1    1    0.123821    0.081678    0.021533    11.00000    0.01474
N2    1    0.124636    0.080943    0.531676    11.00000    0.00817
N3    1    0.124092    0.186081    0.006177    11.00000    0.01319
N41   1    0.040819    0.126362    0.258441    10.50000    0.02293
N42   1    0.207657    0.122455    0.271398    10.50000    0.02293
N51   1    0.293389    0.127237    0.006136    10.50000    0.01548
N52   1   -0.047296    0.123576    0.511125    10.50000    0.01548
N61   1    0.342101    0.012934    0.016184    10.50000    0.02275
N62   1    0.409840    0.014180    0.013670    10.50000    0.02275
N71   1    0.126872    0.034579    0.250562    10.50000    0.01221
N72   1    0.161569    0.034273    0.275396    10.50000    0.01221
N81   1    0.092357    0.237360    0.236460    10.50000    0.02221
N82   1    0.163001    0.235542    0.245328    10.50000    0.02221
N91   1    0.135143    0.285612   -0.004394    10.50000    0.01974
N92   1    0.157546    0.282948    0.017633    10.50000    0.01974
HKLF      4
END  
;
_shelx_res_file
;

    shelx.res created by SHELXL-2014/7

TITL   Fdd2 No.43   M140522_E  Ba0.99Eu0.01Al3Si4N9
CELL   0.71073 10.028 53.353  5.9215   90.000   90.000   90.000
ZERR   16        0.002  0.009  0.0011    0.000    0.000    0.000
LATT   -4
SYMM   -X,-Y,+Z
SYMM   1/4-X,1/4+Y,1/4+Z
SYMM   3/4+X,3/4-Y,1/4+Z
SFAC      N    Al  SI   BA      Eu
UNIT     144   48  64   15.984  0.016
L.S.      8
acta
rem     2  22  -2      24468.83       7541.89       8.23       0.054       1.76
rem     4   2   4      36872.87          8.62       7.06       0.002       1.27
rem     4  36   0      10529.54       1902.21       6.26       0.027       1.28
rem     4   4   0      17535.15       2184.77       5.70       0.029       2.46
rem     2  24   0       4632.51        634.73       5.26       0.016       2.03
rem     6   0   6      80988.22          7.22       5.22       0.002       0.85

omit 2 22 -2
omit 4 2 4
omit 4 36 0
omit 4 4 0
omit 2 24 0
omit 6 0 6

EXYZ  BA1 EU1
EADP  BA1 EU1

EXYZ  Si1 Al1
EADP  Si1 Al1
EXYZ  Si2 Al2
EADP  Si2 Al2
EXYZ  Si3 Al3
EADP  Si3 Al3
EXYZ  Si4 Al4
EADP  Si4 Al4
EXYZ  Si51 Al51
EADP  Si51 Al51  Si52 Al52
EXYZ  Si52 Al52

EXYZ  Si61 Al61
EADP  Si61 Al61 Si62 Al62
EXYZ  Si62 Al62

EXYZ  Si71 Al71
EADP  Si71 Al71 Si72 Al72
EXYZ  Si72 Al72

EADP  N41 N42
EADP  N51 N52
EADP  N61 N62
EADP  N71 N72
EADP  N81 N82
EADP  N91 N92

twin
WGHT    0.091600
BASF   0.51885
FVAR       0.04498
BA1   4    0.124889    0.182780    0.510003    10.99000    0.01092    0.08226 =
         0.01634   -0.00308    0.00056    0.00025
EU1   5    0.124889    0.182780    0.510003    10.01000    0.01092    0.08226 =
         0.01634   -0.00308    0.00056    0.00025
SI1   3    0.125122    0.115183    0.010119    10.57143    0.00758    0.01551 =
         0.01212    0.00263    0.00528    0.00133
AL1   2    0.125122    0.115183    0.010119    10.42857    0.00758    0.01551 =
         0.01212    0.00263    0.00528    0.00133
SI2   3    0.125321    0.114272    0.508914    10.57143    0.00881    0.01186 =
         0.01021    0.00215   -0.00229    0.00080
AL2   2    0.125321    0.114272    0.508914    10.42857    0.00881    0.01186 =
         0.01021    0.00215   -0.00229    0.00080
SI3   3    0.196063    0.067403    0.255253    10.57143    0.00746    0.02583 =
         0.01217   -0.00137    0.00792    0.00083
AL3   2    0.196063    0.067403    0.255253    10.42857    0.00746    0.02583 =
         0.01217   -0.00137    0.00792    0.00083
SI4   3    0.303674    0.182670    0.007953    10.57143    0.00495    0.02439 =
         0.00831   -0.00186   -0.00458    0.00434
AL4   2    0.303674    0.182670    0.007953    10.42857    0.00495    0.02439 =
         0.00831   -0.00186   -0.00458    0.00434
SI51  3    0.160803    0.016198    0.005261    10.28571    0.01311
AL51  2    0.160803    0.016198    0.005261    10.21429    0.01311
SI52  3    0.087329    0.016584    0.011386    10.28571    0.01311
AL52  2    0.087329    0.016584    0.011386    10.21429    0.01311
SI61  3    0.087206    0.016557    0.502781    10.28571    0.01525
AL61  2    0.087206    0.016557    0.502781    10.21429    0.01525
SI62  3    0.160852    0.016389    0.509078    10.28571    0.01525
AL62  2    0.160852    0.016389    0.509078    10.21429    0.01525
SI71  3    0.100633    0.220197    0.015650    10.28571    0.01608
AL71  2    0.100633    0.220197    0.015650    10.21429    0.01608
SI72  3    0.151754    0.220383    0.013282    10.28571    0.01608
AL72  2    0.151754    0.220383    0.013282    10.21429    0.01608

N1    1    0.123688    0.081684    0.021197    11.00000    0.01462
N2    1    0.124538    0.080944    0.531409    11.00000    0.00792
N3    1    0.124096    0.186091    0.006198    11.00000    0.01320
N41   1    0.040990    0.126296    0.258848    10.50000    0.02279
N42   1    0.207522    0.122622    0.271277    10.50000    0.02279
N51   1    0.293222    0.127324    0.006084    10.50000    0.01510
N52   1   -0.047268    0.123543    0.511476    10.50000    0.01510
N61   1    0.342020    0.012969    0.016133    10.50000    0.02250
N62   1    0.409779    0.014106    0.014323    10.50000    0.02250
N71   1    0.127133    0.034550    0.250517    10.50000    0.01206
N72   1    0.161587    0.034292    0.275016    10.50000    0.01206
N81   1    0.092191    0.237316    0.236997    10.50000    0.02185
N82   1    0.163297    0.235591    0.245582    10.50000    0.02185
N91   1    0.135116    0.285612   -0.004503    10.50000    0.01934
N92   1    0.157436    0.282938    0.017245    10.50000    0.01934
HKLF      4

REM    Fdd2 No.43   M140522_E  Ba0.99Eu0.01Al3Si4N9
REM R1 =  0.0785 for    1048 Fo > 4sig(Fo)  and  0.1150 for all    1782 data
REM    122 parameters refined using      1 restraints

END

WGHT      0.0874      0.0000

REM Highest difference peak  1.814,  deepest hole -3.039,  1-sigma level  0.351
Q1    1   0.1256  0.1650 -0.0798  11.00000  0.05    1.81
Q2    1   0.1220  0.2018  0.0948  11.00000  0.05    1.58
Q3    1   0.1275  0.1535  0.0130  11.00000  0.05    1.45
Q4    1   0.1316  0.1646  0.0980  11.00000  0.05    1.42
Q5    1   0.1270  0.2089  0.0137  11.00000  0.05    1.27
Q6    1   0.1924  0.1569  0.4933  11.00000  0.05    1.22
Q7    1   0.0636  0.1923  0.1070  11.00000  0.05    1.19
Q8    1   0.1268  0.2015 -0.0718  11.00000  0.05    1.12
Q9    1   0.1209  0.0629  0.4931  11.00000  0.05    1.08
Q10   1   0.0630  0.1565  0.4940  11.00000  0.05    1.05
Q11   1   0.0656  0.2060  0.5274  11.00000  0.05    1.04
Q12   1   0.1859  0.2061  0.5815  11.00000  0.05    1.00
Q13   1   0.1320  0.1818  0.6831  11.00000  0.05    0.97
Q14   1   0.1939  0.1156  0.3332  11.00000  0.05    0.97
Q15   1   0.1881  0.1922  0.0953  11.00000  0.05    0.95
Q16   1   0.1731  0.2457  0.2997  11.00000  0.05    0.95
Q17   1   0.3076  0.1348 -0.0476  11.00000  0.05    0.94
Q18   1   0.1251  0.1833  0.3397  11.00000  0.05    0.92
Q19   1   0.0557  0.2986  0.0513  11.00000  0.05    0.88
Q20   1   0.3741  0.0142 -0.1583  11.00000  0.05    0.87
;
_shelx_res_checksum              2311
_shelx_hkl_file
;
   0   0  -2    2.46    2.45
   0   0  -2    1.48    0.82
   0   0   2    2.13    2.67
   0   0   4 4356.56  596.05
   0   0  -4 4625.85  588.18
   0   0  -4 4404.91  510.75
   0   0  -6    0.43   17.43
   0   0  -6   86.71   13.96
   0   2   2  303.16   32.50
   0  -2   2  303.39   34.07
   0  -2  -2  278.78   26.51
   0   2  -2  307.47   32.92
   0  -2  -2  305.95   29.40
   0  -2   4  204.40   21.06
   0  -2  -4    0.16   13.89
   0   2  -4  157.15   16.97
   0   2   4   -0.21   18.73
   0  -2  -6   95.63   14.48
   0   2  -6   89.90   13.80
   0  -2  -6  103.75   23.55
   0   2  -6  111.35   33.93
   0  -4   2   -1.24    1.68
   0   4   2    0.23    1.49
   0   4  -2    0.22    1.66
   0  -4  -2   -0.20    1.27
   0  -4  -4    1.55    3.68
   0   4   4    3.59    3.71
   0  -4   4    1.76    3.85
   0   4  -4    1.35    3.20
   0  -4  -6    1.53   16.50
   0   4  -6   -0.16   18.77
   0  -4  -6  107.59   12.63
   0   6   2 1275.50  112.25
   0  -6  -2 1350.76  120.85
   0  -6  -2 1280.97   99.88
   0  -6   2 1282.50  122.15
   0   6  -2 1314.80  124.98
   0   6   2 1217.01   84.25
   0  -6  -4    0.27    1.23
   0   6  -4   -0.09    0.45
   0   6  -4    0.37    1.58
   0  -6   4    0.03    2.06
   0   6   4   -0.82    1.70
   0   6  -6  338.18   32.57
   0   6  -6  369.20   60.08
   0  -6  -6  345.21   49.16
   0  -6  -6  390.05   51.50
   0   8   0  312.96   21.59
   0   8   0  278.94   25.69
   0  -8   2   -1.15    2.16
   0  -8  -2   -0.65    1.26
   0   8   2   -0.14    1.62
   0   8  -2   -0.40    2.20
   0  -8  -4  152.54   19.33
   0  -8  -4  144.60   21.35
   0   8  -4  157.16   26.32
   0  -8   4  180.79   32.65
   0   8   4  164.68   26.07
   0   8  -6   -1.07    3.22
   0  -8  -6    1.19    2.41
   0  10   0    0.94    1.88
   0  10   0    0.80    1.10
   0 -10  -2 2313.94  229.09
   0 -10  -2 2165.60  197.14
   0  10   2 1907.44  176.33
   0  10   2 2167.98  212.48
   0  10  -2 2119.51  221.21
   0 -10   2 2181.15  222.06
   0  10  -4    1.11    1.99
   0 -10   4    0.30    2.40
   0  10   4    0.15    1.93
   0 -10  -4   -0.25    1.32
   0 -10  -6  450.18   71.18
   0  10  -6  412.01   44.58
   0 -10  -6  471.58   46.67
   0  10  -6  477.49   74.70
   0  12   0   10.87    5.36
   0  12   0   11.66    3.00
   0  12   2    1.37    1.79
   0 -12   2   -3.74    2.24
   0 -12  -2   -0.53    1.45
   0  12  -2   -1.00    2.39
   0  12   4    9.45    5.55
   0 -12  -4    7.09    5.73
   0  12  -4    8.09    6.29
   0 -12  -4    6.76    5.38
   0 -12   4    8.99    7.48
   0  12  -6   -0.34    4.42
   0 -12  -6   -1.33    2.87
   0  14   0   -1.52    2.34
   0  14   0    0.65    1.15
   0 -14  -2  693.04   56.77
   0 -14  -2  738.24   51.26
   0 -14   2  756.52   71.30
   0  14   2  679.30   56.21
   0  14   2  758.62   58.66
   0  14  -2  754.44   73.54
   0  14   4   -3.13    2.27
   0 -14  -4   -0.18    1.60
   0 -14   4    2.50    3.18
   0  14  -4   -0.64    2.87
   0 -14  -6  316.04   40.56
   0  14  -6  341.07   63.18
   0  14  -6  323.37   34.83
   0 -14  -6  312.55   37.49
   0  16   0 1525.57  148.92
   0  16   0 1681.90  129.36
   0  16   2    0.91    0.85
   0 -16   2   -2.47    1.37
   0 -16  -2   -0.05    0.69
   0 -16  -2    0.12    1.12
   0  16  -2    0.70    1.42
   0 -16  -4  608.39   66.41
   0 -16  -4  623.83   61.38
   0  16  -4  646.99   79.36
   0 -16  -6   -0.00   10.62
   0 -16  -6   86.33   11.32
   0  16  -6   -0.53   19.04
   0  18   0   -0.39    5.04
   0  18   0   54.28    7.30
   0 -18  -2    1.42    2.38
   0  18  -2    3.00    2.93
   0  18   2    2.19    1.62
   0  18   2    0.70    2.35
   0 -18   2    2.45    3.09
   0 -18  -2    2.30    1.32
   0  18  -4   -1.85    3.60
   0 -18  -4   -0.89    2.35
   0 -18  -6    3.73    4.77
   0  18  -6    2.30    2.19
   0  18  -6    0.38    6.28
   0 -18  -6    1.99    4.51
   0  20   0 2531.50  269.78
   0  20   0 2796.56  252.89
   0 -20  -2   -0.26    1.58
   0  20  -2   -0.88    1.70
   0  20   2    0.20    1.46
   0 -20  -2   -0.33    0.84
   0  20   4  838.94   64.89
   0 -20  -4  917.26   82.93
   0  20  -4  966.19  110.37
   0 -20  -4  931.51   85.97
   0 -20  -6    1.10    1.71
   0 -20  -6   -0.08    2.00
   0  20  -6   -1.15    3.46
   0  20  -6   -0.41    0.69
   0  22   0   -0.38    1.43
   0  22   0   -0.55    0.77
   0  22   0    0.17    0.55
   0  22  -2  311.97   33.33
   0 -22  -2  308.65   17.64
   0 -22  -2  307.79   32.67
   0  22   2  281.48   30.03
   0  22   4  138.41   15.53
   0  22  -4   -3.77   19.55
   0 -22  -4  171.30   16.03
   0 -22  -4   -0.30   11.44
   0  22  -6   98.46   34.31
   0 -22  -6   99.49   24.20
   0 -22  -6   96.67   21.95
   0  24   0  762.15   44.46
   0  24   0  679.86   65.37
   0  24   0  734.94   48.93
   0  24  -2   -1.04    2.17
   0  24   2   -0.03    2.17
   0 -24  -2    0.36    0.70
   0 -24  -2   11.34    2.31
   0 -24  -4  434.49   40.27
   0  24  -4  433.46   59.42
   0  24   4  392.17   45.23
   0 -24  -4  457.87   48.86
   0  24  -6   -2.19    8.37
   0 -24  -6   12.58    5.70
   0 -24  -6    0.23    5.48
   0  26   0    0.95    2.34
   0  26   0    0.16    0.88
   0  26   0    0.43    0.84
   0  26  -2    1.16    3.04
   0  26   2    0.69    2.39
   0 -26  -2    1.30    0.59
   0 -26  -2    1.96    2.52
   0  26  -4   -1.95    7.59
   0 -26  -4   55.20    6.70
   0 -26  -4    1.47    4.09
   0  26   4   -1.37    5.69
   0  26  -6    1.94    3.48
   0 -26  -6   -1.54    2.40
   0 -26  -6   -0.11    1.62
   0  28   0  159.48   14.09
   0  28   0  151.85   11.55
   0  28   0  149.63   20.47
   0  28  -2   -1.37   11.43
   0  28   2   88.74   14.42
   0 -28  -2  134.94   15.28
   0 -28  -4  112.66   20.12
   0  28   4   81.69   17.57
   0 -28  -4   93.88   12.55
   0  28  -4  105.81   23.03
   0 -28  -6    1.58    3.74
   0  28  -6   -3.91    5.14
   0 -28  -6   -1.83    3.11
   0  30   0    0.21    0.92
   0  30   0   -0.57    1.53
   0  30   0    0.37    0.75
   0 -30  -2 3496.92  416.42
   0  30   2 3339.58  406.97
   0  30  -2 3378.57  386.59
   0 -30  -4   19.44    3.99
   0  30   4    0.69    3.43
   0 -30  -4   -0.74    2.03
   0  30  -4   -0.95    4.21
   0 -30  -6 1183.09  140.34
   0 -30  -6 1020.49  100.52
   0  30  -6 1135.63  167.58
   0  32   0   40.04    6.06
   0  32   0   36.50    9.86
   0  32   0   38.61    4.73
   0 -32  -2  101.08   14.70
   0  32   2   98.16   15.31
   0  32  -2   -0.52    9.98
   0 -32  -4   17.59    8.25
   0  32   4   14.94    7.36
   0 -32  -4   14.00    4.72
   0  32  -4    7.54    8.59
   0  32  -6   -2.95   18.47
   0 -32  -6  174.85   20.27
   0 -32  -6    0.37   10.30
   0  34   0   -0.45    0.81
   0  34   0   -0.07    1.80
   0  34   0   -0.21    0.96
   0 -34  -2   27.40   12.28
   0  34   2   37.21   12.16
   0  34  -2   30.86    8.06
   0 -34  -4    0.02    3.80
   0  34  -4   -2.03    3.68
   0  34   4   -0.79    3.46
   0 -34  -4   -1.78    1.44
   0 -34  -6    3.76    5.16
   0  34  -6    3.63    6.32
   0 -34  -6    1.51    3.47
   0  36   0  369.12   41.77
   0  36   0  383.49   23.33
   0  36   0  394.17   27.74
   0  36  -2    0.49    2.11
   0 -36  -2   -0.14    2.54
   0  36   2    0.57    2.48
   0  36   4  185.89   31.58
   0 -36  -4  212.59   35.80
   0 -36  -4  181.58   13.32
   0  36  -4  196.62   33.40
   0 -36  -4  174.28   11.16
   0  36  -6    1.77    7.35
   0 -36  -6   -2.75    4.66
   0  38   0   -0.58    1.91
   0  38   0   -0.01    0.68
   0  38   0    0.01    0.61
   0  38  -2   25.58    7.06
   0  38   2   23.92   11.83
   0 -38  -4    0.28    0.67
   0  38  -4   -0.16    3.31
   0  38   4   -0.08    2.60
   0 -38  -4    1.34    2.88
   0  38  -6    9.39   10.20
   0 -38  -6    7.74    9.33
   0  40   0  397.66   24.56
   0  40   0  408.30   46.68
   0  40   0  431.80   26.90
   0  40  -2   -0.11    1.61
   0  40   2   -1.13    2.77
   0  40  -2   -0.53    1.87
   0  40   4  219.86   38.80
   0 -40  -4  258.63   46.37
   0  40  -4  243.74   39.63
   0 -40  -6   -0.79    4.41
   0  40  -6   -0.99    4.62
   0  42   0    0.84    0.86
   0  42   0    0.05    1.11
   0  42   0   -0.27    2.27
   0  42   2   66.63   20.29
   0  42  -2   70.35   16.37
   0  42  -2   69.97   13.34
   0 -42  -4    1.27    2.68
   0  42   4   -1.45    2.27
   0  42  -4    0.19    2.06
   0 -42  -6   22.70   15.01
   0  42  -6   17.28   15.07
   0  44   0  132.12   23.28
   0  44   0  143.17   10.86
   0  44   0  144.05   10.74
   0  44  -2    0.14    1.96
   0  44  -2    0.57    2.29
   0  44   2    0.04    2.60
   0 -44  -4  121.76   31.91
   0  44   4   89.33   26.18
   0  44  -4   98.37   23.40
   0  46   0    0.09    0.81
   0  46   0    0.19    0.61
   0  46   0    0.20    1.81
   0  46  -2   89.03   14.05
   0  46   2   88.82   24.21
   0  46  -2   94.14   16.71
   0  46  -4    0.98    2.50
   0  46   4   -0.59    2.92
   0  48   0   26.85    3.49
   0  48   0   23.59    9.90
   0  48   0   23.41    4.09
   0  48  -2    0.82    1.35
   0  48   2   -0.32    2.28
   0  48  -2    0.15    0.78
   0  48  -2   -0.67    1.60
   0  48  -4    9.29    7.97
   0  48   4   12.77    9.54
   0  50   0   -0.96    2.10
   0  50   0   -0.10    0.80
   0  50   0    0.64    0.65
   0  50  -2  204.56   23.42
   0  50  -2  197.02   31.46
   0  50  -2  205.11   36.28
   0  50   2  182.11   37.10
   0  50  -4   -0.41    2.55
   0  50  -4    0.24    1.48
   0  50   4   -0.10    2.35
   0  52   0   16.24    8.49
   0  52  -2    0.12    2.12
   0  52  -2   -0.06    1.50
   0  52  -2   -0.67    1.96
   0  52   2   -1.06    2.73
   0  52   4   11.49    9.80
   0  52  -4    8.44    7.66
   0  54   0   -0.61    2.66
   0  54  -2  204.31   29.52
   0  54  -2  195.08   23.80
   0  54  -2  213.43   30.48
   0  54   2  192.52   38.82
   0  54  -4   -5.60    2.98
   0  54  -4   -0.07    4.90
   0  54   4    2.51    6.36
   0  56   0    1.35    3.27
   0  56  -2    0.17    2.04
   0  56   2   -0.39    2.81
   0  56  -2    0.27    2.01
   0  56  -2    0.75    2.01
   0  56   4    1.18    4.77
   0  56  -4   -0.22    3.58
   0  56  -4    1.88    2.12
   0  58   0    3.81    5.02
   0  58   2   21.85   11.73
   0  58  -2   16.64    6.26
   0  58  -2   18.09    6.44
   0  58  -2   22.29   11.73
   0  58  -4   -2.53    2.48
   0  58  -4   -0.42    5.75
   0  58   4   -1.56    5.72
   0  60   0  377.82   53.98
   0  60   2    0.34    2.07
   0  60  -2   -0.33    1.50
   0  60  -2    0.19    1.48
   0  62   0    3.11    4.88
   0  62   2   21.42   10.94
   0  62  -2   13.82    5.54
   0  62  -2   11.93    7.71
   0  64   2   -0.54    2.62
   0  64  -2    0.14    1.74
   0  64  -2   -0.15    1.37
   0  66   2    2.32    5.50
   1   1   1   40.12    5.45
   1  -1  -1   51.69    8.89
  -1  -1   1   67.47    9.34
  -1   1  -1   62.36    5.42
  -1   1   1   52.96    8.80
  -1  -1  -1   54.62    8.65
   1  -1   1   58.35    3.21
   1   1  -1   64.41    9.17
  -1   1  -3   45.98   11.10
   1  -1  -3   36.22    4.43
   1  -1  -3   52.81    9.92
  -1  -1   3   15.64   11.09
  -1   1   3   50.48   11.02
   1   1  -3   13.25   10.32
  -1  -1  -3   95.32    7.74
  -1  -1  -3   54.32   10.47
  -1   1  -5   12.66   12.15
   1  -1  -5   52.46    7.47
  -1  -1   5   28.42   15.05
  -1   1  -5   47.36    8.36
   1  -1  -5   17.10   11.33
   1   1  -5   52.27   10.40
  -1  -1  -5    7.21   15.81
   1   1  -5   20.43   11.80
  -1  -1  -5   23.81    9.33
  -1   1   5   22.45   15.22
   1  -1  -7    1.19   13.14
  -1   1  -7    7.75   10.06
  -1   1  -7   12.00    5.02
   1  -1  -7    7.28    8.22
  -1  -1  -7   18.10    5.37
  -1  -1  -7   11.90   13.36
   1   1  -7    2.38    9.88
   1   1  -7   10.49    5.93
   1   3   1   90.32    7.03
   1  -3  -1   81.63   10.18
  -1  -3   1   66.50   11.94
  -1   3   1   88.58   14.82
   1   3  -1   63.97   12.02
  -1  -3  -1   96.69    8.80
  -1  -3   3   58.16   14.59
  -1   3  -3   60.57   14.97
  -1   3  -3  108.87    7.92
   1  -3  -3  109.82   10.46
   1  -3  -3   37.58   11.72
  -1  -3  -3   39.04   12.34
  -1  -3  -3   73.90    8.19
  -1   3   3   29.27   13.78
   1   3  -3   67.04   13.72
  -1  -3   5   22.02   17.71
  -1   3  -5   72.37    9.56
   1  -3  -5   51.68    9.09
   1  -3  -5   16.66   17.62
  -1   3  -5   22.46   14.92
   1   3  -5   70.87    8.90
   1   3  -5   16.15   14.22
  -1   3   5   26.99   17.94
  -1  -3  -5   48.25   11.65
  -1  -3  -5   27.63   13.28
   1  -3  -7   12.55    6.34
  -1   3  -7    8.90   10.52
  -1   3  -7   11.95    6.55
   1  -3  -7   10.00    9.39
   1   3  -7   12.63   10.21
  -1  -3  -7   14.25    7.47
  -1  -3  -7   11.98    9.54
   1   3  -7    8.50    5.99
   1   5   1  101.01    9.92
   1  -5  -1   69.69   13.83
   1  -5  -1   78.31   11.18
  -1  -5   1  121.06   13.27
  -1  -5  -1  104.41   10.27
  -1  -5  -1  112.83   16.67
   1   5  -1  121.61   13.84
  -1   5   1   79.16   11.09
   1  -5  -3  161.97   16.25
  -1  -5   3   75.63   16.83
  -1   5  -3   31.24   17.65
  -1   5  -3  121.41    9.00
   1  -5  -3   79.32   13.07
   1   5  -3   67.09   16.17
  -1   5   3   85.23   15.76
  -1  -5  -3   99.80   13.80
  -1  -5  -3   65.30   13.54
   1  -5  -5    7.03   13.38
  -1   5  -5   84.35    9.89
  -1   5  -5   49.26   16.70
   1  -5  -5   72.53   10.71
  -1  -5   5   25.98   19.12
   1   5  -5   89.50   10.04
  -1  -5  -5   29.68   13.79
  -1  -5  -5   50.81    8.78
   1   5  -5    8.94   16.15
  -1   5   5   17.49   18.85
  -1   5  -7    2.65   11.94
   1  -5  -7   16.77   10.09
   1  -5  -7   30.27    7.85
  -1   5  -7    5.98    6.94
  -1  -5  -7   10.96    8.61
  -1  -5  -7    4.62   10.13
   1   5  -7   20.46    8.70
   1   5  -7   13.26   11.60
   1  -7  -1  167.00   16.85
   1   7   1  180.91   22.64
   1  -7  -1  148.91   14.07
  -1  -7   1   96.73   16.57
  -1  -7  -1  182.39   15.55
  -1  -7  -1  178.80   18.77
  -1   7   1  132.26    9.75
  -1   7   1  181.56   14.27
   1   7  -1   97.64   17.59
   1  -7  -3  152.06   11.00
   1   7   3   59.90    5.37
  -1   7  -3   99.10   17.59
   1  -7  -3   67.37   11.39
  -1  -7   3  109.86   16.07
   1   7  -3  105.11   15.98
  -1  -7  -3   58.03   15.75
  -1  -7  -3   83.44   12.21
  -1   7   3   76.38   19.21
  -1   7  -5  112.50   10.83
  -1  -7   5   33.13   21.29
  -1   7  -5   34.24   19.35
   1  -7  -5   47.57   14.62
   1  -7  -5   96.44   17.08
  -1  -7  -5   50.73   14.77
   1   7  -5   64.46    6.66
   1   7  -5   21.63   18.63
  -1  -7  -5   68.03   14.02
  -1   7   5   69.61   20.56
  -1   7  -7   15.28   14.43
   1  -7  -7   -0.55   11.96
   1  -7  -7   20.97   12.69
  -1   7  -7    6.79    5.83
   1   7  -7   53.55    7.40
  -1  -7  -7   17.78    7.74
  -1  -7  -7   14.83   11.64
   1   7  -7   13.48   14.02
   1  -9  -1  171.60   17.65
   1   9   1  131.39   21.62
   1  -9  -1  305.36   20.94
  -1  -9   1  232.45   20.52
  -1  -9  -1  136.96   24.27
  -1   9   1  169.04   19.62
  -1   9   1  250.86   20.02
  -1  -9  -1  126.09   14.26
   1   9  -1  228.19   22.28
   1  -9  -3  109.03   14.31
  -1   9  -3  106.62   23.74
   1   9   3  129.57   12.60
  -1  -9   3   73.52   20.07
   1  -9  -3  205.56   15.46
  -1   9   3  116.73   24.39
  -1  -9  -3  139.39   13.10
   1   9  -3   61.98   19.67
  -1  -9  -3  130.34   14.67
  -1   9  -5  115.48   10.96
  -1  -9   5   88.43   24.08
   1  -9  -5  129.09   14.67
   1  -9  -5   59.17   16.01
  -1   9  -5   28.89   22.40
  -1  -9  -5   12.12   15.59
  -1   9   5   74.29   21.85
   1   9  -5   84.61   21.73
  -1  -9  -5   75.30   12.44
  -1   9  -7   27.96   18.52
   1  -9  -7    6.34   14.48
   1  -9  -7   20.63   12.14
  -1   9  -7   30.22   10.71
   1   9  -7    3.58   17.71
   1   9  -7   47.23    8.47
  -1  -9  -7   37.61   10.65
  -1  -9  -7   29.23   13.59
   1 -11  -1  287.80   24.65
  -1 -11   1  175.02   22.54
   1  11   1  265.03   29.79
   1 -11  -1  255.09   20.28
   1  11  -1  167.67   25.24
  -1  11   1  301.72   23.93
  -1 -11  -1  267.31   32.55
  -1 -11  -1  250.73   15.24
  -1  11   1  257.75   22.30
   1 -11  -3   80.32   18.04
   1  11   3  157.09   17.89
  -1  11  -3  139.79   24.43
  -1 -11   3  132.50   21.33
   1 -11  -3  235.50   17.31
  -1 -11  -3  125.00   19.07
  -1 -11  -3   95.58   13.59
   1  11  -3  127.35   20.97
  -1  11   3   80.11   23.94
  -1  11  -5  135.50   11.96
  -1  11  -5   47.11   26.38
   1 -11  -5  120.22   22.75
   1 -11  -5   78.88   23.89
  -1 -11   5   75.69   27.59
   1  11  -5   68.05   25.21
  -1 -11  -5   80.98   23.41
  -1 -11  -5  102.51   15.07
  -1  11   5   87.43   23.40
   1 -11  -7   18.42   10.51
   1 -11  -7   12.27   18.08
  -1  11  -7   64.87   10.03
  -1  11  -7   17.80   18.31
  -1 -11  -7   27.64   14.04
   1  11  -7   12.15   17.31
   1  11  -7   16.27   10.73
  -1 -11  -7   16.52   12.50
   1 -13  -1  126.96   13.47
   1  13   1  186.09   25.94
  -1 -13   1  222.52   25.71
   1 -13  -1  152.03   20.61
   1  13  -1  228.19   21.93
  -1  13   1  135.44   15.79
  -1 -13  -1  199.37   12.62
  -1  13   1  276.33   21.97
   1 -13  -3  236.25   18.86
  -1 -13   3  122.83   22.55
  -1  13  -3   68.62   24.54
   1 -13  -3  150.39   15.10
   1  13   3  155.54   14.57
  -1  13   3  147.58   24.44
  -1 -13  -3  129.82   18.47
  -1 -13  -3  148.26   16.34
   1  13  -3  105.02   23.20
   1 -13  -5   47.02   16.48
  -1 -13   5   75.09   27.46
  -1  13  -5  145.14   12.32
   1 -13  -5  164.49   18.70
  -1  13  -5   90.70   27.36
  -1  13   5   12.37   29.12
  -1 -13  -5  113.50   21.20
   1  13  -5   73.39   25.78
  -1 -13  -5   63.69   16.32
   1 -13  -7   19.95   11.08
  -1  13  -7    8.72    9.85
   1 -13  -7   23.83   13.28
  -1  13  -7    0.93   19.19
  -1 -13  -7   23.39   14.78
  -1 -13  -7    7.25   16.76
   1  13  -7   24.27   18.11
   1  13  -7   58.59    7.92
  -1 -15   1  125.40   18.02
   1 -15  -1  188.00   13.06
   1 -15  -1  197.26   20.30
   1  15   1  196.61   27.54
  -1 -15  -1  210.29   10.17
  -1  15   1  219.80   22.23
  -1  15   1  216.76   19.69
   1  15  -1  131.32   28.59
  -1 -15   3  135.12   17.60
  -1  15  -3  124.49   20.17
   1 -15  -3   88.93   14.42
   1  15   3   76.28   14.91
   1  15  -3  137.32   19.00
  -1  15   3   92.86   17.81
  -1 -15  -3   97.80   13.85
  -1 -15  -3   70.99    9.84
  -1 -15   5   40.52   23.58
   1 -15  -5  115.25   16.65
   1 -15  -5   68.75   14.44
  -1  15  -5   40.25   23.86
  -1 -15  -5  111.36   14.24
  -1  15   5   30.32   23.89
  -1 -15  -5   62.78   13.39
   1  15  -5   28.91   23.04
  -1  15  -7   10.65   19.59
   1 -15  -7   11.81   11.53
   1 -15  -7   12.45   12.84
  -1 -15  -7    6.93   11.83
   1  15  -7   66.02    8.46
   1  15  -7   17.64   19.01
  -1 -15  -7   21.58   11.62
   1  17   1   82.72   20.96
  -1 -17   1  148.38   19.22
   1 -17  -1  135.63   16.74
  -1  17  -1  150.66   13.68
   1 -17  -1  105.66    9.11
  -1  17   1  218.11   18.35
  -1  17   1  110.91   10.71
   1  17  -1  153.83   22.78
  -1 -17   3   58.24   16.83
  -1  17  -3  100.22   19.75
   1 -17  -3  148.62   15.98
   1 -17  -3   93.85   13.40
   1  17   3   93.88   11.93
  -1 -17  -3  115.71   14.67
  -1  17   3   80.57    8.81
  -1  17   3  110.76   16.76
  -1 -17  -3  109.52   12.43
   1  17  -3   21.82   18.76
  -1  17  -5   25.80   19.46
  -1 -17   5   34.77   18.90
   1 -17  -5   82.72   13.75
   1 -17  -5   43.74   14.99
  -1  17  -5   65.62    6.06
  -1 -17  -5   28.73   12.14
  -1  17   5   24.17   18.49
   1  17  -5   42.09   19.20
  -1 -17  -5   10.03   10.38
   1 -17  -7    4.90    7.77
  -1  17  -7   24.44   13.55
   1 -17  -7    6.04    8.14
  -1 -17  -7   35.03    7.74
  -1 -17  -7    3.99    7.85
   1  17  -7    7.28    7.42
   1  17  -7    3.27   12.97
   1 -19  -1  131.82   14.15
  -1  19  -1   63.08   15.10
   1  19   1   97.88   17.55
  -1 -19   1   63.35   10.78
   1 -19  -1   96.05    7.01
  -1  19  -1   67.12   14.93
  -1  19   1  102.51   14.00
  -1  19   1  105.26   10.13
   1  19  -1   65.63   17.97
   1 -19  -3  108.20   13.09
  -1  19  -3   75.43   15.77
   1  19   3   55.72   10.71
  -1 -19   3   73.82   13.81
   1 -19  -3   49.91    7.38
  -1 -19  -3   67.65   12.35
  -1 -19  -3   43.85    8.74
  -1  19   3   56.37   12.24
  -1  19   3   90.97   12.21
   1  19  -3   78.81   15.68
   1 -19  -5   32.88    8.78
  -1 -19   5   16.66   14.95
   1 -19  -5   19.26    7.49
  -1  19  -5   20.48   13.70
  -1  19   5   13.27    9.02
   1  19  -5   18.29   13.75
  -1 -19  -5   39.11   11.98
  -1 -19  -5   24.14    9.60
   1 -19  -7    6.49    7.56
   1 -19  -7    6.21    9.84
  -1  19  -7   12.38   12.90
   1  19  -7    9.06   12.29
  -1 -19  -7    4.84    6.92
   1  19  -7   14.67    6.80
  -1 -19  -7   17.47   10.10
  -1  21  -1   60.98   10.23
  -1 -21   1   58.23    9.66
  -1  21  -1   58.00    8.61
   1 -21  -1   31.61    9.73
   1 -21  -1   33.47    4.73
   1  21   1   47.20   11.49
  -1  21   1   41.83    9.34
  -1  21   1   34.05    4.95
   1  21  -1   66.44   11.55
   1 -21  -3   50.74    7.95
   1  21   3   27.21   12.84
  -1  21  -3   16.44   12.78
   1 -21  -3   68.45   10.01
  -1 -21   3   28.58   11.68
   1  21  -3   51.93   13.18
  -1 -21  -3   41.56    6.75
  -1  21   3   62.77   10.51
  -1  21   3   49.03    6.95
  -1 -21  -3   33.77   14.66
  -1 -21   5   14.35   11.51
  -1  21  -5   21.16   10.38
   1 -21  -5    3.42    5.28
   1 -21  -5    6.56    9.14
   1  21  -5    8.82   10.80
  -1 -21  -5   30.73    7.14
  -1 -21  -5   18.49    4.93
  -1  21   5    2.24    6.50
   1 -21  -7   11.15   12.64
  -1  21  -7    1.36   15.30
   1 -21  -7   23.26    8.56
  -1 -21  -7   29.83   11.03
  -1 -21  -7    5.97   12.59
   1  21  -7   11.51    6.39
   1  21  -7   10.90   15.54
   1 -23  -1   40.78    3.73
  -1  23  -1   19.52    9.47
  -1  23  -1    9.19    3.87
  -1  23  -1   30.43    6.37
  -1 -23   1   19.97    5.69
   1 -23  -1   46.66    8.39
   1  23   1   27.41    9.62
  -1  23   1   47.23    4.12
  -1  23   1   40.25    8.13
   1  23  -1   26.27    9.38
  -1  23  -3   24.08    7.82
  -1 -23   3   17.06    7.54
   1 -23  -3   14.01    6.32
   1  23   3   15.22    6.17
   1 -23  -3   13.63    4.38
  -1 -23  -3   20.49    3.82
  -1 -23  -3   19.88    6.92
  -1  23   3   14.10    6.27
   1  23  -3   17.93    7.97
  -1  23   3   13.27    5.24
  -1 -23   5    7.27    9.20
   1  23   5   -0.63    2.95
  -1  23  -5   13.17    8.30
   1 -23  -5   11.59    5.58
   1 -23  -5   10.46    5.54
  -1 -23  -5   20.47    5.67
  -1  23   5    8.21    5.51
   1  23  -5   12.05    8.56
  -1 -23  -5   11.55    5.13
   1 -23  -7    1.53    5.09
  -1  23  -7   -0.32    8.48
   1 -23  -7    7.68    4.38
  -1 -23  -7    2.34    5.14
  -1 -23  -7    7.50    4.10
  -1 -23  -7   -0.87    2.84
   1  23  -7    3.17    8.29
   1  23  -7    4.91    3.33
  -1  25  -1   32.75    5.34
  -1  25  -1   10.24    3.03
   1  25   1   12.28    7.81
  -1  25  -1   15.69    5.12
   1 -25  -1   21.78    3.06
  -1 -25   1   27.12    4.52
   1 -25  -1   23.97    6.89
  -1  25   1   17.99    7.43
  -1  25   1   24.11    3.79
   1  25  -1   25.89    7.30
  -1 -25   3    4.81    6.51
   1 -25  -3    5.93    3.55
   1 -25  -3   14.38    5.82
  -1  25  -3   18.86    6.70
   1  25   3   14.99    5.55
  -1 -25  -3   21.06    6.50
  -1 -25  -3   16.20    2.87
  -1  25   3   10.00    5.57
  -1 -25  -3   12.51    2.39
   1  25  -3    5.33    6.73
  -1  25   3    6.83    4.16
  -1  25  -5    5.97    7.72
   1 -25  -5   10.88    5.12
   1 -25  -5   12.59    5.73
   1  25   5    5.32    2.96
   1  25  -5   13.56    8.07
  -1 -25  -5   11.18    7.83
  -1 -25  -5    2.63    3.40
   1 -25  -7   17.21    6.81
  -1  25  -7    2.74    9.86
   1 -25  -7    3.98    6.48
   1  25  -7    0.41    9.91
  -1 -25  -7    0.82    6.33
  -1 -25  -7   16.32    6.80
   1  25  -7    0.96    3.93
  -1 -25  -7    4.37    3.21
   1  27   1   19.60    7.28
  -1 -27   1   14.42    5.87
  -1  27  -1    5.14    6.44
  -1  27  -1    9.09    4.49
  -1  27  -1    6.68    4.39
   1 -27  -1   22.38    6.63
  -1  27   1   27.29    3.37
   1  27  -1   21.25    6.46
  -1  27   1   22.65    7.11
   1 -27  -3    5.59    5.16
   1 -27  -3    2.79    2.67
   1  27   3    9.44    4.90
  -1  27  -3   13.29    7.69
  -1 -27   3    6.60    5.52
  -1  27   3    5.96    4.94
  -1 -27  -3   13.53    2.63
   1  27  -3    6.66    5.68
  -1 -27  -3   15.69    5.73
  -1  27   3    3.02    3.20
  -1 -27  -3    9.29    2.28
  -1  27  -5   -0.33    7.89
   1 -27  -5    8.77    5.03
   1  27   5    7.84    3.22
   1 -27  -5    7.33    5.92
  -1 -27  -5    3.22    4.55
  -1 -27  -5    9.55    6.10
   1  27  -5   12.57    8.20
   1 -27  -7    8.83    3.76
  -1  27  -7    7.00    7.72
   1 -27  -7    0.82    5.23
   1  27  -7    1.72    7.63
   1  27  -7    0.66    1.84
  -1 -27  -7    2.64    5.15
  -1 -27  -7    4.86    5.11
  -1 -27  -7    2.71    3.99
  -1  29  -1   20.60    4.61
  -1 -29   1   19.37    4.50
   1  29   1   11.12    7.54
  -1  29  -1   12.83    6.89
   1 -29  -1   20.05    7.24
  -1  29  -1   12.57    6.13
   1  29  -1   19.23    4.66
  -1  29   1   20.07    3.23
  -1  29   1   15.53    7.58
  -1 -29   3    6.87    7.46
   1  29   3   12.64    7.03
   1 -29  -3   10.63    3.49
  -1  29  -3   17.21    7.46
   1 -29  -3   11.85    7.43
  -1 -29  -3   20.11    2.64
   1  29  -3    3.32    7.70
  -1 -29  -3   17.33    7.99
  -1 -29  -3   19.15    2.57
  -1  29   3    9.34    3.79
  -1  29   3   12.14    6.90
   1  29   5    3.78    4.12
   1 -29  -5    0.29    3.41
  -1  29  -5    5.56    5.76
   1 -29  -5    6.31    4.53
  -1 -29  -5    2.92    4.75
  -1 -29  -5    4.98    3.24
   1  29  -5    5.96    5.96
  -1 -29  -5    2.47    1.55
   1 -31  -1   25.73    8.96
  -1  31  -1   29.18    5.45
   1  31   1   22.62    9.10
  -1  31  -1   21.08    6.33
  -1  31  -1   20.39    5.20
   1  31  -1   12.34    5.30
  -1  31   1   36.27    3.59
  -1  31   1   23.29    9.57
  -1  31  -3   14.81    5.54
   1  31   3    9.79    5.60
  -1 -31   3   18.19    6.28
   1 -31  -3   16.34    5.82
   1 -31  -3    9.36    2.51
  -1 -31  -3    5.42    1.46
  -1  31   3   11.35    5.12
  -1 -31  -3    3.13    1.75
   1  31  -3   18.92    5.73
  -1  31   3   15.24    2.68
  -1 -31  -3    8.83    6.71
   1 -31  -5    0.74    3.31
   1 -31  -5    8.06    6.80
   1  31   5   12.31    5.91
  -1  31  -5    8.67   10.78
  -1 -31  -5    7.58    4.20
  -1 -31  -5   12.39    6.81
   1  31  -5    1.41    8.07
  -1 -31  -5   10.35    3.28
  -1  33  -1   38.70    6.98
   1 -33  -1   10.74    8.98
   1  33   1   24.56    8.89
  -1  33  -1   34.64    6.43
  -1  33  -1   28.10    5.21
  -1  33   1   20.53    3.05
  -1  33   1   14.71    9.59
   1  33  -1   16.55    6.80
   1  33   3   15.48    9.50
   1 -33  -3   22.44    9.85
  -1  33  -3   11.60    8.72
   1 -33  -3   23.02    3.78
  -1  33   3   20.30    8.62
   1  33  -3   23.41    9.04
  -1 -33  -3   20.20   11.17
  -1  33   3   23.95    3.78
   1 -33  -5    5.80    6.13
   1  33   5    5.99    5.44
   1 -33  -5    1.59    3.68
  -1  33  -5   14.48    6.82
  -1 -33  -5    1.60    3.34
  -1 -33  -5    9.94    8.60
  -1 -33  -5    7.84    3.49
   1  33  -5    2.88    6.99
  -1  35  -1   11.86    7.70
   1  35   1   22.66   10.49
  -1  35  -1   15.20    7.86
   1 -35  -1   39.74   11.30
  -1  35  -1   11.66    7.91
  -1  35   1   36.23    3.12
  -1  35   1   29.54   11.22
  -1  35   1   34.54    3.06
   1  35  -1   29.42    7.61
   1 -35  -3    2.93    1.43
   1 -35  -3   13.61    5.73
   1  35   3   13.10    5.68
  -1  35  -3   22.33    4.99
  -1  35   3   10.56    5.06
   1  35  -3    9.60    5.08
   1 -35  -5    2.34    2.81
   1  35   5    2.70    4.74
  -1  35  -5    2.02    5.69
   1 -35  -5   12.44    5.30
  -1 -35  -5   -0.94    2.61
  -1 -35  -5    2.44    2.53
   1  35  -5   11.70    5.77
  -1 -35  -5    7.96    5.49
   1  37   1   18.38   11.95
  -1  37  -1   49.45    8.84
  -1  37  -1   25.10   12.08
  -1  37  -1   43.94    6.67
  -1  37   1   22.79   12.84
   1  37  -1   40.44    8.40
   1 -37  -3   22.20    9.90
   1  37   3   20.30   13.42
  -1  37  -3   19.37    8.18
  -1  37   3   17.15    8.72
   1  37  -3   11.32   11.10
  -1  37  -5    9.68    6.82
   1 -37  -5    4.17    3.32
   1 -37  -5   13.97    6.62
   1  37   5    7.61    5.67
   1  37  -5    2.56    6.77
  -1 -37  -5    9.68    7.35
  -1 -37  -5    7.12    2.72
  -1 -37  -5    2.66    2.89
  -1  37   5   -0.33    3.61
  -1  39  -1   29.15   10.40
  -1  39  -1   31.90    7.35
  -1  39  -1   34.62    7.51
   1  39   1   33.18    9.78
  -1  39   1   61.21   10.83
   1  39  -1   14.69   10.29
   1  39  -1   11.08    5.09
   1  39   3   11.41   17.32
  -1  39  -3   15.19   13.67
   1 -39  -3   27.94   12.66
  -1  39  -3   38.00    7.27
   1  39  -3   29.62    9.91
  -1  39   3   17.37   11.40
   1 -39  -5    1.35    2.97
   1 -39  -5   14.34    9.38
   1  39   5   15.72    6.05
  -1  39  -5   16.15    6.84
  -1 -39  -5   21.64    7.71
   1  39  -5    1.97    6.69
  -1  39   5   -1.60    3.77
  -1  41  -1   24.32    7.47
  -1  41  -1   23.12    6.94
   1  41   1   21.21    9.48
  -1  41  -1   26.91    7.02
   1  41  -1   18.52    6.67
   1  41  -1   23.17    9.35
  -1  41   1   19.12   10.36
   1 -41  -3   25.08   11.11
  -1  41  -3   14.52    8.10
   1  41   3   13.44   14.71
  -1  41  -3   13.54    8.24
   1  41  -3   24.72    8.18
  -1  41   3   18.06    9.73
   1 -41  -5    7.43    7.53
   1  41   5    7.26    6.65
  -1  41  -5    9.60    7.17
   1  41  -5    7.10    7.10
  -1  41   5    2.35    4.18
   1  43   1   15.54    7.69
  -1  43  -1    8.95    5.30
  -1  43  -1   10.09    6.00
  -1  43  -1    8.55    5.47
   1  43  -1   19.39    5.10
  -1  43   1   19.87    8.21
   1  43  -1   18.10    7.58
  -1  43  -3   17.34    4.22
  -1  43  -3   -0.19    3.44
   1 -43  -3    8.03    7.84
   1  43   3   11.53   10.27
  -1  43  -3   17.10    5.61
  -1  43   3    7.16    7.05
   1  43  -3    2.34    5.38
  -1  43  -5    2.77    6.18
   1  43   5    5.61    6.09
   1 -43  -5    7.50    6.92
   1  43  -5    8.00    6.18
  -1  43   5    0.88    3.84
   1  45   1    8.95    6.50
  -1  45  -1   12.12    4.44
  -1  45  -1    9.45    4.42
  -1  45  -1   11.01    4.86
   1  45  -1    9.06    6.43
  -1  45   1    7.18    6.96
   1  45  -1    4.13    4.14
   1  45   3    7.96    6.60
  -1  45  -3    5.07    4.92
  -1  45  -3    4.67    3.67
   1 -45  -3    9.56    7.30
  -1  45  -3    4.20    2.96
  -1  45   3    8.14    6.55
   1  45  -3    8.19    4.71
   1  45   5    3.60    6.54
   1 -45  -5    3.74    7.49
  -1  45  -5    3.73    6.39
  -1  45  -5    3.95    4.51
   1  45  -5    3.32    8.59
  -1  45   5    5.05    4.19
  -1  47  -1    3.35    2.29
  -1  47  -1    4.14    3.51
  -1  47  -1    4.81    3.08
   1  47   1    6.13    4.68
  -1  47   1    4.51    4.98
   1  47  -1    2.20    3.07
   1  47  -1    2.44    4.55
   1 -47  -3   -0.32    5.46
  -1  47  -3    3.44    4.60
  -1  47  -3    1.97    1.96
  -1  47  -3    1.89    3.48
   1  47   3    2.75    4.56
   1  47  -3    0.33    4.42
  -1  47   3    3.86    4.66
  -1  47  -5   -0.58    2.87
   1  47   5    2.84    4.82
  -1  47  -5    2.04    3.14
   1 -47  -5    2.47    5.37
  -1  47  -5    0.78    4.41
  -1  47   5    2.62    3.06
   1  47  -5    1.55    4.38
  -1  49  -1    1.41    3.17
   1  49   1    1.91    4.92
  -1  49  -1    1.16    2.24
  -1  49  -1    3.58    5.10
   1  49  -1    2.82    3.08
   1  49  -1    3.40    4.68
  -1  49   1    3.55    5.14
   1  49  -1    8.90    2.19
  -1  49  -3    1.78    2.45
  -1  49  -3    1.55    3.15
  -1  49  -3    3.30    3.05
   1  49   3    1.59    4.39
   1  49  -3   -0.09    3.04
  -1  49   3    2.28    4.57
  -1  49  -5    0.58    2.17
   1 -49  -5    2.09    2.73
   1  49   5   -0.58    3.38
  -1  49  -5   -1.97    1.38
   1  49  -5    1.13    2.13
  -1  49   5    0.95    1.56
  -1  51  -1    0.72    3.06
  -1  51  -1    2.12    1.82
   1  51   1    2.94    4.01
  -1  51  -1    3.68    2.41
  -1  51   1    1.56    4.21
   1  51  -1   -0.23    5.19
   1  51  -1    2.35    1.71
   1  51  -1    0.79    2.40
  -1  51  -3   -2.55    1.93
  -1  51  -3    1.47    1.57
  -1  51  -3    0.47    1.94
   1  51   3    0.20    2.78
  -1  51  -3    0.29    1.88
   1  51  -3    0.42    1.85
  -1  51   3    1.37    2.80
  -1  51  -5   -0.30    5.94
   1  51   5    1.02    9.80
   1 -51  -5    1.69    8.22
  -1  51  -5    8.63    3.80
  -1  51   5    1.13    4.53
   1  51  -5    0.29    5.93
  -1  53  -1    0.75    2.33
   1  53   1    1.12    3.82
  -1  53  -1    0.91    3.05
  -1  53  -1    0.06    2.32
  -1  53   1    1.21    4.14
   1  53  -1    2.77    2.17
  -1  53   1    1.99    3.85
   1  53  -1    4.54    2.21
   1  53  -1    0.52    3.71
   1  53   3    0.45    3.78
  -1  53  -3    0.78    2.97
  -1  53  -3    0.31    2.40
  -1  53  -3    2.14    2.61
   1  53  -3    1.21    2.83
  -1  53   3   -0.37    3.84
   1  53  -3    0.92    2.53
  -1  55  -1    1.17    2.38
   1  55   1    0.44    3.64
  -1  55  -1    1.08    2.83
  -1  55  -1    0.80    1.60
   1  55  -1   -0.31    2.02
   1  55  -1    5.12    2.02
   1  55  -1   -0.26    3.54
  -1  55   1    2.23    3.68
  -1  55  -3   -0.62    1.66
   1  55   3    0.32    2.09
  -1  55  -3    0.64    1.94
  -1  55  -3   -0.26    1.80
  -1  55   3    0.66    2.09
   1  55  -3    0.57    1.91
   1  55  -3   -0.47    1.47
  -1  57  -1    3.24    4.18
  -1  57  -1    2.50    3.38
  -1  57  -1    1.03    3.17
   1  57   1    2.68    5.37
   1  57  -1    4.58    5.31
   1  57  -1    5.87    2.85
  -1  57   1    3.73    5.38
   1  57  -1    5.96    2.91
  -1  57  -3    0.49    2.62
   1  57   3    2.18    3.98
  -1  57  -3    0.51    2.46
  -1  57   3    1.53    3.97
   1  57  -3    1.15    3.55
   1  59   1    5.86    5.25
  -1  59  -1    1.94    2.14
  -1  59  -1    6.78    2.94
  -1  59  -1    2.66    5.69
  -1  59   1    3.63    5.25
   1  59  -1    3.09    2.54
   1  59  -1    2.66    2.62
   1  59  -1    2.37    7.06
  -1  59  -3    2.75    2.95
  -1  59  -3    1.55    3.26
   1  59   3    3.75    4.90
  -1  59   3    2.90    4.81
   1  59  -3    1.99    3.05
   1  59  -3    0.63    1.79
  -1  61  -1    9.76    3.36
  -1  61  -1    4.49    5.01
  -1  61  -1    2.66    3.35
   1  61   1    4.18    6.24
   1  61  -1    2.68    6.15
  -1  61   1    0.55    6.19
   1  61   3    1.67    4.53
  -1  61  -3    0.31    3.60
  -1  61  -3    1.67    3.94
  -1  61   3    2.09    5.89
   1  61  -3   -0.01    2.66
   1  61  -3    2.11    2.86
   1  63   1    1.97    4.22
  -1  63   1    1.08    4.12
  -1  63  -3    0.23    3.75
  -1  63  -3   12.44    4.05
   1  63   3    0.31    6.55
  -1  63   3    2.32    6.13
   1  63  -3    0.35    3.81
   1  63  -3    0.12    5.53
  -1  65   1   -0.21    2.65
  -1  67   1    3.35    5.75
  -2   0   0    3.20    2.20
   2   0   0    2.31    2.32
  -2   0   2    0.31    1.35
  -2   0  -2    0.61    0.86
  -2   0  -2    0.46    0.86
   2   0  -2   -2.23    1.31
   2   0  -4   -0.11    1.84
  -2   0  -4   -0.15    1.11
  -2   0  -4    0.54    2.03
   2   0  -4    0.82    0.89
  -2   0   4   -0.27    2.10
  -2   0   6    5.98    6.52
   2   0  -6   -0.11    5.09
  -2   0  -6    3.81    5.04
   2   2   0   -0.02    1.31
  -2   2   0    0.49    1.34
  -2  -2   0    0.76    1.30
   2  -2   0    0.02    1.37
   2   2   2 1031.95   73.68
   2  -2  -2 1132.63  100.55
  -2   2  -2 1227.44   95.35
  -2   2  -2 1256.18   88.62
  -2  -2   2 1193.10  107.54
  -2  -2  -2 1219.08   95.84
   2   2  -2 1169.87  107.35
  -2  -2  -2 1262.05   92.40
  -2   2   2 1167.73  103.11
  -2  -2   4    0.46    1.66
   2  -2  -4   -0.67    1.40
  -2   2  -4   -0.41    1.65
  -2  -2  -4    0.61    0.97
   2   2  -4   -0.11    1.48
  -2   2   4    0.39    1.63
  -2  -2  -4   -0.41    1.51
  -2  -2   6  347.95   65.29
  -2   2  -6  340.72   34.45
  -2   2  -6  330.68   54.36
   2  -2  -6  327.79   52.11
   2  -2  -6  290.17   45.65
   2   2  -6  297.78   36.46
  -2  -2  -6  358.78   39.80
  -2   2   6  324.09   65.64
   2   2  -6  316.26   52.34
  -2  -2  -6  336.66   66.26
   2   4   0  115.05   13.26
   2  -4   0  126.31   15.29
  -2   4   0  125.53   14.56
  -2  -4   0  124.47   13.14
   2  -4  -2   -0.82    1.46
  -2   4  -2   -0.68    1.18
  -2  -4   2   -1.87    1.71
   2   4   2    0.40    0.80
  -2  -4  -2   -0.32    1.16
  -2  -4  -2   -0.63    1.53
   2   4  -2   -0.21    1.75
  -2   4   2   -0.48    1.52
  -2  -4   4   97.88   19.11
  -2   4  -4   86.70   10.44
  -2   4  -4   82.52   20.02
   2  -4  -4   89.24   16.35
   2  -4  -4   83.04   13.35
   2   4  -4   90.62   17.60
  -2  -4  -4   89.88    9.27
  -2  -4  -4   87.89   16.57
  -2   4   4   95.18   18.40
  -2   4  -6    1.33    2.34
  -2   4  -6    3.39    4.31
  -2  -4   6    9.00    5.05
   2  -4  -6    0.36    3.82
  -2  -4  -6   -0.81    3.70
  -2   4   6   -0.43    5.14
   2   4  -6    0.02    4.09
  -2   6   0    0.20    1.53
  -2  -6   0   -1.25    1.31
   2   6   0   -0.84    1.30
   2  -6   0   -0.17    1.51
  -2  -6   2   93.75   16.13
   2  -6  -2  115.98   14.00
   2   6   2  109.62   13.14
   2   6  -2  113.51   17.80
  -2   6   2   96.55   19.77
  -2  -6  -2  104.46   14.09
  -2  -6   4   -1.01    1.54
  -2   6  -4    0.29    1.68
   2  -6  -4   -0.04    1.25
  -2  -6  -4   -0.18    1.24
   2   6  -4    2.00    1.45
  -2   6   4    1.24    1.46
  -2  -6  -4   -1.19    1.10
   2  -6  -6   48.20    9.49
  -2   6  -6   23.01   14.43
  -2  -6   6   24.96   16.51
  -2   6  -6   21.64    7.00
   2  -6  -6   26.33   16.48
  -2   6   6   17.87   16.22
  -2  -6  -6   23.51   11.64
  -2  -6  -6   31.45   10.21
   2   6  -6   21.18   13.65
   2   6  -6   23.64    8.72
  -2   8   0   11.64    4.77
   2  -8   0   16.01    5.95
   2  -8   0   11.73    3.82
   2   8   0   13.25    5.82
  -2  -8   0   10.91    3.45
  -2  -8   2    0.81    1.30
   2   8   2   -0.35    1.07
   2  -8  -2   -0.35    1.04
  -2   8  -2    0.46    0.98
   2   8  -2   -0.32    1.38
  -2  -8  -2   -0.19    0.99
  -2   8   2    0.69    1.12
   2  -8  -4    0.99    2.51
  -2   8  -4    0.90    5.04
  -2   8  -4    0.75    1.11
  -2  -8   4    0.01    3.26
   2  -8  -4    5.22    2.27
  -2  -8  -4    1.33    2.48
  -2   8   4    1.29    3.05
  -2  -8  -4    2.39    2.43
   2   8  -4    2.16    3.05
   2  -8  -6    0.39    3.58
  -2   8  -6   -0.35    1.94
  -2   8  -6   -0.87    4.56
   2  -8  -6    7.19    2.93
  -2  -8   6    1.53    4.98
  -2   8   6   -4.41    4.72
  -2  -8  -6    3.39    2.45
   2   8  -6   -1.18    4.30
   2   8  -6    2.60    2.62
  -2  -8  -6    0.25    3.37
   2 -10   0   -0.03    0.81
   2 -10   0    0.03    1.19
  -2 -10   0    0.60    1.27
  -2  10   0   -0.03    1.29
   2  10   0   -0.26    1.00
  -2  10   0    0.38    0.50
   2 -10  -2  161.13   17.85
   2 -10  -2  191.91   22.05
   2  10   2  167.15   14.93
  -2 -10   2  154.56   20.99
   2  10  -2  188.49   22.96
  -2 -10  -2  171.81   15.40
  -2  10   2  163.19   17.88
   2 -10  -4    0.87    1.85
  -2 -10   4   -0.33    2.48
  -2  10  -4   -0.08    2.85
  -2  10   4    1.02    2.32
  -2 -10  -4   -1.63    1.49
  -2 -10  -4   -2.15    2.44
   2  10  -4   -0.49    2.37
  -2  10  -6    5.93    9.34
   2 -10  -6   10.51    6.78
  -2 -10   6    4.12    9.74
  -2  10  -6    5.06    3.53
   2 -10  -6    8.51    5.63
  -2 -10  -6    8.16    6.30
  -2 -10  -6    7.19    4.75
   2  10  -6   10.69    8.56
   2  10  -6   12.07    2.97
  -2  10   6    4.38    8.78
  -2  12   0 1217.38  105.19
   2 -12   0 1249.46   94.41
  -2  12   0 1412.12  115.36
   2 -12   0 1339.20  104.70
  -2 -12   0 1388.85  111.02
   2  12   0 1410.88  117.42
  -2 -12   2    1.21    1.67
  -2  12  -2    0.92    1.26
   2  12   2    0.97    1.30
   2 -12  -2    0.42    1.17
  -2  12   2    0.29    1.35
   2  12  -2   -0.59    1.84
  -2 -12  -2   -0.61    1.48
  -2  12  -4  578.82   73.25
   2 -12  -4  594.11   53.04
  -2 -12   4  594.88   66.99
   2 -12  -4  546.50   51.24
  -2  12  -4  498.48   29.30
   2  12   4  540.82   42.90
   2  12  -4  583.10   65.96
  -2  12   4  611.81   63.04
  -2 -12  -4  578.34   62.99
  -2 -12  -4  622.93   59.95
  -2  12  -6    0.05    1.06
  -2  12  -6   -0.37    3.09
   2 -12  -6    0.84    2.03
  -2 -12   6   -0.31    3.15
   2 -12  -6    2.04    2.52
  -2  12   6    0.62    2.66
   2  12  -6   -1.10    2.82
  -2 -12  -6   -0.84    1.93
   2  12  -6   -0.67    0.93
  -2 -12  -6   -0.51    2.19
  -2  14   0    0.43    1.15
   2  14   0    0.01    0.88
   2 -14   0   -0.12    0.95
  -2 -14   0    0.37    1.06
   2 -14  -2    8.07    3.99
   2 -14  -2    6.83    3.06
   2  14   2    9.08    3.93
  -2  14  -2    0.69    3.37
  -2 -14   2   12.42    4.59
  -2 -14  -2   14.56    2.65
  -2  14   2   15.25    4.96
   2  14  -2    8.33    5.09
  -2 -14   4   -2.59    3.91
   2 -14  -4   -0.68    1.88
  -2  14  -4   -2.11    3.26
  -2  14   4   -0.50    2.42
   2  14  -4   -0.20    2.86
  -2 -14  -4   -0.61    1.78
   2 -14  -6   -0.55    1.96
  -2 -14   6   -0.09    3.22
   2 -14  -6    1.05    2.83
  -2  14  -6    1.45    1.19
  -2  14  -6   -0.02    3.32
  -2 -14  -6    1.91    2.66
  -2 -14  -6   -2.02    1.33
  -2 -14  -6    2.34    2.42
  -2  14   6   -0.36    2.63
   2  14  -6    0.77    3.02
  -2  16   0  126.62   18.74
   2  16   0  120.21   14.05
   2 -16   0  115.32   15.78
   2 -16   0   99.99   11.07
  -2 -16   0  119.11   12.03
  -2  16   0  102.60   11.55
  -2  16  -2   -0.58    0.97
  -2 -16   2   -1.18    1.69
   2 -16  -2   -0.45    1.44
   2  16   2   -0.23    2.21
  -2  16  -2   -0.40    1.22
  -2 -16  -2   -0.22    1.15
  -2  16   2   -0.73    1.77
   2  16  -2   -0.21    1.91
   2 -16  -4   49.42   10.21
   2  16   4   45.09   10.47
  -2  16  -4   55.47   15.57
  -2  16  -4   50.24    3.37
  -2 -16   4   35.18   13.99
   2 -16  -4   52.13    9.03
  -2 -16  -4   49.11    9.85
  -2  16   4   55.12   11.24
  -2 -16  -4   54.29    8.38
  -2 -16  -4    8.34    5.34
   2  16  -4   48.92   14.24
  -2  16  -6   -1.43    2.95
  -2 -16   6   -0.07    2.93
   2 -16  -6   -0.88    1.74
  -2 -16  -6    0.45    1.61
   2  16  -6   -1.71    2.75
  -2 -16  -6   -1.32    1.64
  -2  16   6    1.26    2.99
  -2 -16  -6    0.82    1.10
   2 -18   0    6.35    1.66
  -2  18   0   -0.31    1.68
  -2  18   0    0.25    2.48
  -2 -18   0    0.11    1.48
   2  18   0    0.10    1.78
   2 -18   0    0.62    2.11
  -2  18  -2  531.83   45.92
  -2  18  -2  735.63   45.80
  -2 -18   2  734.98   62.19
   2 -18  -2  649.55   56.82
   2  18   2  703.34   75.58
   2 -18  -2  737.39   56.17
  -2 -18  -2  739.95   47.39
   2  18  -2  728.43   67.29
  -2  18   2  759.62   62.95
  -2  18   2  676.05   46.41
   2 -18  -4    7.11    2.17
  -2  18  -4   -0.73    3.09
   2 -18  -4   -0.09    2.32
   2  18   4   -0.32    1.66
  -2 -18   4   -0.51    2.78
  -2 -18  -4    0.55    2.18
  -2  18   4    0.65    2.88
   2  18  -4   -1.17    2.96
  -2 -18  -4    0.70    2.12
  -2 -18  -4    0.15    1.68
  -2  18  -6  252.24   59.58
   2 -18  -6  241.78   36.48
  -2 -18   6  259.05   58.35
   2 -18  -6  269.46   54.75
  -2 -18  -6  246.73   35.03
  -2  18   6  258.58   58.28
   2  18  -6  251.04   56.53
  -2 -18  -6  281.12   37.27
  -2 -18  -6  277.42   25.96
  -2  20   0   44.42    7.65
   2 -20   0   51.98    6.83
   2  20   0   51.71    7.68
  -2  20   0   55.66    8.06
   2 -20   0   54.35   11.33
  -2 -20   0   46.26    6.50
  -2  20  -2   -0.97    1.00
   2  20   2   -1.32    1.85
  -2  20  -2   -1.28    2.29
  -2 -20   2   -1.49    1.64
   2 -20  -2    0.74    1.24
  -2  20  -2   -1.22    1.22
  -2 -20  -2   -0.19    0.92
  -2  20   2    0.02    1.57
  -2 -20  -2    0.30    0.99
   2  20  -2   -1.12    1.93
   2  20   4    3.93    1.81
  -2  20  -4   -0.08    3.41
   2 -20  -4    2.06    1.81
  -2 -20   4    1.58    3.01
  -2 -20  -4    0.35    1.62
  -2  20   4    0.77    3.01
   2  20  -4    1.35    3.41
  -2 -20  -4    0.48    3.44
  -2 -20  -4   -1.21    1.75
  -2  20  -6    0.83    4.55
  -2 -20   6   -1.80    4.51
   2 -20  -6    0.75    3.42
  -2 -20  -6   10.43    3.95
   2  20  -6   -0.87    4.50
  -2  20   6   -2.70    4.21
  -2 -20  -6   -0.60    3.25
  -2 -20  -6    0.31    2.61
  -2  22   0    0.07    1.30
  -2 -22   0    0.11    1.07
  -2  22   0    0.13    1.93
   2 -22   0    3.44    1.44
   2  22   0    0.20    1.24
   2 -22   0    0.15    1.10
   2  22   2   50.20   11.31
  -2  22  -2   47.60    6.73
   2 -22  -2   54.21    7.67
  -2 -22   2   38.61    9.57
  -2  22  -2   54.01   13.02
  -2  22  -2   53.09    7.03
   2 -22  -2   56.58   10.69
   2  22  -2   56.41   11.52
  -2 -22  -2   46.75    4.82
  -2 -22  -2   46.81    5.12
  -2  22   2   43.65    9.25
  -2  22   2   39.36    9.57
  -2 -22   4    0.86    1.73
  -2  22  -4   -0.08    1.92
   2  22   4   -0.87    1.49
   2 -22  -4   -0.49    1.33
   2 -22  -4    0.40    1.52
  -2  22   4    0.26    1.59
   2  22  -4   -0.89    1.96
  -2 -22  -4    0.06    1.18
  -2 -22  -4   -0.60    1.49
  -2 -22  -4    0.27    0.89
  -2 -22   6    2.35   11.39
   2 -22  -6    8.62    5.68
   2 -22  -6    9.58    6.48
  -2  22  -6   13.35   10.30
  -2 -22  -6    9.92    5.71
  -2 -22  -6   14.29    9.10
   2  22  -6    8.01   10.62
  -2  22   6    3.80    6.80
  -2 -22  -6    6.01    7.12
  -2  24   0   11.48    3.23
   2 -24   0    7.46    3.89
  -2 -24   0   11.75    2.63
   2 -24   0    6.52    2.86
  -2  24   0   11.58    3.78
   2  24   0    6.10    3.14
  -2 -24   2   -0.86    1.62
  -2  24  -2    0.19    1.24
  -2  24  -2    3.12    1.16
   2 -24  -2   -0.22    1.73
   2  24   2   -0.50    2.06
   2 -24  -2   -0.19    1.07
  -2  24  -2   -0.52    1.99
  -2  24   2   -0.08    1.47
   2  24  -2    0.42    1.93
  -2 -24  -2    1.31    0.69
  -2 -24  -2   -0.13    0.71
   2 -24  -4    2.18    3.77
  -2  24  -4    3.53    4.51
   2 -24  -4    2.27    2.21
  -2 -24   4    2.27    5.66
   2  24   4    1.65    2.73
  -2 -24  -4    2.18    3.72
  -2  24   4    3.01    3.54
   2  24  -4    3.36    4.62
  -2 -24  -4    2.76    2.69
  -2 -24  -4    3.16    1.90
  -2  24  -6   -1.70    4.26
   2 -24  -6    0.53    3.88
  -2 -24   6   -1.56    4.81
   2 -24  -6    0.43    2.23
   2  24  -6   -0.73    4.45
  -2 -24  -6    0.38    2.93
  -2 -24  -6   -1.09    2.23
  -2 -24  -6   -0.98    2.02
  -2  24   6   -1.68    2.68
  -2  26   0   -0.01    1.34
  -2 -26   0   -0.69    0.81
   2  26   0   -1.18    0.98
  -2  26   0    5.49    1.29
   2 -26   0   -0.12    1.36
   2 -26  -2  206.46   23.99
   2  26   2  198.58   27.90
  -2  26  -2  223.71   26.64
  -2  26  -2  217.02   27.10
   2 -26  -2  229.19   16.93
  -2 -26   2  205.67   23.15
  -2  26  -2  208.44   19.84
  -2 -26  -2  198.85   11.30
  -2 -26  -2  218.27   10.23
   2  26  -2  225.88   26.73
  -2  26   2  218.37   20.09
  -2  26   2  176.58   24.13
   2 -26  -4   -1.22    1.55
   2  26   4   -1.53    2.17
  -2 -26   4   -1.16    3.04
  -2  26  -4   -0.38    3.22
  -2 -26  -4   -0.79    1.71
  -2  26   4   -0.59    1.78
   2  26  -4   -1.10    3.34
  -2 -26  -4   -1.46    3.07
  -2 -26  -4   -0.13    1.83
   2 -26  -6   86.66   19.72
  -2 -26   6   13.12   32.96
   2 -26  -6   70.24   20.34
  -2  26  -6   68.26   29.02
  -2 -26  -6   91.38   22.26
   2  26  -6   55.95   30.27
  -2  26   6   82.72   20.18
  -2 -26  -6   76.22   19.71
  -2 -26  -6   69.42   18.37
  -2  28   0  767.92   62.00
   2  28   0  752.61   54.10
  -2 -28   0  724.84   48.97
   2 -28   0  735.58   64.22
  -2  28   0  743.63   65.47
  -2  28  -2   -0.03    1.22
  -2  28  -2   -0.20    2.25
   2 -28  -2   -1.24    1.61
   2  28   2    2.21    1.77
  -2 -28   2   -0.92    1.89
   2 -28  -2    0.27    0.81
  -2  28  -2   -1.43    1.62
   2  28  -2   -0.54    1.60
  -2  28   2   -0.70    1.04
   2 -28  -4  372.48   37.43
   2  28   4  352.69   42.46
  -2 -28   4  383.73   52.88
  -2  28  -4  359.28   54.76
   2 -28  -4  366.21   45.64
  -2  28   4  395.14   42.88
   2  28  -4  396.81   56.87
  -2 -28  -4  384.05   32.88
  -2 -28  -4  408.21   34.49
   2 -28  -6    5.96    3.47
  -2  28  -6   -2.14    4.50
   2 -28  -6   -1.16    2.25
  -2 -28  -6    0.97    1.98
  -2 -28  -6    1.26    2.91
   2  28  -6    1.46    4.74
  -2 -28  -6    1.19    3.72
   2 -30   0   61.45    6.15
  -2  30   0   84.68    6.10
   2  30   0   -0.65    3.58
  -2 -30   0   -0.82    3.08
  -2  30   0   -0.61    4.61
   2 -30  -2    5.44    3.48
  -2 -30   2    2.97    2.96
   2 -30  -2    0.78    1.76
   2  30   2    6.73    3.86
  -2  30  -2    5.37    3.45
  -2  30  -2    4.97    3.36
  -2  30  -2    4.13    2.77
   2  30  -2    3.19    4.55
  -2  30   2    3.82    3.24
  -2  30   2    3.98    2.06
   2 -30  -4   -0.93    1.08
  -2  30  -4   -1.62    1.84
   2  30   4   -0.04    1.47
  -2 -30   4   -3.05    1.83
  -2 -30  -4    0.64    0.83
   2  30  -4   -0.00    1.87
  -2  30   4   -0.80    1.21
  -2 -30  -4    1.30    0.82
   2 -30  -6    1.51    3.53
  -2  30  -6    0.68    3.29
  -2  30  -6    1.99    5.41
   2 -30  -6    2.55    5.55
   2  30  -6    0.39    5.62
  -2 -30  -6    1.59    3.14
  -2 -30  -6    1.88    2.41
  -2 -32   0  332.56   25.26
  -2  32   0  349.57   37.26
   2  32   0  352.78   24.95
  -2  32   0  365.51   30.58
  -2  32  -2    0.15    1.59
   2  32   2    0.91    2.62
  -2  32  -2   -0.54    1.43
   2 -32  -2    0.55    0.74
   2 -32  -2   -0.54    1.86
  -2 -32   2   -0.25    1.40
  -2  32  -2    0.23    1.58
  -2  32   2    0.41    1.67
  -2  32   2    0.45    0.94
   2  32  -2    0.31    2.15
  -2  32  -4  192.35   46.16
  -2 -32   4  193.39   34.78
   2 -32  -4  189.09   31.43
   2  32   4  182.56   29.41
   2 -32  -4  186.55   20.68
   2  32  -4  192.17   34.90
  -2  32   4  185.60   23.53
  -2 -32  -4  188.30   15.57
  -2 -32  -4  178.33   18.63
   2  32   6   -0.35    1.18
  -2  32  -6    0.92    3.05
   2 -32  -6   -0.82    1.39
   2 -32  -6   -0.89    2.41
  -2  32  -6    3.12    1.89
  -2 -32  -6   -0.17    1.29
   2  32  -6   -0.68    3.13
  -2 -32  -6    1.24    1.81
  -2 -34   0   -0.40    0.78
  -2  34   0    0.61    0.92
   2  34   0    0.07    0.67
  -2  34   0   -0.68    1.35
  -2  34  -2   70.99   17.50
   2  34   2   55.87   15.84
  -2  34  -2   69.62   12.33
  -2  34  -2   72.92   12.88
  -2 -34   2   63.09   11.63
   2 -34  -2   65.36   15.26
   2 -34  -2   68.45    7.93
  -2  34   2   60.63   19.04
   2  34  -2   67.51   17.23
  -2  34   2   67.66    8.62
  -2  34  -4   -1.26    2.18
  -2 -34   4   -1.65    2.23
   2  34   4    0.61    2.71
  -2  34  -4   -0.70    1.16
   2 -34  -4   -0.13    1.13
  -2  34  -4    1.11    1.34
  -2  34   4    0.61    1.24
  -2  34   4   -0.06    1.23
  -2 -34  -4   -0.39    0.82
  -2 -34  -4   -0.26    0.82
   2  34  -4    0.80    2.18
  -2  34  -6   15.43    8.49
   2  34   6    2.65    3.44
   2 -34  -6    2.86    5.09
   2 -34  -6   12.61    7.22
  -2  34  -6    0.01    5.23
  -2 -34  -6    6.64    4.67
  -2 -34  -6    7.81    4.63
   2  34  -6   10.54    8.60
  -2  36   0   11.58    5.93
   2  36   0   11.65    7.15
   2  36   0   10.32    3.58
  -2  36   0   10.49    3.98
   2  36   2   -0.65    2.04
  -2 -36   2    0.01    1.52
  -2  36  -2    0.47    1.61
   2 -36  -2    0.73    2.01
   2 -36  -2    0.69    0.68
  -2  36  -2   -0.49    1.18
  -2  36  -2   -0.49    2.14
  -2  36   2    3.49    1.89
  -2  36   2   -0.02    0.75
   2  36  -2   -0.80    1.56
   2 -36  -4    0.24    3.16
  -2  36  -4    5.55    2.63
   2  36   4    6.14    6.35
  -2 -36   4    4.57    4.92
  -2  36  -4    5.08    4.78
   2 -36  -4    6.36    4.87
  -2  36  -4    1.11    3.01
   2  36  -4    3.66    4.83
  -2 -36  -4    1.50    1.43
  -2  36   4    4.08    2.60
  -2  36   4    2.66    2.85
  -2 -36  -4    4.03    1.39
   2 -36  -6   -0.78    3.15
   2  36   6   -0.07    1.52
  -2  36  -6    1.84    3.53
   2 -36  -6    0.97    2.12
  -2  36  -6    0.23    2.18
   2  36  -6    0.10    4.86
   2  38   0    0.65    2.09
   2  38   0    0.71    0.88
  -2  38   0   -1.64    1.83
  -2  38   0    0.06    1.19
   2 -38  -2    8.29    2.91
   2 -38  -2   15.95    7.81
  -2  38  -2   14.41    5.96
  -2  38  -2   15.26    4.40
   2  38   2   13.37    7.81
  -2  38  -2   21.09    5.77
  -2 -38   2    8.55    7.80
   2  38  -2   12.95    5.69
  -2  38   2   13.85    7.25
  -2  38   2   17.99    2.59
   2 -38  -4    0.34    1.14
  -2  38  -4    0.16    2.39
   2  38   4    0.93    2.42
   2 -38  -4    0.53    2.59
  -2 -38   4   -1.28    2.74
  -2  38  -4   -1.33    1.35
  -2  38  -4   -0.52    1.49
  -2  38   4   -0.40    1.23
   2  38  -4   -0.13    2.39
  -2  38   4    0.03    1.51
   2 -38  -6    5.41    7.67
  -2  38  -6    7.22    5.26
   2  38   6    4.52    3.87
  -2  38  -6    5.06    8.34
   2  38  -6    3.76    8.44
  -2  40   0   25.09    6.16
   2  40   0   25.88   10.52
   2  40   0   26.30    4.14
  -2  40   0   24.78    9.23
  -2 -40   2    1.24    1.56
   2  40   2   -1.07    2.17
  -2  40  -2   -1.52    1.65
  -2  40  -2   -0.33    1.53
   2 -40  -2    1.18    2.24
  -2  40  -2   -0.08    1.64
  -2  40   2    0.53    2.09
  -2  40   2    0.55    0.59
   2  40  -2   -0.23    1.58
  -2  40  -4   13.89    4.75
   2 -40  -4    5.62    3.16
  -2  40  -4   15.21    8.04
   2  40   4   13.62    8.69
   2 -40  -4   12.67    8.90
  -2  40  -4   14.25    5.03
   2  40  -4   14.52    7.90
  -2  40   4   17.06    5.14
  -2  40   4    7.97    3.83
  -2  40  -6    0.30    4.55
   2  40   6   -1.95    2.23
   2 -40  -6    0.20    4.35
  -2  40  -6   -0.48    2.89
   2  40  -6    0.52    4.60
   2  42   0    0.31    0.94
   2  42   0    0.17    2.11
  -2  42   0   -0.10    1.86
  -2  42   0   -0.27    1.20
  -2  42   0    0.58    1.16
  -2  42  -2  231.73   37.08
   2  42   2  220.84   36.50
  -2  42  -2  257.43   27.83
   2 -42  -2  247.60   39.23
  -2  42  -2  215.33   29.01
  -2  42   2  204.06   35.45
   2  42  -2  252.28   28.13
   2 -42  -4    0.62    0.63
  -2  42  -4   -1.12    0.81
  -2  42  -4    0.85    1.77
   2  42   4    1.26    2.02
   2 -42  -4   -0.12    2.02
  -2  42  -4   -0.25    1.84
   2  42  -4   -0.82    1.73
  -2  42   4    0.03    1.20
  -2  42  -6   93.44   32.95
   2  42  -6   95.79   33.19
  -2  44   0   42.13    7.75
  -2  44   0   37.42   12.63
  -2  44   0   53.13    7.85
   2  44   0   40.29    4.90
   2  44   0   43.57   14.35
  -2  44  -2   -0.54    1.69
   2 -44  -2    1.07    2.38
  -2  44  -2   -0.29    1.51
  -2  44  -2   -0.42    1.97
   2  44   2   -0.95    2.10
   2  44  -2    0.42    1.99
  -2  44   2    3.33    2.22
  -2  44  -4   21.12    7.56
   2 -44  -4   27.64   13.46
   2  44   4   23.57   13.87
  -2  44  -4   28.15   12.13
  -2  44  -4   15.30   15.87
   2  44  -4   21.79   15.35
  -2  44   4   24.29    8.19
  -2  46   0   -0.61    1.62
  -2  46   0    0.03    1.17
   2  46   0    0.05    0.65
   2  46   0    0.91    1.82
  -2  46   0   -0.32    0.88
   2 -46  -2   25.14   13.08
  -2  46  -2   26.18    7.88
   2  46   2   23.45   11.35
  -2  46  -2   24.37    6.74
  -2  46  -2   32.18    7.60
   2  46  -2   24.23   10.61
  -2  46   2   21.47   11.89
   2 -46  -4   -0.16    3.98
  -2  46  -4   -1.91    2.18
  -2  46  -4   -0.07    3.21
   2  46   4   -0.90    3.85
  -2  46  -4   -1.74    3.29
   2  46  -4   -0.13    3.08
  -2  46   4    1.80    3.99
  -2  48   0  163.58   25.87
  -2  48   0  162.86   14.70
  -2  48   0  160.78   15.82
   2  48   0  124.30    9.27
   2  48   0  150.58   28.71
  -2  48  -2    0.33    1.81
  -2  48  -2   -1.55    1.23
   2 -48  -2    0.90    2.47
   2  48   2    0.91    2.01
  -2  48  -2    0.23    1.14
  -2  48   2    1.75    2.15
   2  48  -2   -0.42    1.31
  -2  48  -4   92.63   12.58
  -2  48  -4   95.69   24.37
  -2  48  -4  104.21   24.67
   2  48   4   91.90   28.94
   2 -48  -4  109.29   31.26
  -2  48   4   96.18   31.18
   2  48  -4  100.43   23.51
  -2  50   0   -0.21    2.65
  -2  50   0    1.15    1.37
   2  50   0   -1.36    2.98
  -2  50   0    0.76    1.41
  -2  50  -2   43.95   12.24
  -2  50  -2   32.29    9.69
  -2  50  -2   38.54    8.61
   2  50   2   41.39   14.97
   2  50  -2   46.50    9.29
  -2  50   2   33.05   15.34
  -2  50  -4    0.47    2.40
   2  50   4    0.20    2.96
   2 -50  -4    0.20    3.29
  -2  50  -4    0.09    1.69
  -2  50  -4    4.00    2.38
  -2  50   4   -1.81    3.28
   2  50  -4   -2.35    2.28
  -2  52   0   28.00    4.81
  -2  52   0    6.39    5.13
  -2  52   0   22.62    8.72
   2  52   0   23.35   10.51
  -2  52  -2    0.49    1.82
  -2  52  -2    0.12    1.69
   2  52   2   -0.99    2.96
  -2  52  -2   -0.38    1.70
   2  52  -2    0.41    2.32
   2  52  -2   -0.32    1.77
  -2  52   2   -0.44    2.19
   2 -52  -4   15.14   12.31
  -2  52  -4    8.54   11.91
  -2  52  -4   10.46    6.44
   2  52   4    9.97   10.84
  -2  52  -4   19.16    8.64
  -2  52   4   14.58   12.34
   2  52  -4    8.14    8.77
  -2  54   0    1.39    1.24
  -2  54   0   -0.99    2.32
  -2  54   0   -0.08    1.21
   2  54   0    0.17    2.85
  -2  54  -2   34.15   11.93
  -2  54  -2   44.37    8.32
   2  54   2   36.96   14.28
  -2  54  -2   33.04   11.40
   2  54  -2    6.55   15.16
  -2  54   2   33.99   14.49
   2  54  -2   20.77   11.52
   2 -54  -4   -0.29    7.31
  -2  54  -4    0.22    4.77
   2  54   4    2.84    6.03
  -2  54  -4    8.03    4.69
  -2  54   4    1.12    7.03
   2  54  -4    0.47    6.48
   2  56   0   13.52    8.79
  -2  56   0   11.60    3.21
  -2  56   0    8.34    3.56
  -2  56   0   13.86    7.11
  -2  56  -2    1.46    1.44
  -2  56  -2   -0.30    1.81
   2  56   2   -0.43    2.49
  -2  56  -2   -1.02    1.43
   2  56  -2    2.21    2.48
  -2  56   2   -1.03    2.49
   2  56  -2    0.27    1.37
   2 -56  -4    8.29    9.63
  -2  56  -4    4.47    6.03
  -2  56  -4    3.54    5.99
   2  56   4    6.09   10.54
  -2  56   4    5.21    9.05
   2  56  -4    4.90    8.17
  -2  58   0   -0.20    4.32
   2  58   0   -1.05    5.35
  -2  58   0    3.99    1.83
  -2  58   0   -0.27    1.41
  -2  58  -2  106.85   18.95
   2  58   2  104.58   27.87
  -2  58  -2  103.84   22.05
  -2  58  -2  107.80   20.47
   2  58  -2  120.39   27.45
  -2  58   2   98.13   27.09
   2  58  -2   94.52   21.16
  -2  58  -4    9.76    5.86
  -2  58  -4    0.66    4.32
   2  58  -4   -0.74    4.32
   2  60   0    1.72    3.98
  -2  60   0    0.32    4.45
  -2  60  -2   -0.68    2.05
  -2  60  -2    4.45    2.14
   2  60   2   -1.34    4.25
  -2  60   2   -0.26    3.59
   2  60  -2   -0.78    2.65
   2  62   0   -0.81    4.06
  -2  62   0    2.24    3.30
  -2  62  -2    2.91    3.41
  -2  62  -2    1.66    3.25
   2  62   2    5.15    4.99
  -2  62   2    2.96    4.20
   2  62  -2    0.20    2.25
   2  62  -2    0.51    2.32
   2  64   0  158.03   35.83
  -2  64   0  150.82   31.06
   2  64   2    0.41    4.41
  -2  64  -2    0.32    2.80
  -2  64  -2    2.37    2.98
  -2  64   2   -0.44    3.67
  -2  66   0    0.10    2.16
  -2  68   0    1.88    4.39
   3   1   1  295.39   33.35
  -3  -1   1  379.72   34.90
  -3   1  -1  415.12   35.21
   3  -1  -1  231.53   32.12
  -3  -1  -1  298.62   31.43
   3  -1   1  423.62   36.54
   3   1  -1  395.08   36.54
  -3   1   1  228.84   31.49
   3  -1  -3  289.87   29.42
   3   1   3  236.84   12.08
  -3   1  -3  174.66   29.76
  -3  -1   3  229.87   29.62
   3   1  -3  219.13   29.09
  -3   1   3  291.75   30.13
  -3  -1  -3  300.66   30.64
  -3   1  -5  149.79   30.66
  -3   1  -5  164.94   18.44
   3  -1  -5  286.98   25.41
   3  -1  -5   90.33   27.21
  -3  -1   5  127.16   31.52
  -3   1  -5  170.13   20.75
  -3  -1  -5  137.79   19.62
   3   1  -5  130.26   28.75
  -3  -1  -5  114.04   29.33
   3   1  -5  143.74   14.73
  -3   1   5  112.49   31.51
  -3  -1  -5  112.34   19.67
  -3   1  -7   23.51   27.01
   3  -1  -7   90.22   26.36
  -3  -1   7   45.86   35.34
  -3   1  -7   24.54   30.75
   3  -1  -7  124.70   18.58
   3   1  -7   61.22   27.18
  -3   1   7   51.97   35.18
  -3  -1  -7   30.41   26.30
   3   1  -7  141.20   24.39
  -3  -1  -7   89.41   29.72
   3  -3  -1  426.64   36.48
  -3   3  -1  264.29   36.36
  -3  -3   1  301.70   34.68
   3   3   1  433.19   36.63
   3   3  -1  294.90   34.40
  -3   3   1  445.52   37.39
  -3  -3  -1  417.16   33.82
   3  -3   1  249.73   36.12
  -3  -3   3  279.97   27.91
   3  -3  -3  172.07   24.27
   3   3   3  151.03   14.69
  -3   3  -3  316.55   31.24
  -3   3   3  203.67   26.45
  -3  -3  -3  200.33   24.79
   3   3  -3  270.31   36.16
   3  -3  -5  359.24   27.36
  -3  -3   5  142.73   31.91
   3  -3  -5  150.41   27.59
  -3   3  -5   87.90   20.73
  -3   3  -5  110.56   19.99
  -3   3  -5   88.14   31.35
  -3  -3  -5  140.55   27.92
  -3   3   5  173.09   32.33
  -3  -3  -5  150.87   21.43
   3   3  -5  130.81   29.34
  -3  -3  -5  153.44   19.46
   3  -3  -7   17.15   25.74
   3  -3  -7  124.56   20.09
  -3   3  -7   64.44   38.33
  -3   3  -7   74.94   32.30
  -3  -3   7   28.34   35.21
  -3   3   7   26.16   35.54
   3   3  -7   29.87   27.80
  -3  -3  -7   41.02   25.33
  -3  -3  -7   47.09   28.24
   3   3  -7  152.05   17.80
   3   5   1  241.09   31.31
  -3  -5   1  478.48   38.55
  -3   5  -1  476.43   42.46
   3  -5  -1  337.95   33.88
  -3  -5  -1  238.49   29.07
  -3   5   1  346.93   35.19
   3   5  -1  468.06   38.44
   3  -5   1  455.90   40.81
   3   5   3  260.09   18.34
  -3   5  -3  228.31   34.52
   3  -5  -3  274.32   28.22
  -3  -5   3  174.07   29.41
  -3  -5  -3  317.53   36.63
   3   5  -3  172.17   30.00
  -3   5   3  291.96   30.80
  -3  -5   5  193.56   30.48
  -3   5  -5  168.80   15.01
  -3   5  -5  132.16   30.97
  -3   5  -5   65.82   19.25
   3  -5  -5  140.01   32.93
  -3  -5  -5  110.75   20.69
  -3   5   5  158.38   29.80
   3   5  -5  203.17   29.00
  -3  -5  -5   94.71   24.29
  -3  -5  -5   93.20   16.49
  -3   5  -7   57.51   29.02
   3  -5  -7   10.95   25.26
  -3  -5   7   12.99   46.30
   3  -5  -7  137.65   26.86
  -3   5  -7   71.17   20.68
  -3  -5  -7   85.28   24.38
   3   5  -7    9.45   28.40
   3   5  -7  137.31   18.66
  -3   5   7    8.47   34.53
  -3  -5  -7  105.62   27.09
  -3  -7   1  318.61   36.79
   3  -7  -1  491.70   40.81
  -3   7  -1  349.06   43.22
   3   7   1  479.98   37.36
   3   7  -1  307.40   37.59
  -3  -7  -1  494.24   35.64
   3  -7   1  333.12   41.08
  -3   7   1  484.55   39.56
   3   7   3  188.73   19.63
   3  -7  -3  328.44   20.02
   3  -7  -3  206.60   26.76
  -3  -7   3  302.80   32.18
  -3   7  -3  341.26   38.55
  -3   7   3  223.34   29.98
   3   7  -3  305.83   32.72
  -3  -7  -3  195.97   25.81
  -3   7  -5  153.14   39.47
   3  -7  -5  179.74   29.60
   3  -7  -5  376.34   31.18
  -3   7  -5  145.34   16.16
  -3  -7   5  163.37   37.32
  -3  -7  -5  169.14   30.04
  -3  -7  -5  201.94   28.56
  -3   7   5  195.31   36.75
   3   7  -5  133.91   35.73
  -3  -7  -5  204.02   32.07
  -3   7  -7   86.79   20.62
   3  -7  -7   30.07   23.72
  -3   7  -7   52.50   29.19
   3  -7  -7  157.37   20.31
  -3  -7   7   41.64   44.79
  -3   7   7   14.25   31.91
   3   7  -7  139.77   23.54
  -3  -7  -7    9.71   22.22
   3   7  -7   53.26   27.84
  -3  -7  -7   32.16   24.77
  -3   9  -1  527.95   44.90
   3   9   1  352.02   42.45
   3  -9  -1  283.99   34.35
  -3  -9   1  498.20   40.76
   3  -9  -1  407.94   25.51
  -3  -9  -1  416.38   41.96
   3   9  -1  488.95   42.21
   3  -9   1  528.93   45.12
  -3   9   1  280.70   44.89
   3  -9   1  442.00   21.07
   3  -9  -3  329.97   31.73
  -3  -9   3  271.32   36.86
   3   9   3  279.86   26.22
   3  -9  -3  567.01   38.77
  -3   9  -3  196.18   41.51
  -3  -9  -3  323.32   31.16
   3   9  -3  277.98   38.17
  -3   9   3  362.22   46.23
  -3   9  -5  234.97   16.62
   3  -9  -5  109.11   30.41
  -3  -9   5  194.25   41.59
  -3   9  -5  231.60   46.11
   3  -9  -5  375.07   32.45
  -3  -9  -5  209.88   25.79
  -3  -9  -5  164.23   41.18
   3   9  -5  187.87   40.30
  -3   9   5  129.51   51.98
  -3  -9  -5  173.94   32.64
   3  -9  -7  154.85   21.47
  -3   9  -7   19.77   31.64
   3  -9  -7   92.41   24.69
  -3  -9   7   59.20   34.94
  -3   9  -7   21.88   22.12
   3   9  -7  -18.72   30.02
   3   9  -7  176.44   18.86
  -3   9   7   21.44   32.51
  -3  -9  -7   18.15   22.91
  -3  -9  -7   83.04   25.62
   3  11   1  523.19   45.74
   3 -11  -1  481.53   36.35
  -3  11  -1  319.52   40.89
  -3 -11   1  346.38   37.80
   3 -11  -1  730.13   44.73
  -3 -11  -1  501.23   40.29
   3 -11   1  320.18   40.33
  -3  11   1  530.27   40.71
   3  11  -1  336.70   38.79
   3 -11   1  426.75   26.52
   3  11   3  191.75   18.95
   3 -11  -3  223.48   26.20
   3 -11  -3  581.51   35.20
  -3 -11   3  335.16   34.99
  -3  11  -3  361.25   42.12
  -3  11   3  227.18   30.16
  -3 -11  -3  211.15   32.28
   3  11  -3  338.29   37.39
  -3 -11   5  179.14   42.78
   3 -11  -5  211.32   33.00
   3 -11  -5  383.93   34.21
  -3  11  -5  142.56   46.98
  -3 -11  -5  226.79   33.38
  -3  11   5  221.35   55.28
  -3 -11  -5  226.06   29.49
   3  11  -5  184.73   42.31
  -3 -11  -5  185.75   41.57
  -3 -11   7   41.81   38.11
   3 -11  -7  143.35   31.18
   3 -11  -7   25.11   34.45
  -3  11  -7  110.55   24.39
  -3  11  -7   98.55   35.39
  -3 -11  -7   33.73   23.57
   3  11  -7  106.20   34.14
  -3 -11  -7   29.10   25.44
  -3  11   7   17.31   45.40
   3  11  -7  189.29   21.35
   3 -13  -1  367.98   33.05
   3 -13  -1  608.23   39.40
  -3 -13   1  517.02   40.04
  -3  13  -1  471.88   43.85
   3  13   1  252.07   27.52
  -3 -13  -1  247.16   31.98
   3 -13   1  551.21   27.16
   3 -13   1  463.28   42.25
  -3  13   1  377.62   35.83
   3  13  -1  504.51   41.64
  -3 -13   3  173.89   34.34
   3  13   3  333.46   26.78
   3 -13  -3  590.89   39.41
   3 -13  -3  291.68   28.90
  -3  13  -3  270.60   43.61
  -3 -13  -3  340.17   35.66
   3  13  -3  192.52   37.88
  -3  13   3  309.66   34.29
  -3  13  -5  185.08   34.47
  -3 -13   5  216.71   31.30
   3 -13  -5  169.16   22.11
  -3  13  -5    1.52   19.02
  -3 -13  -5  107.51   20.72
  -3  13   5  170.16   37.03
   3  13  -5  236.27   31.98
  -3 -13  -5   91.41   20.14
   3 -13  -7  127.99   24.99
   3 -13  -7   73.04   25.91
  -3  13  -7   90.02   25.24
  -3 -13   7    6.02   39.01
  -3  13  -7   79.43   38.20
   3  13  -7  172.15   21.65
  -3 -13  -7  100.32   32.59
  -3 -13  -7  104.11   25.76
   3  13  -7    9.49   36.19
  -3  13   7    6.71   44.41
  -3 -15   1  280.90   29.78
   3  15   1  406.97   27.99
  -3  15  -1  263.75   36.15
   3 -15  -1  386.11   28.88
   3 -15  -1  450.81   31.59
  -3 -15  -1  378.84   28.78
   3 -15   1  414.22   24.63
   3  15  -1  277.44   32.37
   3 -15   1  263.81   34.72
  -3  15   1  435.35   33.75
  -3  15  -3  329.67   42.78
  -3 -15   3  292.92   32.20
   3  15   3  226.67   30.13
   3 -15  -3  183.24   23.05
   3 -15  -3  593.06   41.54
  -3  15  -3  311.60   39.17
   3  15  -3  306.32   35.94
  -3 -15  -3  208.86   26.11
  -3  15   3  188.74   27.63
  -3 -15  -3  187.97   20.82
  -3  15  -5  133.47   38.04
  -3 -15   5  145.70   34.91
   3 -15  -5  151.79   24.06
   3 -15  -5  317.52   38.15
  -3  15  -5   72.71   22.52
  -3  15   5  153.81   39.85
   3  15  -5  135.10   35.31
  -3 -15  -5  156.97   22.76
  -3 -15  -5  171.38   23.60
  -3  15  -7   67.44   35.56
   3 -15  -7   19.15   22.36
  -3 -15   7   33.62   34.42
   3 -15  -7  164.77   24.35
  -3  15  -7   85.67   22.44
  -3  15   7   10.68   37.95
   3  15  -7   30.01   32.88
  -3 -15  -7   31.31   29.63
   3  15  -7  106.81   11.57
  -3 -15  -7   34.39   20.72
  -3 -17   1  336.66   28.00
  -3  17  -1  347.59   44.89
  -3  17  -1  347.56   18.10
   3 -17  -1  593.68   41.99
   3  17   1  254.71   23.54
   3 -17  -1  168.19   20.85
   3 -17   1  408.04   24.46
   3  17  -1  324.34   30.53
  -3  17   1  201.11   33.50
   3 -17   1  356.77   23.43
  -3 -17  -1  288.30   25.12
  -3 -17   3  242.52   33.03
   3 -17  -3  515.71   35.34
   3 -17  -3  269.74   24.38
  -3  17  -3  147.49   41.79
   3  17   3  255.20   27.14
  -3  17  -3  157.92   37.09
  -3  17   3  291.98   30.40
  -3 -17  -3  249.93   27.23
   3  17  -3  232.53   37.24
  -3 -17  -3  227.89   23.88
  -3  17  -5  127.35   32.77
  -3 -17   5  123.39   30.10
   3 -17  -5  300.21   26.08
   3  17   5  100.77   10.17
   3 -17  -5   70.08   19.08
  -3  17  -5  124.89   20.33
  -3  17   5   64.99   23.91
  -3 -17  -5  114.09   18.49
   3  17  -5  130.74   31.82
  -3 -17  -5   98.78   25.00
  -3  17  -7   20.32   28.49
  -3 -17   7   59.71   28.55
   3 -17  -7   74.53   17.59
  -3  17  -7   15.58   17.68
   3 -17  -7  110.07   20.24
  -3  17   7   18.04   21.94
  -3 -17  -7   70.75   17.13
   3  17  -7   48.60   27.77
   3  17  -7   52.77    8.76
  -3 -17  -7   13.16   16.09
   3 -19  -1  304.83   29.40
  -3  19  -1  337.81   21.19
  -3 -19   1  179.95   29.74
   3  19   1  314.46   27.99
  -3  19  -1  190.65   39.04
   3 -19  -1  348.26   26.86
  -3 -19  -1  299.24   21.66
   3  19  -1  179.38   26.03
   3 -19   1  264.00   22.75
  -3  19   1  326.77   33.51
  -3 -19   3  239.36   27.24
   3 -19  -3  430.88   28.68
  -3  19  -3  244.87   35.29
   3 -19  -3  147.78   17.85
   3  19   3  148.22   22.29
  -3  19  -3  245.44   31.56
   3  19  -3  267.14   41.50
  -3  19   3  155.90   22.85
  -3 -19  -3  135.09   14.32
  -3 -19  -3  135.68   21.90
  -3  19  -5   87.24   31.98
  -3 -19   5   88.10   29.50
   3  19   5   93.09   16.23
   3 -19  -5  221.31   24.56
  -3  19  -5   93.85   19.80
   3 -19  -5  113.88   19.15
   3  19  -5  101.34   32.00
  -3  19   5  104.10   23.29
  -3 -19  -5  106.13   23.27
  -3 -19  -5  121.82   17.89
  -3  19  -7   47.45   22.50
  -3 -19   7   37.18   25.36
   3 -19  -7   20.83   17.92
  -3  19  -7   78.32   13.82
   3 -19  -7  109.40   16.22
  -3 -19  -7   45.31   12.50
  -3 -19  -7   48.38   12.70
   3  19  -7   30.12   22.40
   3  19  -7    0.70    6.61
  -3  19   7    7.25   16.47
  -3 -21   1  266.29   21.69
  -3  21  -1  269.82   18.43
   3 -21  -1  191.73   22.67
  -3  21  -1  263.20   35.04
   3  21   1  150.20   20.81
   3 -21  -1  374.26   26.97
  -3  21   1  291.45   17.47
   3 -21   1  263.57   22.16
   3  21  -1  268.66   31.96
  -3  21   1  188.53   20.67
  -3 -21  -1  131.58   15.65
   3 -21  -3  350.56   28.67
  -3  21  -3  168.61   31.79
  -3 -21   3  117.17   26.31
   3  21   3  193.79   22.65
   3 -21  -3  176.18   24.45
  -3  21  -3  183.76   31.97
  -3  21   3  205.27   23.60
  -3 -21  -3  187.81   21.73
   3  21  -3  109.62   31.12
  -3 -21  -3  195.27   18.94
  -3 -21   5  101.46   24.76
   3 -21  -5  255.27   22.62
  -3  21  -5   81.16   27.63
   3  21   5   56.83   14.74
   3 -21  -5   70.77   15.72
  -3  21  -5  116.76   17.58
  -3 -21  -5   47.26   13.80
  -3 -21  -5   57.40   14.46
   3  21  -5  125.36   28.51
  -3  21   5   84.46   18.90
  -3 -21   7    3.49   25.58
   3 -21  -7    8.48   13.07
  -3  21  -7   59.33   22.85
  -3  21  -7   44.36   22.88
   3 -21  -7    9.92   16.58
  -3 -21  -7   58.91   16.78
   3  21  -7    1.04   23.32
  -3 -21  -7   72.27   12.93
  -3  21   7    2.51   16.06
  -3  23  -1  237.69   16.17
   3 -23  -1  217.31   17.07
  -3 -23   1  169.70   19.68
  -3  23  -1  132.42   31.87
   3  23   1  253.38   24.80
   3 -23  -1  332.36   26.89
  -3  23   1  323.91   26.05
   3  23  -1  159.60   29.79
  -3 -23  -1  213.49   15.42
  -3  23   1  252.55   21.60
  -3 -23   3  154.42   21.62
  -3  23  -3  155.19   25.43
   3 -23  -3  324.68   23.70
   3  23   3  108.24   18.86
  -3  23  -3  158.37   25.72
   3 -23  -3   94.72   13.38
   3  23  -3  150.47   26.40
  -3  23   3  101.45   17.20
  -3 -23  -3  118.74   15.01
  -3 -23  -3   98.34   14.82
  -3 -23   5   86.90   24.93
  -3  23  -5   38.95   26.95
   3  23   5   75.96   14.66
   3 -23  -5   93.10   20.47
  -3  23  -5   71.48   17.06
   3 -23  -5  167.73   23.46
  -3  23   5   76.33   18.00
   3  23  -5  102.09   29.24
  -3 -23  -5   84.51   18.92
  -3 -23  -5   77.48   13.60
  -3  23  -7   40.06   20.49
  -3 -23   7    5.55   23.00
   3 -23  -7   23.94   11.46
   3 -23  -7   12.60   13.50
  -3  23  -7   36.49   20.78
  -3 -23  -7   34.67   10.77
   3  23  -7   15.10   21.86
  -3  23   7   27.11   13.87
  -3 -23  -7   22.77   15.16
   3 -25  -1  103.67   12.10
  -3  25  -1  202.31   16.54
  -3 -25   1  180.73   20.40
   3  25   1  158.24   17.27
  -3  25  -1  187.38   25.78
   3 -25  -1  170.74   18.26
   3  25  -1  194.81   25.34
  -3 -25  -1  144.27   13.31
  -3  25   1  123.89   15.82
  -3  25   1  227.95   19.90
  -3  25  -3   70.08    6.75
  -3 -25   3  109.32   19.23
  -3  25  -3   67.96   21.96
   3  25   3  124.03   17.55
  -3  25  -3   72.46   21.02
   3 -25  -3  138.82   15.70
   3 -25  -3  212.23   21.03
   3  25  -3  107.63   23.66
  -3 -25  -3  105.60   11.98
  -3  25   3  130.79   19.40
  -3 -25  -3  123.87   11.72
  -3 -25   5   78.19   22.37
  -3  25  -5   78.55   23.71
  -3  25  -5   97.29   15.10
   3  25   5   48.15   18.02
   3 -25  -5   45.78   12.79
   3 -25  -5  117.90   27.95
  -3 -25  -5   64.34   15.10
   3  25  -5   92.61   26.51
  -3 -25  -5   61.09   11.57
  -3  25   5   52.98   14.99
   3  27   1  190.08   26.78
  -3  27  -1  142.15   13.26
  -3 -27   1   79.97   14.32
   3  27   1  157.59   12.24
   3 -27  -1  192.58   17.98
  -3  27  -1  140.64   18.63
   3 -27  -1  195.34   19.33
  -3 -27  -1  189.28   11.59
   3  27  -1   90.42   24.23
  -3  27   1  196.18   16.66
  -3  27   1  194.34   25.70
  -3  27  -3  102.46   20.34
  -3 -27   3  121.71   17.63
   3  27   3   67.09   17.09
  -3  27  -3  130.19   19.90
   3 -27  -3   95.90   14.41
  -3  27  -3   92.62    8.48
   3 -27  -3  180.74   19.55
  -3 -27  -3   55.73    9.52
  -3 -27  -3   52.04    9.75
  -3  27   3  104.75   16.67
   3  27  -3  122.75   28.98
  -3 -27   5   12.01   22.13
  -3  27  -5   81.54   15.08
  -3  27  -5   65.93   23.61
   3 -27  -5   15.76   16.52
   3  27   5   65.61   14.36
   3 -27  -5  125.88   20.99
   3  27  -5    7.85   25.94
  -3 -27  -5   81.04   14.42
  -3 -27  -5   74.14   10.72
  -3  27   5   63.69   14.60
   3  29   1  120.59   24.20
   3 -29  -1  157.10   17.53
   3  29   1  104.53    9.27
  -3  29  -1  156.69   12.67
   3 -29  -1  107.46   13.25
  -3  29  -1  158.15   16.64
  -3 -29   1  158.52   17.85
   3  29  -1  165.58   22.07
  -3 -29  -1  102.32   10.33
  -3  29   1  109.99   13.62
  -3  29   1  169.44   18.41
  -3 -29   3   66.84   17.96
  -3  29  -3   77.32   21.14
   3  29   3  100.05   18.92
   3 -29  -3  145.97   18.16
  -3  29  -3   83.96   20.19
  -3  29  -3   61.95    9.74
   3 -29  -3   93.08   12.85
  -3 -29  -3  108.37    9.73
   3  29  -3   53.60   29.41
  -3  29   3   99.16   16.17
  -3 -29  -3   95.88    9.72
  -3  29  -5   52.66   20.54
  -3 -29   5   73.25   19.33
   3  29   5   31.51   13.11
   3 -29  -5  113.45   16.86
  -3  29  -5   71.79   13.04
   3  29  -5   37.27   22.67
  -3 -29  -5   44.22    8.54
  -3 -29  -5   30.80   11.45
  -3  29   5   20.21   15.93
   3  31   1  149.96   24.52
   3 -31  -1  152.11   14.69
  -3  31  -1   90.62   17.42
   3 -31  -1  180.08   19.90
  -3  31  -1   78.24   15.87
   3  31   1  149.39   10.92
  -3 -31   1  124.38   13.84
  -3 -31  -1  133.66    9.93
   3  31  -1  125.29   22.00
  -3  31   1  144.90   14.03
  -3  31   1  178.24   19.27
  -3  31  -3  102.28   19.53
   3 -31  -3   54.91    8.91
   3  31   3   64.46   18.33
   3 -31  -3  116.30   17.47
  -3  31  -3  104.06   18.89
  -3 -31   3   90.04   17.28
  -3  31  -3   96.20    8.82
  -3  31   3   54.59   13.70
   3  31  -3  101.53   27.41
  -3 -31  -3   78.59    7.74
  -3 -31  -3   76.48    7.24
  -3  31  -5   15.80   19.37
  -3  31  -5   21.13   19.89
  -3 -31   5   17.99   19.56
   3 -31  -5   93.74   16.23
   3 -31  -5   68.79   13.38
   3  31   5   32.84   12.45
  -3 -31  -5   48.20   10.12
   3  31  -5   53.56   21.47
  -3 -31  -5   42.27   10.60
  -3  31   5   24.45   14.80
  -3 -33   1  129.89   11.94
   3 -33  -1  121.78   17.35
  -3  33  -1  144.92   15.81
  -3  33  -1  131.30   16.29
   3  33   1   79.73    6.53
   3 -33  -1   89.60   12.14
   3  33   1   97.33   20.96
  -3  33   1  134.25   15.95
  -3 -33  -1   86.33    6.22
   3  33  -1  141.76   18.50
  -3  33   1   96.08   11.42
  -3  33  -3   68.95   19.13
   3 -33  -3  100.13   12.47
   3 -33  -3  134.92   19.37
  -3 -33   3   65.73   17.89
   3  33   3   97.49   19.39
  -3  33  -3   82.01   19.01
  -3  33  -3   63.14    9.56
   3  33  -3   61.13   20.44
  -3 -33  -3   91.50    6.75
  -3  33   3   93.46   14.08
  -3  33   3   54.17   11.57
  -3 -33  -3   90.21    7.54
  -3  33  -5   42.81   14.82
  -3 -33   5    8.44   15.06
   3 -33  -5   74.16   12.76
   3 -33  -5   14.60    6.98
   3  33   5   25.28    9.84
  -3  33  -5   48.10   15.44
  -3  33   5   13.16    7.97
  -3 -33  -5   25.69    7.87
   3  33  -5   26.06   16.24
  -3 -33  -5   25.38    7.32
   3  35   1  138.55   24.88
   3 -35  -1  153.55   20.78
  -3  35  -1  127.26   17.65
   3  35   1  135.05    8.19
  -3  35  -1  108.14   19.59
   3 -35  -1  143.38   14.22
  -3 -35   1   57.56   17.11
  -3  35   1  158.21   17.54
   3  35  -1   65.77   19.78
  -3  35   1  134.99   18.95
  -3 -35  -1  138.33    7.87
   3 -35  -3   79.03   11.59
  -3  35  -3   92.79   20.50
  -3 -35   3  109.68   19.02
   3 -35  -3  136.10   21.32
   3  35   3   37.60   20.60
  -3  35  -3  112.86   20.58
  -3  35  -3   83.98   11.24
   3  35  -3  107.50   21.45
  -3  35   3  105.43   13.87
  -3  35   3   93.05   13.19
  -3 -35   5    2.73   23.13
  -3  35  -5   50.93   17.51
   3 -35  -5   76.15   15.51
  -3  35  -5   49.10   17.01
   3 -35  -5    5.42    7.75
   3  35   5   39.93   12.05
  -3 -35  -5   54.35    7.95
  -3 -35  -5   53.43    7.68
   3  35  -5    6.29   18.15
  -3  35   5    3.77    8.46
  -3 -37   1  133.17   13.70
   3 -37  -1  129.30   28.33
  -3  37  -1  136.93   20.79
  -3  37  -1  166.83   23.23
   3  37   1  113.74   24.98
   3 -37  -1  102.32   13.34
  -3  37   1  127.67   26.08
  -3  37   1  106.16   15.72
   3  37  -1  144.23   20.01
   3 -37  -3  114.52   12.52
  -3 -37   3   70.59   18.59
   3 -37  -3  146.50   22.20
  -3  37  -3   62.90   20.47
   3  37   3   96.47   21.60
  -3  37  -3   59.33   20.70
  -3  37  -3   60.02   11.75
  -3  37   3  143.03   14.78
  -3  37   3   94.86   12.98
   3  37  -3   87.68   20.94
  -3  37  -5    7.47   15.64
  -3  37  -5   44.07   15.07
   3 -37  -5   76.87   14.11
  -3 -37   5   13.96   15.15
   3 -37  -5   15.87    9.27
   3  37   5   28.79   15.27
  -3  37   5   14.82    9.69
   3  37  -5   24.46   15.83
  -3 -39   1  119.89   18.63
   3  39   1  154.93   26.61
  -3  39  -1   84.37   22.71
  -3  39  -1   90.05   22.12
   3 -39  -1  172.77   23.67
   3 -39  -1  137.72   11.46
  -3  39   1  156.69   28.88
   3  39  -1  132.78   15.30
  -3  39   1  159.80   16.35
  -3 -39   3   98.76   18.09
  -3  39  -3  109.94   19.32
   3 -39  -3   52.95   12.38
   3 -39  -3  104.02   22.37
  -3  39  -3  120.31   19.78
   3  39   3   75.19   20.64
  -3  39  -3   95.48   11.98
   3  39  -3  103.05   19.82
  -3  39   3  116.02   14.42
  -3  39   3   38.42   10.62
   3 -39  -5   89.12   19.53
  -3  39  -5    4.64   19.17
  -3 -39   5    5.06   19.83
  -3  39  -5   13.21   19.17
   3  39   5   31.97   20.86
   3 -39  -5   55.06   10.36
   3  39  -5   50.54   27.49
  -3  39   5   49.50   11.90
   3 -41  -1  115.41   22.60
  -3 -41   1  119.18   16.88
  -3  41  -1  114.02   21.90
  -3  41  -1  144.05   16.13
   3  41   1   78.58   24.90
   3  41  -1  123.89   13.88
  -3  41   1  100.14   13.80
  -3  41   1   93.77   20.47
  -3  41  -3   68.75   14.05
  -3 -41   3   65.21   18.63
   3 -41  -3  138.95   23.22
   3 -41  -3   91.74   10.94
  -3  41  -3   69.50   19.56
   3  41   3   91.33   21.24
  -3  41  -3   64.72   19.94
  -3  41   3  138.99   23.54
  -3  41   3   81.16   12.89
   3  41  -3   63.05   19.43
   3 -41  -5   11.10    7.80
  -3 -41   5   56.17   16.58
  -3  41  -5   33.29   14.42
   3 -41  -5   42.67   15.33
  -3  41  -5   40.46   14.63
   3  41   5   22.87   16.51
   3  41  -5   28.88   20.59
  -3  41   5   12.66    8.75
   3 -43  -1  110.64   19.18
  -3 -43   1   41.07    9.64
   3  43   1   95.61   20.52
  -3  43  -1   77.54   17.66
  -3  43  -1   87.53   12.24
  -3  43  -1   73.45   12.29
   3  43  -1   44.71   13.66
  -3  43   1  107.56   10.90
  -3  43   1   96.74   17.24
  -3  43  -3   61.36   12.63
   3 -43  -3   86.34   20.54
  -3  43  -3   67.91   16.94
   3 -43  -3   53.23    6.99
   3  43   3   23.97   18.26
  -3 -43   3   79.41   21.70
  -3  43  -3   49.50   22.75
   3  43  -3   75.03   15.82
  -3  43   3   63.81    7.97
  -3  43   3   84.43   20.55
  -3  43  -5   42.53   16.60
   3 -43  -5   27.89   17.63
  -3  43  -5   38.70   16.74
   3  43   5   37.23   14.85
   3  43  -5    6.06   16.90
   3 -45  -1   24.14   16.25
  -3 -45   1   45.51   10.83
   3  45   1   42.06   16.33
  -3  45  -1   56.32    8.78
  -3  45  -1   59.16   13.99
  -3  45  -1   68.62   12.80
  -3  45   1   31.04   14.01
   3  45  -1   45.03   10.64
  -3  45   1   36.80    9.18
   3 -45  -3   25.89    4.10
  -3  45  -3   22.62    8.32
  -3  45  -3   22.44   10.79
   3 -45  -3   33.80   13.19
  -3  45  -3   24.31   10.67
   3  45   3   20.30   12.12
  -3 -45   3   14.02   10.30
  -3  45   3   26.11    4.48
  -3  45   3   31.66   13.85
   3  45  -3   25.94   10.02
  -3  45  -5   21.39   15.91
  -3  45  -5   23.21   11.62
   3 -45  -5    7.70   12.71
   3  45   5   13.66   10.90
   3  45  -5    8.70   11.85
   3 -47  -1   34.94   12.35
  -3  47  -1    3.86    6.63
   3  47   1   18.11   12.03
  -3  47  -1   12.79    8.27
  -3  47  -1   11.19   10.34
  -3  47   1   27.14   10.42
   3  47  -1   27.59    7.46
  -3  47   1   40.83    5.14
  -3  47  -3   19.40    5.27
  -3 -47   3    2.67    5.73
  -3  47  -3   16.36    4.27
  -3  47  -3   22.25    5.16
   3 -47  -3    1.22    1.67
   3 -47  -3    8.11    6.77
   3  47   3   18.51    6.80
  -3  47   3    8.17    7.03
   3  47  -3    5.31    6.71
  -3  47   3    1.07    2.18
   3 -47  -5   20.81   11.85
  -3  47  -5    1.40   10.52
  -3  47  -5   16.10   10.54
   3  47   5    8.75   10.51
   3  47  -5   14.73   10.76
  -3  49  -1   13.81    6.40
  -3  49  -1   16.47    6.02
   3  49   1    9.29    9.04
  -3  49  -1   13.87    7.67
   3  49  -1    8.92    3.91
  -3  49   1   11.53    7.89
  -3  49   1   12.72    3.51
  -3  49  -3    8.32    5.67
   3 -49  -3    4.89    9.00
  -3  49  -3   12.22    6.61
  -3  49  -3    8.82    6.26
   3  49   3   10.51    8.84
   3  49  -3    6.06    8.31
  -3  49   3   10.26    9.32
  -3  49  -5    4.14    7.17
   3 -49  -5    9.69    8.34
  -3  49  -5    4.09    7.22
   3  49   5    6.44    7.37
   3  49  -5    0.69    7.09
  -3  51  -1   14.65    3.93
   3  51   1   13.86    7.92
  -3  51  -1   14.59    4.93
  -3  51  -1   15.00    3.86
   3  51  -1    5.74    8.53
  -3  51   1    4.24    2.91
  -3  51   1   10.02    6.72
  -3  51   1    4.01    3.17
   3  51  -1    2.05    4.30
  -3  51  -3    6.95    8.29
  -3  51  -3    4.05    5.48
   3 -51  -3    7.94    8.73
   3  51   3    5.05    8.39
  -3  51  -3    7.44    5.65
  -3  51   3    9.21    8.99
   3  51  -3   10.78    5.61
  -3  53  -1   19.61    4.90
  -3  53  -1   15.27    5.13
   3  53   1   13.61    7.63
  -3  53  -1   11.21    4.73
  -3  53   1    3.06    2.59
  -3  53   1    7.45    6.34
  -3  53   1    4.23    2.59
   3  53  -1    3.43    3.90
   3  53  -1    7.72    7.70
  -3  53  -3    3.89    3.97
  -3  53  -3    4.06    7.13
   3 -53  -3    9.66    8.61
  -3  53  -3    3.49    5.73
   3  53   3   10.27    8.18
   3  53  -3    9.70    5.38
  -3  53   3   11.41    8.81
  -3  55  -1    6.09    4.11
   3  55   1   16.44    8.52
  -3  55  -1    9.26    5.35
  -3  55  -1   11.81    5.31
   3  55  -1   14.40    8.56
  -3  55   1    5.14    2.69
  -3  55   1    8.93    7.10
  -3  55   1    9.30    2.50
   3  55  -1   12.04    4.39
   3 -55  -3    6.43   10.55
  -3  55  -3   16.26    5.85
   3  55   3   13.31    9.30
  -3  55  -3    5.98    4.28
  -3  55  -3    6.70    6.43
  -3  55   3    8.56   10.22
   3  55  -3    3.29    5.95
  -3  57  -1   15.06    7.76
   3  57   1    7.89   12.19
  -3  57  -1   11.47    7.69
  -3  57  -1   24.91    5.76
   3  57  -1   17.65   12.15
  -3  57   1   12.64    9.92
   3  57  -1   20.88    5.96
   3 -57  -3    9.39   12.55
  -3  57  -3   11.10   10.09
  -3  57  -3    6.60    6.98
  -3  57  -3   17.99    6.54
   3  57   3   14.93   11.02
  -3  57   3   12.09   12.14
   3  57  -3    3.93    9.29
  -3  59  -1   23.69    6.23
  -3  59  -1    4.38    4.52
   3  59   1    9.33    9.68
  -3  59  -1    6.20    6.45
   3  59  -1   19.30   10.02
  -3  59   1   15.31    8.21
  -3  59  -3   15.36    6.94
  -3  59  -3    5.11    6.73
  -3  59  -3    9.95    8.23
   3  59   3   13.91   10.59
  -3  59   3    8.93   11.24
   3  59  -3    6.57    6.38
  -3  61  -1   24.46    7.53
  -3  61  -1   15.59    7.33
   3  61   1   15.82   11.73
  -3  61  -1   13.04    7.84
   3  61  -1   11.19   11.64
  -3  61   1    6.89   13.37
  -3  61  -3    7.47    5.55
  -3  61  -3    0.47    5.64
  -3  61  -3    6.91    4.81
   3  61   3   10.63    8.78
  -3  61   3    6.75    9.04
   3  61  -3    4.77    5.06
  -3  63  -1    7.80    6.19
   3  63   1   10.56   12.61
  -3  63   1   10.24   10.41
   3  65   1    5.54    8.65
  -3  65  -1    6.69    8.10
  -3  65   1    9.07    7.23
   4   0   0 4633.71  583.87
  -4   0   0 4892.24  611.40
   4   0   2   -0.08    1.07
   4   0  -2   -0.26    1.57
  -4   0   2   -0.35    1.68
  -4   0  -2   -0.64    1.48
   4   0  -4 1768.66  196.31
  -4   0   4 1809.26  201.63
  -4   0  -4 1930.76  207.09
  -4   0  -4 1815.39  229.95
  -4   0   6   -2.85    4.33
  -4   0  -6   -0.59    3.74
   4   0  -6   -0.16    3.64
  -4   0  -6   -0.01    5.21
   4  -2   0    0.61    1.11
  -4  -2   0   -0.64    1.09
   4   2   0   -0.14    1.03
  -4   2   0    0.19    1.02
  -4   2  -2  128.69   18.27
  -4  -2   2  134.22   19.63
   4   2   2  138.58   13.28
   4  -2  -2  121.01   18.00
   4   2  -2  125.09   18.95
   4  -2   2  133.68   13.58
  -4   2   2  129.23   19.01
  -4  -2  -2  142.80   18.99
  -4   2  -4    7.99   17.11
  -4  -2   4   72.17   12.89
  -4   2  -4    9.20   12.54
   4  -2  -4   72.18   11.82
  -4   2   4   77.96   12.39
   4   2  -4    5.64   16.47
  -4  -2  -4    1.31   14.92
  -4  -2  -4    0.18   11.51
   4  -2  -6   38.01   12.44
   4  -2  -6   29.86   22.32
  -4   2  -6   46.08   17.82
  -4   2  -6   38.29   18.11
  -4  -2   6   24.36   19.58
  -4   2   6   24.15   19.62
   4   2  -6   35.33   16.83
  -4  -2  -6   43.15   22.48
   4   2  -6   41.96   12.95
  -4  -2  -6   57.01   16.58
   4  -4   0   43.54    9.25
  -4  -4   0   29.96    8.19
   4   4   0   33.10   11.62
  -4   4   0   34.53    8.38
   4   4   2    0.29    0.98
  -4   4  -2   -0.59    1.14
  -4  -4   2   -0.28    1.21
   4  -4  -2   -0.16    1.06
   4   4   2   -0.23    1.25
   4  -4   2    0.17    0.32
  -4  -4  -2    0.52    1.07
   4   4  -2   -0.51    1.17
  -4   4   2   -1.34    1.14
   4  -4   2   -0.16    0.79
  -4   4  -4    7.69    7.16
  -4  -4   4    3.53    5.15
   4  -4  -4    5.14    4.55
  -4   4  -4    6.47    5.43
  -4  -4  -4    4.50    5.38
  -4  -4  -4    7.11    4.60
   4   4  -4    4.37    5.06
  -4   4   4    3.60    4.97
  -4  -4   6   -1.23    4.11
  -4   4  -6    1.86    3.90
   4  -4  -6    2.53    3.33
  -4   4  -6   -0.25    3.95
  -4  -4  -6    1.62    4.54
   4   4  -6    0.62    3.60
  -4   4   6    0.21    4.08
  -4  -4  -6   -0.02    3.28
   4   6   0   -0.49    1.72
   4  -6   0   -1.02    1.85
  -4  -6   0    0.24    2.31
  -4   6   0   -0.93    1.76
  -4   6  -2  261.77   31.40
   4   6   2  261.11   22.30
  -4  -6   2  268.81   31.60
   4  -6  -2  277.91   29.04
   4   6   2  293.43   32.55
  -4  -6  -2  283.78   27.71
   4   6  -2  270.94   31.34
  -4   6   2  279.92   30.06
  -4  -6   4    2.84    2.26
   4   6   4    0.28    0.76
   4  -6  -4   -0.21    1.89
  -4   6  -4   -1.41    2.41
  -4   6  -4   -1.75    3.08
  -4  -6  -4   -0.27    2.19
  -4   6   4    2.30    2.14
   4   6  -4    0.14    2.23
  -4  -6  -4   -0.13    2.58
  -4   6  -6   90.60   30.83
  -4  -6   6   92.10   30.75
   4  -6  -6   86.04   24.69
  -4   6  -6  100.69   31.19
   4  -6  -6   86.10   19.87
  -4   6   6  101.74   31.22
   4   6  -6  103.15   28.13
  -4  -6  -6   98.53   24.46
  -4  -6  -6   94.65   24.42
   4  -8   0  237.01   27.41
   4   8   0  245.54   26.84
  -4  -8   0  271.84   25.95
  -4   8   0  280.24   29.55
   4   8   2   -1.57    1.11
  -4  -8   2   -0.46    1.44
  -4   8  -2    1.59    1.52
   4  -8  -2    0.20    1.33
   4   8   2   -0.65    1.49
  -4  -8  -2    0.24    1.13
  -4   8   2   -0.40    1.40
   4   8  -2   -1.31    1.51
   4  -8   2    0.83    0.97
   4  -8  -4   66.77   15.79
  -4  -8   4   90.26   18.88
   4   8   4   66.15    9.51
   4  -8  -4   74.50   15.54
  -4   8  -4   94.14   21.10
  -4   8  -4   76.67   23.17
  -4   8   4   90.90   17.97
  -4  -8  -4   85.23   17.45
   4   8  -4   69.68   19.18
  -4  -8  -4   93.59   15.48
  -4   8  -6    1.23    4.60
   4  -8  -6    0.59    3.44
  -4   8  -6    0.36    4.64
  -4  -8   6    0.90    4.54
  -4   8   6    1.75    4.56
  -4  -8  -6    0.54    3.33
   4   8  -6   -0.66    4.23
  -4  -8  -6    2.43    3.31
   4  10   0   -1.04    1.74
  -4  10   0   -0.32    1.94
   4 -10   0   -0.06    1.25
  -4 -10   0    0.30    1.15
   4  10   2  793.15   66.27
  -4 -10   2  811.68   75.25
  -4  10  -2  868.34   83.65
   4 -10  -2  786.50   68.58
   4  10   2  874.25   78.07
  -4 -10  -2  811.64   75.62
   4  10  -2  809.52   77.42
  -4  10   2  855.78   75.15
  -4  10  -4    2.07    2.97
  -4 -10   4    0.92    2.62
   4 -10  -4    0.52    2.10
   4  10   4    0.77    1.33
  -4  10  -4    1.55    3.18
  -4 -10  -4    0.23    2.26
   4  10  -4   -0.16    2.68
  -4  10   4   -0.14    3.39
  -4 -10  -4   -0.19    2.00
   4 -10  -6  217.20   39.17
  -4  10  -6  247.40   54.70
  -4 -10   6  225.17   51.71
   4 -10  -6  201.64   34.63
  -4  10  -6  235.09   55.23
   4  10  -6  219.95   48.89
  -4  10   6  236.62   51.13
  -4 -10  -6  249.98   39.42
  -4 -10  -6  218.41   38.23
   4  12   0   42.32    8.48
  -4  12   0   48.56    9.76
   4 -12   0   37.96    5.65
  -4 -12   0   42.53    7.48
   4 -12   0   37.69    8.66
   4  12   2   -1.80    2.25
  -4 -12   2    1.50    1.90
  -4  12  -2   -1.08    2.22
   4 -12  -2   -1.26    1.60
   4  12   2    0.82    1.82
  -4 -12  -2   -0.93    1.32
  -4  12   2   -0.72    1.80
   4  12  -2   -0.86    2.04
  -4 -12   4    5.13    5.44
  -4  12  -4    6.12    6.58
   4 -12  -4   12.42    5.98
   4 -12  -4    3.39    4.21
  -4  12  -4    8.31    6.36
   4  12   4    3.94    2.20
  -4  12   4    6.15    6.99
  -4 -12  -4    7.16    6.04
  -4 -12  -4    8.00    3.83
   4  12  -4    1.35    5.65
  -4 -12   6   -0.16    4.06
   4 -12  -6   -1.38    3.91
  -4  12  -6   -0.25    4.39
  -4  12  -6   -0.15    4.34
  -4 -12  -6   -0.56    2.74
   4  12  -6    0.82    3.90
  -4  12   6   -0.44    3.83
  -4 -12  -6   -1.55    2.79
   4  14   0   -1.26    1.08
  -4  14   0    0.01    1.28
   4 -14   0    0.18    1.18
  -4 -14   0    0.65    0.93
   4  14   2  297.16   38.76
   4 -14  -2  267.50   27.86
  -4  14  -2  316.61   38.64
   4  14   2  330.20   30.97
   4 -14  -2  315.99   30.04
  -4 -14   2  309.02   32.02
   4  14  -2  313.19   34.83
  -4 -14  -2  306.72   31.31
  -4  14   2  320.04   31.80
  -4  14  -4   -0.06    2.80
   4 -14  -4   -0.39    1.75
   4  14   4    0.93    1.49
  -4  14  -4   -2.12    2.77
  -4 -14   4    1.21    2.34
  -4 -14  -4   -0.16    2.43
  -4  14   4    0.00    2.93
   4  14  -4   -0.57    2.49
  -4 -14  -4    2.06    2.12
  -4  14  -6  136.88   42.66
   4 -14  -6  158.99   38.18
   4 -14  -6  130.54   27.70
  -4  14  -6  133.18   43.09
  -4 -14   6  135.03   39.39
  -4  14   6  143.19   35.52
  -4 -14  -6  133.35   26.59
  -4 -14  -6  142.68   36.50
   4  14  -6  140.22   38.39
   4  16   0  259.33   22.63
   4 -16   0  278.92   26.23
  -4  16   0  246.32   26.65
  -4 -16   0  246.65   27.53
   4 -16   0  222.89   16.52
   4  16   2    0.12    2.13
  -4 -16   2   -0.65    1.57
  -4  16  -2   -1.12    2.01
   4 -16  -2   -0.47    1.88
   4  16   2    0.56    1.33
  -4  16   2   -0.97    2.09
  -4 -16  -2   -0.38    1.08
   4  16  -2    0.11    2.41
  -4  16  -4  149.22   33.17
   4  16   4  139.12   20.25
  -4 -16   4  156.50   27.96
   4 -16  -4  148.64   20.81
  -4  16  -4  154.21   33.03
   4 -16  -4  133.95   29.37
  -4  16   4  148.14   35.09
  -4 -16  -4  149.19   18.69
  -4 -16  -4  139.12   21.12
   4  16  -4  166.97   30.25
  -4 -16   6    0.38    3.73
   4 -16  -6    0.05    2.47
  -4  16  -6   -1.87    3.92
  -4  16  -6    1.41    3.98
  -4  16   6    0.29    3.15
  -4 -16  -6    0.60    3.17
  -4 -16  -6    0.80    2.35
   4  16  -6    2.15    5.08
  -4 -18   0   -0.61    0.99
  -4  18   0   -0.36    1.39
   4 -18   0    0.31    1.17
   4  18   0    0.04    1.09
   4  18   2   25.92    7.27
  -4 -18   2   19.18    7.34
  -4  18  -2   25.36    9.28
   4  18   2   28.32    5.74
   4 -18  -2   27.35    6.12
   4 -18  -2   16.25    5.49
  -4 -18  -2   26.84    6.44
  -4  18   2   19.11    9.63
   4  18  -2   21.07    8.17
  -4  18  -4   -0.94    3.49
   4  18   4   -0.56    1.68
   4 -18  -4   -1.14    2.84
  -4  18  -4    0.86    3.46
  -4 -18   4   -2.01    3.06
  -4  18   4   -1.41    3.73
   4  18  -4   -1.77    3.32
  -4 -18  -4   -1.65    2.02
  -4 -18  -4    0.00    1.74
   4 -18  -6   11.29    6.53
  -4 -18   6    1.53    8.62
  -4  18  -6    5.89    9.68
   4 -18  -6    4.41    8.11
  -4  18  -6    9.71    9.63
  -4  18   6    3.40    7.36
  -4 -18  -6    7.52    5.46
  -4 -18  -6    6.06    5.53
   4  18  -6    8.29    9.23
  -4  20   0  558.72   49.89
   4 -20   0  504.52   36.41
   4 -20   0  541.23   43.54
  -4 -20   0  558.21   39.97
   4  20   0  550.12   50.92
   4  20   2   -0.54    2.11
  -4 -20   2   -0.16    2.78
   4 -20  -2   10.61    1.98
  -4  20  -2   -0.66    2.52
   4  20   2   -0.75    1.44
   4 -20  -2   -0.02    1.46
  -4 -20  -2   -0.12    1.55
  -4  20   2   -0.13    1.92
   4  20  -2    0.57    2.29
  -4  20  -4  251.93   47.00
   4  20   4  245.24   25.85
  -4 -20   4  260.71   40.63
   4 -20  -4  264.16   29.29
   4 -20  -4  247.21   34.45
  -4  20  -4  279.87   45.98
  -4  20   4  271.49   47.14
  -4 -20  -4  247.07   34.65
   4  20  -4  278.27   44.94
  -4 -20  -4  261.93   31.70
  -4  20  -6   -2.19    4.47
   4 -20  -6   -0.03    3.03
   4 -20  -6    0.46    2.62
  -4 -20   6   -0.67    4.02
  -4  20  -6    0.96    4.40
   4  20  -6   -0.25    4.31
  -4 -20  -6    1.11    2.39
  -4 -20  -6    1.71    2.37
  -4  20   6    1.51    3.22
  -4  22   0   -0.59    1.81
   4 -22   0    0.12    1.09
  -4 -22   0   -0.35    1.22
   4  22   0    0.09    1.36
   4 -22  -2   18.66    9.60
   4  22   2   40.46    9.97
  -4 -22   2   30.42    9.15
   4 -22  -2   45.68    8.75
  -4  22  -2   44.22   11.24
   4  22   2   43.20    6.20
  -4 -22  -2   33.13    7.16
  -4  22   2   40.79    8.81
   4  22  -2   30.96   10.76
  -4  22  -4   -1.67    3.38
   4  22   4   -0.84    2.51
  -4 -22   4    0.37    2.94
   4 -22  -4   -1.31    2.67
  -4  22  -4   -0.69    3.28
  -4 -22  -4   -0.93    1.47
  -4  22   4   -1.93    3.25
   4  22  -4   -0.77    4.59
  -4 -22  -4    0.08    1.66
  -4 -22  -4   -0.34    2.26
  -4  22  -6   15.46   11.54
   4 -22  -6   10.37    8.09
  -4 -22   6    2.60   10.68
   4 -22  -6    7.73    6.69
  -4  22  -6   17.82   11.57
  -4 -22  -6    9.96    6.08
   4  22  -6    8.64   11.87
  -4 -22  -6   14.83    8.20
  -4  22   6    6.49   10.94
  -4  24   0  347.90   42.06
   4 -24   0  278.61   28.95
  -4 -24   0  333.62   29.53
   4 -24   0  312.74   27.38
   4  24   0  299.99   32.28
   4 -24  -2    0.61    1.18
   4 -24  -2    7.41    1.59
  -4 -24   2    0.62    1.53
   4  24   2   -0.23    1.76
  -4  24  -2   -1.37    1.92
   4  24   2   -0.22    0.57
  -4  24   2   -1.31    1.49
   4  24  -2    1.10    1.89
  -4 -24  -2   -0.36    1.05
   4  24   4  158.51   29.73
  -4 -24   4  175.87   32.39
  -4  24  -4  177.00   37.25
   4 -24  -4  157.36   28.19
   4 -24  -4  177.59   22.28
  -4  24  -4  178.03   35.94
  -4  24   4  193.84   34.47
  -4 -24  -4  203.29   25.27
   4  24  -4  172.68   50.38
  -4 -24  -4  172.15   18.71
   4  24   6    0.38    1.04
   4 -24  -6   -1.04    2.76
  -4 -24   6    0.32    3.37
  -4  24  -6    2.33    3.64
   4 -24  -6   -0.82    2.86
  -4  24  -6    1.91    4.99
  -4 -24  -6    0.25    2.49
  -4  24   6    1.89    3.32
  -4 -24  -6   -0.40    1.79
   4  24  -6    0.84    3.81
  -4  26   0   -0.08    2.18
  -4 -26   0   -0.21    1.41
   4 -26   0   -0.02    1.31
   4  26   0   -1.07    1.61
   4 -26  -2   27.27    7.65
  -4 -26   2   23.48    7.81
   4  26   2   29.34    9.23
  -4  26  -2   31.38    9.71
   4 -26  -2   28.99    8.31
  -4  26   2   29.46    7.70
   4  26  -2   24.21    9.80
  -4 -26  -2   28.99    5.75
  -4  26  -4    0.08    2.57
   4  26   4   -1.36    1.64
  -4 -26   4   -1.60    3.08
   4 -26  -4    0.72    1.84
  -4  26  -4    0.21    2.46
  -4  26   4   -0.43    2.23
  -4 -26  -4    0.13    1.05
   4  26  -4   -0.55    3.66
  -4 -26  -4   -0.13    1.56
  -4 -26   6    3.65   10.37
   4 -26  -6    4.53    6.15
  -4  26  -6   10.41   11.13
   4  26   6   11.46    3.38
  -4  26  -6   11.42   11.14
   4 -26  -6   11.34    8.98
  -4 -26  -6    6.95    5.38
  -4  26   6    3.37    9.89
  -4 -26  -6   11.95    7.03
   4  26  -6   11.35   12.15
  -4  28   0  124.31   14.69
  -4 -28   0  141.18   11.80
   4 -28   0  125.58   14.19
   4 -28   0  136.26   15.55
  -4  28   0  141.41   23.93
   4  28   0  122.15   18.25
   4 -28  -2   -3.59    2.21
  -4  28  -2    0.01    0.89
   4  28   2   -1.84    2.66
  -4  28  -2   -0.15    2.56
  -4 -28   2   -0.12    2.20
  -4  28   2   -2.67    2.07
   4  28  -2   -4.34    2.76
  -4 -28  -2   -1.01    1.35
   4  28   4   71.97   15.56
  -4 -28   4   76.83   20.13
  -4  28  -4   77.17   21.96
  -4  28  -4   83.41   22.17
   4 -28  -4   65.84   12.24
   4 -28  -4   77.46   19.84
   4  28  -4   56.63   32.29
  -4 -28  -4   80.32   12.61
  -4  28   4   79.16   19.21
  -4 -28  -4   74.74   13.46
  -4  28  -6   -1.15    6.22
   4  28   6   -2.15    2.09
   4 -28  -6   -0.17    3.54
  -4  28  -6   -4.10    8.52
  -4 -28   6   -6.17    6.18
   4  28  -6  -13.00    7.01
  -4  28   6   -0.86    3.99
  -4 -28  -6   -1.17    3.77
  -4 -28  -6   -0.94    3.92
  -4  30   0   -0.25    1.60
  -4 -30   0    0.41    0.73
   4 -30   0   -0.09    1.44
   4 -30   0    1.11    1.38
   4  30   0   -1.40    1.20
   4 -30  -2 1283.99  105.82
   4  30   2 1223.61  129.61
  -4 -30   2 1280.30  121.67
  -4  30  -2 1333.48  133.47
  -4  30  -2 1177.25   91.04
   4 -30  -2 1267.44  129.47
   4  30  -2 1316.42  137.26
  -4  30   2 1362.78  121.21
  -4 -30  -2 1383.78  102.45
  -4  30  -4   -0.23    2.50
   4  30   4    0.62    1.92
  -4  30  -4   -1.68    2.56
  -4 -30   4    0.72    2.29
   4 -30  -4    0.16    1.91
   4 -30  -4   -0.32    2.39
  -4 -30  -4    0.36    1.31
  -4  30   4    0.09    1.49
   4  30  -4    0.47    3.65
  -4 -30  -4    0.54    1.36
  -4  30  -6  482.76   87.60
  -4  30  -6  524.96   87.59
   4  30   6  423.36   54.96
   4 -30  -6  451.23   68.07
   4 -30  -6  376.73   66.34
  -4 -30   6  462.33   86.87
   4  30  -6  477.14   94.45
  -4 -30  -6  522.50   62.78
  -4  30   6  385.38   57.89
  -4 -30  -6  448.92   57.27
  -4  32   0    0.37    3.95
  -4 -32   0    2.07    2.44
   4 -32   0    3.85    2.78
   4  32   0    5.05    2.90
   4 -32   0    5.60    2.55
  -4  32   0    2.24    2.55
   4 -32  -2   -0.46    1.57
   4  32   2    0.03    2.20
  -4  32  -2   -3.21    2.03
  -4  32  -2   -0.46    1.11
  -4 -32   2    0.24    1.69
  -4 -32  -2   -0.32    0.88
  -4  32   2    0.35    1.15
  -4  32   2   -0.10    1.97
   4  32  -2   -0.71    2.08
  -4 -32   4    2.60    2.89
   4  32   4    0.88    2.54
  -4  32  -4    1.30    3.11
  -4  32  -4   -1.26    3.16
   4 -32  -4   -0.73    2.62
   4 -32  -4    0.54    1.48
  -4 -32  -4    0.16    1.57
  -4  32   4    0.78    1.77
  -4 -32  -4    0.76    1.54
   4  32  -4    0.99    3.25
   4 -32  -6    0.19    2.19
  -4 -32   6   -1.05    4.34
  -4  32  -6   -0.34    4.26
   4  32   6   -3.04    2.63
  -4  32  -6    1.24    4.30
  -4  32   6   -0.63    2.45
  -4 -32  -6    0.52    2.51
   4  32  -6   -2.92    4.64
  -4 -32  -6   -0.05    2.61
  -4  34   0    0.08    1.85
   4 -34   0   -0.92    1.94
  -4 -34   0   -0.46    1.19
   4 -34   0    1.41    1.27
  -4  34   0    0.39    1.80
   4  34   0    0.42    1.34
  -4 -34   2    1.91    3.90
   4 -34  -2    2.42    2.52
  -4  34  -2    3.19    1.92
  -4  34  -2    4.10    3.28
   4 -34  -2    2.73    3.22
   4  34   2    4.08    3.80
  -4  34   2    0.61    2.07
  -4  34   2    2.84    3.19
   4  34  -2    3.74    3.38
  -4 -34  -2    2.07    1.63
  -4 -34   4   -1.02    2.08
  -4  34  -4   -0.41    2.27
   4  34   4    1.59    1.96
  -4  34  -4   -1.08    2.31
   4 -34  -4    0.43    2.00
   4 -34  -4   -0.51    1.42
  -4 -34  -4    0.12    0.96
   4  34  -4   -1.28    2.38
  -4 -34  -4    0.22    1.00
  -4  34   4   -0.47    1.24
  -4  34  -6    1.43    3.56
  -4 -34   6    0.82    3.61
  -4  34  -6    3.02    3.57
   4  34   6   -0.19    2.24
   4 -34  -6    0.67    2.87
   4 -34  -6   -1.34    2.44
  -4  34   6   -0.16    2.71
   4  34  -6    0.15    5.16
  -4  36   0   15.43    5.89
   4 -36   0   25.59    6.73
  -4 -36   0    9.63    5.11
   4 -36   0   23.34    3.47
  -4  36   0   20.71    8.46
   4  36   0   27.02    5.78
  -4 -36   2    0.37    1.63
  -4  36  -2   -0.07    1.22
   4 -36  -2    1.06    1.52
  -4  36  -2   -0.49    2.56
   4  36   2    0.40    2.22
   4 -36  -2    0.75    1.98
  -4  36   2    0.71    1.24
  -4 -36  -2    0.23    0.78
  -4  36   2   -0.83    1.76
   4  36  -2    1.95    2.60
   4 -36  -4    7.27    5.21
  -4 -36   4    5.73    7.29
  -4  36  -4   11.68    8.02
   4 -36  -4   13.27    7.11
  -4  36  -4    9.25    7.83
   4  36   4   10.21    7.92
  -4 -36  -4    7.27    3.12
   4  36  -4   13.24    8.07
  -4  36   4    4.71    5.64
  -4 -36  -4    9.18    3.07
  -4 -36   6    0.10    4.10
  -4  36  -6    1.42    4.02
   4  36   6   -0.02    2.71
   4 -36  -6   -0.08    3.44
  -4  36  -6    2.26    4.00
   4 -36  -6    0.25    2.87
  -4  36   6   -0.01    2.98
   4  36  -6    0.88    4.21
   4 -38   0   -1.05    2.65
  -4  38   0   -1.19    1.51
  -4 -38   0   -0.28    1.33
  -4  38   0   -1.01    1.76
   4  38   0    0.34    1.44
  -4  38  -2    0.63    1.53
   4 -38  -2    0.87    1.53
  -4  38  -2    1.66    2.92
   4 -38  -2   -0.51    2.37
  -4 -38   2   -0.38    2.58
   4  38   2   -0.71    2.70
  -4  38   2    0.71    1.47
   4  38  -2    1.39    2.89
  -4  38   2    1.06    1.92
   4 -38  -4    0.80    1.70
  -4  38  -4    2.04    2.84
  -4 -38   4   -0.59    2.60
   4 -38  -4   -3.62    2.82
  -4  38  -4    0.56    3.97
   4  38   4   -0.29    3.03
   4  38  -4    2.20    2.88
  -4  38   4    1.25    1.94
  -4 -38  -4    0.31    0.89
  -4 -38  -4    0.31    0.91
  -4  40   0  302.29   27.77
   4 -40   0  263.49   33.05
  -4 -40   0  277.10   23.80
  -4  40   0  236.18   30.15
   4  40   0  264.38   24.49
   4  40   2   -1.27    2.33
   4 -40  -2   -0.90    0.92
  -4  40  -2    0.23    1.75
   4 -40  -2    0.36    2.13
  -4 -40   2   -0.05    1.56
  -4  40  -2    0.30    1.39
  -4  40   2   -0.20    1.52
   4  40  -2   -0.72    2.37
  -4  40   2    0.33    1.29
   4 -40  -4  135.58   16.60
  -4  40  -4  180.30   34.99
  -4  40  -4  204.72   35.17
   4 -40  -4  161.54   33.54
  -4 -40   4  163.25   42.36
   4  40   4  169.02   36.33
  -4  40   4  139.62   23.23
   4  40  -4  164.93   33.93
   4 -42   0   -0.58    2.00
   4  42   0   -0.39    1.21
  -4  42   0   -0.24    1.81
  -4 -42   0    0.18    1.10
  -4  42   0   -0.73    1.72
   4 -42  -2    4.11    4.57
   4  42   2    4.82    4.89
  -4  42  -2    4.31    3.56
   4 -42  -2    3.59    2.62
  -4  42  -2    2.20    4.54
  -4 -42   2    2.35    4.50
  -4  42  -2    2.05    2.28
  -4  42   2    3.15    2.18
   4  42  -2    3.71    3.46
  -4  42   2    4.12    2.72
  -4  42  -4   -1.81    3.74
  -4 -42   4   -1.20    3.37
   4 -42  -4   -0.20    2.13
   4  42   4   -1.81    3.68
  -4  42  -4    0.99    3.71
   4  42   4   -2.20    4.02
  -4  42   4   -1.25    2.23
   4  42  -4   -0.89    3.56
   4  44   0   52.62    9.02
  -4  44   0   69.06   13.64
  -4  44   0   58.96   12.63
  -4 -44   0   58.04    8.61
   4  44   2    1.91    3.08
   4 -44  -2    1.71    2.06
  -4  44  -2   -0.75    1.06
  -4  44  -2    0.72    1.73
  -4 -44   2    0.22    1.44
   4 -44  -2    0.22    1.15
  -4  44  -2   -0.11    1.75
  -4  44   2    0.47    1.23
   4  44  -2   -0.91    1.50
  -4  44   2    1.14    2.13
   4  44   4   24.45   11.59
   4 -44  -4    6.64    6.34
  -4  44  -4   31.45   16.18
   4 -44  -4   34.62   12.73
  -4  44  -4   45.78   11.72
  -4 -44   4   16.57   11.10
  -4  44   4   15.98    6.72
   4  44  -4   17.40   11.24
   4  46   0   -0.30    2.64
   4  46   0    0.22    1.00
  -4  46   0    1.23    1.58
  -4  46   0    0.35    1.61
  -4 -46   0   -0.36    0.95
  -4  46  -2   20.54    9.85
  -4 -46   2    8.75    8.00
   4 -46  -2   16.02   12.11
  -4  46  -2   24.08    6.95
   4  46   2   18.49    9.48
  -4  46  -2    9.84    5.05
   4 -46  -2   10.25    4.57
  -4  46   2   13.89    4.97
   4  46  -2   12.16    6.14
  -4  46   2   18.34    9.20
  -4 -46   4    0.37    2.82
  -4  46  -4    0.40    2.96
   4  46   4    0.07    2.99
   4 -46  -4   -0.21    3.39
  -4  46  -4   -2.11    2.84
   4  46  -4   -0.48    2.79
   4  48   0   55.11   19.83
  -4  48   0   56.67    8.77
  -4 -48   0   44.53    7.44
   4  48   0   41.00    6.88
  -4  48   0   51.32   12.44
   4 -48  -2    1.42    1.85
   4  48   2    0.54    1.94
  -4  48  -2    0.36    1.86
  -4  48  -2   -0.31    1.39
  -4 -48   2    0.41    1.16
  -4  48  -2   -0.60    1.03
   4 -48  -2   -0.65    0.65
  -4  48   2    0.45    0.92
   4  48  -2    0.22    1.20
  -4  48   2    2.64    1.92
  -4  48  -4   18.29   13.36
   4  48   4   19.46   13.62
   4 -48  -4   16.99   15.44
  -4  48  -4   39.40   12.78
  -4 -48   4   34.17   12.94
   4  48  -4   17.40   12.57
   4  50   0    0.36    2.80
   4  50   0   -0.23    0.88
  -4  50   0   -0.26    1.89
  -4  50   0   -0.25    1.54
  -4 -50   2   15.28   15.10
   4 -50  -2   48.73   17.46
  -4  50  -2   51.09   12.04
  -4  50  -2   57.43   12.37
   4  50   2   12.47   17.93
  -4  50  -2   49.36    9.56
  -4  50   2   50.73    8.15
   4  50  -2   26.76   14.70
  -4  50   2   45.05   18.06
  -4 -50   4   -0.93    4.65
   4  50   4   -2.18    4.50
  -4  50  -4    0.21    4.22
   4 -50  -4    1.49    5.06
  -4  50  -4   15.78    5.61
   4  50  -4   -1.33    5.49
   4  52   0   16.08    9.25
   4  52   0    7.94    2.86
  -4  52   0   15.61    6.35
  -4  52   0    8.95    5.00
   4 -52  -2    1.93    2.44
  -4 -52   2   -0.73    1.46
  -4  52  -2   -0.02    1.19
  -4  52  -2    0.18    1.59
   4  52   2   -0.06    2.37
  -4  52  -2   -0.03    2.13
  -4  52   2   -0.12    0.97
   4  52  -2    0.62    1.91
  -4  52   2    1.67    2.53
   4  52   4    7.54    7.13
   4 -52  -4    6.29    8.06
  -4  52  -4    1.95    6.33
  -4  52  -4    5.43    8.99
   4  52  -4    4.99    6.18
   4  54   0    1.76    2.63
  -4  54   0   -0.13    1.61
   4  54   0   -0.02    0.69
  -4  54   0    0.46    1.80
  -4  54   0    0.14    1.36
   4 -54  -2   24.20   18.52
  -4  54  -2   49.15   11.57
  -4  54  -2   42.70    9.15
  -4  54  -2   54.23   11.14
   4  54   2   46.16   17.59
  -4  54   2   42.56   19.10
   4  54  -2   26.44   10.32
  -4  54  -4    0.27    3.22
   4  54   4    0.79    3.61
   4 -54  -4   -2.15    4.11
  -4  54  -4   -3.68    3.11
   4  54  -4    1.63    3.00
   4  56   0   32.74   20.03
  -4  56   0   47.86   11.99
  -4  56   0   33.51   13.59
  -4  56   0   54.99   11.53
   4 -56  -2   -1.64    2.75
  -4  56  -2   -0.09    2.00
   4  56   2    1.64    3.31
  -4  56  -2   -0.54    2.11
  -4  56  -2   -0.25    1.23
  -4  56   2   -0.32    2.64
   4  56  -2    0.96    1.29
  -4  58   0    0.39    2.60
  -4  58   0    1.32    2.06
  -4  58   0    0.33    2.07
   4  58   0   -0.53    3.77
  -4  58  -2    5.67    3.53
   4  58   2    4.84    6.02
  -4  58  -2    1.93    3.06
  -4  58  -2    3.35    3.73
  -4  58   2    2.33    6.42
   4  58  -2    1.06    4.29
  -4  60   0  140.56   27.73
   4  60   0  171.86   39.24
  -4  60  -2   -0.28    1.99
  -4  60  -2    0.47    2.30
   4  60   2   -0.48    3.33
  -4  60  -2   -2.22    1.95
  -4  60   2   -0.37    3.50
   4  60  -2    1.23    2.27
   4  62   0    0.50    3.20
  -4  62   0    0.10    2.40
  -4  62  -2   25.10   11.04
  -4  62  -2    6.81    9.64
  -4  62  -2   35.07   10.92
   4  62   2   16.55   13.13
  -4  62   2   16.70   14.25
  -4  64   0    7.61    6.94
  -5   1  -1   15.91    6.53
   5   1   1   11.74    6.01
  -5  -1   1   19.84    6.46
   5  -1  -1   15.88    6.02
  -5  -1  -1    7.61    5.86
   5  -1   1   17.19    6.16
  -5   1   1   20.88    6.32
   5   1  -1   24.78    6.08
   5  -1  -3    7.61    6.98
  -5   1  -3   15.62    9.38
  -5  -1   3    6.04    7.46
   5   1   3   20.65    2.73
   5  -1   3   14.71    2.22
  -5   1   3    7.68    7.38
  -5  -1  -3   18.05    6.55
   5   1  -3    5.01    7.22
  -5  -1   5   11.77    7.03
  -5   1  -5    8.37    7.88
   5  -1  -5   -0.37    3.28
  -5   1  -5   11.41    6.66
   5  -1  -5   13.15    6.36
  -5  -1  -5    4.38    7.49
  -5   1   5   15.46    7.06
   5   1  -5    8.71    8.92
  -5  -1  -5    6.55    6.44
  -5   1  -7   -3.32    8.47
   5  -1  -7    2.76    8.02
   5  -1  -7    9.00    6.26
  -5   1  -7    2.64    8.60
  -5  -1   7    2.58    9.92
  -5  -1  -7    9.45    8.15
   5   1  -7    8.08    6.22
   5   1  -7    6.00    8.18
  -5   1   7    1.24    9.95
  -5  -1  -7    8.99    8.30
  -5   3  -1   17.34    7.95
   5   3   1   28.97    6.93
  -5  -3   1   19.78    7.58
   5  -3  -1   24.10    7.06
  -5  -3  -1   22.51    6.80
   5  -3   1   19.05    7.31
  -5   3   1   28.42    7.52
   5   3  -1   26.67    8.14
  -5  -3   3   19.62    8.11
  -5   3  -3   23.60    7.90
   5  -3  -3   13.05    7.57
   5   3   3   20.17    3.32
   5   3  -3   15.99    8.20
  -5   3   3   15.60    8.13
  -5  -3  -3   18.92    7.03
  -5   3  -5   10.67    8.57
  -5  -3   5    7.42    8.68
   5  -3  -5    9.92    4.28
   5  -3  -5    7.21    7.67
  -5   3  -5   11.53   10.09
  -5  -3  -5   14.45    8.74
  -5  -3  -5   12.92    7.43
   5   3  -5    5.71    8.14
  -5   3   5   12.42    8.64
  -5  -3   7    3.96   12.31
  -5   3  -7    8.78   10.87
  -5   3  -7    8.88   11.01
   5  -3  -7    6.35    9.71
   5  -3  -7   15.71    7.43
   5   3  -7   14.31    7.64
   5   3  -7    4.59   10.41
  -5  -3  -7    6.23    9.95
  -5   3   7    2.77   12.59
  -5  -3  -7    7.27    9.80
   5  -5  -1   14.12    9.30
  -5   5  -1   53.65   10.24
   5   5   1   43.61    9.72
  -5  -5   1   47.40    9.30
  -5  -5  -1   35.56    8.13
  -5   5   1   18.65    9.30
   5   5  -1   31.78   13.88
   5  -5   1   50.88    9.28
  -5   5  -3   18.71   11.51
  -5  -5   3   37.94   11.64
   5  -5  -3   38.81   10.57
   5   5   3   38.97    5.69
  -5   5   3   55.26   11.57
   5   5  -3   32.98   11.68
  -5  -5  -3   47.60   10.86
  -5   5  -5   20.17   12.17
  -5  -5   5    5.26   10.13
   5  -5  -5   19.66    4.92
   5  -5  -5    2.58    8.66
  -5   5  -5   21.19   10.31
  -5   5   5    5.59    9.94
  -5  -5  -5   16.80    8.26
   5   5  -5    4.64    9.61
  -5  -5  -5   16.90    9.17
  -5  -5   7    8.00   13.65
  -5   5  -7    3.44   12.78
   5  -5  -7    7.90   10.59
  -5   5  -7    7.47   12.79
   5  -5  -7   20.64   11.38
  -5  -5  -7   10.75   10.38
   5   5  -7   18.63    8.99
  -5   5   7    8.65   14.05
   5   5  -7   12.81   11.79
  -5  -5  -7   10.50   10.55
   5  -7  -1   72.94   11.98
  -5   7  -1   52.04   13.37
   5   7   1   81.16   12.40
  -5  -7   1   29.11   11.58
  -5  -7  -1   71.92   10.89
   5  -7   1   47.80   12.18
  -5   7   1   68.04   12.15
   5   7  -1   49.69   12.81
  -5   7  -3   43.14   11.72
   5   7   3   24.59    6.58
  -5  -7   3   65.35   11.49
  -5  -7  -3   33.48    9.91
  -5   7   3   36.93   11.16
   5   7  -3   38.00   11.80
  -5  -7   5   13.86   12.66
   5  -7  -5   58.72   10.64
  -5   7  -5   18.10   13.36
   5  -7  -5   10.05   10.63
  -5   7  -5   20.84   15.21
  -5  -7  -5   20.40   11.03
  -5  -7  -5   24.05    9.98
   5   7  -5   12.28   12.25
  -5   7   5   13.58   12.63
  -5   7  -7   11.40   13.32
  -5  -7   7   12.91   13.17
   5  -7  -7   15.57    8.56
   5  -7  -7    2.68   10.41
  -5   7  -7   13.48   18.22
   5   7  -7   25.49    8.92
  -5  -7  -7    6.24    9.82
   5   7  -7    7.72   12.25
  -5  -7  -7    6.55   10.22
  -5   7   7    6.88   14.16
   5  -9  -1   70.60   13.49
  -5   9  -1   88.80   16.02
   5   9   1   44.99   18.73
  -5  -9   1   97.54   13.51
  -5  -9  -1   47.50   11.89
  -5   9   1   79.29   14.40
   5  -9   1   88.84   14.17
   5   9  -1  100.15   14.99
  -5  -9   3   10.81   13.09
   5   9   3   57.40    8.94
  -5   9  -3   55.13   14.33
   5  -9  -3   52.42   12.13
  -5  -9  -3   67.32   11.31
  -5   9   3   63.53   12.83
   5   9  -3   10.61   13.73
  -5   9  -5   27.23   18.84
  -5  -9   5   34.31   15.95
   5  -9  -5   84.21   12.55
   5  -9  -5   26.08   17.48
  -5   9  -5   25.17   17.46
  -5  -9  -5    9.69   12.93
  -5   9   5   31.82   21.04
   5   9  -5   31.21   15.72
  -5  -9  -5   18.02   16.10
  -5  -9   7    0.28   12.19
   5  -9  -7    3.72    9.36
  -5   9  -7   14.53   12.75
  -5   9  -7   18.11   12.77
  -5   9   7   -0.01   12.64
  -5  -9  -7   18.17   12.33
   5   9  -7   -1.21   11.56
  -5  -9  -7   19.26    8.79
   5 -11  -1   97.84   13.88
  -5 -11   1   82.18   14.49
   5  11   1  108.74   15.05
  -5  11  -1   68.00   16.75
   5 -11   1   64.96   15.25
  -5  11   1  118.88   15.90
  -5 -11  -1   92.79   11.94
   5  11  -1   76.76   15.11
  -5 -11   3   68.42   16.20
   5 -11  -3   91.81    8.72
   5  11   3   43.52   11.99
  -5  11  -3   77.52   17.93
   5 -11  -3   47.79   13.80
  -5  11   3   51.12   15.01
   5  11  -3   74.10   16.40
  -5 -11  -3   55.88   12.67
  -5  11  -5   23.57   18.82
   5  11   5   32.89    5.76
   5 -11  -5   75.92   12.66
   5 -11  -5   19.84   12.55
  -5  11  -5   21.68   24.53
  -5 -11   5   26.91   15.96
  -5  11   5   26.66   21.17
   5  11  -5   20.59   16.10
  -5 -11  -5   38.39   11.40
  -5 -11  -5   29.03   12.42
  -5  13  -1  122.12   18.59
   5 -13  -1   55.90   13.94
  -5 -13   1  109.14   20.61
   5  13   1   84.12   15.47
   5 -13  -1   94.78    8.06
   5  13  -1   97.38   16.19
   5 -13   1  141.61    8.86
   5 -13   1  113.81   17.15
  -5  13   1   64.75   16.25
  -5 -13  -1   77.18   11.95
  -5 -13   3   72.42   17.72
   5 -13  -3  131.31   16.16
   5  13   3   66.42   10.85
  -5  13  -3   33.95   19.47
   5 -13  -3   84.26   14.46
  -5 -13  -3   63.20   12.44
  -5  13   3   96.50   17.40
   5  13  -3   76.59   18.20
  -5  13  -5   29.66   17.20
  -5 -13   5   12.07   14.74
   5  13   5   29.00    5.69
  -5  13  -5   43.48   23.13
   5 -13  -5    7.65   10.93
   5 -13  -5   74.94   11.07
  -5  13   5    8.72   19.33
  -5 -13  -5   20.48    9.68
   5  13  -5    9.49   14.97
  -5 -13  -5   33.25   14.79
   5 -15  -1   92.80   15.31
  -5  15  -1   68.73   18.59
   5  15   1  103.79   15.71
  -5 -15   1   62.80   14.96
   5 -15  -1  147.66   13.75
   5 -15   1   55.45   16.70
  -5  15   1  112.58   17.02
   5  15  -1   63.11   21.83
   5 -15   1  131.80    9.20
  -5 -15  -1   98.46   13.21
   5  15   3   23.31   10.36
   5 -15  -3  134.30   13.24
  -5  15  -3   65.93   17.23
  -5 -15   3   76.23   15.02
   5 -15  -3   48.54   11.79
  -5 -15  -3   36.15    9.81
  -5  15   3   41.98   14.42
   5  15  -3   66.03   15.69
  -5 -15   5   18.97   15.24
   5  15   5   26.30    8.16
  -5  15  -5   22.62   17.80
   5 -15  -5   17.68   11.09
  -5  15  -5   27.68   16.85
   5 -15  -5   72.58   11.43
  -5  15   5   13.00   20.30
  -5 -15  -5   31.70    9.68
   5  15  -5   12.00   15.87
  -5 -15  -5   30.41   14.61
   5 -17  -1   55.50   16.41
  -5  17  -1   63.45   15.68
   5  17   1   14.97   12.09
   5 -17  -1  149.46   14.76
  -5 -17   1   71.17   12.04
   5 -17   1   94.59    7.67
   5 -17   1   73.57   13.78
  -5  17   1   60.55   13.58
   5  17  -1   73.63   13.35
  -5 -17  -1   39.63   10.11
   5  17   3   45.60    9.76
  -5 -17   3    6.70   12.56
  -5  17  -3   39.04   15.01
   5 -17  -3   84.28   11.12
   5 -17  -3   42.00    9.87
  -5  17   3   19.19   12.51
   5  17  -3    4.76   13.52
  -5 -17  -3   49.83    8.45
  -5 -17   5   14.52   12.88
  -5  17  -5   19.30   14.44
   5  17   5   10.89    7.44
  -5  17  -5   22.97   15.34
   5 -17  -5   26.69    9.29
   5 -17  -5   69.36   10.26
  -5 -17  -5    8.81    8.71
  -5  17   5   13.45   16.65
  -5 -17  -5   10.29   10.65
   5  17  -5   26.58   13.82
   5  19   1   42.23    9.86
   5 -19  -1   44.12    9.87
  -5 -19   1   25.63   10.09
  -5  19  -1   31.17   18.59
   5 -19  -1   74.84    8.58
   5 -19   1   24.23   11.45
  -5  19   1   51.12   11.88
   5  19  -1   22.46   11.36
  -5 -19  -1   50.82   10.75
   5 -19   1   93.73    7.50
   5  19   3   20.84    8.51
  -5  19  -3   26.67   12.17
  -5 -19   3   21.18    9.74
   5 -19  -3   60.86    8.52
   5 -19  -3   12.54    8.27
  -5 -19  -3   20.50    8.66
  -5  19   3   19.39   10.09
   5  19  -3   23.00   11.09
  -5  19  -5   13.97   11.29
   5 -19  -5   47.22    8.46
  -5  19  -5   17.37   16.03
   5 -19  -5    6.12    7.40
  -5 -19   5    5.95   10.19
   5  19   5    9.39    4.32
   5  19  -5    8.16   11.16
  -5 -19  -5   10.33    6.51
  -5 -19  -5   11.47    5.91
  -5  19   5    6.55   12.49
   5  21   1   19.44    6.80
  -5  21  -1   31.24   13.70
   5 -21  -1   11.01    9.39
  -5 -21   1    8.75    7.32
   5 -21  -1   54.53    6.70
   5  21  -1   12.47    8.12
   5 -21   1   40.50    4.87
   5 -21   1   27.25    8.26
  -5  21   1   12.38    8.48
  -5 -21  -1   22.86    5.52
  -5 -21   3   16.50    8.19
   5  21   3   20.29    7.47
  -5  21  -3    9.62    9.95
   5 -21  -3   33.26    7.09
   5 -21  -3   14.24    6.71
  -5 -21  -3   14.36    5.28
   5  21  -3   15.22    9.49
  -5  21   3   14.09    8.39
  -5  21  -5   12.40    8.64
  -5 -21   5    1.59    7.86
   5 -21  -5    8.25    6.54
  -5  21  -5   12.16    9.04
   5 -21  -5    2.73    5.52
   5  21   5    6.09    4.93
  -5 -21  -5   10.21    4.93
  -5  21   5   -0.45    9.20
   5  21  -5    3.20    8.82
  -5 -21  -5    9.12    4.94
  -5  23  -1   11.24    7.17
   5  23   1   13.93    4.75
  -5 -23   1    9.56    5.12
   5 -23  -1   21.01    4.80
   5 -23  -1   13.38    4.72
   5 -23   1   10.86    3.76
   5 -23   1    9.89    5.86
  -5 -23  -1   11.25    3.80
   5  23  -1   12.88    5.85
  -5  23   1   16.54    6.03
   5  23   3    9.11    5.20
   5 -23  -3   18.39    5.27
  -5  23  -3    8.99    6.72
  -5 -23   3    5.72    5.55
   5 -23  -3    2.39    3.90
  -5 -23  -3    8.78    4.63
  -5  23   3    3.01    5.73
   5  23  -3    4.81    6.59
   5 -23  -5    3.15    5.93
  -5  23  -5    4.92    7.93
  -5  23  -5    4.47    8.12
   5 -23  -5    5.60    4.91
   5  23   5    5.43    4.74
  -5 -23   5    0.76    7.14
  -5  23   5    6.10    7.97
  -5 -23  -5    8.10    5.83
   5  23  -5    4.74   11.25
  -5 -23  -5    8.23    5.82
   5 -25  -1    9.27    5.40
   5 -25  -1   15.48    4.02
   5  25   1    4.74    3.75
  -5  25  -1    9.07    8.25
  -5 -25   1   10.65    5.61
  -5  25   1    7.45    5.07
   5 -25   1    8.60    3.55
  -5 -25  -1    3.70    4.01
   5 -25   1    9.52    5.10
   5  25  -1   10.74    4.99
   5  25   3    6.56    4.82
   5 -25  -3    8.89    4.84
  -5 -25   3    1.81    5.03
  -5  25  -3    7.68    5.91
   5 -25  -3    5.03    4.74
  -5 -25  -3    6.32    3.72
   5  25  -3    2.01    8.39
  -5  25   3    4.77    5.01
  -5  25  -5    9.22    7.30
   5 -25  -5    8.74    5.57
  -5 -25   5    2.67    6.56
  -5  25  -5    7.60    7.36
   5  25   5    1.87    3.44
   5 -25  -5    4.57    4.27
  -5 -25  -5    3.26    3.74
  -5  25   5    4.83    5.14
  -5 -25  -5    4.48    3.50
   5  25  -5    5.64   10.76
  -5  27  -1    3.97    6.09
   5  27   1    3.79    2.83
   5 -27  -1    6.40    3.12
  -5 -27   1    1.44    3.04
   5 -27  -1    5.87    3.41
   5 -27   1    3.67    2.11
  -5 -27  -1    3.82    2.96
   5  27  -1    5.44    3.92
  -5  27   1    6.49    3.90
   5 -27   1    4.54    3.86
   5 -27  -3    1.41    3.01
  -5 -27   3    0.59    4.18
   5  27   3    4.59    4.09
  -5  27  -3    5.06    4.88
   5 -27  -3    5.36    4.03
  -5 -27  -3    4.47    2.10
   5  27  -3    0.59    7.11
  -5  27   3    2.69    3.92
  -5  27  -5    2.59    5.94
  -5 -27   5    3.17    5.51
   5  27   5    2.15    3.24
  -5  27  -5    2.27    6.21
   5 -27  -5    4.63    4.74
   5 -27  -5    6.15    4.77
  -5 -27  -5    1.25    2.97
  -5 -27  -5    3.96    3.78
  -5  27   5    0.71    4.08
   5  27  -5    1.27    9.18
   5  29   1    2.86    4.39
   5 -29  -1    7.74    5.13
  -5 -29   1    4.99    4.93
  -5  29  -1    8.04    7.13
   5 -29  -1    7.52    4.24
   5 -29   1    8.22    3.65
  -5 -29  -1    4.32    3.39
   5  29  -1    5.48    4.76
  -5  29   1    3.03    4.70
   5 -29   1   10.37    2.79
   5 -29  -3    3.92    3.42
  -5 -29   3    1.75    4.80
   5  29   3    6.75    4.67
   5 -29  -3   10.07    4.75
  -5  29  -3    6.29    5.46
  -5 -29  -3    5.33    3.26
  -5  29   3    2.35    4.34
   5  29  -3    2.04    8.20
   5  29   5    3.40    3.48
  -5 -29   5    0.81    5.62
  -5  29  -5    5.76    6.21
   5 -29  -5    1.35    3.64
   5 -29  -5    4.67    5.35
  -5  29  -5    5.64    6.08
  -5  29   5    1.54    3.91
  -5 -29  -5    2.50    3.83
   5  29  -5    7.00    9.09
  -5 -29  -5    1.89    2.73
  -5  31  -1    7.96    6.76
   5  31   1    6.32    4.00
  -5 -31   1    2.88    3.48
   5 -31  -1   11.05    3.22
   5 -31  -1   11.50    3.82
   5 -31   1    7.03    3.97
   5  31  -1    5.17    4.55
  -5  31   1    6.29    4.36
  -5 -31  -1    7.49    3.27
   5 -31   1    0.75    2.70
   5 -31  -3    3.85    4.34
  -5  31  -3    7.72    5.48
  -5 -31   3    4.99    4.86
   5  31   3    4.81    4.82
   5 -31  -3    6.54    5.32
  -5  31   3    2.85    4.21
   5  31  -3    6.21    8.12
  -5 -31  -3    5.21    2.88
  -5 -31   5    1.11    5.94
   5  31   5    3.78    3.90
  -5  31  -5    4.34    6.35
  -5  31  -5    5.32    6.43
   5 -31  -5    1.81    5.09
   5 -31  -5    5.25    7.83
  -5 -31  -5    4.07    3.70
  -5  31   5    0.54    3.94
   5  31  -5    3.93    9.38
  -5 -31  -5    2.84    2.79
  -5  33  -1   11.56    6.99
  -5 -33   1    5.72    5.09
   5  33   1    9.20    3.89
   5 -33  -1    4.89    3.37
   5 -33  -1    6.26    4.14
  -5 -33  -1    7.48    3.26
   5 -33   1   12.36    4.47
   5  33  -1    4.29    4.50
  -5  33   1    2.48    4.41
   5 -33  -3    6.59    3.29
  -5 -33   3    5.16    5.10
  -5  33  -3    5.07    5.77
   5  33   3    6.42    5.24
   5 -33  -3    8.57    5.73
  -5  33   3    2.90    4.24
   5  33  -3    8.30    8.44
  -5 -33  -3    4.80    3.15
  -5  33  -5    6.54    6.24
   5  33   5    5.38    5.69
  -5 -33   5   -0.50    5.96
  -5  33  -5    7.50    6.40
   5 -33  -5    2.91    5.83
   5 -33  -5    0.74    3.22
  -5 -33  -5    6.10    3.66
  -5  33   5   -1.32    3.77
  -5 -33  -5    4.05    3.49
   5  33  -5    2.20    6.79
  -5  35  -1    9.74    5.54
  -5 -35   1    4.51    4.02
   5  35   1    6.87    4.10
   5 -35  -1   11.45    4.92
   5 -35  -1   10.63    5.25
   5  35  -1    7.41    4.87
  -5 -35  -1    9.35    3.62
  -5  35   1   13.23    4.92
   5 -35  -3    4.02    4.36
  -5 -35   3    2.32    4.75
  -5  35  -3    6.99    5.28
   5  35   3    5.41    5.01
   5 -35  -3    5.86    4.90
  -5  35   3    2.83    3.53
   5  35  -3    4.10    5.50
  -5 -35  -3    5.16    2.53
  -5 -35   5    2.15    6.40
  -5  35  -5    2.96    6.92
   5  35   5    4.34    6.54
  -5  35  -5    0.46    6.87
   5 -35  -5    8.78    5.70
   5 -35  -5    3.14    4.58
  -5 -35  -5    2.70    2.61
  -5 -35  -5    4.01    2.70
  -5  35   5    3.01    5.35
   5  35  -5    4.67    7.19
  -5  37  -1   14.78    5.70
   5  37   1    2.42    3.94
  -5  37  -1   10.10    2.14
   5 -37  -1   11.22    5.38
   5 -37  -1   11.16    4.01
  -5 -37   1    9.81    5.64
  -5 -37  -1    5.77    3.44
  -5  37   1   14.77    4.91
   5  37  -1   12.02    4.88
  -5  37  -3    9.12    7.18
   5 -37  -3    3.68    4.50
  -5 -37   3    0.72    5.15
  -5  37  -3   11.19    5.74
   5  37   3    6.55    5.62
   5 -37  -3    5.90    5.43
  -5  37   3    3.31    3.75
   5  37  -3    2.65    5.95
  -5 -37  -3    6.26    2.65
  -5 -37  -3    6.87    2.81
   5 -37  -5    3.98    3.82
  -5  37  -5    6.99    7.62
   5  37   5    3.25    7.63
  -5  37  -5    7.34    7.28
   5 -37  -5    5.95    6.36
  -5 -37   5    1.78    6.81
  -5  37   5    2.57    5.63
   5  37  -5    5.31    7.68
   5  39   1   14.76    8.67
  -5 -39   1    2.24    5.80
  -5  39  -1   16.64    5.81
   5 -39  -1   12.18    6.02
   5  39   1   17.38    3.41
   5 -39  -1    8.36    5.82
  -5  39  -1   10.32    3.88
  -5  39   1   -0.58    3.45
  -5 -39  -1   14.84    3.35
  -5  39   1   10.69    4.99
   5  39  -1    2.12    6.61
  -5  39  -3    5.44    6.11
   5 -39  -3    0.51    2.76
  -5  39  -3    8.43    6.76
   5  39   3    3.17    4.96
  -5 -39   3    6.96    6.13
   5 -39  -3   10.50    4.91
  -5 -39  -3    3.39    1.89
  -5  39   3    8.26    4.20
   5  39  -3   12.68    5.03
  -5 -39  -3    1.95    1.81
   5 -39  -5    0.84    4.75
  -5 -39   5    0.18    6.40
   5  39   5    8.83    7.54
  -5  39  -5   11.31    7.03
  -5  39  -5    9.38    6.72
   5 -39  -5    1.97    6.09
  -5  39   5    1.77    5.07
   5  39  -5    0.64    7.03
   5  41   1    7.10    7.81
  -5  41  -1   10.17    5.22
  -5 -41   1    3.58    3.76
   5 -41  -1    6.65    5.48
   5  41   1   12.91    2.76
   5 -41  -1    4.57    3.64
  -5  41  -1   10.07    3.65
  -5  41   1    1.21    3.18
  -5 -41  -1    9.11    2.86
  -5  41   1    6.18    5.64
   5  41  -1    5.71    5.70
   5 -41  -3    2.61    4.12
  -5  41  -3    5.59    6.36
  -5  41  -3    5.65    5.59
   5  41   3    8.38    8.01
   5 -41  -3    9.00    5.94
  -5 -41   3    5.37    5.19
  -5  41   3   18.33    4.61
  -5 -41  -3    1.96    2.08
   5  41  -3   10.49    5.62
   5 -41  -5    0.43    3.87
  -5  41  -5    8.09    6.20
   5  41   5    3.84    5.25
   5 -41  -5    1.68    5.73
  -5  41  -5    8.70    5.97
  -5 -41   5    3.98    5.70
  -5  41   5    0.20    3.15
   5  41  -5    2.43    6.14
   5  43   1    4.48    5.93
  -5  43  -1    2.22    4.01
   5 -43  -1    8.67    4.40
  -5 -43   1    4.30    4.00
  -5  43  -1    3.53    3.02
   5  43   1    5.66    2.15
   5 -43  -1    7.49    3.91
  -5  43   1    1.26    2.59
  -5 -43  -1    1.80    2.03
  -5  43   1    6.38    4.36
   5  43  -1    7.11    4.34
   5 -43  -3    1.36    5.49
  -5 -43   3    2.37    4.70
   5 -43  -3    0.04    3.80
   5  43   3    4.00    5.40
  -5  43  -3    5.40    4.97
  -5  43  -3    7.66    5.65
   5  43  -3    3.62    4.93
  -5  43   3    8.02    3.93
  -5  43  -5    3.20    6.94
   5  43   5    3.40    6.20
   5 -43  -5    5.64    6.65
  -5  43  -5    1.15    9.13
  -5 -43   5    0.19    6.44
   5  43  -5    6.46    6.80
  -5 -45   1    1.40    2.14
   5  45   1    1.82    4.50
  -5  45  -1    3.25    4.02
   5 -45  -1    2.61    4.65
   5  45   1    2.52    1.34
   5 -45  -1    1.25    2.14
  -5  45  -1    2.84    2.37
  -5 -45  -1    0.44    1.39
  -5  45   1    1.32    3.12
  -5  45   1    1.53    2.04
   5  45  -1    2.40    3.12
  -5 -45   3   -0.67    5.55
   5 -45  -3    2.33    5.10
   5 -45  -3    0.82    2.88
  -5  45  -3    0.26    4.30
   5  45   3    2.30    4.79
  -5  45  -3    0.07    4.86
  -5  45   3    5.88    2.37
   5  45  -3    3.13    4.21
  -5 -45   5    2.07    5.06
   5 -45  -5    0.85    5.07
  -5  45  -5    1.95    5.02
  -5  45  -5    0.82    5.24
   5  45  -5    1.64    5.03
   5  47   1    1.75    4.16
  -5  47  -1    0.21    3.58
   5 -47  -1    1.37    3.22
  -5  47  -1    1.31    2.32
  -5 -47   1    0.35    2.65
   5  47   1    4.15    1.08
   5 -47  -1    0.71    1.18
  -5 -47  -1    0.09    1.05
  -5  47   1    1.23    1.96
  -5  47   1    0.98    2.04
   5  47  -1   -1.97    2.02
  -5  47  -3    0.13    2.75
  -5 -47   3   -0.24    2.33
  -5  47  -3    1.98    2.72
   5 -47  -3    0.48    2.97
   5 -47  -3   -0.34    1.17
   5  47   3   -4.11    2.81
  -5  47  -3    0.13    1.06
  -5  47   3    3.52    1.76
   5  47  -3    1.26    2.38
   5  49   1    2.87    3.94
  -5  49  -1    1.78    2.42
  -5 -49   1   -0.57    2.48
  -5  49  -1   -0.12    2.30
   5 -49  -1    1.03    3.19
  -5  49   1    1.70    1.91
  -5  49   1    0.33    1.77
   5  49  -1    2.18    2.66
  -5  49  -3    1.15    3.01
  -5  49  -3    1.08    2.91
   5 -49  -3    0.57    3.41
   5  49   3   -0.67    3.18
   5 -49  -3   -0.27    1.77
  -5 -49   3    0.12    3.44
  -5  49   3   -3.28    1.85
   5  49  -3    1.80    3.59
  -5  51  -1    2.10    2.74
  -5  51  -1    1.37    2.66
   5  51   1    1.76    4.46
  -5 -51   1    0.21    1.99
   5 -51  -1    1.21    3.76
  -5  51   1    0.32    2.67
   5  51  -1    3.67    2.95
  -5  51   1    2.02    2.29
  -5  51  -3   -0.32    4.17
  -5 -51   3    0.77    2.64
   5 -51  -3    1.69    3.64
  -5  51  -3    0.61    4.30
   5  51   3   -0.87    3.33
   5  51  -3    2.11    3.72
   5 -53  -1    1.06    2.65
  -5  53  -1    0.31    1.57
   5  53   1    1.01    2.93
  -5 -53   1    0.05    1.74
  -5  53  -1   -0.01    1.71
  -5  53   1    0.29    1.66
  -5  53   1   -0.32    1.50
   5  53  -1    0.50    1.83
  -5 -53   3    0.06    2.60
   5 -53  -3    0.17    3.53
   5  53   3   -0.23    3.19
  -5  53  -3   -1.23    2.92
  -5  53  -3   -1.02    2.84
   5  53  -3    3.92    2.50
  -5  55  -1    7.40    3.31
  -5  55  -1    0.41    2.65
  -5 -55   1    0.23    2.79
   5  55   1    2.81    4.58
  -5  55  -1    0.58    2.75
  -5  55   1    1.00    2.48
  -5  55   1    0.55    2.39
   5  55  -1    0.96    1.78
  -5 -55   3   -1.91    4.53
   5 -55  -3   -0.21    4.59
  -5  55  -3    6.68    3.61
  -5  55  -3    0.29    3.67
   5  55   3    2.31    4.07
   5  55  -3   -1.04    3.10
  -5  57  -1    4.89    4.37
  -5  57  -1    2.02    4.78
   5  57   1   -1.01    6.26
  -5  57  -1    2.05    3.79
   5  57  -1    1.28    7.03
  -5  57   1    1.27    3.31
  -5  57   1    1.60    3.34
   5  57  -1    7.28    3.16
  -5  57  -3    1.41    5.53
  -5  57  -3    1.82    3.80
  -5 -57   3    0.46    4.13
   5 -57  -3    1.16    5.43
   5  57   3    2.28    6.46
   5  57  -3    2.27    3.39
  -5  59  -1    1.12    2.91
  -5  59  -1    3.82    2.75
   5  59   1    2.35    5.47
  -5  59  -1    0.92    2.88
  -5  59  -1    0.75    3.26
   5  59  -1    4.73    6.14
  -5  59   1    1.61    2.96
  -5  61  -1    1.68    4.51
  -5  61  -1    2.90    4.43
   5  61   1    0.62    6.39
  -5  61  -1    6.42    4.00
  -5  61   1    1.05    3.34
  -5  63  -1    1.26    3.58
  -5  63  -1    1.01    2.70
   5  63   1    2.95    5.21
  -6   0   0    1.94    2.70
   6   0   0    0.89    2.53
  -6   0  -2   -1.20   13.02
   6   0   2    0.42   14.02
   6   0  -2  115.97   14.51
  -6   0   2  127.15   15.11
   6   0  -4    0.65    2.53
  -6   0  -4    0.42    2.38
  -6   0   4    0.24    2.75
  -6   0  -6    4.93   22.04
  -6   0  -6    2.94   24.70
  -6   0   6  165.37   26.99
   6   0  -6  122.90   32.19
   6   2   0   -1.20    2.17
   6  -2   0    0.59    2.10
  -6  -2   0   -1.29    2.07
  -6   2   0   -0.78    2.24
  -6   2  -2 1738.35  201.66
  -6  -2   2 1725.00  178.67
   6   2   2 1667.23  174.78
   6  -2  -2 1698.65  178.11
  -6  -2  -2 1720.07  172.34
  -6   2   2 1715.60  178.52
   6  -2   2 1652.55  174.97
   6   2  -2 1602.63  169.47
   6   2   4    0.44    0.72
  -6   2  -4   -0.32    2.73
  -6  -2   4   -1.11    3.18
   6  -2  -4    2.20    3.82
  -6  -2  -4    2.51    2.56
   6   2  -4    1.45    2.96
  -6   2   4    3.25    3.14
   6  -2  -6  581.17   79.50
  -6  -2   6  575.16   98.56
  -6   2  -6  615.69   90.38
   6  -2  -6  550.15   87.75
  -6   2  -6  544.33   97.97
  -6   2   6  553.19   97.86
  -6  -2  -6  628.03   85.85
   6   2  -6  544.26   90.86
  -6  -2  -6  537.21   91.02
   6   4   0  794.40   77.23
   6  -4   0  762.07   74.54
  -6  -4   0  786.24   73.86
  -6   4   0  859.60   82.17
  -6   4  -2   -1.48    2.01
  -6  -4   2    1.96    2.04
   6   4   2    0.07    2.02
  -6  -4  -2    0.17    1.82
   6  -4   2   -0.34    2.81
   6   4  -2    1.20    1.98
  -6  -4   4  480.65   61.88
  -6   4  -4  470.54   57.57
   6   4   4  367.36   23.92
   6  -4  -4  426.47   54.96
  -6   4   4  490.74   61.58
  -6  -4  -4  518.55   58.69
   6   4  -4  463.91   59.94
  -6   4  -6    2.27   18.63
  -6  -4   6    3.07   17.77
  -6   4  -6    5.25   16.47
   6  -4  -6   97.57   15.88
  -6   4   6  142.79   18.38
  -6  -4  -6    0.79   15.55
  -6  -4  -6   -1.02   13.78
   6   4  -6    1.49   16.65
   6   6   0    0.92    1.54
   6  -6   0   -1.08    1.52
  -6  -6   0    0.58    1.40
  -6   6   0   -0.00    1.67
  -6   6  -2   59.47   14.56
  -6  -6   2   59.88   18.95
   6   6   2   52.57   14.29
   6  -6  -2   61.25   13.84
  -6  -6  -2   57.95   17.15
  -6   6   2   58.92   14.07
   6  -6   2   57.70   14.59
   6   6  -2   50.23   13.96
  -6  -6   4    7.45    3.06
   6   6   4   -0.11    1.09
  -6   6  -4    0.75    2.90
   6  -6  -4   -0.24    2.68
   6   6  -4    1.25    2.99
  -6  -6  -4   -0.01    2.61
  -6   6  -6   21.84   18.52
   6  -6  -6  100.60   13.53
  -6   6  -6   20.84   16.24
   6  -6  -6   -1.69   13.94
  -6  -6   6   17.43   16.77
  -6   6   6   14.39   16.96
  -6  -6  -6   12.99   14.79
  -6  -6  -6   19.66   12.69
   6   6  -6   12.35   15.87
   6   8   0   15.74    5.87
   6  -8   0   12.36    5.58
  -6  -8   0   10.62    5.39
  -6   8   0    5.97    6.31
  -6   8  -2   -0.17    2.60
  -6  -8   2   -0.74    2.54
   6   8   2    0.14    2.59
   6  -8  -2   -1.31    2.21
  -6  -8  -2   -1.14    2.19
   6  -8   2   -2.03    2.62
   6   8  -2   -0.21    2.57
  -6   8   2   -1.24    2.53
   6   8   4    2.21    2.63
  -6  -8   4    3.62    5.11
  -6   8  -4    4.60    4.98
   6  -8  -4    2.68    4.45
  -6   8   4    4.98    4.80
  -6  -8  -4    3.27    5.71
   6   8  -4    3.86    5.07
  -6   8  -6   -1.90    3.72
  -6  -8   6   -0.56    3.37
  -6   8  -6    0.43    4.48
   6  -8  -6    0.46    2.67
  -6   8   6   -0.62    3.33
  -6  -8  -6    1.49    2.39
   6   8  -6   -1.01    3.20
  -6  -8  -6    1.30    2.74
   6  10   0   -1.53    2.25
   6 -10   0   -0.50    2.23
  -6 -10   0   -1.70    2.21
  -6  10   0    0.11    2.31
  -6  10  -2  298.72   39.46
  -6 -10   2  314.61   38.06
   6  10   2  318.69   38.10
   6 -10  -2  283.29   32.58
  -6 -10  -2  290.40   30.61
   6 -10   2  281.69   12.50
  -6  10   2  307.24   37.61
   6  10  -2  314.82   39.23
   6 -10   2  319.54   40.48
   6  10   4    0.60    1.47
  -6  10  -4    0.01    3.19
   6 -10  -4    0.54    3.71
  -6  10   4    2.47    3.01
  -6 -10  -4   -0.01    2.49
   6 -10  -6   98.70   25.77
  -6  10  -6  109.76   37.83
  -6  10  -6  116.10   34.68
  -6 -10   6   99.07   33.72
   6 -10  -6  101.12   36.13
  -6 -10  -6   98.59   27.32
  -6  10   6   23.15   46.27
  -6 -10  -6  113.78   32.21
   6  10  -6   99.72   32.73
   6  12   0 1341.05  127.77
   6 -12   0 1340.66  128.29
  -6 -12   0 1380.54  125.92
  -6  12   0 1359.99  133.15
  -6  12  -2   -0.32    2.22
  -6 -12   2    0.65    2.10
   6  12   2   -1.47    2.00
   6 -12  -2    0.47    1.72
  -6 -12  -2   -0.91    2.09
  -6  12   2    0.35    2.02
   6  12  -2   -0.40    2.14
   6 -12   2   -1.35    2.19
  -6 -12   4  761.04   95.04
   6  12   4  693.17   53.76
   6 -12  -4  753.89   88.13
  -6  12  -4  823.35  102.85
   6 -12  -4  763.23   86.84
  -6 -12  -4  798.21   79.76
  -6  12   4  818.29   96.62
   6  12  -4  777.80   98.95
  -6  12  -6   -1.61    3.86
  -6 -12   6   -1.27    3.48
  -6  12  -6    0.84    3.67
   6 -12  -6    0.06    2.66
  -6 -12  -6   -0.12    2.66
  -6  12   6    4.45    4.83
  -6 -12  -6   -1.22    2.30
   6  12  -6   -0.07    3.46
   6  14   0   -1.46    2.11
   6 -14   0   -0.02    2.26
  -6 -14   0    0.03    2.57
  -6  14   0   -1.26    2.26
   6 -14  -2  224.65   28.10
  -6  14  -2  241.22   34.16
   6 -14  -2  156.43   16.32
  -6 -14   2  238.06   30.64
   6  14   2  239.96   30.60
  -6 -14  -2  215.45   23.20
  -6  14   2  238.98   30.48
   6  14  -2  235.43   32.23
   6 -14   2  226.92   33.05
   6 -14   2  216.24   11.27
  -6 -14   4   91.65   13.73
  -6  14  -4    1.01   10.80
   6 -14  -4   -0.66    8.27
   6  14   4   -1.04    6.39
  -6 -14  -4   -0.34    9.24
   6  14  -4   -0.50   10.65
  -6  14   4   80.71    9.87
  -6  14  -6   87.33   32.75
  -6 -14   6   51.69   30.03
  -6  14  -6  104.04   32.07
   6 -14  -6   70.94   22.50
   6 -14  -6   85.00   22.80
   6  14  -6   59.70   30.22
  -6  14   6   19.29   40.45
  -6 -14  -6   81.13   30.09
  -6 -14  -6   97.93   22.09
   6  16   0  338.73   45.89
   6 -16   0  350.85   38.52
   6 -16   0  302.15   23.79
  -6 -16   0  345.20   32.62
  -6  16   0  355.37   39.47
   6 -16  -2   -0.93    2.36
  -6  16  -2   -0.84    3.01
   6  16   2   -0.68    2.54
  -6 -16  -2   -1.11    2.66
  -6  16   2   -0.83    3.63
   6 -16   2   -0.90    1.78
   6 -16  -4  190.07   33.36
  -6  16  -4  221.42   43.33
   6 -16  -4  199.59   31.31
  -6 -16   4  208.21   38.26
   6  16   4  219.95   28.86
  -6 -16  -4  206.29   27.47
  -6  16   4  216.68   38.03
   6  16  -4  219.53   40.97
  -6  16  -6   -0.47   18.51
  -6 -16   6  124.94   17.86
  -6  16  -6   -2.20   18.78
   6 -16  -6   -2.23   13.04
  -6 -16  -6    2.79   16.21
  -6 -16  -6   -0.82   11.86
  -6  16   6    2.16   22.08
   6  16  -6  124.01   18.29
   6  18   0   -1.05    3.11
   6 -18   0   -0.16    2.44
  -6 -18   0   -1.72    2.01
  -6  18   0   -0.85    2.57
   6 -18  -2 1228.15  119.48
  -6  18  -2 1308.30  142.35
   6 -18  -2 1064.86  106.45
   6  18   2 1282.48  124.08
  -6 -18   2 1212.71  124.34
  -6 -18  -2 1282.77  112.65
   6 -18   2 1191.83   75.84
  -6  18   2 1311.00  132.72
   6  18  -2 1257.97  134.92
   6 -18   2 1253.15  110.78
  -6 -18   4   -1.16    3.25
  -6  18  -4    0.43    3.79
   6 -18  -4   -3.47    2.57
   6  18   4    1.03    2.58
  -6 -18  -4    0.10    2.15
  -6  18   4   -1.90    4.40
   6  18  -4   -1.19    3.64
   6 -18  -6  459.32   70.75
  -6  18  -6  454.78   91.04
  -6  18  -6  504.67   95.21
   6 -18  -6  392.81   85.32
  -6 -18   6  438.87   84.97
  -6 -18  -6  423.68   61.69
  -6  18   6  381.77  101.94
  -6 -18  -6  510.25   80.13
   6  18  -6  451.98   87.69
   6  20   0  272.56   38.29
   6 -20   0  253.55   28.52
  -6 -20   0  277.31   26.44
   6 -20   0  218.55   18.74
  -6  20   0  263.68   33.55
   6 -20  -2   -0.86    1.73
  -6  20  -2   -0.28    2.57
  -6 -20   2   -0.69    2.02
   6  20   2    0.47    1.76
  -6  20   2   -1.09    2.19
   6  20  -2   -1.22    2.37
   6 -20   2   -0.55    1.45
  -6 -20  -2    0.92    1.83
  -6 -20   4  132.66   30.27
  -6  20  -4  148.00   35.10
   6 -20  -4  111.58   33.59
   6 -20  -4  139.50   25.30
   6  20   4  141.83   20.04
  -6 -20  -4  142.73   26.89
  -6  20   4  143.10   40.45
   6  20  -4  147.58   33.85
  -6 -20   6   -0.27    4.24
   6  20   6    0.18    1.02
  -6  20  -6    0.67    4.69
   6 -20  -6   -4.92    3.09
  -6  20  -6   -1.68    4.74
  -6  20   6   -2.06    5.02
  -6 -20  -6   -1.42    2.68
  -6 -20  -6    0.27    2.68
   6  20  -6   -4.38    4.56
   6  22   0   -1.09    1.84
   6 -22   0   -0.25    1.78
  -6 -22   0    1.45    1.55
  -6  22   0   -0.27    1.58
   6 -22  -2   17.34    6.41
  -6  22  -2   21.23    9.99
   6  22   2   26.15    6.43
  -6 -22   2   17.15    7.44
   6 -22  -2   31.75    8.95
  -6  22   2   19.35    8.26
   6  22  -2   19.64    8.97
   6 -22   2   -0.86    5.29
  -6 -22  -2   22.02    4.98
  -6  22  -4   -1.67    2.68
  -6 -22   4   -0.65    2.36
   6 -22  -4    0.08    2.54
   6  22   4    0.89    1.60
  -6  22   4   -2.85    3.04
  -6 -22  -4    0.77    1.42
   6  22  -4   -2.26    2.69
   6 -22  -6    7.12    6.94
   6  22   6    5.06    3.62
  -6  22  -6    7.39    9.19
  -6  22  -6    6.28    9.10
   6 -22  -6    3.50    5.65
  -6 -22   6    1.36    8.40
  -6 -22  -6    3.27    5.07
  -6  22   6    1.93    6.77
  -6 -22  -6    5.24    4.81
   6  22  -6    6.90   12.31
   6  24   0   57.07   12.61
   6 -24   0   59.83   11.64
   6 -24   0   55.28   12.16
  -6 -24   0   67.35   10.56
  -6  24   0   65.93   15.07
   6 -24  -2   -0.48    1.81
  -6  24  -2   -0.31    3.61
  -6 -24   2   -1.15    2.00
   6  24   2    0.31    1.60
  -6  24   2   -0.51    2.22
   6  24  -2    0.68    2.45
  -6 -24  -2   -1.08    1.92
  -6 -24   4   22.43   14.24
   6 -24  -4   45.30   12.92
  -6  24  -4   42.27   16.04
   6  24   4   32.86    9.55
   6 -24  -4   25.05   11.10
  -6 -24  -4   38.95   11.96
  -6  24   4   23.27   17.97
   6  24  -4   25.03   16.63
  -6  24  -6   -1.41    4.59
   6  24   6   -0.63    1.94
  -6  24  -6   -1.10    4.48
   6 -24  -6    0.47    3.85
  -6 -24   6   -2.78    4.29
  -6  24   6    0.27    3.32
  -6 -24  -6    0.71    3.18
  -6 -24  -6    9.51    3.37
   6  24  -6   -4.54    6.47
   6  26   0   -0.68    1.51
   6 -26   0    0.45    1.46
  -6 -26   0    0.62    1.67
  -6  26   0   -1.08    1.80
   6  26   2  407.40   52.78
   6 -26  -2  413.71   55.04
  -6  26  -2  422.35   57.92
   6 -26  -2  364.24   43.11
  -6 -26   2  403.82   46.27
   6  26   2  427.87   37.98
  -6  26   2  432.96   51.98
   6  26  -2  427.99   57.07
  -6 -26  -2  423.73   34.71
  -6  26  -4    1.41    3.93
   6  26   4    0.25    2.54
   6 -26  -4   -1.00    2.39
  -6 -26  -4   -0.48    2.04
  -6  26   4   -1.34    4.23
   6  26  -4   -8.63    4.32
   6 -26  -6  147.56   37.45
  -6  26  -6  176.76   49.34
   6  26   6  147.87   23.32
  -6  26  -6  188.82   65.56
  -6 -26   6  148.10   46.23
   6 -26  -6  144.21   30.33
  -6  26   6  139.01   34.95
  -6 -26  -6  161.46   25.32
   6  26  -6  171.61   68.74
  -6 -26  -6  161.46   26.96
   6  28   0  746.70   89.89
  -6 -28   0  804.88   68.47
   6 -28   0  769.88   74.56
   6 -28   0  779.82   66.07
  -6  28   0  808.16   85.65
   6 -28  -2   -0.17    1.44
  -6  28  -2    1.90    2.16
   6  28   2   -0.83    1.61
  -6 -28   2    0.21    1.72
   6  28   2   -0.68    2.07
  -6  28   2   -0.17    1.91
   6  28  -2   -0.67    2.19
  -6 -28  -2   -0.28    1.42
   6 -28  -4  425.99   62.07
  -6 -28   4  464.78   67.51
  -6  28  -4  483.77   73.38
   6  28   4  423.32   53.43
   6 -28  -4  428.52   48.68
  -6 -28  -4  493.28   51.80
  -6  28   4  489.67   60.42
   6  28  -4  472.24   80.46
  -6  28  -6   -1.32    5.48
   6  28   6   -4.57    2.43
  -6 -28   6   -0.72    5.10
  -6  28  -6   -0.35    5.31
   6 -28  -6    3.17    3.37
  -6  28   6   -1.32    3.64
  -6 -28  -6    0.06    2.68
  -6 -28  -6    0.47    3.54
   6  28  -6   -1.62    7.95
   6  30   0    0.13    2.54
  -6 -30   0    1.48    2.11
   6 -30   0   -1.35    1.98
  -6  30   0   -2.07    2.29
   6  30   2    1.27    3.81
   6 -30  -2    3.05    3.10
   6 -30  -2    2.31    3.69
  -6  30  -2    3.96    4.05
  -6 -30   2    1.63    4.41
   6  30   2    1.45    2.92
  -6  30   2    1.51    3.47
   6  30  -2    2.90    4.11
  -6 -30  -2    1.87    2.72
   6 -30  -4    0.00    2.88
  -6  30  -4   -2.58    5.57
  -6 -30   4   -4.15    4.20
  -6  30  -4   -1.76    4.54
   6  30   4   -0.92    3.36
  -6 -30  -4   -1.52    2.10
  -6 -30  -4   -0.29    2.00
  -6 -30  -4   -1.61    2.38
  -6  30   4   -2.87    3.29
   6  30  -4   -5.13    5.16
   6  32   0  543.58   64.36
  -6 -32   0  584.00   59.61
   6 -32   0  510.59   45.66
   6 -32   0  572.35   69.89
  -6  32   0  550.78   60.32
   6  32   2   -1.84    2.08
  -6 -32   2   -0.52    1.68
   6 -32  -2   -0.55    1.36
  -6  32  -2    0.19    2.08
   6  32   2    0.56    1.44
   6 -32  -2    0.53    1.89
  -6  32   2   -0.29    1.75
  -6 -32  -2   -0.21    1.29
   6  32  -2    0.81    2.12
   6 -32  -4  330.20   51.70
  -6  32  -4  374.96   71.09
  -6 -32   4  320.99   54.83
  -6  32  -4  356.63   58.46
   6  32   4  288.28   47.09
   6 -32  -4  328.75   55.66
  -6 -32  -4  360.34   39.39
  -6 -32  -4  332.37   42.51
  -6  32   4  347.10   44.89
   6  32  -4  333.93   64.68
  -6 -34   0    0.44    1.56
   6 -34   0    1.49    2.03
   6  34   0   -0.31    2.38
  -6  34   0    0.54    2.21
   6  34   2  117.36   34.18
   6 -34  -2  109.87   22.19
  -6  34  -2  119.00   25.04
   6  34   2  120.42   17.06
   6 -34  -2  124.81   22.40
  -6 -34   2  111.35   20.02
  -6  34   2  120.86   20.91
  -6 -34  -2  119.59   15.67
   6  34  -2  117.71   25.11
   6 -34  -4   -0.62    1.40
  -6 -34   4   -0.47    2.24
  -6  34  -4   -0.02    3.33
   6  34   4    0.86    1.93
  -6  34  -4    1.09    2.70
  -6  34   4    0.40    1.64
   6  34  -4   -0.87    2.65
  -6 -34  -4   -0.16    1.13
  -6 -34  -4    0.67    1.30
   6 -36   0   23.86    6.46
  -6 -36   0   13.60    7.30
   6  36   0   18.19    8.25
   6 -36   0   21.49    9.91
  -6  36   0   19.45    7.80
   6  36   2   -0.18    2.32
  -6  36  -2    0.46    2.16
  -6 -36   2   -1.16    1.69
   6 -36  -2    1.62    1.51
   6  36   2    0.17    1.02
  -6  36   2   -0.20    2.36
  -6 -36  -2    0.60    1.24
   6  36  -2   -1.22    2.11
   6 -36  -4    2.25    6.94
  -6  36  -4   13.14    9.75
  -6 -36   4   10.15    8.19
  -6  36  -4   12.97    8.86
   6  36   4   11.10    7.29
   6 -36  -4    8.71    8.86
  -6 -36  -4    9.81    5.11
  -6  36   4    9.14    6.00
   6  36  -4   11.04    9.45
  -6 -36  -4    9.80    5.13
   6  38   0   -0.33    1.88
   6 -38   0   -0.24    1.63
  -6 -38   0    0.59    1.66
   6 -38   0   -1.07    1.72
  -6  38   0    4.77    2.49
   6  38   2    0.17    4.57
  -6 -38   2    0.85    3.32
  -6  38  -2    1.45    4.12
   6 -38  -2    2.72    3.98
   6 -38  -2    1.61    3.59
   6  38   2    6.28    1.87
  -6  38   2    1.08    4.43
  -6 -38  -2   -0.50    2.38
   6  38  -2    0.45    5.46
   6 -38  -4    0.71    2.66
  -6 -38   4    4.15    4.16
  -6  38  -4    0.26    3.63
  -6  38  -4   -2.85    3.26
   6  38   4    0.80    2.74
   6 -38  -4    0.95    3.04
  -6  38   4   -5.49    2.16
  -6 -38  -4    0.39    1.77
   6  38  -4   -0.26    3.48
  -6 -38  -4   -0.04    1.63
   6 -40   0  106.12   17.16
  -6 -40   0  101.65   13.14
   6  40   0  111.08   18.98
   6 -40   0  115.85   18.49
  -6  40   0  101.70   24.81
   6  40   2   -1.15    1.82
  -6  40  -2   -0.75    1.64
   6 -40  -2   -0.62    1.36
   6 -40  -2    3.07    1.52
  -6 -40   2   -0.27    1.29
  -6 -40  -2   -0.29    0.83
  -6  40   2    0.85    1.64
   6  40  -2   -0.28    2.06
   6 -40  -4   49.84   12.67
  -6  40  -4   66.22   23.19
  -6 -40   4   55.89   19.49
  -6  40  -4   75.04   20.91
   6  40   4   54.18   17.94
   6 -40  -4   70.21   19.39
  -6  40   4   54.87   18.28
   6  40  -4   35.63   21.49
   6  42   0   -0.33    1.20
   6 -42   0   -0.02    1.68
  -6 -42   0   -0.21    1.57
   6 -42   0    0.09    1.01
  -6  42   0    3.93    2.27
   6  42   2  220.91   40.59
  -6 -42   2  189.70   30.04
   6 -42  -2  222.44   23.79
  -6  42  -2  246.52   36.66
   6 -42  -2  206.98   45.92
  -6 -42  -2  208.04   19.49
  -6  42   2  240.33   36.26
   6  42  -2  220.95   44.44
   6 -42  -4    0.22    3.31
  -6  42  -4   -0.83    4.27
  -6 -42   4    8.27    4.12
   6  42   4    2.31    3.84
   6 -42  -4    0.23    4.24
  -6  42  -4   -1.87    4.81
  -6  42   4    2.06    3.65
   6  42  -4   -0.29    4.46
  -6 -44   0    2.30    3.22
   6 -44   0   10.76    3.77
   6  44   0    2.49    3.62
   6 -44   0    1.13    2.17
  -6  44   0    5.38    4.81
   6  44   2   -0.59    2.05
   6 -44  -2    0.40    1.44
  -6  44  -2   -0.52    1.72
  -6 -44   2    0.23    1.87
  -6 -44  -2   -0.15    0.72
  -6  44   2    0.20    1.20
   6  44  -2    0.48    2.08
  -6  44  -4    3.08    6.01
  -6  44  -4    4.48    6.25
   6 -44  -4    1.69    2.97
   6 -44  -4    4.28    5.78
  -6 -44   4    3.43    7.35
   6  44   4    4.26    5.79
  -6  44   4    3.60    3.37
   6  44  -4    2.18    7.80
   6 -46   0   -0.96    2.89
   6  46   0   -0.86    1.83
  -6 -46   0    1.65    1.66
  -6  46   0    0.48    1.81
   6  46   2   92.20   25.58
  -6 -46   2   71.75   17.51
  -6  46  -2  107.58   28.92
   6 -46  -2   91.26   22.99
   6 -46  -2   89.78   14.21
  -6  46   2   98.32   15.44
   6  46  -2   78.23   19.09
  -6 -46   4    7.78    2.85
  -6  46  -4    0.12    3.13
   6 -46  -4    0.52    2.10
   6 -46  -4    0.07    3.17
   6  46   4    0.24    3.10
  -6  46   4   -0.35    1.63
   6  46  -4    0.69    4.01
   6 -48   0  230.28   32.65
  -6 -48   0  156.19   23.20
   6  48   0  172.80   25.29
  -6  48   0  241.69   29.20
   6  48   2    0.42    4.69
  -6 -48   2    0.07    4.10
   6 -48  -2   19.75    4.27
  -6  48  -2   -0.61    5.10
   6 -48  -2   -0.46    3.22
  -6  48   2    0.01    3.44
   6  48  -2   -2.10    3.21
  -6 -48   4  102.38   30.98
  -6  48  -4  128.24   46.68
   6 -48  -4  142.56   36.90
  -6  48  -4  166.48   36.44
   6  48   4  129.20   34.65
   6  48  -4  110.86   32.08
  -6 -50   0    0.49    1.65
   6  50   0    0.69    1.71
  -6  50   0   -0.11    2.06
  -6 -50   2    6.44    6.19
   6  50   2    5.25    9.59
   6 -50  -2   19.84    8.54
  -6  50  -2   19.33    7.51
   6 -50  -2    5.62    6.44
  -6  50   2    7.07    6.91
   6  50  -2   14.63    6.24
  -6 -52   0    1.29    2.50
  -6  52   0    4.36    4.27
   6  52   0    1.67    2.48
  -6  52  -2    0.55    2.83
  -6 -52   2    0.85    2.68
  -6  52  -2    0.40    2.39
   6  52   2   -1.44    3.19
   6 -52  -2   -0.21    1.52
  -6  52   2   -0.57    2.12
   6  52  -2    9.74    2.66
  -6  54   0    1.60    3.13
   6  54   0   -1.27    4.66
  -6  54  -2    0.93    3.39
  -6  54  -2    1.79    3.39
   6 -54  -2   -0.17    4.07
  -6 -54   2    0.49    2.64
   6  54   2    1.63    4.54
  -6  54   2    1.14    2.07
   6  54  -2    2.75    3.64
   6  56   0  118.55   39.18
  -6  56   0  130.59   21.38
   6 -56  -2   14.90    3.94
  -6  56  -2    2.16    4.17
   6  56   2   -0.95    4.25
  -6  56  -2    0.18    4.16
  -6 -56   2   -1.42    3.29
   6  56  -2   -2.93    2.40
   6  58   0   -0.79    4.14
  -6  58   0   -0.38    1.90
   6 -58  -2  104.14   28.80
  -6  58  -2   92.93   21.51
  -6 -58   2   60.20   18.11
  -6  58  -2  116.59   28.85
   6  58   2  113.55   30.18
   6  58  -2   68.62   17.86
   6  60   0   10.35    9.45
  -6  60   0    4.38    6.00
  -7   1  -1  141.61   21.10
   7  -1  -1   86.90   19.60
   7   1   1   87.17   19.24
  -7  -1   1  130.17   20.73
   7   1  -1  118.35   20.90
   7  -1   1  128.44   19.53
  -7   1   1   92.73   20.42
  -7  -1  -1  101.00   18.78
   7   1   3   94.71    9.96
  -7   1  -3   46.29   16.81
  -7  -1   3  107.30   18.62
   7  -1  -3   97.01   17.01
   7   1   3   -0.23   11.15
   7  -1   3   51.69    6.68
  -7  -1  -3  101.71   16.61
  -7   1   3  123.70   18.47
   7   1  -3  107.97   17.32
   7  -1   3    0.27   11.20
  -7  -1   5   12.24   15.67
  -7   1  -5   73.41   15.39
   7  -1  -5   13.71   14.55
  -7  -1  -5   34.29   14.94
   7   1  -5   15.55   14.62
  -7   1   5   14.77   21.40
  -7   3  -1   71.63   20.21
   7  -3  -1  124.30   19.78
   7   3   1  135.48   21.54
  -7  -3   1  106.21   20.05
   7   3  -1   98.25   20.75
   7  -3   1   72.09   18.83
  -7   3   1  131.76   20.44
  -7  -3  -1  120.43   18.33
   7   3   3   63.83   10.45
  -7  -3   3  106.57   20.68
  -7   3  -3   99.44   18.97
   7  -3  -3   63.62   18.35
   7   3   3    0.56   12.45
  -7  -3  -3   67.05   23.79
   7  -3   3   93.91    7.17
  -7   3   3   38.29   27.29
   7   3  -3  102.50   19.62
  -7  -3   5   20.99   13.40
   7  -3  -5    2.01    6.72
  -7   3  -5   30.61   13.49
   7  -3  -5   47.82   12.69
  -7   3   5   19.53   13.38
  -7  -3  -5   44.15   16.79
   7   3  -5   35.17   12.66
  -7   5  -1  126.67   21.28
   7  -5  -1   96.49   19.10
   7   5   1   71.90   20.43
  -7  -5   1  133.25   20.13
   7   5  -1  134.71   20.74
   7  -5   1  119.48   19.26
  -7   5   1  102.84   20.25
  -7  -5  -1   68.25   17.25
   7   5   3   98.60   11.70
  -7   5  -3   65.05   18.16
  -7  -5   3   24.86   18.21
   7  -5  -3   91.96   17.22
   7   5   3    0.71   11.86
  -7  -5  -3   92.26   16.37
  -7   5   3  104.56   19.33
   7   5  -3   69.87   18.99
  -7  -5   5   21.76   19.91
   7  -5  -5   58.78   10.19
  -7   5  -5   49.04   20.52
   7  -5  -5   56.60   18.32
  -7  -5  -5   26.71   17.32
  -7   5   5   23.06   19.78
   7   5  -5   46.76   19.29
  -7   7  -1  102.01   22.26
   7  -7  -1  118.74   19.88
   7   7   1  141.43   21.87
  -7  -7   1  110.72   20.38
   7   7  -1   95.04   21.38
   7  -7   1   82.13   20.15
  -7   7   1  129.27   21.22
  -7  -7  -1  116.91   18.13
   7   7   3   61.14   12.37
  -7  -7   3   80.50   17.61
  -7   7  -3   96.73   18.09
   7   7   3   -0.87   11.12
   7  -7  -3   90.30   17.32
  -7  -7  -3   54.78   14.92
  -7   7   3   98.83   18.55
   7   7  -3   83.78   18.33
  -7  -7   5   85.84   23.74
   7  -7  -5   95.63   12.70
  -7   7  -5   43.32   22.45
   7  -7  -5   37.70   21.34
  -7   7  -5   53.50   32.40
  -7   7   5   18.50   23.39
  -7  -7  -5   70.15   20.16
   7   7  -5   23.17   23.06
  -7   9  -1  151.17   23.43
   7  -9  -1   81.58   20.86
   7   9   1  103.94   29.44
  -7  -9   1  127.93   20.60
   7   9  -1  130.18   22.03
   7  -9   1  134.48   21.21
  -7   9   1   84.80   21.39
  -7  -9  -1  110.57   20.17
   7   9   3   85.39   14.56
  -7  -9   3   95.94   18.41
   7   9   3    1.00   11.40
   7  -9  -3   94.52   23.98
  -7   9  -3   34.44   18.67
  -7  -9  -3   78.68   15.74
  -7   9   3  111.69   18.95
   7   9  -3   90.05   19.13
  -7   9  -5   58.27   27.86
   7   9   5   38.84    5.58
   7  -9  -5  153.75   18.03
  -7  -9   5   10.64   20.39
  -7   9  -5   85.54   20.05
   7  -9  -5   19.76   17.93
  -7   9   5    9.69   20.17
  -7  -9  -5   63.82   15.55
  -7  -9  -5   63.71   21.75
   7   9  -5   12.99   20.08
  -7  11  -1   90.50   21.60
   7 -11  -1  130.98   21.08
   7  11   1  142.59   21.74
  -7 -11   1   86.41   26.44
   7 -11   1   81.10   20.29
  -7  11   1  137.30   22.87
  -7 -11  -1  149.90   26.30
   7  11  -1   80.10   19.56
   7  11   3   57.26   15.30
   7 -11  -3   71.71    9.71
  -7 -11   3  110.15   18.16
  -7  11  -3  107.66   25.99
   7  11   3    0.96   10.66
   7 -11  -3   71.60   16.80
  -7 -11  -3   63.93   19.73
   7  11  -3   94.36   18.92
  -7  11  -5   42.80   29.44
  -7 -11   5   24.32   21.71
   7  11   5   42.41    8.61
   7 -11  -5  132.42   18.70
  -7  11  -5   43.87   22.02
   7 -11  -5   77.91   19.19
  -7 -11  -5   53.67   22.02
  -7  11   5   20.55   21.73
  -7 -11  -5   60.30   16.09
   7  11  -5   28.98   21.44
  -7  13  -1  114.27   20.39
   7 -13  -1   96.43   18.67
   7  13   1   66.74   18.98
  -7 -13   1  131.96   18.20
   7 -13   1   85.61    5.34
   7 -13   1  105.02   18.86
  -7  13   1  102.12   20.24
  -7 -13  -1   68.93   16.72
   7  13  -1  120.46   18.21
   7  13   3   64.37   17.58
   7 -13  -3  122.15   11.14
  -7 -13   3   73.89   19.11
  -7  13  -3   72.01   21.89
   7  13   3    0.52   11.06
   7 -13  -3   74.22   16.35
  -7 -13  -3   89.24   15.62
  -7  13   3   87.61   19.93
   7  13  -3   74.33   20.71
  -7  13  -5   39.99   13.46
  -7 -13   5   13.09   10.11
   7  13   5    2.60    3.20
  -7  13  -5   42.34   10.50
   7 -13  -5   15.33    8.25
  -7 -13  -5   25.08    9.64
  -7  13   5   19.90   10.04
  -7 -13  -5   20.89    9.63
   7  13  -5  -15.01   10.23
  -7  15  -1   77.88   21.55
   7 -15  -1   98.64   18.55
   7 -15  -1   69.19    8.83
   7  15   1  103.50   20.18
  -7 -15   1   90.75   18.71
   7 -15   1  183.49   12.04
   7 -15   1   69.51   19.42
  -7  15   1  114.41   21.47
  -7 -15  -1   94.57   16.38
   7  15  -1   73.87   18.78
   7  15   3   59.75   16.51
   7 -15  -3  159.27   16.30
  -7  15  -3  103.17   20.31
  -7 -15   3   77.70   17.09
   7  15   3    1.39    9.50
   7 -15  -3   64.26   14.44
  -7 -15  -3   47.43   12.75
  -7  15   3   71.60   18.17
   7  15  -3   69.73   19.18
  -7 -15   5    7.37   17.44
   7 -15  -5   95.21   14.79
  -7  15  -5   28.94   18.50
   7  15   5   25.91    7.73
  -7  15  -5   33.62   23.08
   7 -15  -5   13.33   13.76
  -7 -15  -5   33.36   16.02
  -7 -15  -5   33.56   11.84
  -7  15   5   41.71   17.14
   7  15  -5   17.65   18.35
  -7  17  -1  100.11   21.66
   7 -17  -1   53.15   17.48
   7 -17  -1  138.50   14.94
   7  17   1   57.80   19.13
  -7 -17   1   84.27   23.91
   7 -17   1   78.38   19.78
   7 -17   1  139.33   10.82
  -7  17   1   28.90   20.89
  -7 -17  -1   66.69   15.21
   7  17  -1   67.36   18.48
  -7  17  -3   28.48   19.94
   7  17   3   63.15   16.51
  -7 -17   3   75.20   16.61
   7 -17  -3  141.86   15.05
   7  17   3   -0.52    8.70
   7 -17  -3   63.04   13.66
  -7 -17  -3   68.21   16.04
  -7  17   3   92.44   17.57
   7  17  -3   56.90   18.77
  -7 -17   5    2.20   15.58
  -7  17  -5   31.90   20.61
  -7  17  -5   36.80   17.20
   7  17   5   22.05    7.63
   7 -17  -5   77.44   12.58
   7 -17  -5   -0.63   12.14
  -7 -17  -5   30.39   10.70
  -7  17   5   26.41   15.68
  -7 -17  -5   26.72   12.44
   7  17  -5    4.00   16.64
  -7  19  -1   48.20   20.91
   7 -19  -1   59.32   17.08
   7 -19  -1  138.84   13.79
   7  19   1   75.16   18.98
  -7 -19   1   37.77   16.71
   7 -19   1  134.23   11.35
   7 -19   1   47.56   18.77
  -7  19   1   82.69   28.08
  -7 -19  -1   81.42   15.02
   7  19  -1   27.89   24.02
   7 -19  -3   31.21   13.50
   7  19   3   28.95   15.68
  -7  19  -3   46.11   19.32
   7 -19  -3  110.66   13.93
  -7 -19   3   61.10   15.57
  -7 -19  -3   25.26   10.56
  -7  19   3   36.62   16.31
   7  19  -3   45.01   18.01
  -7  19  -5   26.64   19.00
  -7 -19   5    4.90   14.35
   7  19   5   26.22    8.14
  -7  19  -5   26.73   15.82
   7 -19  -5   28.47   11.60
   7 -19  -5   10.03   11.08
  -7 -19  -5   22.60   12.64
  -7  19   5   26.01   14.27
   7  19  -5   10.86   15.48
  -7 -19  -5   24.39   10.91
  -7  21  -1   39.27   27.07
   7 -21  -1   47.92   15.24
   7  21   1   17.15   17.47
  -7 -21   1   66.06   15.44
   7 -21  -1  132.13   12.44
   7 -21   1  110.13   10.59
   7 -21   1   61.44   17.59
  -7  21   1   47.89   26.26
  -7 -21  -1   22.56   18.03
   7  21  -1   56.77   22.93
   7 -21  -3   18.21   12.48
   7  21   3   34.84   15.43
  -7  21  -3   38.75   18.35
  -7 -21   3   11.39   15.11
   7 -21  -3   99.91   12.61
  -7 -21  -3   62.85   13.92
  -7  21   3   19.96   15.75
   7  21  -3   12.41   17.07
  -7  21  -5   18.97   14.58
  -7 -21   5    6.08   12.28
   7  21   5    9.85    7.51
  -7  21  -5   22.78   14.01
   7 -21  -5   30.53   10.34
   7 -21  -5   14.03    9.88
  -7  21   5   24.76   11.72
  -7 -21  -5    8.98   12.12
  -7 -21  -5   10.90    7.76
   7  21  -5   20.54   13.65
  -7  23  -1   27.00   19.52
   7 -23  -1   43.72   19.85
   7  23   1   67.87   16.41
  -7 -23   1   50.61   14.55
   7 -23  -1   85.82   11.62
   7 -23   1   29.68   17.02
  -7 -23  -1   62.31   12.05
  -7  23   1   66.52   18.76
   7 -23   1  115.94   11.16
   7  23  -1   37.88   21.98
   7 -23  -3   10.55   11.56
   7  23   3   39.29   15.04
  -7  23  -3   39.97   17.42
  -7 -23   3   16.88   13.83
   7 -23  -3   80.21   11.67
  -7 -23  -3   43.60    9.27
  -7  23   3   12.77   14.95
   7  23  -3   23.69   16.25
   7  23   5   20.50    9.62
   7 -23  -5   52.87   12.99
  -7  23  -5   15.79   16.04
  -7 -23   5    6.59   14.51
  -7  23  -5    9.33   16.96
   7 -23  -5   13.75   11.38
  -7 -23  -5   23.69    9.33
  -7  23   5   26.97   13.24
  -7 -23  -5   20.39   13.66
   7  23  -5   17.91   16.46
  -7  25  -1   41.32   19.69
   7 -25  -1   23.33   13.98
   7  25   1   48.71   15.14
   7 -25  -1   88.94   12.50
  -7 -25   1   62.18   14.57
  -7 -25  -1   35.50   15.34
   7 -25   1   56.53   16.49
  -7  25   1   22.28   18.62
   7 -25   1  105.38    8.53
   7  25  -1   59.98   16.22
   7 -25  -3   28.70   11.08
   7  25   3   29.41   15.83
  -7  25  -3   19.64   17.26
  -7 -25   3   30.74   14.31
   7 -25  -3   98.79   12.48
  -7  25   3   19.29   15.33
   7  25  -3   28.71   17.02
  -7 -25  -3   23.96   11.46
  -7  25  -5   25.51   15.59
  -7 -25   5    2.65   18.12
   7  25   5   16.90    6.94
   7 -25  -5   17.21   11.87
  -7  25  -5   26.26   14.39
   7 -25  -5    3.52   10.15
  -7 -25  -5   21.06    8.73
  -7 -25  -5   27.82   11.02
  -7  25   5   20.49   11.32
   7  25  -5   10.09   15.38
  -7  27  -1   38.78   18.14
   7  27   1   47.79   13.46
   7 -27  -1   62.51   14.00
   7 -27  -1  106.40   12.26
  -7 -27   1    8.59   17.84
   7 -27   1   81.27    9.58
  -7 -27  -1   54.92   10.66
   7 -27   1   43.21   15.20
  -7  27   1   29.23   17.80
   7  27  -1    6.88   14.94
   7 -27  -3   24.72   12.63
   7  27   3   14.96   10.18
  -7  27  -3   26.37   14.64
  -7 -27   3   29.17   12.11
   7 -27  -3   79.05   11.27
  -7  27   3   18.96   12.56
   7  27  -3   33.43   14.87
  -7 -27  -3   12.53    6.84
  -7  27  -5   21.05   15.64
   7  27   5   21.82    7.45
   7 -27  -5   20.29   12.02
  -7 -27   5   -0.17   13.44
  -7  27  -5   24.97   14.64
   7 -27  -5    4.96    9.06
  -7 -27  -5   23.23    7.98
  -7  27   5   26.46   11.09
   7  27  -5    3.78   15.77
  -7 -27  -5   20.34    8.19
  -7  29  -1   31.86   22.57
   7 -29  -1   96.45   15.33
   7  29   1   30.08   16.17
   7 -29  -1   26.98   12.99
  -7 -29   1   50.49   12.30
   7 -29   1   67.38    9.61
  -7 -29  -1   20.01   13.08
   7 -29   1   55.94   14.28
  -7  29   1   27.87   16.56
   7  29  -1   56.32   14.25
   7 -29  -3    8.59    8.77
   7  29   3   26.57   10.11
  -7  29  -3   24.48   13.87
   7 -29  -3   65.49   11.05
  -7 -29   3   14.08   11.16
  -7  29   3   13.59   11.63
   7  29  -3   14.93   14.55
  -7 -29  -3   27.80    9.90
  -7  29  -5   15.55   19.54
   7  29   5   15.78    7.31
   7 -29  -5   32.90   11.03
  -7 -29   5    4.42   12.17
  -7  29  -5   21.73   13.00
   7 -29  -5    7.17    7.97
  -7 -29  -5   17.45    8.80
  -7 -29  -5   12.98    9.67
  -7  29   5    9.32    9.76
   7  29  -5   14.66   14.84
  -7  31  -1   14.50   19.34
   7  31   1   24.95   13.86
  -7 -31   1   25.08   14.02
   7 -31  -1   47.01   10.21
   7 -31  -1   80.04   10.87
   7 -31   1   49.62    9.26
  -7 -31  -1   14.63   11.26
  -7  31   1   33.52   14.03
   7 -31   1   14.98   12.93
   7  31  -1   33.94   16.50
   7 -31  -3    9.75   11.79
   7 -31  -3   24.81   10.36
   7  31   3   28.35    9.87
  -7  31  -3   27.24   12.75
  -7 -31   3    6.52   14.22
  -7  31   3    5.96   10.49
   7  31  -3    8.02   13.63
  -7 -31  -3   30.74    6.63
   7 -31  -5   10.12    7.14
  -7  31  -5    9.84   12.12
  -7 -31   5    7.71   10.39
   7  31   5   11.77    6.70
   7 -31  -5   32.90    9.59
  -7  31  -5    7.30   10.97
  -7 -31  -5    3.55    5.30
  -7 -31  -5    6.02    7.85
  -7  31   5    8.75   10.92
   7  31  -5   20.73   12.49
  -7  33  -1   23.53   13.28
   7  33   1   23.12    9.04
  -7 -33   1   13.58    7.20
   7 -33  -1   17.37    9.65
   7 -33  -1   21.81   10.38
   7 -33   1   19.92    6.71
  -7 -33  -1   13.90    5.57
  -7  33   1   16.25   12.90
   7 -33   1   23.01    9.10
   7  33  -1   15.79   11.29
   7 -33  -3    6.43    8.18
   7 -33  -3   64.07   10.04
  -7  33  -3   17.65   12.04
  -7 -33   3    7.80    9.92
   7  33   3   20.74    9.79
  -7  33   3    9.48    9.64
   7  33  -3   14.37   12.60
  -7 -33  -3   16.47    7.59
   7 -33  -5    6.35    8.98
  -7  33  -5   14.02   11.26
   7  33   5    5.88    6.71
  -7 -33   5    2.77    9.71
  -7  33  -5   11.18   10.23
   7 -33  -5    8.81    9.78
  -7 -33  -5    9.63    6.75
  -7  33   5   16.81    9.85
  -7 -33  -5    7.70    5.32
   7  33  -5    7.16   11.36
  -7  35  -1   30.96   13.13
   7  35   1   26.18    8.81
  -7 -35   1    3.48    7.01
   7 -35  -1   16.00    7.10
   7 -35  -1   18.72    6.98
   7 -35   1   18.31    7.06
  -7 -35  -1   21.77    7.54
  -7  35   1   12.34   12.61
   7 -35   1   23.58    5.57
   7  35  -1    5.78   10.86
   7 -35  -3   14.31    8.86
  -7 -35   3    7.45    8.41
  -7  35  -3   16.81   13.80
   7 -35  -3   19.78    9.35
   7  35   3    8.42    8.52
  -7  35   3   14.16    7.83
   7  35  -3   29.97   10.31
  -7 -35  -3    6.20    6.26
   7 -35  -5    4.34    5.66
   7  35   5   10.49    9.08
  -7 -35   5   -2.14    8.93
  -7  35  -5    8.39   10.61
  -7  35  -5   15.11   10.30
   7 -35  -5    8.52   12.39
  -7  35   5   14.75    8.67
   7  35  -5    0.48   10.28
  -7  37  -1   21.01    9.63
   7  37   1   12.52    8.58
  -7 -37   1   11.56    7.16
   7 -37  -1   16.50   10.13
   7 -37  -1   17.27    7.40
   7 -37   1   38.83    5.77
  -7 -37  -1    6.43    7.49
  -7  37   1   20.78   12.49
   7 -37   1   14.87    5.62
   7  37  -1   13.91   10.80
   7 -37  -3    6.16    6.05
  -7 -37   3    7.46   10.80
   7  37   3   19.31    8.40
  -7  37  -3   14.01    9.41
   7 -37  -3   17.41    8.88
  -7  37   3    8.37    7.19
  -7 -37  -3    8.21    5.38
   7  37  -3   19.54    9.54
   7 -37  -5   14.43    9.05
  -7  37  -5   10.61   11.88
  -7 -37   5    2.01   10.80
  -7  37  -5    8.18   12.78
   7 -37  -5    5.29   11.33
  -7  37   5   16.33    7.51
   7  37  -5    8.06   12.21
  -7  39  -1    9.58    7.51
   7  39   1    4.57    4.30
   7 -39  -1   21.68    6.21
   7 -39  -1   19.73    5.93
  -7 -39   1   18.19    5.72
   7 -39   1   11.79    6.58
  -7 -39  -1    0.24    4.34
  -7  39   1   12.05    9.67
   7  39  -1   23.88    8.29
   7 -39  -3    5.75    7.57
  -7  39  -3   29.40    9.04
   7  39   3   20.33   11.28
   7 -39  -3    6.64    7.76
  -7 -39   3    5.01    7.69
  -7  39   3    1.96    6.73
  -7 -39  -3    8.53    3.64
   7  39  -3   25.28    9.00
  -7  41  -1   12.93    7.15
  -7 -41   1    9.90    5.51
   7  41   1    6.13    5.35
   7 -41  -1   12.55    8.42
   7 -41  -1   13.54    5.86
  -7 -41  -1    4.22    5.52
  -7  41   1   12.05    9.06
   7  41  -1    9.04    5.77
   7 -41   1   14.70    5.21
  -7 -41   3    7.52    7.15
   7 -41  -3    3.88    5.16
  -7  41  -3   11.20    8.28
   7  41   3   11.89    7.94
   7 -41  -3   12.06   10.04
  -7  41   3   10.39    6.13
  -7 -41  -3    4.94    4.42
   7  41  -3   22.84    8.22
  -7  43  -1   16.88    5.76
  -7 -43   1    3.66    5.88
   7 -43  -1   12.19    5.43
   7  43   1    4.47    4.16
   7 -43  -1    6.40    4.76
  -7 -43  -1    3.97    4.24
  -7  43   1    6.28    5.30
   7  43  -1    1.80    4.52
  -7 -43   3    4.98    7.52
  -7  43  -3   29.40    8.79
   7  43   3    3.34    8.69
   7 -43  -3    3.23    7.80
   7 -43  -3    6.53    7.96
  -7  43   3   11.84    8.55
   7  43  -3   15.99   11.59
  -7  45  -1    8.70    5.29
  -7 -45   1    1.45    3.75
   7 -45  -1    5.64    6.72
   7  45   1    2.77    3.50
   7 -45  -1    2.31    4.01
   7  45   1    8.75    7.61
   7  45  -1    8.68    4.16
  -7 -45  -1    1.88    3.47
  -7  45   1    8.81    4.56
  -7 -45   3    5.10    5.81
  -7  45  -3   10.61    6.82
   7  45   3    6.06    6.82
   7 -45  -3    3.12    3.95
   7 -45  -3    4.59    6.53
  -7  45   3    5.29    6.43
   7  45  -3    8.13    8.76
  -7  47  -1    3.43    4.33
  -7 -47   1    3.92    4.19
   7 -47  -1    4.24    4.21
   7  47   1    0.17    2.82
   7 -47  -1    2.50    3.36
   7  47   1    5.84    6.39
   7  47  -1    5.81    3.35
  -7 -47  -1    0.75    2.88
  -7 -47   3    3.18    7.48
  -7  47  -3   11.72    6.52
   7  47   3    4.04    6.58
   7 -47  -3    0.14    4.96
   7 -47  -3    0.78    6.29
  -7  47   3    8.01    5.87
   7  47  -3    6.53    8.12
  -7  49  -1    6.32    5.74
   7  49   1    4.00    6.07
   7 -49  -1    1.98    5.80
  -7 -49   1    0.15    3.02
   7 -49  -1    1.87    3.42
   7  49  -1    8.83    4.38
  -7  49   1    0.74    3.41
  -7  49  -3    0.92    7.10
  -7 -49   3    0.26    4.94
  -7  49  -3    8.93    5.93
   7 -49  -3    2.53    6.20
   7  49   3    0.61    5.89
   7 -49  -3    0.23    4.64
  -7  49   3    6.92    3.84
   7  49  -3    4.75    5.33
  -7  51  -1    2.58    4.78
   7  51   1    3.54    5.19
   7 -51  -1    2.49    3.68
  -7 -51   1    0.72    3.38
   7 -51  -1    0.59    1.72
   7  51  -1    3.31    3.58
  -7  51   1    1.50    3.84
  -7  51  -3   15.76   11.03
   7 -51  -3    1.19   11.91
   7  51   3    1.18    8.36
  -7 -51   3   16.95    6.90
  -7  51  -3    1.11    8.77
  -7  51   3    6.36    4.92
   7  51  -3    8.16    7.19
  -7  53  -1    4.01    3.43
   7  53   1    3.90    5.16
   7 -53  -1    4.72    3.87
  -7 -53   1   -0.98    3.38
   7  53  -1   -0.63    2.56
  -7  53   1    1.15    3.76
  -7  55  -1    0.99    3.71
   7  55   1    5.87    5.76
   7 -55  -1    4.52    4.39
  -7 -55   1    0.99    2.70
   7  55  -1    1.26    2.57
  -7  55   1    1.64    2.96
   7 -57  -1    5.82    5.41
   7  57   1    2.06    6.78
  -7  57  -1    2.42    4.03
  -7  57   1    2.02    3.51
   8   0   0  513.45   63.22
  -8   0   0  572.63   64.57
  -8   0  -2   -1.48    2.43
  -8   0   2   -0.23    2.75
   8   0   2    0.70    2.74
   8   0  -2   -0.70    2.48
  -8   0  -4  357.68   54.37
  -8   0   4  336.11   57.84
   8   0  -4  306.67   55.52
   8   0  -6    7.26    4.53
  -8   0  -6    2.70    7.64
  -8   0  -6   -1.48    9.94
   8   0  -6    7.22    8.66
  -8   0   6    4.18    9.11
   8   2   0   -0.47    1.51
   8  -2   0   -0.51    1.48
  -8  -2   0    0.12    1.52
  -8   2   0    0.91    1.57
   8  -2  -2  108.29   24.63
  -8   2  -2  119.96   23.55
  -8  -2   2  122.90   33.95
   8   2   2  115.07   25.48
  -8  -2  -2  118.73   23.79
  -8   2   2  119.29   25.37
   8  -2   2  116.69   25.79
   8   2  -2   98.72   23.28
  -8   2  -4    0.56   10.44
  -8  -2   4    5.61   11.16
   8  -2  -4   78.46   10.85
  -8  -2  -4   -0.02    9.79
  -8   2   4    3.39   11.20
   8   2  -4    6.77   10.92
   8  -2  -6   49.45   10.31
  -8  -2   6   30.48   20.95
  -8   2  -6   59.81   19.71
   8  -2  -6   43.57   19.44
  -8   2  -6   46.01   24.04
   8   2  -6    1.42   10.19
  -8   2   6   28.55   21.07
  -8  -2  -6   43.77   17.59
  -8  -2  -6   43.30   22.13
   8   2  -6   41.17   20.05
   8   4   0  112.85   23.31
   8  -4   0  106.11   22.63
  -8  -4   0  134.24   22.99
  -8   4   0  123.80   23.99
   8  -4  -2    0.64    2.09
  -8   4  -2    0.36    2.07
  -8  -4   2    0.81    2.16
   8   4   2   -0.78    2.97
  -8  -4  -2   -1.49    1.98
   8  -4   2   -0.10    2.21
  -8   4   2   -0.56    2.18
   8   4  -2   -0.37    2.73
   8   4   4   59.96    6.74
  -8   4  -4   87.27   21.26
  -8  -4   4   78.77   22.26
   8  -4  -4   68.18   21.11
  -8  -4  -4   72.88   26.75
  -8   4   4   77.85   22.27
   8   4  -4   73.22   22.29
  -8   4  -6    1.09    7.48
   8  -4  -6    6.20    5.21
  -8  -4   6   -0.41    6.31
  -8   4  -6    1.10    6.02
   8  -4  -6    4.80    5.68
  -8   4   6    2.49    6.27
  -8  -4  -6    1.11    5.01
  -8  -4  -6   -2.67    6.22
   8   4  -6    0.91    6.08
   8   6   0    1.78    2.30
   8  -6   0    0.01    2.26
  -8  -6   0   -0.32    2.25
  -8   6   0    0.10    2.40
   8  -6  -2    2.44    6.69
  -8   6  -2    3.62    4.98
  -8  -6   2    3.36    4.97
   8   6   2    4.63    5.14
  -8  -6  -2    2.78    6.21
  -8   6   2    2.66    5.08
   8  -6   2    5.44    5.09
   8   6  -2    5.21    4.69
  -8   6  -4    1.06    2.84
  -8  -6   4    1.08    2.95
   8   6   4    0.20    1.13
   8  -6  -4   -0.98    2.90
  -8  -6  -4   -0.61    2.46
  -8   6   4    1.02    2.92
   8   6  -4    1.32    3.05
  -8  -6   6    0.64    6.71
  -8   6  -6    1.98    8.02
  -8   6  -6    4.31    6.65
   8  -6  -6    2.04    5.94
  -8  -6  -6    1.97    6.41
  -8   6   6    3.26    6.75
  -8  -6  -6    3.84    7.12
   8   6  -6    0.52    6.58
   8   8   0  117.96   22.72
   8  -8   0  118.88   22.17
  -8  -8   0  105.06   21.73
  -8   8   0  112.21   23.73
   8  -8  -2    1.13    1.64
  -8   8  -2    1.60    1.75
  -8  -8   2    0.84    1.72
   8   8   2   -0.56    1.76
  -8  -8  -2   -0.93    1.50
  -8   8   2    0.06    1.74
   8  -8   2   -1.63    1.75
   8   8  -2   -0.45    1.63
   8  -8  -4    3.45    9.47
  -8   8  -4   80.64   19.46
  -8  -8   4   27.76   19.27
   8   8   4   72.81    9.02
   8  -8  -4   72.09   18.73
  -8  -8  -4   58.22   15.80
  -8   8   4   51.11   19.35
   8   8  -4   66.35   20.23
  -8  -8   6    0.33    3.51
  -8   8  -6   -2.91    4.17
  -8   8   6   -0.67    4.85
  -8  -8  -6    2.19    3.19
   8  10   0    0.75    2.62
   8 -10   0   -0.54    2.59
  -8 -10   0   -0.84    2.40
  -8  10   0   -2.60    3.02
   8 -10  -2  114.58   23.70
  -8  10  -2  150.00   29.29
  -8 -10   2  129.49   25.80
   8  10   2  126.93   26.86
  -8  10   2  122.30   26.80
   8 -10   2  120.11   26.84
   8  10  -2  105.96   24.92
  -8 -10  -2  124.85   20.83
   8 -10  -4    1.57    2.08
  -8  10  -4    0.83    4.28
  -8 -10   4    2.13    4.13
   8  10   4    0.14    1.87
   8 -10  -4    2.23    5.43
  -8 -10  -4    0.36    3.39
  -8  10   4    3.28    4.16
   8  10  -4    2.48    4.34
   8  12   0    3.05    4.21
   8 -12   0    3.43    4.38
  -8 -12   0    3.02    3.75
  -8  12   0    2.70    4.87
   8 -12  -2   -1.61    2.27
  -8  12  -2   -0.79    2.89
  -8 -12   2   -1.96    2.49
   8  12   2   -1.23    2.59
  -8  12   2   -0.53    2.60
   8 -12   2    0.45    2.61
   8  12  -2   -0.19    2.75
  -8 -12  -2    1.73    1.93
   8 -12  -4    4.47    3.14
  -8  12  -4    2.64    6.52
  -8 -12   4    2.40    6.13
   8  12   4    3.39    3.09
   8 -12  -4    5.70    5.70
  -8 -12  -4    2.57    4.87
  -8  12   4    2.51    6.16
   8  12  -4    4.95    6.44
   8  14   0    1.51    2.27
   8 -14   0    0.57    2.26
  -8 -14   0   -0.77    1.91
  -8  14   0    0.23    2.55
   8 -14  -2  170.58   27.83
  -8  14  -2  198.79   36.89
  -8 -14   2  185.88   30.40
   8  14   2  183.92   32.42
  -8  14   2  197.75   32.71
   8 -14   2  169.22   32.79
   8 -14   2  151.39   10.82
   8  14  -2  175.71   34.36
  -8 -14  -2  161.01   24.32
   8 -14  -4   38.97    6.29
  -8  14  -4    0.83    7.75
  -8 -14   4    2.29    7.22
   8  14   4    0.07    4.00
   8 -14  -4    1.92    6.40
  -8 -14  -4    0.10    5.43
  -8  14   4    0.90    7.17
   8  14  -4    1.87    7.56
   8  16   0   99.12   21.54
   8 -16   0   80.38   12.22
   8 -16   0   87.56   21.45
  -8 -16   0  109.63   18.35
  -8  16   0  105.08   24.47
   8 -16  -2    0.77    1.53
  -8  16  -2   -0.38    2.11
  -8 -16   2   -0.61    1.73
   8  16   2   -0.86    1.78
  -8  16   2   -0.91    1.84
   8 -16   2    1.59    1.80
   8  16  -2    1.19    1.92
  -8 -16  -2   -0.42    1.27
  -8  16  -4   83.75   25.04
  -8 -16   4   29.77   22.23
   8 -16  -4   68.24   18.43
   8  16   4   56.82   13.99
   8 -16  -4   61.66   17.71
  -8 -16  -4   71.37   16.79
  -8  16   4   52.71   22.75
   8  16  -4   60.46   32.89
   8  18   0   -1.19    2.64
   8 -18   0    0.95    2.61
  -8 -18   0   -1.15    2.16
  -8  18   0   -0.40    3.08
   8 -18  -2   21.05   11.17
  -8  18  -2   27.18   14.62
   8 -18  -2   23.52    9.71
  -8 -18   2   23.17   11.68
   8  18   2   28.88   11.84
  -8  18   2   24.79   12.64
   8 -18   2   31.33   12.88
   8 -18   2   29.32    4.97
   8  18  -2   25.67   13.34
  -8 -18  -2   27.48    9.61
  -8  18  -4    0.72    4.06
  -8 -18   4    1.06    3.50
   8  18   4    1.23    1.74
   8 -18  -4   -0.06    3.71
  -8 -18  -4   -0.03    2.33
  -8  18   4    0.53    3.59
   8  18  -4   -1.26    3.90
   8  20   0   76.81   18.90
   8 -20   0   60.25   10.12
   8 -20   0   65.89   16.50
  -8 -20   0   79.17   15.35
  -8  20   0   96.00   22.24
   8 -20  -2   -0.07    5.23
  -8  20  -2   -0.84    5.26
   8 -20  -2   13.65    3.16
  -8 -20   2   -0.11    4.07
   8  20   2   -0.71    3.87
  -8  20   2    0.49    4.48
   8 -20   2   -1.22    4.53
   8  20  -2   -1.59    4.70
  -8 -20  -2   -0.00    3.25
  -8 -20   4   20.58   15.53
  -8  20  -4   65.71   18.90
   8  20   4   34.01    8.92
   8 -20  -4   19.24   12.73
   8 -20  -4   15.52   12.20
  -8 -20  -4   40.32   14.18
  -8  20   4   25.88   16.72
   8  20  -4   47.22   17.90
   8  22   0   -1.00    2.68
   8 -22   0   -0.35    3.13
  -8 -22   0    1.41    2.07
  -8  22   0    1.32    3.18
   8 -22  -2    9.08    6.51
  -8  22  -2    8.96    9.30
   8 -22  -2    7.82    5.57
  -8 -22   2    6.80    6.61
   8  22   2   14.33    6.36
   8 -22   2    8.44    2.23
  -8  22   2    6.95    7.88
  -8 -22  -2    9.57    5.18
   8 -22   2    9.40    7.87
   8  22  -2    8.42    8.25
   8 -22  -4   -0.17    4.89
  -8  22  -4   -0.36    7.37
   8  22   4    0.50    3.79
   8 -22  -4   25.58    4.88
  -8 -22   4   -1.50    5.86
  -8 -22  -4    0.46    3.97
  -8  22   4   -0.57    6.42
   8  22  -4   -1.16    6.99
   8  24   0   20.58   10.92
   8 -24   0   18.98    9.44
   8 -24   0   34.20    8.00
  -8 -24   0   12.40   11.21
  -8  24   0   15.85   12.92
  -8  24  -2    1.55    3.30
   8 -24  -2   -0.24    2.19
  -8 -24   2    0.63    2.35
   8  24   2   -2.70    2.88
  -8  24   2   -0.95    2.76
  -8 -24  -2   -1.68    2.39
   8 -24   2    0.63    1.67
   8  24  -2   -1.95    4.07
   8 -24  -4    5.78   10.77
  -8 -24   4    3.25   13.02
  -8  24  -4    8.41   11.91
   8  24   4   13.93    6.69
   8 -24  -4   17.47    8.09
  -8 -24  -4    8.18    8.68
  -8  24   4    4.97   10.01
   8  24  -4   15.99   11.64
   8  26   0    0.49    2.22
   8 -26   0    0.29    1.94
  -8 -26   0   -0.02    1.66
  -8  26   0   -2.33    2.65
  -8  26  -2  132.17   32.86
   8 -26  -2  110.33   29.28
  -8 -26   2  107.75   23.02
   8  26   2  120.34   27.43
   8 -26  -2   88.09   18.82
   8 -26   2  106.24    9.66
  -8  26   2  113.53   28.01
  -8 -26  -2  123.39   17.98
   8 -26   2   97.29   17.01
   8  26  -2  137.41   40.51
   8 -26  -4   -1.70    1.79
  -8 -26   4   -0.71    2.23
  -8  26  -4    2.71    2.68
   8  26   4    1.47    1.65
  -8 -26  -4    0.88    1.40
  -8  26   4   -1.37    2.23
   8  26  -4   -3.68    2.78
   8 -28   0  114.95   20.23
   8  28   0  125.97   25.95
   8 -28   0  123.09   31.70
  -8 -28   0  120.25   27.17
  -8  28   0  136.60   32.32
  -8  28  -2    1.12    3.89
   8 -28  -2   -1.35    2.57
  -8 -28   2   -1.43    2.73
   8  28   2    0.29    3.13
  -8  28   2   -0.71    3.43
  -8 -28  -2   -0.81    2.78
   8 -28   2   -0.77    2.00
   8  28  -2    0.16    5.06
   8 -28  -4   64.78   17.73
  -8 -28   4   18.56   22.80
  -8  28  -4   57.29   27.16
   8 -28  -4   81.71   20.75
   8  28   4   76.26   17.68
  -8  28   4   37.71   22.39
   8  28  -4   71.39   28.92
  -8 -28  -4   86.37   18.10
   8  30   0    0.58    2.52
   8 -30   0   -1.09    2.37
  -8 -30   0   -0.89    1.97
  -8  30   0    0.06    3.18
  -8  30  -2  204.39   42.90
   8 -30  -2  166.09   28.57
  -8 -30   2  181.13   31.06
   8 -30  -2  169.57   28.25
   8  30   2  189.78   34.23
  -8  30   2  180.93   37.25
  -8 -30  -2  187.96   22.84
   8  30  -2  191.62   55.07
   8 -30  -4   -0.30    6.86
   8 -30  -4   42.87    6.22
  -8 -30   4   -0.63    6.65
  -8  30  -4   -2.55    7.93
   8  30   4   -0.79    5.20
  -8  30   4   -0.41    6.22
   8  30  -4    1.11    8.47
  -8 -30  -4    0.39    3.70
   8  32   0    2.25    3.07
  -8 -32   0    1.98    3.36
   8 -32   0    1.18    3.12
   8 -32   0   -0.08    2.15
  -8  32   0    2.35    3.95
  -8  32  -2   -0.15    2.19
   8 -32  -2   -0.45    1.42
  -8 -32   2   -0.32    1.55
   8  32   2    0.11    1.22
  -8  32   2    0.45    1.84
  -8 -32  -2    0.56    1.46
   8  32  -2   -0.93    2.83
   8 -32  -4    0.13    1.94
   8 -32  -4   -2.12    2.41
  -8 -32   4    1.75    3.60
  -8  32  -4   -1.38    4.23
   8  32   4    0.40    2.09
  -8  32   4    1.94    2.35
   8  32  -4    2.53    3.34
  -8 -32  -4   -1.05    2.17
   8  34   0    0.87    2.61
  -8 -34   0    0.48    2.15
   8 -34   0   -0.15    3.79
   8 -34   0    0.66    2.41
  -8  34   0    2.01    3.43
   8 -34  -2   64.05   13.30
  -8  34  -2   47.07   19.36
   8 -34  -2   31.65   13.71
  -8 -34   2   24.03   14.37
   8  34   2   50.02   10.75
   8  34   2   40.86   17.80
  -8  34   2   31.05   16.08
  -8 -34  -2   52.70   13.12
   8  34  -2   44.70   24.68
   8 -34  -4    7.23    3.24
   8 -34  -4   -1.21    3.60
  -8 -34   4   -0.31    3.38
  -8  34  -4    0.16    3.94
   8  34   4    0.34    2.75
  -8  34   4    0.60    2.95
   8  34  -4    0.54    4.21
  -8 -34  -4   -1.03    1.96
   8  36   0   38.30   12.94
   8 -36   0   48.39    9.45
  -8 -36   0   29.91   15.05
   8 -36   0   43.95   13.94
  -8  36   0   41.70   22.95
  -8  36  -2   -1.66    2.75
   8 -36  -2    0.64    2.64
  -8 -36   2    0.49    2.79
   8  36   2    0.35    1.41
   8 -36  -2    0.66    2.13
   8  36   2   -1.04    2.66
  -8  36   2   -0.64    2.21
  -8 -36  -2   -0.15    1.32
   8  36  -2   -2.85    3.47
   8 -36  -4   10.97    9.11
  -8 -36   4   28.00   11.68
  -8  36  -4   23.47   13.53
   8  36   4   14.64    9.54
   8 -36  -4   17.86   12.15
  -8  36   4   12.58    9.92
   8  36  -4   19.49   14.38
  -8 -36  -4   15.11    8.53
   8  38   0    1.08    2.16
   8 -38   0    0.37    2.52
  -8 -38   0    0.58    1.99
   8 -38   0   -0.06    2.51
  -8  38   0    0.21    4.11
   8  38   2    5.51    6.34
  -8  38  -2    5.59    6.75
   8 -38  -2    2.70    4.79
  -8 -38   2    2.96    5.01
   8  38   2    3.09    4.65
   8 -38  -2    8.73    5.28
  -8  38   2    3.61    5.26
  -8 -38  -2    2.91    4.33
   8  38  -2    8.30    6.11
   8 -38  -4   10.54    4.01
  -8 -38   4   -1.08    5.54
  -8  38  -4   -1.54    6.35
   8  38   4   -0.41    4.56
   8 -38  -4   -1.01    6.05
  -8  38   4    3.95    4.41
   8  38  -4   -1.29    6.64
   8  40   0   50.86   11.70
   8 -40   0   51.29   10.75
  -8 -40   0   11.70   14.11
   8 -40   0   43.19   18.86
  -8  40   0   46.62   22.11
   8  40   2   -0.84    3.74
  -8  40  -2    9.87    3.80
  -8 -40   2   -0.47    2.78
   8 -40  -2   -1.62    3.37
   8 -40  -2    2.18    2.77
   8  40   2   -0.05    2.56
  -8 -40  -2    0.52    2.43
  -8  40   2    1.68    2.94
   8  40  -2   -1.52    3.44
  -8  40  -4   40.25   21.74
   8 -40  -4   34.20   11.43
  -8 -40   4   15.88   15.67
  -8  40  -4   28.61   17.82
   8  40   4   21.53   13.22
   8 -40  -4   20.51   16.94
  -8  40   4   38.03   12.13
   8  40  -4   47.99   24.86
   8  42   0    1.01    2.46
   8 -42   0    0.61    2.54
  -8 -42   0    0.30    1.61
   8 -42   0   -0.66    2.25
  -8  42   0    0.44    2.58
   8  42   2    5.45    7.84
  -8  42  -2   12.73    5.72
  -8 -42   2    5.60    4.18
   8 -42  -2    2.82    3.71
   8 -42  -2   -1.66    4.27
   8  42   2    1.26    2.77
  -8 -42  -2    1.67    2.63
  -8  42   2    2.41    5.97
   8  42  -2    8.40    5.01
   8 -44   0   31.16    8.51
   8  44   0   10.39   10.77
  -8 -44   0    9.09    9.82
   8 -44   0   28.47   10.44
  -8  44   0   27.46   11.50
   8  44   2   -1.40    3.80
  -8  44  -2   -7.66    3.37
  -8 -44   2    0.69    2.68
   8 -44  -2   -2.09    2.92
   8 -44  -2   -0.11    2.41
   8  44   2   -0.69    1.73
  -8 -44  -2    0.34    2.19
  -8  44   2   -0.10    3.70
   8  44  -2    1.76    3.18
   8 -46   0   -0.34    3.70
   8  46   0   -0.10    3.15
  -8 -46   0    0.18    3.00
   8 -46   0    2.52    1.91
  -8  46   0   -0.11    3.40
   8  46   2    1.51    7.24
  -8  46  -2   12.92    6.25
  -8 -46   2    2.14    6.91
   8 -46  -2   10.45    5.65
   8 -46  -2    0.66    4.46
  -8  46   2    1.85    6.83
   8  46  -2    4.86    5.18
   8 -48   0   32.25    7.24
   8  48   0    6.47    5.80
  -8 -48   0    3.84    5.60
  -8  48   0   22.80    8.13
   8 -48   0   10.02    4.77
  -8  48  -2    9.53    4.48
   8  48   2   -2.25    5.25
  -8 -48   2    0.57    3.61
   8 -48  -2   -1.43    4.39
   8 -48  -2   -0.82    3.35
  -8  48   2    0.43    3.52
   8  48  -2    7.37    3.64
   8 -50   0   -0.04    3.07
   8  50   0   -0.96    2.17
  -8 -50   0    0.02    2.12
  -8  50   0   -0.04    2.31
  -8  50  -2   15.44    8.03
   8  50   2    3.46    6.98
  -8 -50   2    0.46    6.45
   8 -50  -2    8.83    8.06
   8 -50  -2    0.29    4.32
  -8  50   2   -0.09    4.56
   8  50  -2   13.76    6.40
   8 -52   0   20.91    9.69
  -8  52   0   14.39   13.05
  -8  54   0   -5.24    7.49
   9  -1  -1  131.95   28.97
   9   1   1   81.43   26.16
  -9  -1   1  162.95   29.22
  -9   1  -1  151.70   29.89
   9   1  -1  164.89   29.60
   9  -1   1  127.81   35.95
  -9   1   1  134.23   28.83
  -9  -1  -1  105.72   28.80
   9   1   3  108.78   16.72
  -9   1  -3   91.19   24.87
  -9  -1   3   88.48   28.37
   9   1   3  123.84   18.82
   9  -1  -3  107.00   25.54
   9  -1   3   74.56   13.81
  -9  -1  -3  113.09   24.53
  -9   1   3  125.37   29.18
   9  -1   3   77.26   18.46
   9   1  -3   77.68   25.36
  -9   1  -5   52.83   25.49
  -9  -1   5   99.57   29.07
   9  -1  -5   68.96   26.43
  -9  -1  -5   39.30   33.59
  -9   1   5   39.50   28.83
   9   1  -5  100.02   27.05
   9  -3  -1  146.25   29.34
   9   3   1  133.22   26.71
  -9  -3   1  140.16   28.92
  -9   3  -1  124.91   30.72
   9   3  -1  127.75   29.96
   9  -3   1  104.61   27.20
  -9   3   1  142.32   28.96
  -9  -3  -1  157.53   29.02
   9   3   3   61.80   18.79
  -9   3  -3   92.39   26.15
  -9  -3   3  112.39   28.98
   9   3   3   75.68   18.98
   9  -3  -3  115.40   25.35
   9  -3   3  107.66   12.20
  -9  -3  -3   92.87   32.13
  -9   3   3  127.14   29.40
   9  -3   3  116.72   19.14
   9   3  -3   85.08   26.04
   9  -3  -5    0.12    9.42
  -9   3  -5   48.83   17.12
  -9  -3   5   23.76   19.00
   9  -3  -5   33.85   17.09
  -9  -3  -5   86.76   15.68
  -9   3   5   20.00   18.84
   9   3  -5   37.76   18.02
   9  -5  -1  107.80   28.96
   9   5   1  116.05   26.14
  -9  -5   1  148.92   28.18
  -9   5  -1  152.94   27.50
   9   5  -1  125.56   27.70
   9  -5   1  149.44   27.15
  -9   5   1  108.37   28.49
  -9  -5  -1  123.49   28.24
   9   5   3  118.29   19.88
  -9   5  -3   80.58   27.35
  -9  -5   3  147.01   28.37
   9   5   3  116.24   18.52
   9  -5  -3  113.19   24.17
   9  -5   3   64.09    8.97
  -9  -5  -3  113.07   22.65
  -9   5   3  139.13   27.77
   9  -5   3   63.10   17.59
   9   5  -3  131.96   28.66
   9  -5  -5   81.27   13.43
  -9   5  -5   92.83   24.48
  -9  -5   5   15.47   25.17
   9  -5  -5   28.32   25.05
  -9  -5  -5   55.36   21.17
  -9   5   5   18.25   26.22
   9   5  -5   31.52   24.93
   9  -7  -1  154.49   28.24
   9   7   1  156.59   26.64
  -9  -7   1  114.78   27.50
  -9   7  -1  106.82   27.81
   9   7  -1   95.73   27.36
   9  -7   1   86.01   26.77
  -9   7   1  171.09   29.47
  -9  -7  -1  159.10   26.29
   9  -7  -3   86.87   24.49
   9   7   3   70.05   19.33
  -9   7  -3  149.50   27.28
  -9  -7   3  160.88   27.16
   9   7   3   71.45   17.01
  -9  -7  -3   84.83   20.93
  -9   7   3  103.02   25.96
   9  -7   3   18.84   16.39
   9   7  -3  134.44   28.26
   9  -7  -5  146.26   17.83
  -9   7  -5   46.30   31.03
  -9  -7   5   36.35   31.21
   9  -7  -5  102.06   30.77
  -9  -7  -5   43.08   26.93
  -9   7   5   36.35   44.70
   9   7  -5   50.24   31.20
   9  -9  -1  141.27   29.16
   9   9   1   99.26   31.16
  -9  -9   1  180.75   29.35
  -9   9  -1  155.69   30.52
   9   9  -1  167.79   29.66
   9  -9   1  158.95   29.44
  -9   9   1  144.00   31.10
  -9  -9  -1   93.65   26.29
   9  -9  -3  138.05   26.90
   9   9   3   98.36   22.19
  -9   9  -3  116.66   30.16
  -9  -9   3  112.05   28.23
   9   9   3  124.15   19.19
  -9  -9  -3  136.66   24.09
  -9   9   3  139.92   28.67
   9  -9   3   -1.77   17.26
   9   9  -3  111.92   29.80
   9  -9  -5  191.18   30.02
  -9  -9   5   98.57   33.28
  -9   9  -5   46.55   32.48
   9  -9  -5   82.43   42.33
  -9  -9  -5   26.78   27.00
  -9   9   5   99.53   34.31
   9   9  -5  108.73   33.25
   9 -11  -1  149.98   30.42
   9  11   1  177.40   33.30
  -9 -11   1  165.10   30.41
  -9  11  -1  132.92   32.30
   9  11  -1  151.74   30.72
   9 -11   1  130.37   30.77
  -9  11   1  165.11   32.53
  -9 -11  -1  157.80   27.77
   9 -11  -3  137.95   28.99
   9  11   3   92.06   18.79
   9 -11  -3    0.42   11.18
  -9  11  -3  160.63   25.39
  -9 -11   3  123.37   22.10
   9  11   3   96.13   24.87
  -9 -11  -3   88.87   25.15
  -9  11   3  158.99   23.58
   9 -11   3    0.34   14.09
   9  11  -3  120.58   24.46
   9 -11  -5  185.64   29.77
  -9 -11   5   98.28   32.83
  -9  11  -5   51.40   33.18
   9 -11  -5   85.24   30.09
  -9 -11  -5   43.85   35.40
  -9  11   5   33.67   33.94
   9  11  -5   95.11   33.57
   9 -13  -1  100.18   24.82
   9  13   1  126.81   27.47
  -9 -13   1  149.30   24.91
  -9  13  -1  173.57   27.49
   9  13  -1  138.76   34.68
   9 -13   1   89.07    7.41
   9 -13   1  156.77   25.92
  -9  13   1  105.32   27.07
  -9 -13  -1  130.32   22.65
   9 -13  -3  152.88   27.00
   9  13   3  116.99   24.86
   9 -13  -3  102.63   14.93
  -9  13  -3   66.86   32.20
  -9 -13   3  126.25   28.15
   9  13   3  158.19   30.20
  -9 -13  -3  130.19   23.30
  -9  13   3  158.40   40.41
   9 -13   3    0.17   17.89
   9  13  -3  138.61   31.56
  -9 -13   5   15.77   26.45
  -9  13  -5   95.93   28.29
   9 -13  -5  179.96   23.44
   9 -13  -5   18.07   24.40
  -9 -13  -5   52.25   20.78
  -9  13   5   14.05   28.46
   9  13  -5   17.67   28.73
   9 -15  -1  140.95   13.99
   9 -15  -1  157.77   30.09
   9  15   1  164.19   33.27
  -9 -15   1  107.41   28.51
  -9  15  -1   91.31   32.24
   9  15  -1   92.54   30.35
   9 -15   1  191.47   15.03
   9 -15   1  102.38   30.03
  -9  15   1  170.06   33.23
  -9 -15  -1  162.12   27.22
   9 -15  -3   87.68   27.09
   9  15   3   72.74   25.59
   9 -15  -3  141.54   15.44
  -9  15  -3  140.57   34.73
  -9 -15   3  135.71   28.86
   9  15   3   64.83   28.90
  -9  15   3   85.71   30.70
   9  15  -3  138.96   33.33
  -9 -15  -3   63.41   21.02
  -9 -15   5   25.21   30.08
  -9  15  -5   52.63   32.59
   9 -15  -5  154.72   26.51
   9 -15  -5   77.47   24.37
  -9 -15  -5   79.77   23.00
  -9  15   5   71.83   32.22
   9  15  -5   36.53   32.22
   9 -17  -1  244.29   24.36
   9 -17  -1  116.17   30.04
   9  17   1   95.34   33.97
  -9 -17   1  150.22   30.19
  -9  17  -1  129.35   35.22
   9  17  -1  147.55   32.46
   9 -17   1  212.86   19.79
   9 -17   1  128.10   32.09
  -9  17   1  130.30   34.90
  -9 -17  -1   92.87   36.80
   9  17   3   72.71   25.88
   9 -17  -3   83.32   24.28
   9 -17  -3  213.74   25.25
  -9  17  -3   93.56   34.13
  -9 -17   3   11.89   26.99
   9  17   3   93.28   16.83
  -9  17   3  107.10   30.33
   9  17  -3   92.83   31.91
  -9 -17  -3  110.47   20.18
  -9 -17   5   30.74   26.96
  -9  17  -5   52.90   30.40
   9 -17  -5  157.53   23.98
   9 -17  -5   32.09   29.13
  -9 -17  -5   17.86   18.48
  -9  17   5   90.82   29.60
   9  17  -5   77.14   29.63
   9 -19  -1  108.33   39.01
   9  19   1  132.68   33.51
   9 -19  -1  218.75   22.25
  -9 -19   1  125.72   28.67
  -9  19  -1   87.72   34.28
   9  19  -1  115.82   31.46
   9 -19   1   81.49   31.76
  -9  19   1  126.37   33.99
   9 -19   1  208.56   18.16
  -9 -19  -1  118.00   26.09
   9  19   3   55.33   25.25
   9 -19  -3   30.48   30.35
  -9  19  -3  105.27   33.18
   9 -19  -3  213.33   22.28
  -9 -19   3   72.59   25.05
   9  19   3   74.13   14.94
  -9  19   3   85.01   28.90
   9  19  -3  102.04   30.16
  -9 -19  -3   57.98   18.47
  -9 -19   5   13.69   23.89
  -9  19  -5   30.40   27.06
   9 -19  -5  128.95   20.17
   9 -19  -5   19.86   18.46
  -9 -19  -5   27.98   21.40
  -9  19   5   48.75   25.94
   9  19  -5   45.35   26.66
   9 -21  -1   60.61   25.12
   9  21   1   74.16   29.72
   9 -21  -1  169.80   19.37
  -9 -21   1   93.59   25.09
  -9  21  -1  128.72   31.40
   9  21  -1  100.65   28.58
   9 -21   1  184.42   17.02
   9 -21   1  111.96   29.00
  -9  21   1   75.97   30.47
  -9 -21  -1   82.24   21.46
   9  21   3   78.25   26.88
   9 -21  -3   82.63   23.62
  -9  21  -3   35.71   35.02
   9 -21  -3  160.02   23.65
  -9 -21   3   81.86   26.04
   9  21   3   93.88   15.19
  -9  21   3  117.49   30.37
   9  21  -3   94.93   32.32
  -9 -21  -3   88.19   21.22
  -9 -21   5    4.43   20.68
  -9  21  -5   63.22   24.51
   9 -21  -5  103.33   17.41
   9 -21  -5    1.08   15.63
  -9 -21  -5   33.15   13.36
  -9  21   5   30.80   22.01
   9  21  -5   20.25   23.66
   9  23   1  102.53   27.30
   9 -23  -1  107.51   25.54
  -9 -23   1   60.53   23.09
   9 -23  -1  162.98   17.55
  -9  23  -1   60.54   29.79
   9  23  -1   29.90   26.56
   9 -23   1  146.52   15.87
   9 -23   1   69.31   26.74
  -9 -23  -1  102.69   20.44
   9  23   3   29.39   16.26
   9 -23  -3   68.96   19.78
  -9  23  -3   56.77   29.10
  -9 -23   3   83.33   21.36
   9 -23  -3  155.88   18.15
   9  23   3   45.27   11.26
  -9  23   3   25.52   24.70
   9  23  -3   99.53   26.97
  -9 -23  -3   28.84   21.99
   9  25   1   25.57   23.92
   9 -25  -1   68.64   23.65
  -9 -25   1   87.75   29.05
   9 -25  -1  180.89   16.93
  -9  25  -1   54.65   28.63
   9  25  -1   87.28   25.61
   9 -25   1  123.09   11.20
   9 -25   1   82.60   25.43
  -9 -25  -1   18.06   18.41
  -9  25   1   54.18   29.39
   9  25   3   32.68   15.87
   9 -25  -3   21.74   24.67
  -9  25  -3   37.24   27.17
  -9 -25   3   10.47   19.37
   9 -25  -3  104.21   16.32
   9  25   3   56.19   10.16
  -9  25   3   73.42   23.24
   9  25  -3   15.50   25.18
  -9 -25  -3   69.28   15.07
   9  27   1   80.41   20.99
   9 -27  -1   67.35   21.32
   9 -27  -1  125.63   15.62
  -9 -27   1   67.39   18.94
  -9  27  -1   28.67   25.66
   9  27  -1   52.33   23.18
  -9 -27  -1   23.88   22.15
   9 -27   1   30.97   21.94
  -9  27   1   48.17   26.28
   9 -27   1  112.52   14.44
   9 -27  -3   10.61   13.53
   9  27   3   40.75   12.08
  -9  27  -3   55.24   20.15
  -9 -27   3   11.45   14.86
   9 -27  -3  112.26   13.52
   9  27   3    1.00    6.96
  -9  27   3   58.24   16.93
  -9 -27  -3   41.61   10.27
   9  27  -3   19.45   19.22
   9  29   1   48.69   16.96
   9 -29  -1   19.07   17.98
   9 -29  -1  122.58   13.87
  -9 -29   1   18.63   16.61
  -9  29  -1   36.99   21.96
   9  29  -1   27.33   19.40
   9 -29   1   85.96   11.09
  -9 -29  -1   27.50   13.46
   9 -29   1   56.27   18.88
  -9  29   1   22.31   22.24
   9  29   3   23.44   10.54
  -9  29  -3   24.90   16.73
   9 -29  -3   23.32   11.03
  -9 -29   3   21.16   12.71
   9 -29  -3  104.17   15.68
   9  29   3    0.81    5.78
  -9  29   3   50.35   14.03
  -9 -29  -3   22.12   11.61
   9  29  -3   40.23   16.76
   9 -31  -1   66.95   15.64
   9  31   1   36.00   13.99
   9 -31  -1   49.84   13.88
  -9 -31   1    5.70   14.03
  -9  31  -1   40.09   18.38
   9  31  -1    6.79   15.96
   9 -31   1   60.34    7.63
  -9 -31  -1   27.47   15.71
   9 -31   1   44.74   16.37
  -9  31   1    9.22   18.74
   9  31   3    8.97   11.63
  -9  31  -3   24.74   17.89
   9 -31  -3   25.19   15.86
  -9 -31   3   11.17   13.68
   9 -31  -3   72.99   12.65
  -9  31   3   39.16   14.68
  -9 -31  -3   10.80    9.06
   9  31  -3   27.23   17.91
   9 -33  -1   97.17   11.26
   9  33   1   12.25   12.53
   9 -33  -1   24.78   12.70
  -9 -33   1   10.95   12.20
  -9  33  -1   19.32   16.56
   9  33  -1   20.01   14.33
   9 -33   1   53.35    9.59
  -9 -33  -1   14.90   10.26
   9 -33   1   31.43   15.19
   9 -33  -3   65.54   12.69
   9  33   3   15.29   16.61
  -9  33  -3   18.19   17.99
   9 -33  -3   11.55   11.82
  -9 -33   3    7.34   13.93
  -9  33   3   36.85   14.26
  -9 -33  -3   14.55   12.36
   9  33  -3   37.65   17.78
   9  35   1   14.03    9.14
  -9 -35   1   27.42   14.06
   9 -35  -1   42.56   11.25
   9 -35  -1   72.00   13.75
  -9  35  -1    8.38   13.92
   9  35  -1   43.88   12.06
   9 -35   1   14.08    8.98
  -9 -35  -1   10.53   12.08
   9 -35   1   13.88   13.29
   9 -35  -3   21.92    9.84
   9  35   3   21.02   12.80
  -9  35  -3   32.83   13.41
   9 -35  -3    3.85    8.45
  -9 -35   3    4.31   10.02
  -9  35   3   25.58   14.14
  -9 -35  -3   10.83    6.32
   9  35  -3   17.91   13.00
   9  37   1   11.51   10.08
  -9 -37   1   55.11   12.15
   9 -37  -1   30.85   12.84
   9 -37  -1   61.25   12.20
  -9  37  -1   44.63   15.92
   9  37  -1   18.20   18.41
   9 -37   1   42.90    8.05
  -9 -37  -1   10.32   10.09
  -9  37   1   22.93   15.06
   9 -37   1   52.70   15.63
   9  37   3   14.46    9.56
  -9  37  -3   20.57   13.12
   9 -37  -3   11.03   11.23
  -9 -37   3   10.05   13.40
   9 -37  -3   20.48   10.48
  -9  37   3   26.08   13.47
  -9 -37  -3    7.90    8.19
   9  37  -3    1.17   12.55
  -9 -39   1    4.74   10.75
   9  39   1    9.83   12.30
   9 -39  -1   45.51   11.96
   9 -39  -1   69.57   13.59
  -9  39  -1   41.61   14.30
   9  39  -1    4.53   16.36
   9 -39   1   37.20   10.37
  -9 -39  -1   14.98   12.32
  -9  39   1   23.37   13.76
   9 -39   1   31.59    8.76
   9  39   3    7.68   10.75
  -9  39  -3   24.95   19.60
  -9 -39   3    8.49   10.99
   9 -39  -3   -0.70    9.72
   9 -39  -3   49.55   11.98
  -9  39   3   42.27   14.55
  -9 -39  -3    3.84    8.96
   9  39  -3   37.26   13.47
  -9 -41   1   10.47   10.55
   9  41   1   12.16   11.73
   9 -41  -1   35.31   11.94
   9 -41  -1   59.02   10.23
  -9  41  -1   56.56   13.92
   9 -41   1   49.54    8.09
   9  41  -1   11.33   15.65
  -9 -41  -1   12.03    8.77
  -9  41   1    9.48   12.92
   9 -41   1   10.54    8.42
  -9  41  -3   16.40   18.68
  -9 -41   3   31.62   14.55
   9  41   3    8.90   15.31
   9 -41  -3   38.60   17.51
   9 -41  -3   37.67   14.22
  -9  41   3   41.33   13.88
   9  41  -3   33.39   23.87
  -9 -43   1   10.51    9.35
   9  43   1    4.40    7.30
   9 -43  -1   45.71   12.69
   9 -43  -1   45.79   14.23
  -9  43  -1   31.98   16.09
   9 -43   1   13.42    9.96
   9  43  -1   36.55    9.76
  -9 -43  -1    3.11   10.33
  -9  43   1   35.93   11.19
  -9 -45   1    3.11    7.39
   9 -45  -1   24.92    7.60
   9  45   1    2.08    5.74
   9 -45  -1   22.78    8.24
   9  45  -1   23.77    7.57
  -9 -45  -1    2.07    7.70
  -9  45   1   19.59   11.79
   9 -47  -1   17.98    7.81
  -9 -47   1    1.14    6.72
   9  47   1    3.58    7.29
   9 -47  -1   27.35    7.69
  -9  47  -1   20.98    8.77
   9  47  -1   -1.32    7.07
  -9  47   1   19.66   11.14
   9 -49  -1   -5.18    5.97
  -9 -49   1    1.27    6.75
   9 -49  -1    2.66    5.71
  -9  49  -1   24.10    6.44
   9  49   1    8.06    9.47
   9  49  -1    5.03    5.44
  -9  49   1    4.27    8.04
  10   0   0   -0.05    4.00
 -10   0   0    2.99    4.11
  10   0  -2   78.85   17.55
 -10   0   2   93.42   18.69
  10   0   2   -0.94   18.06
 -10   0  -2   -0.85   15.78
 -10   0  -4    0.18    3.30
 -10   0   4   -0.83    3.78
  10   0  -4   -0.77    3.40
  10   2   0   -3.51    3.98
  10  -2   0    0.27    3.99
 -10   2   0   -3.72    4.21
 -10  -2   0    1.43    4.15
  10  -2  -2  405.92   67.00
 -10  -2   2  462.12   93.01
  10   2   2  469.24   72.60
 -10   2  -2  439.82   65.31
  10   2  -2  408.29   67.27
 -10   2   2  454.09   71.11
  10  -2   2  462.91   72.19
 -10  -2  -2  433.84   63.13
 -10   2  -4   -3.55    6.51
 -10  -2   4   -1.02    6.93
  10  -2  -4    2.15    6.13
 -10  -2  -4    1.05    5.87
 -10   2   4    2.27    6.85
  10   2  -4   17.31    6.39
  10   4   0  278.40   65.43
  10  -4   0  300.61   52.80
 -10  -4   0  292.89   48.52
 -10   4   0  311.22   52.82
  10  -4  -2   78.58   12.21
 -10  -4   2    4.13   12.62
  10   4   2   -2.30   17.54
 -10   4  -2   -3.84   11.86
  10   4  -2    2.43   12.15
 -10   4   2   83.09   13.33
  10  -4   2   -0.61   13.05
 -10  -4  -2   -0.04   10.70
 -10   4  -4  217.15   46.28
 -10  -4   4  169.53   45.46
  10  -4  -4  159.69   41.70
 -10  -4  -4  201.38   52.70
 -10   4   4  183.30   46.88
  10   4  -4  160.14   43.61
  10   6   0    1.35    4.50
  10  -6   0   -5.74    4.84
 -10  -6   0   -0.94    4.28
 -10   6   0   -3.54    4.97
  10  -6  -2    7.50    8.47
 -10  -6   2   12.99    9.12
  10   6   2    6.38    9.31
 -10   6  -2   10.59    8.74
  10   6  -2    8.42    8.68
  10  -6   2   12.71    9.30
 -10   6   2   11.12    9.21
 -10  -6  -2    8.74    8.61
 -10   6  -4    1.11    8.73
 -10  -6   4    6.37    8.43
  10  -6  -4   17.21    7.73
 -10  -6  -4   -0.49    6.93
 -10   6   4    8.52    8.82
  10   6  -4    1.56    9.08
  10   8   0   15.86   10.01
  10  -8   0   16.62   10.77
 -10  -8   0   13.94    9.45
 -10   8   0   15.13   11.14
 -10   8  -2    2.50    4.40
  10  -8  -2    0.20    4.16
 -10  -8   2    0.48    4.18
  10   8   2    0.43    4.35
  10   8  -2    9.08    4.44
 -10   8   2   -2.04    4.36
  10  -8   2    1.04    4.27
 -10  -8  -2   -1.20    3.88
  10  -8  -4   48.63    8.19
 -10   8  -4    8.88   16.06
 -10  -8   4    8.49   15.07
  10  -8  -4    6.82   13.44
 -10  -8  -4    5.20   12.21
 -10   8   4    2.52   21.44
  10   8  -4    9.44   16.29
  10  10   0   -3.65    4.09
  10 -10   0   -0.76    4.41
 -10 -10   0    0.05    3.84
 -10  10   0   -1.52    4.42
 -10  10  -2  266.41   52.27
  10 -10  -2  238.64   47.93
 -10 -10   2  237.63   47.40
  10  10   2  252.39   50.11
  10  10  -2  235.10   49.93
 -10  10   2  241.63   50.33
  10 -10   2  244.06   48.89
 -10 -10  -2  255.74   59.01
  10 -10  -4   -1.43    6.28
 -10  10  -4   -2.87    7.21
 -10 -10   4    7.42    6.74
 -10 -10  -4   -0.83    5.52
 -10  10   4    3.65    6.97
  10  10  -4   16.94    7.52
  10  12   0  339.85   57.33
  10 -12   0  367.72   61.19
 -10 -12   0  366.34   53.33
 -10  12   0  393.04   63.44
 -10  12  -2   -1.26    2.85
  10 -12  -2   -1.29    2.56
 -10 -12   2    0.40    2.53
  10  12   2   -2.44    2.69
  10  12  -2    4.47    2.73
 -10  12   2   -1.14    2.77
  10 -12   2    0.06    2.65
 -10 -12  -2    0.17    2.28
  10 -12  -4  227.45   49.84
  10 -12  -4  214.76   29.16
 -10 -12   4  207.77   52.30
 -10 -12  -4  251.53   43.84
 -10  12   4  245.20   55.83
  10  12  -4  234.71   57.93
  10  14   0   -4.28    4.85
  10 -14   0   -3.65    5.23
 -10 -14   0    0.12    4.46
 -10  14   0   -2.01    5.47
 -10  14  -2  149.81   35.37
  10 -14  -2   57.37   14.16
  10 -14  -2  156.94   30.44
 -10 -14   2  148.92   30.02
  10  14   2  143.01   32.99
  10  14  -2  144.26   32.91
 -10  14   2  137.24   44.66
  10 -14   2  152.03   32.17
  10 -14   2  115.04   11.89
 -10 -14  -2  150.16   25.76
  10 -14  -4   10.38    6.74
 -10  14  -4    3.05    8.25
 -10 -14   4    0.63    7.22
 -10 -14  -4   -1.29    5.56
 -10  14   4    6.00    7.68
  10  14  -4    7.38   11.08
  10 -16   0  207.05   25.16
  10  16   0  217.82   43.65
  10 -16   0  224.93   39.68
 -10 -16   0  222.80   50.60
 -10  16   0  254.72   47.35
 -10  16  -2   -0.39    3.65
  10 -16  -2   -0.93    2.92
 -10 -16   2    2.74    3.05
  10  16   2   -1.65    3.31
  10  16  -2    3.82    3.44
 -10  16   2   -2.35    3.40
  10 -16   2   -2.38    3.27
 -10 -16  -2   -1.17    2.49
  10 -16  -4  140.66   38.22
 -10  16  -4  180.68   50.13
  10 -16  -4  182.33   35.59
 -10 -16   4  129.46   43.06
  10  16   4  142.75   28.40
 -10 -16  -4  154.06   32.77
 -10  16   4  153.73   45.07
  10  16  -4  153.84   48.32
  10  18   0   -0.55    4.12
  10 -18   0   -3.96    3.72
 -10 -18   0    0.23    3.42
 -10  18   0   -0.06    4.51
 -10  18  -2  268.01   54.78
  10 -18  -2  227.66   35.55
  10 -18  -2  227.41   43.55
 -10 -18   2  225.81   45.44
  10  18   2  237.84   47.84
  10  18  -2  239.29   67.04
  10 -18   2  217.53   18.89
 -10  18   2  251.02   50.79
  10 -18   2  241.45   48.41
 -10 -18  -2  232.30   37.41
  10 -18  -4   -0.17    3.56
 -10  18  -4    5.37    5.14
 -10 -18   4    1.23    4.21
  10  18   4   -1.04    2.99
 -10  18   4    1.23    4.52
  10  18  -4    1.81    4.93
 -10 -18  -4    0.34    2.88
  10  20   0  131.79   31.93
  10 -20   0  115.43   16.52
  10 -20   0  125.39   28.55
 -10 -20   0  125.09   26.26
 -10  20   0  131.94   35.21
 -10  20  -2   -2.68    5.28
  10 -20  -2   -3.48    3.98
 -10 -20   2    0.13    4.11
  10  20   2    1.02    4.17
  10  20  -2   -0.54    4.72
 -10  20   2   -5.87    4.81
  10 -20   2   -1.25    4.62
 -10 -20  -2    0.38    3.26
  10 -20  -4   75.60   23.98
 -10  20  -4   98.37   35.50
  10 -20  -4   79.56   23.56
 -10 -20   4   39.72   38.74
  10  20   4   71.36   22.27
 -10  20   4   72.34   31.14
  10  20  -4   72.02   33.24
 -10 -20  -4   65.61   26.31
  10  22   0    0.31    2.89
  10 -22   0    0.05    2.53
 -10 -22   0    0.39    2.26
 -10  22   0    0.08    4.37
 -10  22  -2    0.62    6.13
  10 -22  -2    2.12    4.44
  10 -22  -2    1.36    3.62
 -10 -22   2    1.07    4.69
  10  22   2    0.20    4.59
  10  22  -2    2.29    5.41
 -10  22   2    0.82    5.51
 -10 -22  -2    3.01    3.78
  10 -22   2    5.28    5.28
  10 -22  -4   -0.19    3.54
 -10  22  -4   -2.51    5.44
 -10 -22   4    2.03    4.28
  10  22   4    0.40    3.62
 -10  22   4   10.51    4.77
  10  22  -4   -1.60    5.11
 -10 -22  -4   -0.99    2.79
  10  24   0    1.13    4.56
  10 -24   0    3.78    2.24
  10 -24   0   -2.42    4.10
 -10 -24   0   -1.27    3.51
 -10  24   0    2.51    7.03
 -10  24  -2   -0.72    5.02
  10 -24  -2   -4.07    3.50
 -10 -24   2    0.45    3.78
  10  24   2   -0.17    4.82
  10  24  -2    0.51    4.59
 -10  24   2   -3.59    4.50
 -10 -24  -2   -0.00    4.05
  10 -24   2    1.68    4.32
  10 -24  -4   -0.72    5.98
 -10  24  -4    0.61    9.76
 -10 -24   4    0.22    7.37
  10  24   4    0.61    6.65
  10 -24  -4    8.08    5.99
 -10  24   4   18.06    8.07
  10  24  -4    1.47    9.01
 -10 -24  -4    3.73    5.32
  10  26   0   -1.67    4.27
  10 -26   0   -2.28    3.88
 -10 -26   0    1.06    3.35
 -10  26   0   -5.91    6.73
 -10  26  -2  214.02   53.25
  10 -26  -2  195.60   36.64
 -10 -26   2  189.42   37.85
  10  26   2  207.23   48.45
  10 -26  -2  150.00   28.91
  10  26  -2  181.97   48.12
 -10  26   2  213.97   48.76
 -10 -26  -2  201.06   32.41
  10 -26   2  186.40   28.87
  10 -28   0  273.92   39.05
  10  28   0  272.78   52.07
  10 -28   0  285.07   49.31
 -10 -28   0  293.03   57.02
 -10  28   0  343.98   82.77
 -10  28  -2    1.21    6.22
  10 -28  -2   -0.71    4.12
 -10 -28   2   -0.91    5.83
  10  28   2    0.69    5.32
  10  28  -2    3.04    5.54
 -10  28   2   22.34    5.55
 -10 -28  -2   -0.18    4.47
  10 -28   2   -1.99    3.18
  10  30   0   -1.26    4.60
  10 -30   0   -3.45    4.63
 -10 -30   0   -1.14    3.85
 -10  30   0   -3.28    7.94
 -10  30  -2   20.07   12.56
  10 -30  -2    0.59    9.35
  10 -30  -2   14.47    7.61
 -10 -30   2    7.01    8.93
  10  30   2   13.72   10.86
  10  30  -2   19.05   11.66
 -10  30   2   21.33   11.35
 -10 -30  -2   11.02    6.88
  10 -30   2    9.69    6.74
  10  32   0  165.57   36.78
 -10 -32   0  188.29   32.01
  10 -32   0  185.25   38.95
 -10  32   0  201.43   60.91
  10 -32   0  176.06   32.80
 -10  32  -2   -0.40    3.43
  10 -32  -2    3.93    2.14
  10 -32  -2   -1.65    2.57
 -10 -32   2   -1.26    2.46
  10  32   2   -0.40    2.13
 -10  32   2   -5.80    3.02
 -10 -32  -2    0.21    1.90
  10 -32   2    2.92    1.87
  10  32  -2   -8.42    3.17
  10  34   0    0.13    2.67
 -10 -34   0   -2.22    2.37
  10 -34   0   -0.01    4.11
 -10  34   0    4.82    4.82
 -10  34  -2   36.40   17.72
  10 -34  -2   31.65   11.14
  10 -34  -2   31.57   13.52
 -10 -34   2   14.63   17.15
  10  34   2   16.30   10.87
 -10  34   2   40.46   15.24
 -10 -34  -2   15.13    9.85
  10  34  -2   40.98   21.55
  10  36   0    0.64    3.97
 -10 -36   0    0.95    3.74
  10 -36   0    6.86    4.64
  10 -36   0   -0.46    3.61
 -10  36   0    7.63    7.28
 -10  36  -2   -0.66   12.42
 -10 -36   2   -0.40    6.60
  10 -36  -2    6.14    6.14
  10  36   2   -0.26    5.28
  10 -36  -2   38.55    6.52
 -10  36   2    1.63    7.70
 -10 -36  -2   -0.20    4.87
  10  36  -2    0.13   11.06
  10  38   0    0.95    3.99
  10 -38   0    1.30    3.00
 -10 -38   0    0.52    5.28
  10 -38   0    1.39    4.73
 -10  38   0    9.60    5.36
 -10  38  -2   29.53   21.26
 -10 -38   2   11.09   11.69
  10 -38  -2   31.88   10.71
  10  38   2   10.80    9.00
  10 -38  -2   37.27   15.20
  10  38   2   25.68   14.30
 -10  38   2   38.36   17.81
 -10 -38  -2   11.48    8.43
  10  38  -2   26.34   18.51
  10  40   0   73.50   27.15
  10 -40   0   86.78   21.03
 -10 -40   0   73.43   19.53
  10 -40   0   92.10   32.75
 -10  40   0   88.02   26.85
  10  40   2   -0.77    9.28
 -10  40  -2    0.28   10.02
 -10 -40   2    1.38   10.35
  10 -40  -2    1.15    6.95
  10  40   2    0.51    7.74
  10 -40  -2   50.15    7.79
 -10 -40  -2    0.46    7.40
 -10  40   2   -0.21   11.31
  10  40  -2    7.82    8.64
  10  42   0    6.78    5.08
  10 -42   0    0.52    3.32
 -10 -42   0    0.19    4.77
  10 -42   0   -3.41    4.61
 -10  42   0    8.73    5.03
  10  44   0   33.65   15.43
  10 -44   0   36.95   14.07
 -10 -44   0    8.09   10.87
  10 -44   0   40.63   14.94
 -10  44   0   46.83   15.60
  11  -1  -1   10.11   12.58
  11   1   1   23.98   12.07
 -11  -1   1   15.59   12.56
 -11   1  -1   19.81   16.95
  11   1  -1   15.74   17.22
  11  -1   1   25.14   12.00
 -11   1   1    8.82   12.76
 -11  -1  -1   22.27   12.04
 -11   1  -3    9.98   11.52
  11  -1  -3   16.03   11.55
 -11  -1   3   10.91   12.52
  11   1   3   15.34    7.92
 -11   1   3   12.82   12.86
  11  -1   3   10.64    7.87
 -11  -1  -3   10.46   10.50
  11   1  -3   20.07   12.24
  11  -3  -1   17.28   11.74
  11   3   1   15.52   11.18
 -11  -3   1   14.69   11.52
 -11   3  -1    8.69   11.68
  11   3  -1   18.30   11.70
  11  -3   1   13.27   11.43
 -11   3   1   22.04   12.03
 -11  -3  -1   13.88   11.03
 -11   3  -3   15.85   11.23
  11  -3  -3    5.34   10.72
 -11  -3   3    2.44   12.00
  11   3   3   13.99    7.57
 -11   3   3    8.63   11.83
  11  -3   3   16.81    7.55
 -11  -3  -3   10.32    9.68
  11   3  -3    9.20   11.67
  11  -5  -1   18.36   11.53
  11   5   1   12.03   11.04
 -11  -5   1   23.87   11.23
 -11   5  -1   11.70   11.87
  11   5  -1   19.83   11.74
  11  -5   1   12.48   11.46
 -11   5   1   14.19   11.80
 -11  -5  -1    8.11   11.13
 -11   5  -3   10.74   11.70
  11  -5  -3    9.47   10.87
 -11  -5   3   10.88   16.65
  11   5   3   14.31   12.79
 -11   5   3   12.68   12.04
  11  -5   3   14.85    7.63
 -11  -5  -3   11.72    9.65
  11   5  -3    7.06   11.80
  11  -7  -1   11.70   10.30
  11   7   1   17.65   10.32
 -11  -7   1    9.24   10.42
 -11   7  -1   13.03   11.15
  11   7  -1    7.17   10.95
  11  -7   1   13.73   10.71
 -11   7   1   13.50   11.32
 -11  -7  -1   15.64   10.21
 -11   7  -3   15.59   11.83
  11  -7  -3   11.45   10.54
 -11  -7   3    9.53   11.79
  11   7   3    6.23   12.71
 -11   7   3   17.93   11.91
  11  -7   3   10.83    7.39
 -11  -7  -3    7.89    9.40
  11   7  -3   14.77   11.79
  11  -9  -1    7.07    9.48
  11   9   1   11.50    9.56
 -11  -9   1    7.98    9.54
 -11   9  -1   19.42   11.25
  11   9  -1    8.32   10.02
  11  -9   1   12.12    9.97
 -11   9   1    7.37   10.48
 -11  -9  -1   13.32    9.23
 -11   9  -3    7.12   11.27
  11  -9  -3   12.58    9.82
 -11  -9   3   11.62   11.00
  11   9   3    6.70   12.04
  11   9   3    8.32    6.55
 -11   9   3   18.12   11.25
  11  -9   3    6.84    6.93
 -11  -9  -3    9.63    8.43
  11   9  -3   17.45   15.20
  11 -11  -1    8.92    9.00
  11  11   1   10.23   12.34
 -11 -11   1    9.62    8.92
 -11  11  -1    8.92   10.77
  11  11  -1    7.65    9.98
  11 -11   1    8.19    9.33
 -11  11   1   10.60   10.16
 -11 -11  -1   10.81    8.58
  11 -11  -3    3.14    3.42
 -11  11  -3    8.30    8.07
  11 -11  -3    3.35    6.71
 -11 -11   3    3.67    7.64
  11  11   3    8.09    8.41
  11  11   3    7.39    4.66
 -11  11   3    4.93    7.78
  11 -11   3   -0.25    4.91
 -11 -11  -3    0.35    6.47
  11  11  -3    8.00    7.83
  11 -13  -1    2.18    2.86
  11 -13  -1    8.83    7.25
  11  13   1    1.62   10.05
 -11 -13   1    9.60    7.14
 -11  13  -1    5.32    8.81
  11 -13   1    7.55    3.27
  11  13  -1   11.82    8.08
  11 -13   1    6.75    7.51
 -11  13   1    6.90    7.99
 -11 -13  -1    3.78    6.76
  11 -13  -3   10.44    4.24
  11  13   3    5.12    5.53
 -11  13  -3    5.55   10.19
  11 -13  -3    6.53    8.75
 -11 -13   3    2.50    8.86
  11  13   3    6.19    9.90
 -11  13   3    6.09   13.41
  11 -13   3    1.96    5.92
 -11 -13  -3   12.75    7.78
  11  13  -3    1.02    9.63
  11 -15  -1   11.78    3.46
  11 -15  -1    8.93    8.75
  11  15   1    3.95    8.93
 -11 -15   1   11.06    8.54
 -11  15  -1    5.27   10.98
  11  15  -1    7.84    9.86
  11 -15   1    6.18    3.70
  11 -15   1    1.00    9.40
 -11  15   1   11.02    9.78
 -11 -15  -1    9.97    7.65
  11 -15  -3    9.64    5.87
  11  15   3    3.55    4.76
 -11  15  -3    7.25    8.70
  11 -15  -3    4.55    7.25
 -11 -15   3    7.36    7.34
  11  15   3    1.97    7.97
 -11  15   3    0.33   11.33
  11 -15   3   -0.15    5.06
 -11 -15  -3    3.70    8.63
  11  15  -3    4.72    8.17
  11 -17  -1    7.88    5.45
  11 -17  -1    5.68    8.53
  11  17   1    9.83    8.43
 -11 -17   1    3.90   10.73
 -11  17  -1    6.74   10.39
  11  17  -1    2.35    9.25
  11 -17   1    6.57    4.64
  11 -17   1    9.90    8.70
 -11  17   1   -0.56    9.35
 -11 -17  -1   14.42    7.01
  11  17   3    6.54    7.16
 -11  17  -3    8.78    9.75
  11 -17  -3    5.97    7.81
  11 -17  -3    6.84    6.10
 -11 -17   3    8.06    7.93
  11  17   3    3.52    8.26
 -11  17   3    3.78    9.13
  11 -17   3    2.23    5.54
 -11 -17  -3    4.66    6.75
  11  17  -3    4.29    9.06
  11 -19  -1   10.12    4.85
  11 -19  -1    3.61    8.02
  11  19   1    7.40    7.94
 -11 -19   1    3.48    7.28
 -11  19  -1    8.40    9.95
  11  19  -1    0.39    8.89
  11 -19   1    6.52    8.25
  11 -19   1    5.05    4.14
 -11  19   1    7.48    8.97
 -11 -19  -1    6.75    6.47
  11  19   3    4.59    7.14
 -11  19  -3    1.79    9.57
  11 -19  -3    5.71    7.40
  11 -19  -3    7.70    8.04
 -11 -19   3    3.98    7.64
  11  19   3    2.55    7.53
 -11  19   3    6.84    8.86
 -11 -19  -3    2.27    6.00
  11  19  -3    9.05    8.79
  11 -21  -1   14.65    5.15
  11 -21  -1    5.35    8.56
  11  21   1    4.67    8.28
 -11 -21   1    5.75    7.56
 -11  21  -1    6.73   10.76
  11  21  -1    7.65    9.48
  11 -21   1    6.13    4.63
  11 -21   1    4.10    8.71
 -11  21   1    3.34    9.61
 -11 -21  -1    2.72    6.72
  11  21   3    3.73    6.71
 -11  21  -3    3.71    8.90
  11 -21  -3    4.37    6.49
  11 -21  -3    1.93    5.43
 -11 -21   3    1.02    6.86
  11  21   3    4.71    6.57
 -11  21   3    5.97    8.16
 -11 -21  -3    3.21    7.28
  11  21  -3    6.00    8.07
  11 -23  -1   11.14    8.82
  11  23   1    2.86   11.40
 -11 -23   1   10.82    7.79
  11 -23  -1   15.88    5.00
 -11  23  -1    2.68   15.42
  11  23  -1    4.92    9.96
  11 -23   1    2.44    3.62
  11 -23   1    2.20    9.04
 -11 -23  -1   10.34    7.04
 -11  23   1   12.78   10.06
  11  23   3    6.72    7.64
 -11  23  -3    4.14   10.10
 -11  23  -3    2.98    9.49
  11 -23  -3    0.66    7.10
 -11 -23   3    4.51    7.42
  11 -23  -3    4.13    5.70
  11  23   3    6.64    4.22
 -11  23   3    1.64    9.20
 -11 -23  -3    6.81    5.82
  11  23  -3    1.61    9.17
  11  25   1    5.13   10.87
  11 -25  -1    2.53    7.74
 -11 -25   1    4.15    7.60
  11 -25  -1   10.62    5.03
 -11  25  -1   11.04   11.35
  11 -25   1    8.96    4.87
  11  25  -1    5.85   10.16
  11 -25   1    7.41    8.96
 -11 -25  -1    5.74    6.79
 -11  25   1    5.10   10.09
  11  25   3   14.57    6.71
 -11  25  -3    3.24   12.01
 -11  25  -3    3.84   11.38
  11 -25  -3    5.59    8.26
 -11 -25   3    7.29   11.93
  11  25   3    4.91    4.75
 -11  25   3   14.66   11.07
 -11 -25  -3    3.82    6.82
  11  25  -3    7.04   11.02
  11 -27  -1    9.16    5.62
  11  27   1    5.94   10.77
  11 -27  -1    2.04    8.03
 -11 -27   1    0.11    7.83
 -11  27  -1    8.64   11.96
  11  27  -1    3.03   10.22
 -11 -27  -1   21.10    6.93
  11 -27   1    7.94    9.15
 -11  27   1    2.99   10.69
  11 -27   1    8.19    5.47
  11 -29  -1    6.25    4.54
  11  29   1    1.51    8.16
  11 -29  -1    4.38    6.39
 -11 -29   1    0.71    6.37
 -11  29  -1    8.19    9.47
  11  29  -1    6.21    7.88
 -11 -29  -1    6.19    5.39
  11 -29   1    3.56    2.88
  11 -29   1    7.25    7.24
 -11  29   1    3.40    8.53
  11 -31  -1    6.89    4.87
  11  31   1    1.83    8.53
  11 -31  -1    4.99    6.80
 -11 -31   1    6.32    9.14
 -11  31  -1   -0.25   13.77
  11  31  -1    4.86    8.21
 -11 -31  -1    1.36    5.73
  11 -31   1    2.53    7.74
 -11  31   1   19.05    8.72
  11 -33  -1    0.69    3.32
  11  33   1    4.07    4.06
 -11 -33   1    0.41    4.51
  11 -33  -1    5.26    4.70
 -11  33  -1    9.52    9.07
  11  33  -1    2.04    5.41
 -11 -33  -1   -2.58    3.87
  11 -33   1    3.40    5.33
 -11  33   1    2.43    5.76
  11  35   1    6.08    5.20
 -11 -35   1   -1.38    5.68
  11 -35  -1    4.67    6.22
  11 -35  -1    5.84    4.80
 -11  35  -1    2.73   11.67
  11  35  -1   -0.56    6.89
 -11 -35  -1    9.81    6.91
 -11  35   1    3.57    7.43
  11 -35   1    3.00    7.18
  12   0   0  413.42   79.98
 -12   0   0  413.53   74.29
  12   0  -2    4.26    8.78
 -12   0   2   18.65    8.70
  12   0   2    0.56    8.65
 -12   0  -2   -4.01    8.48
  12   2   0   -2.35   16.02
  12  -2   0   -6.73   16.32
 -12   2   0   86.90   15.31
 -12  -2   0    2.75   14.85
  12  -2  -2  228.12   56.20
 -12  -2   2  243.27   59.06
  12   2   2  252.68   59.55
 -12   2  -2  280.68   59.52
  12   2  -2  232.13   59.78
 -12   2   2  242.27   79.26
  12  -2   2  240.09   57.81
 -12  -2  -2  257.73   53.80
  12   4   0  282.35   64.29
  12  -4   0  317.96   64.57
 -12   4   0  294.72   61.49
 -12  -4   0  290.27   58.01
  12  -4  -2    5.12    5.74
 -12  -4   2    4.41    5.70
  12   4   2   -3.24    5.90
 -12   4  -2   -4.01    6.02
  12   4  -2    3.54    5.93
 -12   4   2   11.06    5.98
  12  -4   2   -2.00    5.75
 -12  -4  -2   -0.87    5.16
  12   6   0   -5.41    6.23
  12  -6   0   -3.68    5.61
 -12  -6   0   -1.10    5.64
 -12   6   0    2.07    6.09
  12  -6  -2   29.05   17.93
 -12  -6   2   29.09   18.15
  12   6   2   41.83   19.18
 -12   6  -2   33.07   26.68
  12   6  -2   21.54   19.17
 -12   6   2   26.35   19.17
  12  -6   2   32.67   18.57
 -12  -6  -2   24.68   16.37
  12   8   0  271.90   61.81
  12  -8   0  256.65   54.61
 -12  -8   0  265.03   54.85
 -12   8   0  278.23   59.34
  12  -8  -2    2.31    4.61
 -12  -8   2    3.12    4.66
  12   8   2   -1.17    4.95
 -12   8  -2    1.12    5.12
  12   8  -2    0.60    4.98
 -12   8   2    1.34    5.01
  12  -8   2    2.99    4.84
 -12  -8  -2   -2.21    4.18
  12  10   0   -1.01    6.45
  12 -10   0   -6.31    5.82
 -12 -10   0    1.88    5.67
 -12  10   0   -4.75    6.71
  12 -10  -2   50.08   23.38
 -12 -10   2   50.71   23.54
  12  10   2   50.72   25.83
 -12  10  -2   63.23   26.81
  12  10  -2   43.99   25.75
 -12  10   2   50.46   25.79
  12 -10   2   55.55   24.42
 -12 -10  -2   45.22   21.06
  12  12   0    4.51    5.44
  12 -12   0    2.32    4.79
 -12 -12   0    0.73    4.68
 -12  12   0    0.09    5.75
  12 -12   0   -2.95    1.70
  12 -12  -2    0.39    3.75
 -12 -12   2   10.71    3.86
  12  12   2   -0.91    4.18
 -12  12  -2   -4.24    4.40
  12  12  -2    4.14    4.20
 -12  12   2    0.05    4.18
  12 -12   2   -1.64    4.00
 -12 -12  -2   -4.72    3.36
  12  14   0   -5.94    5.77
  12 -14   0   -6.38    4.90
 -12 -14   0    6.21    4.75
 -12  14   0   -1.32    5.90
  12 -14  -2  370.81   72.53
 -12 -14   2  363.95   73.30
  12  14   2  384.10   81.26
 -12  14  -2  411.58   87.89
  12 -14  -2  347.15   37.09
  12  14  -2  379.05   80.55
 -12  14   2  406.56   81.60
  12 -14   2  387.22   77.02
 -12 -14  -2  398.67   66.11
  12  16   0  384.47   77.51
  12 -16   0  338.40   66.22
 -12 -16   0  371.30   63.72
 -12  16   0  403.80   80.71
  12 -16   0  344.95   41.07
  12 -16  -2    1.15    3.66
 -12 -16   2    0.87    3.79
  12  16   2    1.89    4.16
 -12  16  -2   -2.24    4.71
  12  16  -2   -2.25    4.26
 -12  16   2    1.45    4.40
  12 -16   2   -3.35    4.06
 -12 -16  -2   -1.73    4.44
  12  18   0    0.01    6.86
  12 -18   0   -2.69    6.01
 -12 -18   0   14.35    5.37
 -12  18   0   -9.72    7.29
  12 -18  -2    5.35    6.84
  12 -18  -2    4.29    4.96
 -12 -18   2    0.89    7.18
  12  18   2    4.06    7.72
 -12  18  -2    0.48    8.08
  12  18  -2    4.62    8.17
 -12  18   2    4.38    8.31
  12 -18   2    5.96    7.60
 -12 -18  -2    1.88    6.09
  12  20   0   93.25   31.62
  12 -20   0   99.98   29.01
 -12 -20   0   80.54   25.89
  12 -20   0   77.88   14.45
 -12  20   0   70.84   35.82
  12  20   2    1.24    4.33
  12 -20   2   -0.07    4.67
  12  22   0    0.09    5.92
  12 -22   0   -0.27    5.35
 -12 -22   0    5.44    4.63
  12 -22   0    1.89    3.60
 -12  22   0   -1.49    6.79
  12  24   0    4.99   11.29
  12 -24   0    9.40    5.47
  12 -24   0   14.27   10.44
 -12 -24   0   13.97    9.09
 -12  24   0    4.59   13.28
  12  26   0   -2.64    7.44
  12 -26   0    1.05    7.18
 -12 -26   0   21.43    8.46
 -12  26   0   -2.31    9.19
   0   0   0    0.00    0.00
;
_shelx_hkl_checksum              33724
loop_
_space_group_symop_operation_xyz
'x, y, z'
'-x, -y, z'
'-x+1/4, y+1/4, z+1/4'
'x+3/4, -y+3/4, z+1/4'
'x, y+1/2, z+1/2'
'-x, -y+1/2, z+1/2'
'-x+1/4, y+3/4, z+3/4'
'x+3/4, -y+5/4, z+3/4'
'x+1/2, y, z+1/2'
'-x+1/2, -y, z+1/2'
'-x+3/4, y+1/4, z+3/4'
'x+5/4, -y+3/4, z+3/4'
'x+1/2, y+1/2, z'
'-x+1/2, -y+1/2, z'
'-x+3/4, y+3/4, z+1/4'
'x+5/4, -y+5/4, z+1/4'
loop_
_atom_site_label
_atom_site_type_symbol
_atom_site_fract_x
_atom_site_fract_y
_atom_site_fract_z
_atom_site_U_iso_or_equiv
_atom_site_adp_type
_atom_site_occupancy
_atom_site_site_symmetry_order
_atom_site_calc_flag
_atom_site_refinement_flags_posn
_atom_site_refinement_flags_adp
_atom_site_refinement_flags_occupancy
_atom_site_disorder_assembly
_atom_site_disorder_group
Ba1 Ba 0.1249(2) 0.18278(5) 0.5100(5) 0.0365(5) Uani 0.99 1 d . . P . .
Eu1 Eu 0.1249(2) 0.18278(5) 0.5100(5) 0.0365(5) Uani 0.01 1 d . . P . .
Si1 Si 0.1251(10) 0.11518(9) 0.0101(19) 0.0117(11) Uani 0.5714 1 d . . P . .
Al1 Al 0.1251(10) 0.11518(9) 0.0101(19) 0.0117(11) Uani 0.4286 1 d . . P . .
Si2 Si 0.1253(10) 0.11427(9) 0.509(2) 0.0103(11) Uani 0.5714 1 d . . P . .
Al2 Al 0.1253(10) 0.11427(9) 0.509(2) 0.0103(11) Uani 0.4286 1 d . . P . .
Si3 Si 0.1961(7) 0.06740(12) 0.255(3) 0.0152(14) Uani 0.5714 1 d . . P . .
Al3 Al 0.1961(7) 0.06740(12) 0.255(3) 0.0152(14) Uani 0.4286 1 d . . P . .
Si4 Si 0.3037(6) 0.18267(12) 0.008(3) 0.0126(12) Uani 0.5714 1 d . . P . .
Al4 Al 0.3037(6) 0.18267(12) 0.008(3) 0.0126(12) Uani 0.4286 1 d . . P . .
Si51 Si 0.161(2) 0.0162(3) 0.005(4) 0.0131(15) Uiso 0.2857 1 d . . P . .
Al51 Al 0.161(2) 0.0162(3) 0.005(4) 0.0131(15) Uiso 0.2143 1 d . . P . .
Si52 Si 0.087(2) 0.0166(3) 0.011(4) 0.0131(15) Uiso 0.2857 1 d . . P . .
Al52 Al 0.087(2) 0.0166(3) 0.011(4) 0.0131(15) Uiso 0.2143 1 d . . P . .
Si61 Si 0.087(2) 0.0166(3) 0.503(4) 0.0153(16) Uiso 0.2857 1 d . . P . .
Al61 Al 0.087(2) 0.0166(3) 0.503(4) 0.0153(16) Uiso 0.2143 1 d . . P . .
Si62 Si 0.161(2) 0.0164(3) 0.509(4) 0.0153(16) Uiso 0.2857 1 d . . P . .
Al62 Al 0.161(2) 0.0164(3) 0.509(4) 0.0153(16) Uiso 0.2143 1 d . . P . .
Si71 Si 0.1006(17) 0.2202(3) 0.016(3) 0.0161(15) Uiso 0.2857 1 d . . P . .
Al71 Al 0.1006(17) 0.2202(3) 0.016(3) 0.0161(15) Uiso 0.2143 1 d . . P . .
Si72 Si 0.1518(16) 0.2204(3) 0.013(3) 0.0161(15) Uiso 0.2857 1 d . . P . .
Al72 Al 0.1518(16) 0.2204(3) 0.013(3) 0.0161(15) Uiso 0.2143 1 d . . P . .
N1 N 0.124(3) 0.0817(3) 0.021(6) 0.015(4) Uiso 1 1 d . . . . .
N2 N 0.125(3) 0.0809(3) 0.531(5) 0.008(4) Uiso 1 1 d . . . . .
N3 N 0.124(3) 0.1861(3) 0.006(8) 0.013(3) Uiso 1 1 d . . . . .
N41 N 0.041(6) 0.1263(7) 0.259(10) 0.023(6) Uiso 0.5 1 d . . P . .
N42 N 0.208(5) 0.1226(8) 0.271(10) 0.023(6) Uiso 0.5 1 d . . P . .
N51 N 0.293(5) 0.1273(7) 0.006(9) 0.015(5) Uiso 0.5 1 d . . P . .
N52 N -0.047(5) 0.1235(7) 0.511(9) 0.015(5) Uiso 0.5 1 d . . P . .
N61 N 0.342(6) 0.0130(9) 0.016(11) 0.022(6) Uiso 0.5 1 d . . P . .
N62 N 0.410(6) 0.0141(9) 0.014(12) 0.022(6) Uiso 0.5 1 d . . P . .
N71 N 0.127(6) 0.0345(8) 0.251(12) 0.012(6) Uiso 0.5 1 d . . P . .
N72 N 0.162(4) 0.0343(9) 0.275(10) 0.012(6) Uiso 0.5 1 d . . P . .
N81 N 0.092(6) 0.2373(8) 0.237(10) 0.022(6) Uiso 0.5 1 d . . P . .
N82 N 0.163(6) 0.2356(9) 0.246(11) 0.022(6) Uiso 0.5 1 d . . P . .
N91 N 0.135(8) 0.2856(11) -0.005(13) 0.019(7) Uiso 0.5 1 d . . P . .
N92 N 0.157(6) 0.2829(11) 0.017(12) 0.019(7) Uiso 0.5 1 d . . P . .
loop_
_atom_site_aniso_label
_atom_site_aniso_U_11
_atom_site_aniso_U_22
_atom_site_aniso_U_33
_atom_site_aniso_U_23
_atom_site_aniso_U_13
_atom_site_aniso_U_12
Ba1 0.0109(7) 0.0823(11) 0.0163(7) -0.0031(10) 0.0006(8) 0.0002(10)
Eu1 0.0109(7) 0.0823(11) 0.0163(7) -0.0031(10) 0.0006(8) 0.0002(10)
Si1 0.008(2) 0.016(2) 0.012(3) 0.003(4) 0.005(5) 0.001(3)
Al1 0.008(2) 0.016(2) 0.012(3) 0.003(4) 0.005(5) 0.001(3)
Si2 0.009(2) 0.012(2) 0.010(3) 0.002(3) -0.002(5) 0.001(3)
Al2 0.009(2) 0.012(2) 0.010(3) 0.002(3) -0.002(5) 0.001(3)
Si3 0.007(3) 0.026(3) 0.012(3) -0.001(3) 0.008(6) 0.001(2)
Al3 0.007(3) 0.026(3) 0.012(3) -0.001(3) 0.008(6) 0.001(2)
Si4 0.005(3) 0.024(3) 0.008(3) -0.002(2) -0.005(6) 0.004(2)
Al4 0.005(3) 0.024(3) 0.008(3) -0.002(2) -0.005(6) 0.004(2)
loop_
_atom_type_symbol
_atom_type_description
_atom_type_scat_dispersion_real
_atom_type_scat_dispersion_imag
_atom_type_scat_source
N N 0.0061 0.0033 'International Tables Vol C Tables 4.2.6.8 and 6.1.1.4'
Al Al 0.0645 0.0514 'International Tables Vol C Tables 4.2.6.8 and 6.1.1.4'
Si Si 0.0817 0.0704 'International Tables Vol C Tables 4.2.6.8 and 6.1.1.4'
Ba Ba -0.3244 2.2819 'International Tables Vol C Tables 4.2.6.8 and 6.1.1.4'
loop_
_exptl_crystal_face_index_h
_exptl_crystal_face_index_k
_exptl_crystal_face_index_l
_exptl_crystal_face_perp_dist
0.01 -53.42 -0.04 0.0059
-7.97 10.93 -3.40 0.0760
-0.01 53.42 0.04 0.0088
6.92 -28.22 2.94 0.0521
-5.25 22.44 4.40 0.0532
-5.48 33.03 3.36 0.0497
-4.25 48.31 -0.30 0.0346
3.75 2.35 -5.50 0.0690
4.35 -48.12 0.13 0.0164
-3.47 -5.59 5.53 0.0564
loop_
_geom_angle_atom_site_label_1
_geom_angle_atom_site_label_2
_geom_angle_atom_site_label_3
_geom_angle
_geom_angle_site_symmetry_1
_geom_angle_site_symmetry_3
N2 Ba1 N3 118.1(7) 8_444 1_556
N2 Ba1 N1 115.6(7) 8_444 16_445
N3 Ba1 N1 119.5(8) 1_556 16_445
N2 Ba1 N3 63.5(8) 8_444 .
N3 Ba1 N3 173.2(6) 1_556 .
N1 Ba1 N3 62.8(9) 16_445 .
N2 Ba1 N1 57.8(8) 8_444 8_445
N3 Ba1 N1 60.5(9) 1_556 8_445
N1 Ba1 N1 150.2(6) 16_445 8_445
N3 Ba1 N1 121.2(8) . 8_445
N2 Ba1 N2 151.5(6) 8_444 16_445
N3 Ba1 N2 59.5(8) 1_556 16_445
N1 Ba1 N2 60.1(9) 16_445 16_445
N3 Ba1 N2 122.7(7) . 16_445
N1 Ba1 N2 110.4(7) 8_445 16_445
N2 Ba1 N71 146.6(15) 8_444 16_445
N3 Ba1 N71 89.2(14) 1_556 16_445
N1 Ba1 N71 56.4(12) 16_445 16_445
N3 Ba1 N71 87.2(14) . 16_445
N1 Ba1 N71 146.2(12) 8_445 16_445
N2 Ba1 N71 58.2(11) 16_445 16_445
N2 Ba1 N91 53.6(15) 8_444 6
N3 Ba1 N91 89.6(16) 1_556 6
N1 Ba1 N91 146.4(17) 16_445 6
N3 Ba1 N91 86.4(15) . 6
N1 Ba1 N91 57.3(12) 8_445 6
N2 Ba1 N91 146.1(14) 16_445 6
N71 Ba1 N91 112.5(12) 16_445 6
N2 Ba1 Al4 31.3(6) 8_444 9_455
N3 Ba1 Al4 90.1(6) 1_556 9_455
N1 Ba1 Al4 146.9(6) 16_445 9_455
N3 Ba1 Al4 89.6(7) . 9_455
N1 Ba1 Al4 34.6(7) 8_445 9_455
N2 Ba1 Al4 145.0(6) 16_445 9_455
N71 Ba1 Al4 145.5(9) 16_445 9_455
N91 Ba1 Al4 33.0(13) 6 9_455
N2 Ba1 Si4 31.3(6) 8_444 9_455
N3 Ba1 Si4 90.1(6) 1_556 9_455
N1 Ba1 Si4 146.9(6) 16_445 9_455
N3 Ba1 Si4 89.6(7) . 9_455
N1 Ba1 Si4 34.6(7) 8_445 9_455
N2 Ba1 Si4 145.0(6) 16_445 9_455
N71 Ba1 Si4 145.5(9) 16_445 9_455
N91 Ba1 Si4 33.0(13) 6 9_455
Al4 Ba1 Si4 0.0 9_455 9_455
N2 Ba1 Al3 148.0(6) 8_444 16_445
N3 Ba1 Al3 90.7(7) 1_556 16_445
N1 Ba1 Al3 32.3(7) 16_445 16_445
N3 Ba1 Al3 89.7(7) . 16_445
N1 Ba1 Al3 145.9(6) 8_445 16_445
N2 Ba1 Al3 35.6(6) 16_445 16_445
N71 Ba1 Al3 34.7(9) 16_445 16_445
N91 Ba1 Al3 147.2(13) 6 16_445
Al4 Ba1 Al3 179.2(6) 9_455 16_445
Si4 Ba1 Al3 179.2(6) 9_455 16_445
N2 Ba1 Si3 148.0(6) 8_444 16_445
N3 Ba1 Si3 90.7(7) 1_556 16_445
N1 Ba1 Si3 32.3(7) 16_445 16_445
N3 Ba1 Si3 89.7(7) . 16_445
N1 Ba1 Si3 145.9(6) 8_445 16_445
N2 Ba1 Si3 35.6(6) 16_445 16_445
N71 Ba1 Si3 34.7(9) 16_445 16_445
N91 Ba1 Si3 147.2(13) 6 16_445
Al4 Ba1 Si3 179.2(6) 9_455 16_445
Si4 Ba1 Si3 179.2(6) 9_455 16_445
Al3 Ba1 Si3 0.0 16_445 16_445
N51 Si1 N52 54.4(19) 8_444 16_444
N51 Si1 N1 104.8(16) 8_444 .
N52 Si1 N1 111.9(17) 16_444 .
N51 Si1 N42 154.1(15) 8_444 .
N52 Si1 N42 116(2) 16_444 .
N1 Si1 N42 101.1(17) . .
N51 Si1 N41 114(2) 8_444 .
N52 Si1 N41 140.8(15) 16_444 .
N1 Si1 N41 107.2(17) . .
N42 Si1 N41 56(2) . .
N51 Si1 N42 61(2) 8_444 8_444
N52 Si1 N42 109(2) 16_444 8_444
N1 Si1 N42 110.6(17) . 8_444
N42 Si1 N42 108(3) . 8_444
N41 Si1 N42 54(2) . 8_444
N51 Si1 N51 110(2) 8_444 .
N52 Si1 N51 57(2) 16_444 .
N1 Si1 N51 111.5(16) . .
N42 Si1 N51 60(2) . .
N41 Si1 N51 109(2) . .
N42 Si1 N51 137.8(15) 8_444 .
N42 Si2 N41 57(3) . 16_445
N42 Si2 N51 149.8(16) . 8_445
N41 Si2 N51 112(3) 16_445 8_445
N42 Si2 N2 109.1(17) . .
N41 Si2 N2 107.1(17) 16_445 .
N51 Si2 N2 101.1(15) 8_445 .
N42 Si2 N52 114(3) . .
N41 Si2 N52 147.2(15) 16_445 .
N51 Si2 N52 58(2) 8_445 .
N2 Si2 N52 105.6(15) . .
N42 Si2 N52 113(2) . 16_445
N41 Si2 N52 59(2) 16_445 16_445
N51 Si2 N52 54(2) 8_445 16_445
N2 Si2 N52 107.4(15) . 16_445
N52 Si2 N52 108(2) . 16_445
N42 Si2 N41 57(2) . .
N41 Si2 N41 110(3) 16_445 .
N51 Si2 N41 112(2) 8_445 .
N2 Si2 N41 114.2(17) . .
N52 Si2 N41 58(2) . .
N52 Si2 N41 138.2(15) 16_445 .
N42 Si2 Ba1 74.8(15) . .
N41 Si2 Ba1 73.2(14) 16_445 .
N51 Si2 Ba1 74.9(12) 8_445 .
N2 Si2 Ba1 175.6(10) . .
N52 Si2 Ba1 74.0(12) . .
N52 Si2 Ba1 68.8(12) 16_445 .
N41 Si2 Ba1 69.4(14) . .
N1 Si3 N3 118(2) . 16_445
N1 Si3 N72 114(2) . .
N3 Si3 N72 95.1(16) 16_445 .
N1 Si3 N71 104(2) . .
N3 Si3 N71 105.6(19) 16_445 .
N72 Si3 N71 11(3) . .
N1 Si3 N2 110.9(13) . .
N3 Si3 N2 114(2) 16_445 .
N72 Si3 N2 104(2) . .
N71 Si3 N2 103(2) . .
N1 Si3 Al71 128.4(14) . 16_445
N3 Si3 Al71 46.4(6) 16_445 16_445
N72 Si3 Al71 48.8(15) . 16_445
N71 Si3 Al71 59.3(19) . 16_445
N2 Si3 Al71 120.2(12) . 16_445
N1 Si3 Si71 128.4(14) . 16_445
N3 Si3 Si71 46.4(6) 16_445 16_445
N72 Si3 Si71 48.8(15) . 16_445
N71 Si3 Si71 59.3(19) . 16_445
N2 Si3 Si71 120.2(12) . 16_445
Al71 Si3 Si71 0.0 16_445 16_445
N1 Si3 Al72 128.1(14) . 16_445
N3 Si3 Al72 38.4(6) 16_445 16_445
N72 Si3 Al72 56.7(15) . 16_445
N71 Si3 Al72 67.2(19) . 16_445
N2 Si3 Al72 121.0(12) . 16_445
Al71 Si3 Al72 8.0(4) 16_445 16_445
Si71 Si3 Al72 8.0(4) 16_445 16_445
N1 Si3 Ba1 65.9(10) . 8_444
N3 Si3 Ba1 173.8(6) 16_445 8_444
N72 Si3 Ba1 78.7(15) . 8_444
N71 Si3 Ba1 68.3(19) . 8_444
N2 Si3 Ba1 67.8(8) . 8_444
Al71 Si3 Ba1 127.5(4) 16_445 8_444
Si71 Si3 Ba1 127.5(4) 16_445 8_444
Al72 Si3 Ba1 135.5(4) 16_445 8_444
N1 Si3 Eu1 65.9(10) . 8_444
N3 Si3 Eu1 173.8(6) 16_445 8_444
N72 Si3 Eu1 78.7(15) . 8_444
N71 Si3 Eu1 68.3(19) . 8_444
N2 Si3 Eu1 67.8(8) . 8_444
Al71 Si3 Eu1 127.5(4) 16_445 8_444
Si71 Si3 Eu1 127.5(4) 16_445 8_444
Al72 Si3 Eu1 135.5(4) 16_445 8_444
Ba1 Si3 Eu1 0.00(14) 8_444 8_444
N1 Si3 Eu1 62.6(12) . 16_444
N3 Si3 Eu1 58.9(17) 16_445 16_444
N72 Si3 Eu1 98.8(19) . 16_444
N71 Si3 Eu1 100(2) . 16_444
N2 Si3 Eu1 156.9(7) . 16_444
Al71 Si3 Eu1 72.5(6) 16_445 16_444
Si71 Si3 Eu1 72.5(6) 16_445 16_444
Al72 Si3 Eu1 68.8(5) 16_445 16_444
Ba1 Si3 Eu1 121.9(5) 8_444 16_444
Eu1 Si3 Eu1 121.9(5) 8_444 16_444
N1 Si3 Ba1 62.6(12) . 16_444
N3 Si3 Ba1 58.9(17) 16_445 16_444
N72 Si3 Ba1 98.8(19) . 16_444
N71 Si3 Ba1 100(2) . 16_444
N2 Si3 Ba1 156.9(7) . 16_444
Al71 Si3 Ba1 72.5(6) 16_445 16_444
Si71 Si3 Ba1 72.5(6) 16_445 16_444
Al72 Si3 Ba1 68.8(5) 16_445 16_444
Ba1 Si3 Ba1 121.9(5) 8_444 16_444
Eu1 Si3 Ba1 121.9 8_444 16_444
Eu1 Si3 Ba1 0.0 16_444 16_444
N2 Si4 N91 103(3) 16_444 14
N2 Si4 N3 117(2) 16_444 .
N91 Si4 N3 104(2) 14 .
N2 Si4 N92 111(2) 16_444 14
N91 Si4 N92 9(4) 14 14
N3 Si4 N92 96.2(19) . 14
N2 Si4 N1 109.2(13) 16_444 16_445
N91 Si4 N1 107(3) 14 16_445
N3 Si4 N1 115(2) . 16_445
N92 Si4 N1 107(3) 14 16_445
N2 Si4 Si72 127.5(13) 16_444 .
N91 Si4 Si72 57(2) 14 .
N3 Si4 Si72 47.1(6) . .
N92 Si4 Si72 49.1(19) 14 .
N1 Si4 Si72 122.8(13) 16_445 .
N2 Si4 Ba1 65.3(9) 16_444 9_554
N91 Si4 Ba1 70(2) 14 9_554
N3 Si4 Ba1 174.1(6) . 9_554
N92 Si4 Ba1 77.9(18) 14 9_554
N1 Si4 Ba1 67.8(10) 16_445 9_554
Si72 Si4 Ba1 127.0(4) . 9_554
N2 Si4 Eu1 65.3(9) 16_444 9_554
N91 Si4 Eu1 70(2) 14 9_554
N3 Si4 Eu1 174.1(6) . 9_554
N92 Si4 Eu1 77.9(18) 14 9_554
N1 Si4 Eu1 67.8(10) 16_445 9_554
Si72 Si4 Eu1 127.0(4) . 9_554
Ba1 Si4 Eu1 0.00(14) 9_554 9_554
N2 Si4 Eu1 62.5(11) 16_444 1_554
N91 Si4 Eu1 98(3) 14 1_554
N3 Si4 Eu1 58.5(17) . 1_554
N92 Si4 Eu1 98(2) 14 1_554
N1 Si4 Eu1 155.0(7) 16_445 1_554
Si72 Si4 Eu1 72.3(6) . 1_554
Ba1 Si4 Eu1 121.5(5) 9_554 1_554
Eu1 Si4 Eu1 121.5(5) 9_554 1_554
N2 Si4 Ba1 62.5(11) 16_444 1_554
N91 Si4 Ba1 98(3) 14 1_554
N3 Si4 Ba1 58.5(17) . 1_554
N92 Si4 Ba1 98(2) 14 1_554
N1 Si4 Ba1 155.0(7) 16_445 1_554
Si72 Si4 Ba1 72.3(6) . 1_554
Ba1 Si4 Ba1 121.5(5) 9_554 1_554
Eu1 Si4 Ba1 121.5 9_554 1_554
Eu1 Si4 Ba1 0.0 1_554 1_554
Si52 Si51 N81 91(3) . 7_544
Si52 Si51 N71 76(3) . .
N81 Si51 N71 127(3) 7_544 .
Si52 Si51 N82 67(3) . 7_544
N81 Si51 N82 23.4(19) 7_544 7_544
N71 Si51 N82 117(3) . 7_544
Si52 Si51 N92 69(3) . 7_544
N81 Si51 N92 116(3) 7_544 7_544
N71 Si51 N92 107(3) . 7_544
N82 Si51 N92 106(3) 7_544 7_544
Si52 Si51 N61 174(4) . .
N81 Si51 N61 86(3) 7_544 .
N71 Si51 N61 102(3) . .
N82 Si51 N61 109(3) 7_544 .
N92 Si51 N61 117(3) 7_544 .
Si52 Si51 N72 87(3) . .
N81 Si51 N72 125(3) 7_544 .
N71 Si51 N72 12(3) . .
N82 Si51 N72 120(3) 7_544 .
N92 Si51 N72 114(3) 7_544 .
N61 Si51 N72 91(3) . .
Si52 Si51 N91 78(3) . 7_544
N81 Si51 N91 119(3) 7_544 7_544
N71 Si51 N91 108(3) . 7_544
N82 Si51 N91 112(3) 7_544 7_544
N92 Si51 N91 8(4) 7_544 7_544
N61 Si51 N91 109(3) . 7_544
N72 Si51 N91 114(3) . 7_544
Si52 Si51 Al62 137(2) . 10_554
N81 Si51 Al62 47(2) 7_544 10_554
N71 Si51 Al62 121(2) . 10_554
N82 Si51 Al62 70(2) 7_544 10_554
N92 Si51 Al62 129(2) 7_544 10_554
N61 Si51 Al62 38.8(16) . 10_554
N72 Si51 Al62 110.5(17) . 10_554
N91 Si51 Al62 124(2) 7_544 10_554
Si52 Si51 Si62 137(2) . 10_554
N81 Si51 Si62 47(2) 7_544 10_554
N71 Si51 Si62 121(2) . 10_554
N82 Si51 Si62 70(2) 7_544 10_554
N92 Si51 Si62 129(2) 7_544 10_554
N61 Si51 Si62 38.8(16) . 10_554
N72 Si51 Si62 110.5(17) . 10_554
N91 Si51 Si62 124(2) 7_544 10_554
Al62 Si51 Si62 0.0 10_554 10_554
Si52 Si51 Si71 135(3) . 16_445
N81 Si51 Si71 110(3) 7_544 16_445
N71 Si51 Si71 60(2) . 16_445
N82 Si51 Si71 126(2) 7_544 16_445
N92 Si51 Si71 128(2) 7_544 16_445
N61 Si51 Si71 43(2) . 16_445
N72 Si51 Si71 48.2(15) . 16_445
N91 Si51 Si71 121(2) 7_544 16_445
Al62 Si51 Si71 70.0(8) 10_554 16_445
Si62 Si51 Si71 70.0(8) 10_554 16_445
Si51 Si52 N82 88(3) . 7_544
Si51 Si52 N92 87(3) . 7_544
N82 Si52 N92 118(3) 7_544 7_544
Si51 Si52 N81 64(3) . 7_544
N82 Si52 N81 24.6(17) 7_544 7_544
N92 Si52 N81 113(3) 7_544 7_544
Si51 Si52 N82 172(4) . 8_444
N82 Si52 N82 86(3) 7_544 8_444
N92 Si52 N82 91(3) 7_544 8_444
N81 Si52 N82 110(3) 7_544 8_444
Si51 Si52 N71 80(3) . .
N82 Si52 N71 126(3) 7_544 .
N92 Si52 N71 114(3) 7_544 .
N81 Si52 N71 118(3) 7_544 .
N82 Si52 N71 108(3) 8_444 .
Si51 Si52 N91 80(4) . 7_544
N82 Si52 N91 119(3) 7_544 7_544
N92 Si52 N91 7(4) 7_544 7_544
N81 Si52 N91 111(3) 7_544 7_544
N82 Si52 N91 98(3) 8_444 7_544
N71 Si52 N91 110(3) . 7_544
Si51 Si52 N72 71(3) . .
N82 Si52 N72 122(3) 7_544 .
N92 Si52 N72 115(3) 7_544 .
N81 Si52 N72 110(3) 7_544 .
N82 Si52 N72 117(3) 8_444 .
N71 Si52 N72 9(3) . .
N91 Si52 N72 110(3) 7_544 .
Si51 Si52 Al72 137(3) . 8_444
N82 Si52 Al72 104(2) 7_544 8_444
N92 Si52 Al72 51(2) 7_544 8_444
N81 Si52 Al72 121(2) 7_544 8_444
N82 Si52 Al72 40(2) 8_444 8_444
N71 Si52 Al72 120(2) . 8_444
N91 Si52 Al72 58(2) 7_544 8_444
N72 Si52 Al72 128.4(16) . 8_444
Si51 Si52 Si72 137(3) . 8_444
N82 Si52 Si72 104(2) 7_544 8_444
N92 Si52 Si72 51(2) 7_544 8_444
N81 Si52 Si72 121(2) 7_544 8_444
N82 Si52 Si72 40(2) 8_444 8_444
N71 Si52 Si72 120(2) . 8_444
N91 Si52 Si72 58(2) 7_544 8_444
N72 Si52 Si72 128.4(16) . 8_444
Al72 Si52 Si72 0.0 8_444 8_444
Si51 Si52 Si52 133(2) . 2
N82 Si52 Si52 45(2) 7_544 2
N92 Si52 Si52 113(2) 7_544 2
N81 Si52 Si52 69(2) 7_544 2
N82 Si52 Si52 41.6(16) 8_444 2
N71 Si52 Si52 123(2) . 2
N91 Si52 Si52 119(2) 7_544 2
N72 Si52 Si52 127.3(15) . 2
Al72 Si52 Si52 70.7(8) 8_444 2
Si72 Si52 Si52 70.7(8) 8_444 2
Si62 Si61 N62 88(3) . 10
Si62 Si61 N61 65(3) . 10
N62 Si61 N61 23.2(18) 10 10
Si62 Si61 N91 79(4) . 7_545
N62 Si61 N91 122(4) 10 7_545
N61 Si61 N91 115(3) 10 7_545
Si62 Si61 N62 173(4) . 9_455
N62 Si61 N62 87(3) 10 9_455
N61 Si61 N62 110(3) 10 9_455
N91 Si61 N62 100(3) 7_545 9_455
Si62 Si61 N92 86(3) . 7_545
N62 Si61 N92 117(3) 10 7_545
N61 Si61 N92 113(3) 10 7_545
N91 Si61 N92 9(4) 7_545 7_545
N62 Si61 N92 92(3) 9_455 7_545
Si62 Si61 N72 68(3) . .
N62 Si61 N72 123(3) 10 .
N61 Si61 N72 110(3) 10 .
N91 Si61 N72 104(3) 7_545 .
N62 Si61 N72 119(3) 9_455 .
N92 Si61 N72 113(2) 7_545 .
Si62 Si61 N71 80(3) . .
N62 Si61 N71 124(3) 10 .
N61 Si61 N71 115(3) 10 .
N91 Si61 N71 109(3) 7_545 .
N62 Si61 N71 107(3) 9_455 .
N92 Si61 N71 117(3) 7_545 .
N72 Si61 N71 12(3) . .
Si62 Si61 Si61 134(3) . 2
N62 Si61 Si61 46(2) 10 2
N61 Si61 Si61 69(2) 10 2
N91 Si61 Si61 121(2) 7_545 2
N62 Si61 Si61 41.1(16) 9_455 2
N92 Si61 Si61 112(2) 7_545 2
N72 Si61 Si61 131.5(18) . 2
N71 Si61 Si61 122(2) . 2
Si62 Si61 Al61 134(3) . 2
N62 Si61 Al61 46(2) 10 2
N61 Si61 Al61 69(2) 10 2
N91 Si61 Al61 121(2) 7_545 2
N62 Si61 Al61 41.1(16) 9_455 2
N92 Si61 Al61 112(2) 7_545 2
N72 Si61 Al61 131.5(18) . 2
N71 Si61 Al61 122(2) . 2
Si61 Si61 Al61 0.0(14) 2 2
Si62 Si61 Al72 135(3) . 8_445
N62 Si61 Al72 105(2) 10 8_445
N61 Si61 Al72 122(2) 10 8_445
N91 Si61 Al72 57(3) 7_545 8_445
N62 Si61 Al72 42(2) 9_455 8_445
N92 Si61 Al72 50(2) 7_545 8_445
N72 Si61 Al72 128.1(18) . 8_445
N71 Si61 Al72 121(2) . 8_445
Si61 Si61 Al72 71.1(8) 2 8_445
Al61 Si61 Al72 71.1(8) 2 8_445
Si61 Si62 N61 90(3) . 10
Si61 Si62 N72 87(3) . .
N61 Si62 N72 126(3) 10 .
Si61 Si62 N62 67(3) . 10
N61 Si62 N62 22.5(19) 10 10
N72 Si62 N62 122(3) . 10
Si61 Si62 N91 77(4) . 7_545
N61 Si62 N91 123(3) 10 7_545
N72 Si62 N91 109(3) . 7_545
N62 Si62 N91 114(3) 10 7_545
Si61 Si62 N81 171(4) . 16_445
N61 Si62 N81 85(3) 10 16_445
N72 Si62 N81 90(3) . 16_445
N62 Si62 N81 107(3) 10 16_445
N91 Si62 N81 112(3) 7_545 16_445
Si61 Si62 N71 77(3) . .
N61 Si62 N71 123(3) 10 .
N72 Si62 N71 11(3) . .
N62 Si62 N71 115(3) 10 .
N91 Si62 N71 107(3) 7_545 .
N81 Si62 N71 100(3) 16_445 .
Si61 Si62 N92 71(3) . 7_545
N61 Si62 N92 116(3) 10 7_545
N72 Si62 N92 114(3) . 7_545
N62 Si62 N92 106(3) 10 7_545
N91 Si62 N92 9(3) 7_545 7_545
N81 Si62 N92 118(3) 16_445 7_545
N71 Si62 N92 111(3) . 7_545
Si61 Si62 Si71 137(3) . 16_445
N61 Si62 Si71 108(3) 10 16_445
N72 Si62 Si71 50.0(17) . 16_445
N62 Si62 Si71 125(2) 10 16_445
N91 Si62 Si71 119(2) 7_545 16_445
N81 Si62 Si71 39.9(18) 16_445 16_445
N71 Si62 Si71 61(2) . 16_445
N92 Si62 Si71 128(2) 7_545 16_445
Si61 Si62 Al71 137(3) . 16_445
N61 Si62 Al71 108(3) 10 16_445
N72 Si62 Al71 50.0(17) . 16_445
N62 Si62 Al71 125(2) 10 16_445
N91 Si62 Al71 119(2) 7_545 16_445
N81 Si62 Al71 39.9(18) 16_445 16_445
N71 Si62 Al71 61(2) . 16_445
N92 Si62 Al71 128(2) 7_545 16_445
Si71 Si62 Al71 0.0(10) 16_445 16_445
Si61 Si62 Si51 136(2) . 10
N61 Si62 Si51 47(2) 10 10
N72 Si62 Si51 112.6(19) . 10
N62 Si62 Si51 69(2) 10 10
N91 Si62 Si51 126(3) 7_545 10
N81 Si62 Si51 38.1(15) 16_445 10
N71 Si62 Si51 119(2) . 10
N92 Si62 Si51 126(2) 7_545 10
Si71 Si62 Si51 69.4(8) 16_445 10
Al71 Si62 Si51 69.4(8) 16_445 10
Si72 Si71 N81 94(4) . .
Si72 Si71 N82 69(4) . .
N81 Si71 N82 24.9(18) . .
Si72 Si71 N61 91(4) . 8_444
N81 Si71 N61 114(3) . 8_444
N82 Si71 N61 117(2) . 8_444
Si72 Si71 N62 69(4) . 8_444
N81 Si71 N62 115(2) . 8_444
N82 Si71 N62 108(3) . 8_444
N61 Si71 N62 22.1(17) 8_444 8_444
Si72 Si71 N3 84(3) . .
N81 Si71 N3 127(3) . .
N82 Si71 N3 117(3) . .
N61 Si71 N3 120(3) 8_444 .
N62 Si71 N3 113(3) 8_444 .
Si72 Si71 N72 174(4) . 8_444
N81 Si71 N72 90(3) . 8_444
N82 Si71 N72 114(3) . 8_444
N61 Si71 N72 92(3) 8_444 8_444
N62 Si71 N72 114(3) 8_444 8_444
N3 Si71 N72 90.2(18) . 8_444
Si72 Si71 N71 173(4) . 8_444
N81 Si71 N71 93(3) . 8_444
N82 Si71 N71 117(3) . 8_444
N61 Si71 N71 89(3) 8_444 8_444
N62 Si71 N71 110(3) 8_444 8_444
N3 Si71 N71 90.9(16) . 8_444
N72 Si71 N71 4(3) 8_444 8_444
Si72 Si71 Al62 141(4) . 8_444
N81 Si71 Al62 47(2) . 8_444
N82 Si71 Al62 71(2) . 8_444
N61 Si71 Al62 108(2) 8_444 8_444
N62 Si71 Al62 126(2) 8_444 8_444
N3 Si71 Al62 113.6(15) . 8_444
N72 Si71 Al62 42.4(17) 8_444 8_444
N71 Si71 Al62 45.3(17) 8_444 8_444
Si72 Si71 Si62 141(4) . 8_444
N81 Si71 Si62 47(2) . 8_444
N82 Si71 Si62 71(2) . 8_444
N61 Si71 Si62 108(2) 8_444 8_444
N62 Si71 Si62 126(2) 8_444 8_444
N3 Si71 Si62 113.6(15) . 8_444
N72 Si71 Si62 42.4(17) 8_444 8_444
N71 Si71 Si62 45.3(17) 8_444 8_444
Al62 Si71 Si62 0.0 8_444 8_444
Si72 Si71 Si3 129(3) . 8_444
N81 Si71 Si3 116(2) . 8_444
N82 Si71 Si3 129(2) . 8_444
N61 Si71 Si3 111(2) 8_444 8_444
N62 Si71 Si3 123(2) 8_444 8_444
N3 Si71 Si3 45.0(10) . 8_444
N72 Si71 Si3 45.2(14) 8_444 8_444
N71 Si71 Si3 45.8(12) 8_444 8_444
Al62 Si71 Si3 77.0(7) 8_444 8_444
Si62 Si71 Si3 77.0(7) 8_444 8_444
Si71 Si72 N82 93(4) . .
Si71 Si72 N62 95(4) . 8_444
N82 Si72 N62 120(3) . 8_444
Si71 Si72 N81 69(4) . .
N82 Si72 N81 24.9(18) . .
N62 Si72 N81 116(2) 8_444 .
Si71 Si72 N61 73(4) . 8_444
N82 Si72 N61 118(2) . 8_444
N62 Si72 N61 22.1(18) 8_444 8_444
N81 Si72 N61 105(3) . 8_444
Si71 Si72 N3 80(3) . .
N82 Si72 N3 122(3) . .
N62 Si72 N3 118(3) 8_444 .
N81 Si72 N3 119(2) . .
N61 Si72 N3 115(2) 8_444 .
Si71 Si72 N92 173(4) . 14
N82 Si72 N92 88(3) . 14
N62 Si72 N92 90(3) 8_444 14
N81 Si72 N92 113(3) . 14
N61 Si72 N92 113(3) 8_444 14
N3 Si72 N92 93(2) . 14
Si71 Si72 N91 170(4) . 14
N82 Si72 N91 93(3) . 14
N62 Si72 N91 89(3) 8_444 14
N81 Si72 N91 117(3) . 14
N61 Si72 N91 111(3) 8_444 14
N3 Si72 N91 90.0(19) . 14
N92 Si72 N91 5(4) 14 14
Si71 Si72 Al52 138(4) . 16_445
N82 Si72 Al52 45(2) . 16_445
N62 Si72 Al52 110(2) 8_444 16_445
N81 Si72 Al52 70(2) . 16_445
N61 Si72 Al52 126.2(19) 8_444 16_445
N3 Si72 Al52 113.9(15) . 16_445
N92 Si72 Al52 43(2) 14 16_445
N91 Si72 Al52 48(2) 14 16_445
Si71 Si72 Si52 138(4) . 16_445
N82 Si72 Si52 45(2) . 16_445
N62 Si72 Si52 110(2) 8_444 16_445
N81 Si72 Si52 70(2) . 16_445
N61 Si72 Si52 126.2(19) 8_444 16_445
N3 Si72 Si52 113.9(15) . 16_445
N92 Si72 Si52 43(2) 14 16_445
N91 Si72 Si52 48(2) 14 16_445
Al52 Si72 Si52 0.0 16_445 16_445
Si71 Si72 Al61 140(4) . 16_444
N82 Si72 Al61 109(2) . 16_444
N62 Si72 Al61 45(2) 8_444 16_444
N81 Si72 Al61 126(2) . 16_444
N61 Si72 Al61 67(2) 8_444 16_444
N3 Si72 Al61 111.8(16) . 16_444
N92 Si72 Al61 45(2) 14 16_444
N91 Si72 Al61 44.0(19) 14 16_444
Al52 Si72 Al61 74.3(7) 16_445 16_444
Si52 Si72 Al61 74.3(7) 16_445 16_444
Si3 N1 Si1 117.6(17) . .
Si3 N1 Al4 129.8(10) . 8_444
Si1 N1 Al4 112.4(16) . 8_444
Si3 N1 Si4 129.8(10) . 8_444
Si1 N1 Si4 112.4(16) . 8_444
Al4 N1 Si4 0.0 8_444 8_444
Si3 N1 Ba1 81.8(12) . 8_444
Si1 N1 Ba1 106.5(12) . 8_444
Al4 N1 Ba1 88.6(11) 8_444 8_444
Si4 N1 Ba1 88.6(11) 8_444 8_444
Si3 N1 Eu1 81.8(12) . 8_444
Si1 N1 Eu1 106.5(12) . 8_444
Al4 N1 Eu1 88.6(11) 8_444 8_444
Si4 N1 Eu1 88.6(11) 8_444 8_444
Ba1 N1 Eu1 0.00(15) 8_444 8_444
Si3 N1 Eu1 87.1(11) . 16_444
Si1 N1 Eu1 103.1(12) . 16_444
Al4 N1 Eu1 77.6(11) 8_444 16_444
Si4 N1 Eu1 77.6(11) 8_444 16_444
Ba1 N1 Eu1 150.2(6) 8_444 16_444
Eu1 N1 Eu1 150.2(6) 8_444 16_444
Si3 N1 Ba1 87.1(11) . 16_444
Si1 N1 Ba1 103.1(12) . 16_444
Al4 N1 Ba1 77.6(11) 8_444 16_444
Si4 N1 Ba1 77.6(11) 8_444 16_444
Ba1 N1 Ba1 150.2(6) 8_444 16_444
Eu1 N1 Ba1 150.2 8_444 16_444
Eu1 N1 Ba1 0.0 16_444 16_444
Al4 N2 Si4 0.0 8_445 8_445
Al4 N2 Si2 119.5(14) 8_445 .
Si4 N2 Si2 119.5(14) 8_445 .
Al4 N2 Si3 132.2(10) 8_445 .
Si4 N2 Si3 132.2(10) 8_445 .
Si2 N2 Si3 108.0(13) . .
Al4 N2 Ba1 83.5(10) 8_445 16_445
Si4 N2 Ba1 83.5(10) 8_445 16_445
Si2 N2 Ba1 106.2(11) . 16_445
Si3 N2 Ba1 88.8(9) . 16_445
Al4 N2 Eu1 83.5(10) 8_445 16_445
Si4 N2 Eu1 83.5(10) 8_445 16_445
Si2 N2 Eu1 106.2(11) . 16_445
Si3 N2 Eu1 88.8(9) . 16_445
Ba1 N2 Eu1 0.00(11) 16_445 16_445
Al4 N2 Ba1 88.3(10) 8_445 8_444
Si4 N2 Ba1 88.3(10) 8_445 8_444
Si2 N2 Ba1 101.7(10) . 8_444
Si3 N2 Ba1 76.7(9) . 8_444
Ba1 N2 Ba1 151.4(6) 16_445 8_444
Eu1 N2 Ba1 151.4 16_445 8_444
Al4 N2 Eu1 88.3(10) 8_445 8_444
Si4 N2 Eu1 88.3(10) 8_445 8_444
Si2 N2 Eu1 101.7(10) . 8_444
Si3 N2 Eu1 76.7(9) . 8_444
Ba1 N2 Eu1 151.4(6) 16_445 8_444
Eu1 N2 Eu1 151.4(6) 16_445 8_444
Ba1 N2 Eu1 0.00(10) 8_444 8_444
Al3 N3 Si3 0.0 8_444 8_444
Al3 N3 Si4 168.3(10) 8_444 .
Si3 N3 Si4 168.3(10) 8_444 .
Al3 N3 Si71 88.6(12) 8_444 .
Si3 N3 Si71 88.6(12) 8_444 .
Si4 N3 Si71 103.1(13) . .
Al3 N3 Si72 104.6(13) 8_444 .
Si3 N3 Si72 104.6(13) 8_444 .
Si4 N3 Si72 87.2(12) . .
Si71 N3 Si72 16.0(5) . .
Al3 N3 Eu1 89.6(18) 8_444 1_554
Si3 N3 Eu1 89.6(18) 8_444 1_554
Si4 N3 Eu1 89.8(18) . 1_554
Si71 N3 Eu1 95.2(18) . 1_554
Si72 N3 Eu1 94.7(18) . 1_554
Al3 N3 Ba1 89.6(18) 8_444 1_554
Si3 N3 Ba1 89.6(18) 8_444 1_554
Si4 N3 Ba1 89.8(18) . 1_554
Si71 N3 Ba1 95.2(18) . 1_554
Si72 N3 Ba1 94.7(18) . 1_554
Eu1 N3 Ba1 0.0 1_554 1_554
Al3 N3 Ba1 90.0(18) 8_444 .
Si3 N3 Ba1 90.0(18) 8_444 .
Si4 N3 Ba1 89.2(18) . .
Si71 N3 Ba1 91.6(18) . .
Si72 N3 Ba1 92.0(18) . .
Eu1 N3 Ba1 173.2 1_554 .
Ba1 N3 Ba1 173.2(6) 1_554 .
N42 N41 N42 123(5) 8_444 .
N42 N41 Al2 60(2) 8_444 8_444
N42 N41 Al2 170(4) . 8_444
N42 N41 Si2 60(2) 8_444 8_444
N42 N41 Si2 170(4) . 8_444
Al2 N41 Si2 0.0 8_444 8_444
N42 N41 N52 119(3) 8_444 .
N42 N41 N52 117(4) . .
Al2 N41 N52 63(2) 8_444 .
Si2 N41 N52 63(2) 8_444 .
N42 N41 Si1 63(3) 8_444 .
N42 N41 Si1 62(3) . .
Al2 N41 Si1 123(3) 8_444 .
Si2 N41 Si1 123(3) 8_444 .
N52 N41 Si1 156(2) . .
N42 N41 Si2 161(3) 8_444 .
N42 N41 Si2 58(3) . .
Al2 N41 Si2 123.1 8_444 .
Si2 N41 Si2 123(3) 8_444 .
N52 N41 Si2 61(2) . .
Si1 N41 Si2 109(3) . .
N41 N42 N41 123(5) 16_445 .
N41 N42 Si2 63(3) 16_445 .
N41 N42 Si2 65(3) . .
N41 N42 Si1 169(3) 16_445 .
N41 N42 Si1 62(3) . .
Si2 N42 Si1 116(3) . .
N41 N42 Al1 63(2) 16_445 16_445
N41 N42 Al1 152(3) . 16_445
Si2 N42 Al1 125(3) . 16_445
Si1 N42 Al1 118.5 . 16_445
N41 N42 Si1 63(2) 16_445 16_445
N41 N42 Si1 152(3) . 16_445
Si2 N42 Si1 125(3) . 16_445
Si1 N42 Si1 118(3) . 16_445
Al1 N42 Si1 0.0 16_445 16_445
N41 N42 N51 120(3) 16_445 .
N41 N42 N51 115(4) . .
Si2 N42 N51 173(3) . .
Si1 N42 N51 60(2) . .
Al1 N42 N51 58.3(19) 16_445 .
Si1 N42 N51 58.3(19) 16_445 .
N52 N51 N52 123(4) 9_554 16_444
N52 N51 Al2 65(3) 9_554 16_444
N52 N51 Al2 63(2) 16_444 16_444
N52 N51 Si2 65(3) 9_554 16_444
N52 N51 Si2 63(2) 16_444 16_444
Al2 N51 Si2 0.0 16_444 16_444
N52 N51 Si1 63(2) 9_554 16_445
N52 N51 Si1 168(2) 16_444 16_445
Al2 N51 Si1 116(3) 16_444 16_445
Si2 N51 Si1 116(3) 16_444 16_445
N52 N51 Al1 63(2) 9_554 16_445
N52 N51 Al1 168(2) 16_444 16_445
Al2 N51 Al1 116(3) 16_444 16_445
Si2 N51 Al1 116(3) 16_444 16_445
Si1 N51 Al1 0.0(5) 16_445 16_445
N52 N51 Si1 152(3) 9_554 .
N52 N51 Si1 60(2) 16_444 .
Al2 N51 Si1 123(3) 16_444 .
Si2 N51 Si1 123(3) 16_444 .
Si1 N51 Si1 120(3) 16_445 .
Al1 N51 Si1 120.4 16_445 .
N52 N51 N42 116(4) 9_554 .
N52 N51 N42 119(2) 16_444 .
Al2 N51 N42 173(2) 16_444 .
Si2 N51 N42 173(2) 16_444 .
Si1 N51 N42 61(2) 16_445 .
Al1 N51 N42 61(2) 16_445 .
Si1 N51 N42 59.7(19) . .
N51 N52 N51 123(4) 9_455 8_445
N51 N52 N41 118(4) 9_455 .
N51 N52 N41 117(3) 8_445 .
N51 N52 Al1 62(2) 9_455 8_445
N51 N52 Al1 62(2) 8_445 8_445
N41 N52 Al1 155(2) . 8_445
N51 N52 Si1 62(2) 9_455 8_445
N51 N52 Si1 62(2) 8_445 8_445
N41 N52 Si1 155(2) . 8_445
Al1 N52 Si1 0.0 8_445 8_445
N51 N52 Si2 171(3) 9_455 .
N51 N52 Si2 59(2) 8_445 .
N41 N52 Si2 62(2) . .
Al1 N52 Si2 122(3) 8_445 .
Si1 N52 Si2 122(3) 8_445 .
N51 N52 Si2 61(3) 9_455 8_444
N51 N52 Si2 160(2) 8_445 8_444
N41 N52 Si2 59(2) . 8_444
Al1 N52 Si2 112(2) 8_445 8_444
Si1 N52 Si2 112(2) 8_445 8_444
Si2 N52 Si2 120(3) . 8_444
N51 N52 Al2 61(3) 9_455 8_444
N51 N52 Al2 160(2) 8_445 8_444
N41 N52 Al2 59(2) . 8_444
Al1 N52 Al2 112(2) 8_445 8_444
Si1 N52 Al2 112(2) 8_445 8_444
Si2 N52 Al2 120.3 . 8_444
Si2 N52 Al2 0.0(6) 8_444 8_444
N62 N61 Al62 96(8) . 10_554
N62 N61 Si62 96(8) . 10_554
Al62 N61 Si62 0.0 10_554 10_554
N62 N61 Al61 71(7) . 10_554
Al62 N61 Al61 25.3(10) 10_554 10_554
Si62 N61 Al61 25.3(10) 10_554 10_554
N62 N61 Si61 71(7) . 10_554
Al62 N61 Si61 25.3(10) 10_554 10_554
Si62 N61 Si61 25.3(10) 10_554 10_554
Al61 N61 Si61 0.0 10_554 10_554
N62 N61 Al71 85(9) . 16_445
Al62 N61 Al71 123(4) 10_554 16_445
Si62 N61 Al71 123(4) 10_554 16_445
Al61 N61 Al71 119(4) 10_554 16_445
Si61 N61 Al71 119(4) 10_554 16_445
N62 N61 Si71 85(9) . 16_445
Al62 N61 Si71 123(4) 10_554 16_445
Si62 N61 Si71 123(4) 10_554 16_445
Al61 N61 Si71 119(4) 10_554 16_445
Si61 N61 Si71 119(4) 10_554 16_445
Al71 N61 Si71 0.0 16_445 16_445
N62 N61 Al72 69(9) . 16_445
Al62 N61 Al72 121(4) 10_554 16_445
Si62 N61 Al72 121(4) 10_554 16_445
Al61 N61 Al72 110(3) 10_554 16_445
Si61 N61 Al72 110(3) 10_554 16_445
Al71 N61 Al72 16.4(8) 16_445 16_445
Si71 N61 Al72 16.4(8) 16_445 16_445
N62 N61 Si72 69(9) . 16_445
Al62 N61 Si72 121(4) 10_554 16_445
Si62 N61 Si72 121(4) 10_554 16_445
Al61 N61 Si72 110(3) 10_554 16_445
Si61 N61 Si72 110(3) 10_554 16_445
Al71 N61 Si72 16.4(8) 16_445 16_445
Si71 N61 Si72 16.4(8) 16_445 16_445
Al72 N61 Si72 0.0 16_445 16_445
N62 N61 Si51 169(9) . .
Al62 N61 Si51 94(3) 10_554 .
Si62 N61 Si51 94(3) 10_554 .
Al61 N61 Si51 120(3) 10_554 .
Si61 N61 Si51 120(3) 10_554 .
Al71 N61 Si51 92(3) 16_445 .
Si71 N61 Si51 92(3) 16_445 .
Al72 N61 Si51 108(3) 16_445 .
Si72 N61 Si51 108(3) 16_445 .
N62 N61 Ba1 79(8) . 16_444
Al62 N61 Ba1 150(4) 10_554 16_444
Si62 N61 Ba1 150(4) 10_554 16_444
Al61 N61 Ba1 138(3) 10_554 16_444
Si61 N61 Ba1 138(3) 10_554 16_444
Al71 N61 Ba1 86.1(18) 16_445 16_444
Si71 N61 Ba1 86.1(18) 16_445 16_444
Al72 N61 Ba1 84.7(17) 16_445 16_444
Si72 N61 Ba1 84.7(17) 16_445 16_444
Si51 N61 Ba1 90.0(19) . 16_444
N61 N62 Al61 86(7) . 10_554
N61 N62 Si61 86(7) . 10_554
Al61 N62 Si61 0.0 10_554 10_554
N61 N62 Al72 89(9) . 16_445
Al61 N62 Al72 122(4) 10_554 16_445
Si61 N62 Al72 122(4) 10_554 16_445
N61 N62 Si72 89(9) . 16_445
Al61 N62 Si72 122(4) 10_554 16_445
Si61 N62 Si72 122(4) 10_554 16_445
Al72 N62 Si72 0.0 16_445 16_445
N61 N62 Al62 61(7) . 10_554
Al61 N62 Al62 24.6(9) 10_554 10_554
Si61 N62 Al62 24.6(9) 10_554 10_554
Al72 N62 Al62 116(4) 16_445 10_554
Si72 N62 Al62 116(4) 16_445 10_554
N61 N62 Si62 61(7) . 10_554
Al61 N62 Si62 24.6(9) 10_554 10_554
Si61 N62 Si62 24.6(9) 10_554 10_554
Al72 N62 Si62 116(4) 16_445 10_554
Si72 N62 Si62 116(4) 16_445 10_554
Al62 N62 Si62 0.0 10_554 10_554
N61 N62 Si61 178(10) . 9_554
Al61 N62 Si61 93.1 10_554 9_554
Si61 N62 Si61 93(3) 10_554 9_554
Al72 N62 Si61 93(3) 16_445 9_554
Si72 N62 Si61 93(3) 16_445 9_554
Al62 N62 Si61 118(3) 10_554 9_554
Si62 N62 Si61 118(3) 10_554 9_554
N61 N62 Al61 178(10) . 9_554
Al61 N62 Al61 93(3) 10_554 9_554
Si61 N62 Al61 93(3) 10_554 9_554
Al72 N62 Al61 93(3) 16_445 9_554
Si72 N62 Al61 93(3) 16_445 9_554
Al62 N62 Al61 118(3) 10_554 9_554
Si62 N62 Al61 118(3) 10_554 9_554
Si61 N62 Al61 0.0(18) 9_554 9_554
N61 N62 Si71 73(9) . 16_445
Al61 N62 Si71 120(4) 10_554 16_445
Si61 N62 Si71 120(4) 10_554 16_445
Al72 N62 Si71 16.4(8) 16_445 16_445
Si72 N62 Si71 16.4(8) 16_445 16_445
Al62 N62 Si71 108(3) 10_554 16_445
Si62 N62 Si71 108(3) 10_554 16_445
Si61 N62 Si71 109(3) 9_554 16_445
Al61 N62 Si71 109(3) 9_554 16_445
N61 N62 Al71 73(9) . 16_445
Al61 N62 Al71 120(4) 10_554 16_445
Si61 N62 Al71 120(4) 10_554 16_445
Al72 N62 Al71 16.4(8) 16_445 16_445
Si72 N62 Al71 16.4(8) 16_445 16_445
Al62 N62 Al71 108(3) 10_554 16_445
Si62 N62 Al71 108(3) 10_554 16_445
Si61 N62 Al71 109(3) 9_554 16_445
Al61 N62 Al71 109(3) 9_554 16_445
Si71 N62 Al71 0.0(15) 16_445 16_445
N61 N62 Ba1 89(8) . 16_444
Al61 N62 Ba1 149(4) 10_554 16_444
Si61 N62 Ba1 149(4) 10_554 16_444
Al72 N62 Ba1 88.4(19) 16_445 16_444
Si72 N62 Ba1 88.4(19) 16_445 16_444
Al62 N62 Ba1 139(3) 10_554 16_444
Si62 N62 Ba1 139(3) 10_554 16_444
Si61 N62 Ba1 91(2) 9_554 16_444
Al61 N62 Ba1 91(2) 9_554 16_444
Si71 N62 Ba1 86.7(18) 16_445 16_444
Al71 N62 Ba1 86.7(18) 16_445 16_444
Si52 N71 Si51 24.1(10) . .
Si52 N71 Si61 109(3) . .
Si51 N71 Si61 115(2) . .
Si52 N71 Si62 115(3) . .
Si51 N71 Si62 111(3) . .
Si61 N71 Si62 23.3(9) . .
Si52 N71 Si3 127(4) . .
Si51 N71 Si3 117(3) . .
Si61 N71 Si3 124(4) . .
Si62 N71 Si3 114(4) . .
Si52 N71 Al71 101(3) . 16_445
Si51 N71 Al71 77(2) . 16_445
Si61 N71 Al71 97(3) . 16_445
Si62 N71 Al71 74(2) . 16_445
Si3 N71 Al71 75(2) . 16_445
Si52 N71 Si71 101(3) . 16_445
Si51 N71 Si71 77(2) . 16_445
Si61 N71 Si71 97(3) . 16_445
Si62 N71 Si71 74(2) . 16_445
Si3 N71 Si71 75(2) . 16_445
Al71 N71 Si71 0.0 16_445 16_445
Si62 N72 Si3 128(4) . .
Si62 N72 Si61 24.1(9) . .
Si3 N72 Si61 130(3) . .
Si62 N72 Si51 114(3) . .
Si3 N72 Si51 117(3) . .
Si61 N72 Si51 111(2) . .
Si62 N72 Al71 88(2) . 16_445
Si3 N72 Al71 86.0(19) . 16_445
Si61 N72 Al71 111(3) . 16_445
Si51 N72 Al71 85(2) . 16_445
Si62 N72 Si71 88(2) . 16_445
Si3 N72 Si71 86.0(19) . 16_445
Si61 N72 Si71 111(3) . 16_445
Si51 N72 Si71 85(2) . 16_445
Al71 N72 Si71 0.0 16_445 16_445
Si62 N72 Si52 112(3) . .
Si3 N72 Si52 119(3) . .
Si61 N72 Si52 101(2) . .
Si51 N72 Si52 22.0(8) . .
Al71 N72 Si52 107(3) 16_445 .
Si71 N72 Si52 107(3) 16_445 .
N82 N81 Al51 98(7) . 3
N82 N81 Si51 98(7) . 3
Al51 N81 Si51 0.0 3 3
N82 N81 Si71 86(8) . .
Al51 N81 Si71 129(4) 3 .
Si51 N81 Si71 129(4) 3 .
N82 N81 Si72 69(7) . .
Al51 N81 Si72 126(4) 3 .
Si51 N81 Si72 126(4) 3 .
Si71 N81 Si72 17.4(8) . .
N82 N81 Al52 73(6) . 3
Al51 N81 Al52 25.4(9) 3 3
Si51 N81 Al52 25.4(9) 3 3
Si71 N81 Al52 124(4) . 3
Si72 N81 Al52 114(3) . 3
N82 N81 Si52 73(6) . 3
Al51 N81 Si52 25.4(9) 3 3
Si51 N81 Si52 25.4(9) 3 3
Si71 N81 Si52 124(4) . 3
Si72 N81 Si52 114(3) . 3
Al52 N81 Si52 0.0 3 3
N82 N81 Al62 164(8) . 8_444
Al51 N81 Al62 95(3) 3 8_444
Si51 N81 Al62 95(3) 3 8_444
Si71 N81 Al62 93(3) . 8_444
Si72 N81 Al62 110(3) . 8_444
Al52 N81 Al62 120(3) 3 8_444
Si52 N81 Al62 120(3) 3 8_444
N82 N81 Si62 164(8) . 8_444
Al51 N81 Si62 95(3) 3 8_444
Si51 N81 Si62 95(3) 3 8_444
Si71 N81 Si62 93(3) . 8_444
Si72 N81 Si62 110(3) . 8_444
Al52 N81 Si62 120(3) 3 8_444
Si52 N81 Si62 120(3) 3 8_444
Al62 N81 Si62 0.0 8_444 8_444
N82 N81 Ba1 76(7) . .
Al51 N81 Ba1 147(3) 3 .
Si51 N81 Ba1 147(3) 3 .
Si71 N81 Ba1 83.9(18) . .
Si72 N81 Ba1 83.1(17) . .
Al52 N81 Ba1 135(3) 3 .
Si52 N81 Ba1 135(3) 3 .
Al62 N81 Ba1 88.2(19) 8_444 .
Si62 N81 Ba1 88.2(19) 8_444 .
N81 N82 Si72 86(8) . .
N81 N82 Al52 83(6) . 3
Si72 N82 Al52 124(4) . 3
N81 N82 Si52 83(6) . 3
Si72 N82 Si52 124(4) . 3
Al52 N82 Si52 0.0 3 3
N81 N82 Si71 69(7) . .
Si72 N82 Si71 17.4(9) . .
Al52 N82 Si71 122(4) 3 .
Si52 N82 Si71 122(4) 3 .
N81 N82 Al52 176(8) . 16_445
Si72 N82 Al52 95(3) . 16_445
Al52 N82 Al52 94(3) 3 16_445
Si52 N82 Al52 94(3) 3 16_445
Si71 N82 Al52 112(3) . 16_445
N81 N82 Si52 176(8) . 16_445
Si72 N82 Si52 95(3) . 16_445
Al52 N82 Si52 93.8 3 16_445
Si52 N82 Si52 94(3) 3 16_445
Si71 N82 Si52 112(3) . 16_445
Al52 N82 Si52 0.0 16_445 16_445
N81 N82 Al51 58(6) . 3
Si72 N82 Al51 117(4) . 3
Al52 N82 Al51 24.3(9) 3 3
Si52 N82 Al51 24.3(9) 3 3
Si71 N82 Al51 108(3) . 3
Al52 N82 Al51 118(3) 16_445 3
Si52 N82 Al51 118(3) 16_445 3
N81 N82 Si51 58(6) . 3
Si72 N82 Si51 117(4) . 3
Al52 N82 Si51 24.3(9) 3 3
Si52 N82 Si51 24.3(9) 3 3
Si71 N82 Si51 108(3) . 3
Al52 N82 Si51 118(3) 16_445 3
Si52 N82 Si51 118(3) 16_445 3
Al51 N82 Si51 0.0 3 3
N81 N82 Ba1 92(7) . .
Si72 N82 Ba1 88.0(19) . .
Al52 N82 Ba1 147(3) 3 .
Si52 N82 Ba1 147(3) 3 .
Si71 N82 Ba1 85.6(19) . .
Al52 N82 Ba1 92(2) 16_445 .
Si52 N82 Ba1 92(2) 16_445 .
Al51 N82 Ba1 136(3) 3 .
Si51 N82 Ba1 136(3) 3 .
Al61 N91 Si61 0.0 3_554 3_554
Al61 N91 Al62 23.9(10) 3_554 3_554
Si61 N91 Al62 23.9(10) 3_554 3_554
Al61 N91 Si62 23.9(10) 3_554 3_554
Si61 N91 Si62 23.9(10) 3_554 3_554
Al62 N91 Si62 0.0 3_554 3_554
Al61 N91 Si4 121(5) 3_554 14
Si61 N91 Si4 121(5) 3_554 14
Al62 N91 Si4 131(5) 3_554 14
Si62 N91 Si4 131(5) 3_554 14
Al61 N91 Al4 121(5) 3_554 14
Si61 N91 Al4 121(5) 3_554 14
Al62 N91 Al4 131(5) 3_554 14
Si62 N91 Al4 131(5) 3_554 14
Si4 N91 Al4 0.0(12) 14 14
Al61 N91 Al52 110(3) 3_554 3
Si61 N91 Al52 110(3) 3_554 3
Al62 N91 Al52 112(3) 3_554 3
Si62 N91 Al52 112(3) 3_554 3
Si4 N91 Al52 115(4) 14 3
Al4 N91 Al52 115(4) 14 3
Al61 N91 Si52 110(3) 3_554 3
Si61 N91 Si52 110(3) 3_554 3
Al62 N91 Si52 112(3) 3_554 3
Si62 N91 Si52 112(3) 3_554 3
Si4 N91 Si52 115(4) 14 3
Al4 N91 Si52 115(4) 14 3
Al52 N91 Si52 0.0 3 3
Al61 N91 Si51 112(3) 3_554 3
Si61 N91 Si51 112(3) 3_554 3
Al62 N91 Si51 105(3) 3_554 3
Si62 N91 Si51 105(3) 3_554 3
Si4 N91 Si51 124(4) 14 3
Al4 N91 Si51 124(4) 14 3
Al52 N91 Si51 22.4(10) 3 3
Si52 N91 Si51 22.4(10) 3 3
Al61 N91 Al51 112(3) 3_554 3
Si61 N91 Al51 112(3) 3_554 3
Al62 N91 Al51 105(3) 3_554 3
Si62 N91 Al51 105(3) 3_554 3
Si4 N91 Al51 124(4) 14 3
Al4 N91 Al51 124(4) 14 3
Al52 N91 Al51 22.4(10) 3 3
Si52 N91 Al51 22.4(10) 3 3
Si51 N91 Al51 0.0(14) 3 3
Al61 N91 Al72 79(3) 3_554 14
Si61 N91 Al72 79(3) 3_554 14
Al62 N91 Al72 102(3) 3_554 14
Si62 N91 Al72 102(3) 3_554 14
Si4 N91 Al72 78(3) 14 14
Al4 N91 Al72 78(3) 14 14
Al52 N91 Al72 75(3) 3 14
Si52 N91 Al72 75(3) 3 14
Si51 N91 Al72 97(3) 3 14
Al51 N91 Al72 97(3) 3 14
Al61 N91 Si72 79(3) 3_554 14
Si61 N91 Si72 79(3) 3_554 14
Al62 N91 Si72 102(3) 3_554 14
Si62 N91 Si72 102(3) 3_554 14
Si4 N91 Si72 78(3) 14 14
Al4 N91 Si72 78(3) 14 14
Al52 N91 Si72 75(3) 3 14
Si52 N91 Si72 75(3) 3 14
Si51 N91 Si72 97(3) 3 14
Al51 N91 Si72 97(3) 3 14
Al72 N91 Si72 0.0 14 14
Al52 N92 Si52 0.0 3 3
Al52 N92 Al61 120(3) 3 3_554
Si52 N92 Al61 120(3) 3 3_554
Al52 N92 Si61 120(3) 3 3_554
Si52 N92 Si61 120(3) 3 3_554
Al61 N92 Si61 0.0 3_554 3_554
Al52 N92 Si51 24.1(11) 3 3
Si52 N92 Si51 24.1(11) 3 3
Al61 N92 Si51 117(3) 3_554 3
Si61 N92 Si51 117(3) 3_554 3
Al52 N92 Al51 24.1(11) 3 3
Si52 N92 Al51 24.1(11) 3 3
Al61 N92 Al51 117(3) 3_554 3
Si61 N92 Al51 117(3) 3_554 3
Si51 N92 Al51 0.0(15) 3 3
Al52 N92 Al4 122(4) 3 14
Si52 N92 Al4 122(4) 3 14
Al61 N92 Al4 116(4) 3_554 14
Si61 N92 Al4 116(4) 3_554 14
Si51 N92 Al4 126(4) 3 14
Al51 N92 Al4 126(4) 3 14
Al52 N92 Si4 122(4) 3 14
Si52 N92 Si4 122(4) 3 14
Al61 N92 Si4 116(4) 3_554 14
Si61 N92 Si4 116(4) 3_554 14
Si51 N92 Si4 126(4) 3 14
Al51 N92 Si4 126(4) 3 14
Al4 N92 Si4 0.0 14 14
Al52 N92 Al62 117(3) 3 3_554
Si52 N92 Al62 117(3) 3 3_554
Al61 N92 Al62 22.9(10) 3_554 3_554
Si61 N92 Al62 22.9(10) 3_554 3_554
Si51 N92 Al62 105(3) 3 3_554
Al51 N92 Al62 105(3) 3 3_554
Al4 N92 Al62 120(4) 14 3_554
Si4 N92 Al62 120(4) 14 3_554
Al52 N92 Si62 117(3) 3 3_554
Si52 N92 Si62 117(3) 3 3_554
Al61 N92 Si62 22.9(10) 3_554 3_554
Si61 N92 Si62 22.9(10) 3_554 3_554
Si51 N92 Si62 105(3) 3 3_554
Al51 N92 Si62 105(3) 3 3_554
Al4 N92 Si62 120(4) 14 3_554
Si4 N92 Si62 120(4) 14 3_554
Al62 N92 Si62 0.0 3_554 3_554
Al52 N92 Al72 86(3) 3 14
Si52 N92 Al72 86(3) 3 14
Al61 N92 Al72 85(3) 3_554 14
Si61 N92 Al72 85(3) 3_554 14
Si51 N92 Al72 110(3) 3 14
Al51 N92 Al72 110(3) 3 14
Al4 N92 Al72 83(3) 14 14
Si4 N92 Al72 83(3) 14 14
Al62 N92 Al72 108(3) 3_554 14
Si62 N92 Al72 108(3) 3_554 14
Al52 N92 Si72 86(3) 3 14
Si52 N92 Si72 86(3) 3 14
Al61 N92 Si72 85(3) 3_554 14
Si61 N92 Si72 85(3) 3_554 14
Si51 N92 Si72 110(3) 3 14
Al51 N92 Si72 110(3) 3 14
Al4 N92 Si72 83(3) 14 14
Si4 N92 Si72 83(3) 14 14
Al62 N92 Si72 108(3) 3_554 14
Si62 N92 Si72 108(3) 3_554 14
Al72 N92 Si72 0.0 14 14
loop_
_geom_bond_atom_site_label_1
_geom_bond_atom_site_label_2
_geom_bond_distance
_geom_bond_site_symmetry_2
Ba1 N2 2.94(3) 8_444
Ba1 N3 2.94(5) 1_556
Ba1 N1 2.97(3) 16_445
Ba1 N3 2.99(5) .
Ba1 N1 3.06(3) 8_445
Ba1 N2 3.06(3) 16_445
Ba1 N71 3.07(6) 16_445
Ba1 N91 3.11(7) 6
Ba1 Al4 3.221(7) 9_455
Ba1 Si4 3.221(7) 9_455
Ba1 Al3 3.221(7) 16_445
Ba1 Si3 3.221(7) 16_445
Si1 N51 1.76(5) 8_444
Si1 N52 1.77(5) 16_444
Si1 N1 1.789(19) .
Si1 N42 1.80(6) .
Si1 N41 1.80(6) .
Si1 N42 1.80(5) 8_444
Si1 N51 1.81(5) .
Si2 N42 1.69(6) .
Si2 N41 1.74(6) 16_445
Si2 N51 1.74(5) 8_445
Si2 N2 1.783(17) .
Si2 N52 1.80(5) .
Si2 N52 1.81(5) 16_445
Si2 N41 1.82(6) .
Si3 N1 1.74(4) .
Si3 N3 1.80(3) 16_445
Si3 N72 1.80(5) .
Si3 N71 1.88(5) .
Si3 N2 1.93(3) .
Si3 Al71 2.536(17) 16_445
Si3 Si71 2.536(17) 16_445
Si3 Al72 2.885(17) 16_445
Si3 Ba1 3.221(7) 8_444
Si3 Eu1 3.221(7) 8_444
Si3 Eu1 3.437(17) 16_444
Si3 Ba1 3.437(17) 16_444
Si4 N2 1.68(3) 16_444
Si4 N91 1.80(6) 14
Si4 N3 1.81(3) .
Si4 N92 1.88(6) 14
Si4 N1 1.87(4) 16_445
Si4 Si72 2.524(16) .
Si4 Ba1 3.221(7) 9_554
Si4 Eu1 3.221(7) 9_554
Si4 Eu1 3.451(16) 1_554
Si4 Ba1 3.451(16) 1_554
Si51 Si52 0.738(13) .
Si51 N81 1.55(4) 7_544
Si51 N71 1.78(7) .
Si51 N82 1.79(5) 7_544
Si51 N92 1.80(7) 7_544
Si51 N61 1.83(7) .
Si51 N72 1.87(6) .
Si51 N91 1.91(8) 7_544
Si51 Al62 2.49(3) 10_554
Si51 Si62 2.49(3) 10_554
Si51 Si71 2.56(3) 16_445
Si52 N82 1.66(5) 7_544
Si52 N92 1.69(7) 7_544
Si52 N81 1.72(5) 7_544
Si52 N82 1.75(6) 8_444
Si52 N71 1.76(7) .
Si52 N91 1.89(8) 7_544
Si52 N72 1.97(6) .
Si52 Al72 2.47(3) 8_444
Si52 Si72 2.47(3) 8_444
Si52 Si52 2.49(4) 2
Si61 Si62 0.740(14) .
Si61 N62 1.64(5) 10
Si61 N61 1.73(5) 10
Si61 N91 1.78(7) 7_545
Si61 N62 1.79(7) 9_455
Si61 N92 1.79(7) 7_545
Si61 N72 1.81(6) .
Si61 N71 1.82(7) .
Si61 Si61 2.49(4) 2
Si61 Al61 2.49(4) 2
Si61 Al72 2.51(3) 8_445
Si62 N61 1.57(5) 10
Si62 N72 1.68(6) .
Si62 N62 1.77(5) 10
Si62 N91 1.80(7) 7_545
Si62 N81 1.83(6) 16_445
Si62 N71 1.84(7) .
Si62 N92 1.89(7) 7_545
Si62 Si71 2.49(3) 16_445
Si62 Al71 2.49(3) 16_445
Si62 Si51 2.49(3) 10
Si71 Si72 0.513(14) .
Si71 N81 1.60(6) .
Si71 N82 1.71(7) .
Si71 N61 1.73(7) 8_444
Si71 N62 1.81(7) 8_444
Si71 N3 1.84(2) .
Si71 N72 1.91(5) 8_444
Si71 N71 2.26(6) 8_444
Si71 Al62 2.49(3) 8_444
Si71 Si62 2.49(3) 8_444
Si71 Si3 2.536(17) 8_444
Si72 N82 1.60(6) .
Si72 N62 1.69(7) 8_444
Si72 N81 1.71(6) .
Si72 N61 1.81(6) 8_444
Si72 N3 1.85(2) .
Si72 N92 1.92(6) 14
Si72 N91 2.16(8) 14
Si72 Al52 2.47(3) 16_445
Si72 Si52 2.47(3) 16_445
Si72 Al61 2.51(3) 16_444
N1 Al4 1.87(4) 8_444
N1 Si4 1.87(4) 8_444
N1 Ba1 2.97(3) 8_444
N1 Eu1 2.97(3) 8_444
N1 Eu1 3.06(3) 16_444
N1 Ba1 3.06(3) 16_444
N2 Al4 1.68(3) 8_445
N2 Si4 1.68(3) 8_445
N2 Ba1 2.94(3) 16_445
N2 Eu1 2.94(3) 16_445
N2 Ba1 3.06(3) 8_444
N2 Eu1 3.06(3) 8_444
N3 Al3 1.80(3) 8_444
N3 Si3 1.80(3) 8_444
N3 Eu1 2.94(5) 1_554
N3 Ba1 2.94(5) 1_554
N41 N42 1.64(8) 8_444
N41 N42 1.68(7) .
N41 Al2 1.74(6) 8_444
N41 Si2 1.74(6) 8_444
N41 N52 1.74(6) .
N42 N41 1.64(8) 16_445
N42 Al1 1.80(5) 16_445
N42 Si1 1.80(5) 16_445
N42 N51 1.81(7) .
N51 N52 1.61(6) 9_554
N51 N52 1.71(7) 16_444
N51 Al2 1.74(5) 16_444
N51 Si2 1.74(5) 16_444
N51 Si1 1.76(5) 16_445
N51 Al1 1.76(5) 16_445
N52 N51 1.61(6) 9_455
N52 N51 1.71(7) 8_445
N52 Al1 1.77(5) 8_445
N52 Si1 1.77(5) 8_445
N52 Si2 1.81(5) 8_444
N52 Al2 1.81(5) 8_444
N61 N62 0.68(5) .
N61 Al62 1.57(5) 10_554
N61 Si62 1.57(5) 10_554
N61 Al61 1.73(5) 10_554
N61 Si61 1.73(5) 10_554
N61 Al71 1.73(7) 16_445
N61 Si71 1.73(7) 16_445
N61 Al72 1.81(6) 16_445
N61 Si72 1.81(6) 16_445
N61 Ba1 3.28(5) 16_444
N62 Al61 1.64(5) 10_554
N62 Si61 1.64(5) 10_554
N62 Al72 1.69(7) 16_445
N62 Si72 1.69(7) 16_445
N62 Al62 1.77(5) 10_554
N62 Si62 1.77(5) 10_554
N62 Si61 1.79(7) 9_554
N62 Al61 1.79(7) 9_554
N62 Si71 1.81(7) 16_445
N62 Al71 1.81(7) 16_445
N62 Ba1 3.23(5) 16_444
N71 Al71 2.26(6) 16_445
N71 Si71 2.26(6) 16_445
N72 Al71 1.91(5) 16_445
N72 Si71 1.91(5) 16_445
N81 N82 0.72(5) .
N81 Al51 1.55(4) 3
N81 Si51 1.55(4) 3
N81 Al52 1.72(5) 3
N81 Si52 1.72(5) 3
N81 Al62 1.83(6) 8_444
N81 Si62 1.83(6) 8_444
N82 Al52 1.66(5) 3
N82 Si52 1.66(5) 3
N82 Al52 1.75(6) 16_445
N82 Si52 1.75(6) 16_445
N82 Al51 1.80(5) 3
N82 Si51 1.80(5) 3
N91 Al61 1.78(7) 3_554
N91 Si61 1.78(7) 3_554
N91 Al62 1.80(7) 3_554
N91 Si62 1.80(7) 3_554
N91 Si4 1.80(6) 14
N91 Al4 1.80(6) 14
N91 Al52 1.89(8) 3
N91 Si52 1.89(8) 3
N91 Si51 1.91(8) 3
N91 Al51 1.91(8) 3
N91 Al72 2.16(8) 14
N91 Si72 2.16(8) 14
N92 Al52 1.69(7) 3
N92 Si52 1.69(7) 3
N92 Al61 1.79(7) 3_554
N92 Si61 1.79(7) 3_554
N92 Si51 1.80(7) 3
N92 Al51 1.80(7) 3
N92 Al4 1.88(6) 14
N92 Si4 1.88(6) 14
N92 Al62 1.89(7) 3_554
N92 Si62 1.89(7) 3_554
N92 Al72 1.92(6) 14
N92 Si72 1.92(6) 14
