#------------------------------------------------------------------------------
#$Date: 2021-04-19 11:00:44 +0300 (Mon, 19 Apr 2021) $
#$Revision: 264300 $
#$URL: file:///home/coder/svn-repositories/cod/cif/1/56/19/1561905.cif $
#------------------------------------------------------------------------------
#
# This file is available in the Crystallography Open Database (COD),
# http://www.crystallography.net/
#
# All data on this site have been placed in the public domain by the
# contributors.
#
data_1561905
loop_
_publ_author_name
'Yamane, Hisanori'
'Yoshimura, Fumitaka'
_publ_section_title
;
 Synthesis, crystal structure and photoluminescence of
 (Ba0.99Eu0.01)Al3Si4N9
;
_journal_name_full               'Journal of Solid State Chemistry'
_journal_page_first              258
_journal_page_last               265
_journal_paper_doi               10.1016/j.jssc.2015.04.046
_journal_volume                  228
_journal_year                    2015
_chemical_formula_moiety
;
Al3 N3 Si4, N1.50,(N0.50), N, N, N, Ba0.99, Eu0.01
;
_chemical_formula_sum            'Al3 Ba0.99 Eu0.01 N9 Si4'
_chemical_formula_weight         456.88
_chemical_name_common
;
barium europium aluminum silicon nitride
;
_chemical_name_systematic
;
0.99barium 0.01europium trialuminum tetrasilicon nonanitrogen
;
_space_group_crystal_system      monoclinic
_space_group_IT_number           4
_space_group_name_Hall           'P 2yb'
_space_group_name_H-M_alt        'P 1 21 1'
_cell_angle_alpha                90
_cell_angle_beta                 118.8428(15)
_cell_angle_gamma                90
_cell_formula_units_Z            4
_cell_length_a                   5.8376(4)
_cell_length_b                   26.6895(12)
_cell_length_c                   5.8393(3)
_cell_measurement_reflns_used    5032
_cell_measurement_temperature    293(2)
_cell_measurement_theta_max      27.49
_cell_measurement_theta_min      3.055
_cell_volume                     796.92(8)
_computing_cell_refinement       'RAPID-AUTO (Rigaku Corporation, 2005)'
_computing_data_collection       'RAPID-AUTO (Rigaku Corporation, 2005)'
_computing_data_reduction        'RAPID-AUTO (Rigaku Corporation, 2005)'
_computing_molecular_graphics    'VESTA (Momma & "Izumi," 2008)'
_computing_publication_material  'SHELXL-2014/7 (Sheldrick, 2014)'
_computing_structure_refinement  'SHELXL-2014/7 (Sheldrick, 2014)'
_computing_structure_solution    'SIR2004 (Burla et "al.," 2005)'
_diffrn_ambient_temperature      293(2)
_diffrn_detector_area_resol_mean 10.0
_diffrn_measured_fraction_theta_full 0.994
_diffrn_measured_fraction_theta_max 0.996
_diffrn_measurement_device_type  'Rigaku RAXIS-RAPID II'
_diffrn_measurement_method       \w
_diffrn_radiation_monochromator  graphite
_diffrn_radiation_source         'fine-focus sealed tube'
_diffrn_radiation_type           MoK\a
_diffrn_radiation_wavelength     0.71075
_diffrn_reflns_av_R_equivalents  0.0694
_diffrn_reflns_av_unetI/netI     0.0849
_diffrn_reflns_Laue_measured_fraction_full 0.994
_diffrn_reflns_Laue_measured_fraction_max 0.996
_diffrn_reflns_limit_h_max       7
_diffrn_reflns_limit_h_min       -7
_diffrn_reflns_limit_k_max       34
_diffrn_reflns_limit_k_min       -34
_diffrn_reflns_limit_l_max       7
_diffrn_reflns_limit_l_min       -7
_diffrn_reflns_number            7621
_diffrn_reflns_point_group_measured_fraction_full 0.995
_diffrn_reflns_point_group_measured_fraction_max 0.996
_diffrn_reflns_theta_full        25.242
_diffrn_reflns_theta_max         27.476
_diffrn_reflns_theta_min         3.053
_exptl_absorpt_coefficient_mu    5.928
_exptl_absorpt_correction_T_max  0.852101
_exptl_absorpt_correction_T_min  0.712259
_exptl_absorpt_correction_type   numerical
_exptl_absorpt_process_details
;               
NUMABS; Higashi 1999            
;
_exptl_crystal_colour            'pale green'
_exptl_crystal_density_diffrn    3.808
_exptl_crystal_description       block
_exptl_crystal_F_000             856
_exptl_crystal_size_max          0.105
_exptl_crystal_size_mid          0.045
_exptl_crystal_size_min          0.045
_refine_diff_density_max         1.335
_refine_diff_density_min         -12.541
_refine_diff_density_rms         0.469
_refine_ls_abs_structure_details
;
 Refined as an inversion twin.
;
_refine_ls_abs_structure_Flack   0.46(8)
_refine_ls_extinction_coef       .
_refine_ls_extinction_method     none
_refine_ls_goodness_of_fit_ref   1.101
_refine_ls_hydrogen_treatment    undef
_refine_ls_matrix_type           full
_refine_ls_number_parameters     251
_refine_ls_number_reflns         3546
_refine_ls_number_restraints     1
_refine_ls_restrained_S_all      1.101
_refine_ls_R_factor_all          0.1266
_refine_ls_R_factor_gt           0.0922
_refine_ls_shift/su_max          11.250
_refine_ls_shift/su_mean         0.204
_refine_ls_structure_factor_coef Fsqd
_refine_ls_weighting_details
'w=1/[\s^2^(Fo^2^)+(0.1320P)^2^] where P=(Fo^2^+2Fc^2^)/3'
_refine_ls_weighting_scheme      calc
_refine_ls_wR_factor_gt          0.1991
_refine_ls_wR_factor_ref         0.2323
_reflns_Friedel_coverage         0.959
_reflns_Friedel_fraction_full    0.996
_reflns_Friedel_fraction_max     0.997
_reflns_number_gt                2262
_reflns_number_total             3546
_reflns_threshold_expression     'I > 2\s(I)'
_cod_data_source_file            JSSC-2015-228-258.cif
_cod_data_source_block           1
_cod_original_sg_symbol_H-M      'P 21'
_cod_database_code               1561905
_shelx_space_group_comment
;
The symmetry employed for this shelxl refinement is uniquely defined
by the following loop, which should always be used as a source of
symmetry information in preference to the above space-group names.
They are only intended as comments.
;
_iucr_refine_instruction_details
;
TITL     P21 No.4  Ba0.99Eu0.01Al3Si4N9  27A phase
CELL 0.71075   5.8376  26.6895   5.8393  90.000 118.8428  90.000
ZERR    4.00   0.0004   0.0012   0.0003   0.000   0.0015   0.000
LATT   -1
SYMM   -X,1/2+Y,-Z
SFAC        N       AL      SI      BA    Eu
UNIT        36      12      16      3.96  0.04
L.S.    1
acta
rem     h   k   l          Fo^2          Fc^2    Error/esd  Fc/Fc(max)  Resolut
rem    -2   0   4      57601.91       1403.08      13.81       0.092       1.46
rem    -1   2   3       1108.95         61.47      11.92       0.019       1.90
rem     1   8   5        994.42         15.92      10.08       0.010       0.89
rem    -1  -3   2      38895.90       8948.99       9.76       0.232       2.77
rem    -1   0   2         54.51       5675.45       9.74       0.185       2.92
rem    -1  -2   3       1331.40         60.83       9.02       0.019       1.90
rem    -1  -5   2      58945.25       7355.55       7.95       0.211       2.56
rem    -1  16   4       1627.63        254.51       7.15       0.039       1.08
rem     2 -31   0          5.17        205.92       6.20       0.035       0.82
rem     2 -24   2          0.00        187.04       6.06       0.034       0.89
rem     2 -26   2         -0.55        207.76       4.37       0.035       0.84
omit -2 0 4
omit -1 2 3
omit  1 8 5
omit -1 -3 2
omit -1 0 2
omit -1 -2 3
omit -1 -5 2
omit -1 16 4
omit  2 -31 0
omit  2 -24 2
omit  2 -26 2
 
EXYZ BA1 EU1
EADP BA1 EU1
EXYZ BA2 EU2
EADP BA2 EU2
EXYZ BA3 EU3
EADP BA3 EU3

EXYZ SI1 Al1
EXYZ SI2 Al2
EXYZ SI3 Al3
EXYZ SI4 Al4
EXYZ SI5 Al5
EXYZ SI6 Al6
EXYZ SI7 Al7
EXYZ SI8 Al8
EXYZ SI9 Al9
EXYZ SI10 Al10
EXYZ SI11 Al11
EXYZ SI12 Al12
EXYZ SI13 Al13
EXYZ SI14 Al14
EXYZ SI15 Al15
EXYZ SI16 Al16
EXYZ SI17 Al17
EXYZ SI18 Al18
EXYZ SI19 Al19
EXYZ SI20 Al20
EXYZ SI21 Al21
EXYZ SI22 Al22
EXYZ SI23 Al23
 
EADP SI1 Al1
EADP SI2 Al2
EADP SI3 Al3
EADP SI4 Al4
EADP SI5 Al5
EADP SI6 Al6
EADP SI7 Al7
EADP SI8 Al8
EADP SI9 Al9
EADP SI10 Al10
EADP SI11 Al11
EADP SI12 Al12
EADP SI13 Al13
EADP SI14 Al14
EADP SI15 Al15
EADP SI16 Al16
EADP SI17 Al17
EADP SI18 Al18
EADP SI19 Al19
EADP SI20 Al20
EADP SI21 Al21
EADP SI22 Al22
EADP SI23 Al23
twin
WGHT    0.132000
BASF    0.45955
FVAR       0.13766
BA1   4    0.374316    0.667281    0.374783    10.99000    0.00956    0.07225 =
         0.01198    0.00149    0.00639   -0.00223
EU1   5    0.374316    0.667281    0.374783    10.01000    0.00956    0.07225 =
         0.01198    0.00149    0.00639   -0.00223
BA2   4    0.125452    0.399764    0.624248    10.49500    0.01387    0.08792 =
         0.01576   -0.00274    0.00643    0.00232
EU2   5    0.125452    0.399764    0.624248    10.00500    0.01387    0.08792 =
         0.01576   -0.00274    0.00643    0.00232
BA3   4    0.627578    0.398881    0.117929    10.49500    0.01323    0.08452 =
         0.01449   -0.00051    0.00539   -0.00755
EU3   5    0.627578    0.398881    0.117929    10.00500    0.01323    0.08452 =
         0.01449   -0.00051    0.00539   -0.00755
SI1   3    0.126970    0.302237    0.118402    10.57143    0.01451    0.02580 =
         0.01650   -0.00386    0.00677   -0.00022
SI2   3    0.130034    0.263233    0.619947    10.57143    0.01161    0.01765 =
         0.01394   -0.00334    0.00739    0.00207
SI3   3    0.695852    0.668609    0.055237    10.57143    0.00667    0.02904 =
         0.00630   -0.00177    0.00302   -0.00074
SI4   3    0.631443    0.304999    0.622099    10.57143    0.01253    0.01907 =
         0.01849   -0.00175    0.00761    0.00012
SI5   3    0.054103    0.666095    0.696698    10.57143    0.00601    0.02154 =
         0.00636    0.00149    0.00477   -0.00166
SI6   3    0.629322    0.262836    0.119705    10.57143    0.01438    0.01389 =
         0.01294    0.00052    0.00514    0.00123
SI7   3    0.153798    0.067388    0.579988    10.28572    0.01763
SI8   3    0.095114    0.065925    0.668029    10.28572    0.02535
SI9   3    0.197153    0.898071    0.052715    10.28572    0.02881
SI10  3    0.049574    0.901795    0.197315    10.28572    0.01315
SI11  3    0.444724    0.398028    0.303139    10.28572    0.02876
SI12  3    0.304485    0.392342    0.442234    10.28572    0.02698
SI13  3    0.151415    0.092563    0.095102    10.28572    0.01061
SI14  3    0.103940    0.091220    0.146294    10.28572    0.01793
SI15  3    0.656271    0.066018    0.084054    10.28572    0.01963
SI16  3    0.593594    0.066340    0.163241    10.28572    0.02541
SI17  3    0.086646    0.500483    0.156338    10.28572    0.01748
SI18  3    0.164232    0.499037    0.093338    10.28572    0.01236
SI19  3    0.335814   -0.000854    0.405776    10.28572    0.01459
SI20  3    0.411825    0.000133    0.342945    10.28572    0.01588
SI21  3    0.154598    0.472941    0.597619    10.28572    0.03160
SI22  3    0.607420    0.470174    0.147402    10.14286    0.02408
SI23  3    0.657260    0.476330    0.088736    10.14286    0.03354
AL1   2    0.126970    0.302237    0.118402    10.42857    0.01451    0.02580 =
         0.01650   -0.00386    0.00677   -0.00022
AL2   2    0.130034    0.263233    0.619947    10.42857    0.01161    0.01765 =
         0.01394   -0.00334    0.00739    0.00207
AL3   2    0.695852    0.668609    0.055237    10.42857    0.00667    0.02904 =
         0.00630   -0.00177    0.00302   -0.00074
AL4   2    0.631443    0.304999    0.622099    10.42857    0.01253    0.01907 =
         0.01849   -0.00175    0.00761    0.00012
AL5   2    0.054103    0.666095    0.696698    10.42857    0.00601    0.02154 =
         0.00636    0.00149    0.00477   -0.00166
AL6   2    0.629322    0.262836    0.119705    10.42857    0.01438    0.01389 =
         0.01294    0.00052    0.00514    0.00123
AL7   2    0.153798    0.067388    0.579988    10.21428    0.01763
AL8   2    0.095114    0.065925    0.668029    10.21428    0.02535
AL9   2    0.197153    0.898071    0.052715    10.21428    0.02881
AL10  2    0.049574    0.901795    0.197315    10.21428    0.01315
AL11  2    0.444724    0.398028    0.303139    10.21428    0.02876
AL12  2    0.304485    0.392342    0.442234    10.21428    0.02698
AL13  2    0.151415    0.092563    0.095102    10.21428    0.01061
AL14  2    0.103940    0.091220    0.146294    10.21428    0.01793
AL15  2    0.656271    0.066018    0.084054    10.21428    0.01963
AL16  2    0.593594    0.066340    0.163241    10.21428    0.02541
AL17  2    0.086646    0.500483    0.156338    10.21428    0.01748
AL18  2    0.164232    0.499037    0.093338    10.21428    0.01236
AL19  2    0.335814   -0.000854    0.405776    10.21428    0.01459
AL20  2    0.411825    0.000133    0.342945    10.21428    0.01588
AL21  2    0.154598    0.472941    0.597619    10.21428    0.03160
AL22  2    0.607420    0.470174    0.147402    10.10714    0.02408
AL23  2    0.657260    0.476330    0.088736    10.10714    0.03354
N1    1    0.790592    0.284444    0.455783    11.00000    0.02523
N2    1    0.642716    0.370793    0.626141    11.00000    0.02028
N3    1    0.199057    0.783365    0.055015    11.00000    0.02664
N4    1    0.630748    0.195930    0.119050    11.00000    0.01371
N5    1    0.296550    0.280957    0.958915    11.00000    0.03588
N6    1    0.109265    0.601597    0.637428    11.00000    0.02034
N7    1    0.132504    0.195202    0.614130    11.00000    0.00895
N8    1    0.301143    0.286485    0.450926    11.00000    0.02829
N9    1    0.121432    0.370112    0.113068    11.00000    0.02418
N10   1    0.644826    0.601945    0.106759    11.00000    0.02108
N11   1    0.132107    0.171435    0.103535    11.00000    0.02000
N12   1    0.114329    0.409098    0.622887    10.50000    0.02728
N13   1    0.665465    0.410548    0.154235    10.50000    0.00943
N14   1    0.147035    0.966213    0.093251    10.50000    0.01212
N15   1    0.116653    0.961857    0.144042    10.50000    0.02462
N16   1    0.395433    0.466532    0.335355    10.50000    0.03735
N17   1    0.352774    0.467232    0.407969    10.50000    0.02365
N18   1    0.147043    0.565254    0.070002    10.50000    0.01459
N19   1    0.086262    0.561622    0.176470    10.50000    0.03677
N20   1    0.336421    0.065388    0.422295    10.50000    0.00970
N21   1    0.375030    0.060499    0.313884    10.50000    0.03041
N22   1    0.581442    0.009319    0.150200    10.50000    0.00730
N23   1    0.664070    0.007484    0.091154    10.50000    0.02517
N24   1    0.078278    0.008786    0.639533    10.50000    0.00840
N25   1    0.177347    0.007600    0.600391    10.50000    0.02367
HKLF      4
END  
;
_shelx_res_file
;

    shelx.res created by SHELXL-2014/7

TITL     P21 No.4  Ba0.99Eu0.01Al3Si4N9  27A phase
CELL 0.71075   5.8376  26.6895   5.8393  90.000 118.8428  90.000
ZERR    4.00   0.0004   0.0012   0.0003   0.000   0.0015   0.000
LATT   -1
SYMM   -X,1/2+Y,-Z
SFAC        N       AL      SI      BA    Eu
UNIT        36      12      16      3.96  0.04
L.S.    1
acta
rem     h   k   l          Fo^2          Fc^2    Error/esd  Fc/Fc(max)  Resolut
rem    -2   0   4      57601.91       1403.08      13.81       0.092       1.46
rem    -1   2   3       1108.95         61.47      11.92       0.019       1.90
rem     1   8   5        994.42         15.92      10.08       0.010       0.89
rem    -1  -3   2      38895.90       8948.99       9.76       0.232       2.77
rem    -1   0   2         54.51       5675.45       9.74       0.185       2.92
rem    -1  -2   3       1331.40         60.83       9.02       0.019       1.90
rem    -1  -5   2      58945.25       7355.55       7.95       0.211       2.56
rem    -1  16   4       1627.63        254.51       7.15       0.039       1.08
rem     2 -31   0          5.17        205.92       6.20       0.035       0.82
rem     2 -24   2          0.00        187.04       6.06       0.034       0.89
rem     2 -26   2         -0.55        207.76       4.37       0.035       0.84
omit -2 0 4
omit -1 2 3
omit  1 8 5
omit -1 -3 2
omit -1 0 2
omit -1 -2 3
omit -1 -5 2
omit -1 16 4
omit  2 -31 0
omit  2 -24 2
omit  2 -26 2

EXYZ BA1 EU1
EADP BA1 EU1
EXYZ BA2 EU2
EADP BA2 EU2
EXYZ BA3 EU3
EADP BA3 EU3

EXYZ SI1 Al1
EXYZ SI2 Al2
EXYZ SI3 Al3
EXYZ SI4 Al4
EXYZ SI5 Al5
EXYZ SI6 Al6
EXYZ SI7 Al7
EXYZ SI8 Al8
EXYZ SI9 Al9
EXYZ SI10 Al10
EXYZ SI11 Al11
EXYZ SI12 Al12
EXYZ SI13 Al13
EXYZ SI14 Al14
EXYZ SI15 Al15
EXYZ SI16 Al16
EXYZ SI17 Al17
EXYZ SI18 Al18
EXYZ SI19 Al19
EXYZ SI20 Al20
EXYZ SI21 Al21
EXYZ SI22 Al22
EXYZ SI23 Al23

EADP SI1 Al1
EADP SI2 Al2
EADP SI3 Al3
EADP SI4 Al4
EADP SI5 Al5
EADP SI6 Al6
EADP SI7 Al7
EADP SI8 Al8
EADP SI9 Al9
EADP SI10 Al10
EADP SI11 Al11
EADP SI12 Al12
EADP SI13 Al13
EADP SI14 Al14
EADP SI15 Al15
EADP SI16 Al16
EADP SI17 Al17
EADP SI18 Al18
EADP SI19 Al19
EADP SI20 Al20
EADP SI21 Al21
EADP SI22 Al22
EADP SI23 Al23
twin
WGHT    0.132000
BASF   0.46076
FVAR       0.13753
BA1   4    0.374342    0.667286    0.374847    10.99000    0.00955    0.07161 =
         0.01209    0.00142    0.00640   -0.00213
EU1   5    0.374342    0.667286    0.374847    10.01000    0.00955    0.07161 =
         0.01209    0.00142    0.00640   -0.00213
BA2   4    0.126581    0.399573    0.623692    10.49500    0.01425    0.08722 =
         0.01616   -0.00371    0.00663    0.00436
EU2   5    0.126581    0.399573    0.623692    10.00500    0.01425    0.08722 =
         0.01616   -0.00371    0.00663    0.00436
BA3   4    0.627653    0.399011    0.118141    10.49500    0.01277    0.08482 =
         0.01390   -0.00023    0.00535   -0.00743
EU3   5    0.627653    0.399011    0.118141    10.00500    0.01277    0.08482 =
         0.01390   -0.00023    0.00535   -0.00743
SI1   3    0.126802    0.302197    0.118129    10.57143    0.01336    0.02386 =
         0.01656   -0.00336    0.00659   -0.00010
SI2   3    0.130231    0.263236    0.620056    10.57143    0.01054    0.01586 =
         0.01143   -0.00278    0.00680    0.00206
SI3   3    0.695711    0.668527    0.055137    10.57143    0.00542    0.02775 =
         0.00517   -0.00145    0.00246   -0.00124
SI4   3    0.631410    0.305014    0.621960    10.57143    0.01137    0.01698 =
         0.01896   -0.00160    0.00756    0.00015
SI5   3    0.054082    0.666033    0.696625    10.57143    0.00484    0.01980 =
         0.00511    0.00092    0.00427   -0.00151
SI6   3    0.629483    0.262862    0.119679    10.57143    0.01339    0.01216 =
         0.01068    0.00074    0.00453    0.00125
SI7   3    0.153902    0.067520    0.579523    10.28572    0.01581
SI8   3    0.095493    0.065999    0.668739    10.28572    0.02372
SI9   3    0.197741    0.898064    0.052682    10.28572    0.02723
SI10  3    0.049720    0.901863    0.197070    10.28572    0.01168
SI11  3    0.444693    0.398010    0.302999    10.28572    0.02657
SI12  3    0.303925    0.392258    0.442141    10.28572    0.02599
SI13  3    0.151352    0.092535    0.094919    10.28572    0.00909
SI14  3    0.103821    0.091157    0.146328    10.28572    0.01660
SI15  3    0.656430    0.066197    0.084077    10.28572    0.01806
SI16  3    0.594101    0.066360    0.164058    10.28572    0.02370
SI17  3    0.086080    0.500505    0.155683    10.28572    0.01617
SI18  3    0.164338    0.499137    0.093981    10.28572    0.01153
SI19  3    0.335807   -0.000716    0.405085    10.28572    0.01372
SI20  3    0.412441    0.000155    0.343605    10.28572    0.01470
SI21  3    0.154220    0.472906    0.597527    10.28572    0.02922
SI22  3    0.607782    0.470236    0.146877    10.14286    0.02158
SI23  3    0.656842    0.476252    0.089138    10.14286    0.04344
AL1   2    0.126802    0.302197    0.118129    10.42857    0.01336    0.02386 =
         0.01656   -0.00336    0.00659   -0.00010
AL2   2    0.130231    0.263236    0.620056    10.42857    0.01054    0.01586 =
         0.01143   -0.00278    0.00680    0.00206
AL3   2    0.695711    0.668527    0.055137    10.42857    0.00542    0.02775 =
         0.00517   -0.00145    0.00246   -0.00124
AL4   2    0.631410    0.305014    0.621960    10.42857    0.01137    0.01698 =
         0.01896   -0.00160    0.00756    0.00015
AL5   2    0.054082    0.666033    0.696625    10.42857    0.00484    0.01980 =
         0.00511    0.00092    0.00427   -0.00151
AL6   2    0.629483    0.262862    0.119679    10.42857    0.01339    0.01216 =
         0.01068    0.00074    0.00453    0.00125
AL7   2    0.153902    0.067520    0.579523    10.21428    0.01581
AL8   2    0.095493    0.065999    0.668739    10.21428    0.02372
AL9   2    0.197741    0.898064    0.052682    10.21428    0.02723
AL10  2    0.049720    0.901863    0.197070    10.21428    0.01168
AL11  2    0.444693    0.398010    0.302999    10.21428    0.02657
AL12  2    0.303925    0.392258    0.442141    10.21428    0.02599
AL13  2    0.151352    0.092535    0.094919    10.21428    0.00909
AL14  2    0.103821    0.091157    0.146328    10.21428    0.01660
AL15  2    0.656430    0.066197    0.084077    10.21428    0.01806
AL16  2    0.594101    0.066360    0.164058    10.21428    0.02370
AL17  2    0.086080    0.500505    0.155683    10.21428    0.01617
AL18  2    0.164338    0.499137    0.093981    10.21428    0.01153
AL19  2    0.335807   -0.000716    0.405085    10.21428    0.01372
AL20  2    0.412441    0.000155    0.343605    10.21428    0.01470
AL21  2    0.154220    0.472906    0.597527    10.21428    0.02922
AL22  2    0.607782    0.470236    0.146877    10.10714    0.02158
AL23  2    0.656842    0.476252    0.089138    10.10714    0.04344
N1    1    0.790628    0.284299    0.455374    11.00000    0.02529
N2    1    0.642374    0.370888    0.625901    11.00000    0.01980
N3    1    0.198553    0.783174    0.055086    11.00000    0.02628
N4    1    0.630884    0.196096    0.119254    11.00000    0.01311
N5    1    0.296261    0.280819    0.958967    11.00000    0.03573
N6    1    0.108298    0.601880    0.638294    11.00000    0.02235
N7    1    0.132615    0.195391    0.614205    11.00000    0.00840
N8    1    0.301426    0.286298    0.450805    11.00000    0.02827
N9    1    0.121588    0.370276    0.113392    11.00000    0.02547
N10   1    0.645655    0.602206    0.106015    11.00000    0.02296
N11   1    0.136970    0.170638    0.094424    11.00000    0.08448
N12   1    0.083102    0.411084    0.638945    10.50000    0.03704
N13   1    0.664947    0.410668    0.154901    10.50000    0.01242
N14   1    0.146177    0.966217    0.094250    10.50000    0.00973
N15   1    0.117400    0.961943    0.142088    10.50000    0.02200
N16   1    0.394150    0.466674    0.337372    10.50000    0.03523
N17   1    0.352673    0.467224    0.407178    10.50000    0.02260
N18   1    0.148031    0.565066    0.070677    10.50000    0.01544
N19   1    0.086190    0.561448    0.175563    10.50000    0.03756
N20   1    0.335448    0.065212    0.421320    10.50000    0.01050
N21   1    0.375822    0.060296    0.314151    10.50000    0.03121
N22   1    0.581891    0.009185    0.150026    10.50000    0.00686
N23   1    0.663215    0.007161    0.090889    10.50000    0.02497
N24   1    0.078252    0.008629    0.639435    10.50000    0.00751
N25   1    0.176440    0.007381    0.599885    10.50000    0.02344
HKLF      4

REM      P21 No.4  Ba0.99Eu0.01Al3Si4N9  27A phase
REM R1 =  0.0922 for    2262 Fo > 4sig(Fo)  and  0.1265 for all    3546 data
REM    251 parameters refined using      1 restraints

END

WGHT      0.1559      0.0000

REM Highest difference peak  1.335,  deepest hole-12.541,  1-sigma level  0.469
Q1    1   0.5168  0.6687  0.5320  11.00000  0.05    1.33
Q2    1   0.2191  0.6685  0.2134  11.00000  0.05    1.32
Q3    1   0.2008  0.6328  0.5592  11.00000  0.05    1.10
Q4    1   0.8650  0.3571  0.3673  11.00000  0.05    1.06
Q5    1   0.5617  0.6324  0.2022  11.00000  0.05    0.97
Q6    1   0.8822  0.4249  0.3643  11.00000  0.05    0.96
Q7    1   0.0913  0.2441  0.1817  11.00000  0.05    0.95
Q8    1   0.0960  0.5420  0.0727  11.00000  0.05    0.94
Q9    1   0.2588  0.4953  0.3058  11.00000  0.05    0.93
Q10   1   0.0538  0.7933  0.0607  11.00000  0.05    0.93
Q11   1   0.2256  0.7747  0.2395  11.00000  0.05    0.93
Q12   1   0.8084  0.2037  0.4364  11.00000  0.05    0.90
Q13   1   0.1428 -0.0413  0.6372  11.00000  0.05    0.90
Q14   1   0.6233  0.2590  0.6136  11.00000  0.05    0.90
Q15   1   0.2663  0.6650  0.4556  11.00000  0.05    0.89
Q16   1  -0.0236  0.1668  0.1074  11.00000  0.05    0.88
Q17   1   0.3384  0.7238  0.3622  11.00000  0.05    0.88
Q18   1   0.4629  0.2960  0.2831  11.00000  0.05    0.87
Q19   1   0.2965  0.1795  0.4065  11.00000  0.05    0.87
Q20   1   0.3985  0.3578 -0.1318  11.00000  0.05    0.86
;
_shelx_res_checksum              80502
_shelx_hkl_file
;
   0   0   1   18.21    0.73
   0   0   1   18.29    0.76
   0   0   2   34.36    1.59
   0   0   2   34.11    1.50
   0   0   3   86.94    4.23
   0   0   3   88.52    4.11
   0   0   3   92.50    4.18
   0   0   4  839.53   39.57
   0   0   4  837.47   39.07
   0   0   4  841.66   39.04
   0   0   5    1.68    1.57
   0   0   5    2.46    1.17
   0   0   5    2.44    1.07
   0   0   6    8.74    2.00
   0   0   6    8.71    1.98
   0   0   6    7.86    1.95
   0  -1   1   26.98    1.08
   0   1   1   27.63    1.12
   0  -1   1   26.18    0.87
   0   1   2  500.50   18.94
   0  -1   2  492.34   19.32
   0   1   2  463.09   19.05
   0  -1   2  503.04   19.22
   0   1   3   84.49    3.79
   0  -1   3   83.39    4.14
   0   1   3   79.17    4.06
   0   1   3   85.90    4.28
   0  -1   3   84.04    3.99
   0  -1   4   -0.18    0.38
   0   1   4   -0.21    0.33
   0   1   4   -0.26    0.52
   0  -1   4    0.26    0.37
   0   1   4   -0.15    0.41
   0  -1   4    0.38    0.56
   0   1   5    6.41    1.31
   0  -1   5    6.40    2.24
   0   1   5    6.77    1.56
   0   1   5    6.02    1.44
   0   1   5    6.16    1.36
   0  -1   5    5.78    1.45
   0  -1   6  285.45   15.11
   0  -1   6  270.30   16.31
   0  -1   6  273.13   17.02
   0   1   6  270.20   15.68
   0   1   6  289.86   14.67
   0   1   6  258.58   13.85
   0   2   1   41.76    1.68
   0  -2   1   40.34    1.84
   0  -2   1   43.23    1.35
   0   2   1   40.25    1.22
   0   2   2   13.52    1.02
   0   2   2   14.73    0.72
   0  -2   2   14.30    0.77
   0  -2   2   14.75    0.99
   0   2   2   13.86    0.72
   0   2   3   92.00    5.18
   0  -2   3   87.55    4.40
   0   2   3   78.74    3.80
   0  -2   3   93.72    4.08
   0   2   3   91.96    3.95
   0   2   4    0.36    0.46
   0  -2   4    0.54    0.51
   0   2   4    0.44    0.74
   0   2   4    0.92    0.65
   0  -2   4    0.36    0.60
   0  -2   4    0.31    0.92
   0   2   5    6.45    1.29
   0   2   5    6.59    1.42
   0  -2   5    5.79    2.36
   0  -2   5    6.52    1.52
   0   2   5    6.39    1.63
   0   2   5    5.58    1.88
   0   2   6    1.19    0.99
   0   2   6    0.78    0.93
   0   2   6    0.33    1.47
   0  -2   6    0.47    1.07
   0  -2   6    0.24    1.19
   0  -2   6    0.77    1.12
   0  -3   1   52.38    2.08
   0   3   1   53.88    2.18
   0   3   1   49.75    1.29
   0  -3   1   53.80    1.44
   0   3   2   41.84    1.68
   0   3   2   41.29    1.45
   0   3   2   40.43    2.02
   0  -3   2   41.75    1.96
   0  -3   2   42.30    1.80
   0  -3   3  114.01    5.52
   0   3   3   98.23    4.43
   0   3   3  113.09    4.87
   0  -3   3  109.84    4.65
   0   3   3  111.44    5.49
   0  -3   4    5.17    1.07
   0  -3   4    3.81    0.83
   0  -3   4    4.13    1.06
   0   3   4    3.29    1.75
   0   3   4    4.15    0.77
   0   3   4    3.81    0.75
   0   3   5    6.82    1.97
   0   3   5    6.96    1.72
   0   3   5    5.60    1.18
   0  -3   5    5.15    1.57
   0   3   5    5.70    1.21
   0  -3   5    5.39    2.32
   0   3   6   11.38    2.10
   0   3   6   11.65    2.82
   0  -3   6   13.17    2.41
   0  -3   6   12.17    2.56
   0   3   6   12.90    1.95
   0  -3   6   10.47    2.47
   0   4   0  150.94    4.38
   0   4   0  149.52    4.41
   0  -4   0  147.33    4.47
   0  -4   1   62.00    2.43
   0   4   1   58.36    1.30
   0   4   1   64.08    2.50
   0   4   1   49.29    1.10
   0  -4   2   12.34    1.03
   0   4   2   12.40    1.09
   0  -4   2   12.51    0.78
   0   4   2   12.72    0.54
   0   4   2   12.17    0.54
   0   4   3   95.52    4.21
   0   4   3   98.74    3.76
   0  -4   3   99.63    5.01
   0  -4   3   90.24    3.88
   0   4   3   93.61    4.98
   0   4   4   37.06    2.56
   0  -4   4   38.84    2.79
   0  -4   4   37.40    2.74
   0   4   4   36.67    2.00
   0   4   4   37.68    2.16
   0   4   4   36.54    2.94
   0   4   5   12.79    2.10
   0  -4   5   11.48    2.09
   0  -4   5   12.04    2.09
   0   4   5   12.98    3.39
   0   4   5   11.46    2.08
   0   4   5   12.22    1.52
   0  -4   6   -0.30    0.46
   0   4   6   -0.17    0.33
   0  -4   6    0.09    0.76
   0   4   6    0.44    0.39
   0   4   6   -0.01    0.34
   0  -4   6    0.02    0.51
   0   5   0    0.62    0.16
   0  -5   0    0.63    0.16
   0   5   0    0.60    0.28
   0   5   1   85.96    3.47
   0   5   1   82.79    1.84
   0  -5   1   86.74    3.41
   0   5   2   70.04    2.07
   0   5   2   69.42    3.27
   0   5   2   73.06    2.22
   0   5   2   72.75    2.14
   0  -5   2   70.07    3.72
   0   5   3   92.36    3.81
   0   5   3   85.97    3.35
   0  -5   3   86.20    4.67
   0   5   3   86.67    3.36
   0   5   3   88.06    4.78
   0  -5   4    1.88    0.95
   0   5   4    1.53    1.09
   0   5   4    1.86    0.58
   0   5   4    1.66    0.80
   0   5   4    1.81    0.80
   0  -5   4    1.75    0.99
   0  -5   5   19.14    2.67
   0  -5   5   19.52    2.66
   0   5   5   20.70    2.42
   0   5   5   23.04    1.78
   0   5   5   20.70    4.31
   0   5   5   18.44    2.55
   0  -5   6   52.75    6.46
   0   5   6   51.16    3.46
   0   5   6   43.76    4.32
   0   5   6   54.90    4.68
   0  -5   6   57.06    6.90
   0  -5   6   49.16    6.84
   0   6   0    4.88    0.58
   0  -6   0    4.94    0.37
   0   6   0    4.63    0.53
   0   6   1   95.05    4.02
   0  -6   1  104.54    4.66
   0   6   1  100.77    2.46
   0   6   2    8.71    1.09
   0   6   2    9.43    0.37
   0  -6   2    9.22    1.04
   0   6   2    9.67    0.42
   0   6   2    9.63    0.42
   0   6   3  105.81    5.71
   0   6   3  114.20    4.21
   0   6   3  109.79    4.03
   0  -6   3  110.08    5.61
   0   6   3  104.15    4.05
   0  -6   4    1.56    0.98
   0  -6   4    1.41    1.03
   0   6   4    2.09    0.71
   0   6   4    1.96    1.12
   0   6   4    1.93    0.47
   0   6   4    1.13    0.51
   0  -6   5   15.84    2.45
   0   6   5   15.05    1.39
   0  -6   5   14.30    2.55
   0   6   5   14.34    1.94
   0   6   5   13.80    2.66
   0   6   5   14.32    1.57
   0   6   6    0.23    0.55
   0  -6   6    0.60    1.58
   0  -6   6   -0.00    0.96
   0   7   0   -0.01    0.10
   0   7   0    0.02    0.10
   0  -7   0    0.01    0.10
   0  -7   1   82.33    3.53
   0   7   1   75.09    3.45
   0   7   1   80.10    2.11
   0  -7  -1   76.36    2.01
   0   7   2    0.10    0.47
   0  -7   2    0.35    0.47
   0   7   2    0.44    0.09
   0   7   2    0.39    0.06
   0   7   3  121.65    4.22
   0  -7   3  118.41    7.06
   0   7   3  116.81    3.94
   0   7   3  117.86    6.32
   0   7   3  115.94    3.99
   0   7   4    1.07    0.40
   0   7   4    1.09    0.54
   0   7   4    0.69    0.35
   0   7   4    1.17    1.05
   0  -7   4    0.66    0.90
   0  -7   5   11.28    2.34
   0  -7   5   12.07    2.29
   0   7   5   10.34    1.13
   0   7   5   10.22    2.50
   0   7   5   11.27    1.63
   0   7   5    9.66    1.09
   0  -7   6   44.33    6.74
   0  -7   6   42.21    4.52
   0   8   0  762.39   30.08
   0  -8   0  781.50   31.03
   0   8   0  749.91   29.96
   0   8   1   51.63    2.64
   0  -8   1   49.65    2.50
   0   8   1   55.07    1.61
   0   8  -1   49.75    1.23
   0  -8  -1   52.54    1.52
   0  -8   2    4.42    0.88
   0   8   2    4.35    0.92
   0   8   3   97.98    2.98
   0  -8   3   97.45    6.48
   0   8   3   99.37    3.21
   0   8   3   92.63    5.48
   0   8   3  102.36    3.52
   0   8   4   75.02    5.13
   0   8   4   64.59    2.54
   0  -8   4   82.81    4.94
   0   8   4   78.77    3.12
   0   8   4   75.07    3.05
   0   8   5    9.94    0.94
   0   8   5    9.48    1.70
   0   8   5    9.16    1.35
   0  -8   5    9.05    2.20
   0  -8   5    9.30    2.33
   0   8   5    6.96    2.58
   0  -8   6    0.06    1.47
   0  -8   6   -0.14    0.87
   0   9   0    0.09    0.21
   0   9   0    0.14    0.20
   0  -9   0   -0.01    0.32
   0  -9   1   40.57    2.27
   0   9   1   44.65    1.34
   0   9   1   39.27    2.82
   0   9  -1   39.44    1.16
   0  -9  -1   40.11    1.24
   0  -9   2  344.84   14.83
   0   9   2  337.19   14.71
   0   9   3   65.26    4.37
   0  -9   3   67.73    4.25
   0   9   3   62.03    1.72
   0   9   3   67.47    1.80
   0   9   4    0.47    0.31
   0   9   4    0.44    0.32
   0   9   4    0.75    0.29
   0  -9   4    0.09    1.34
   0   9   4    0.76    1.02
   0  -9   5    9.25    2.19
   0  -9   5    5.40    3.58
   0   9   5    8.59    1.05
   0   9   5   11.27    2.66
   0   9   5    8.10    0.73
   0  -9   6  233.61   14.49
   0  -9   6  226.10   14.03
   0 -10   0 1268.94   56.09
   0  10   0 1247.46   55.29
   0  10   0 1232.79   54.79
   0 -10   1   32.10    2.66
   0  10   1   28.19    2.53
   0 -10  -1   32.38    1.31
   0  10  -1   31.68    0.97
   0 -10   2   19.33    1.71
   0  10   2   18.66    1.77
   0  10   3   62.11    4.39
   0 -10   3   63.75    4.26
   0  10   4  117.68    3.55
   0  10   4  120.77    7.47
   0  10   4  119.12    3.54
   0 -10   4  125.95    8.66
   0  10   5    4.28    0.39
   0  10   5    4.96    2.25
   0 -10   5    5.71    3.11
   0 -10   5    5.06    1.89
   0  10   5    4.08    0.39
   0 -10   6    4.75    3.67
   0 -10   6    3.87    2.31
   0  11   0    4.89    0.66
   0 -11   0    5.40    0.71
   0  11   1   19.59    1.60
   0 -11   1   21.63    1.67
   0 -11  -1   20.78    0.90
   0  11  -1   22.63    0.81
   0  11   2    5.41    1.27
   0 -11   2    9.37    1.84
   0 -11   3   62.66    4.25
   0  11   3   56.92    4.40
   0  11   4    1.57    1.41
   0 -11   4    1.25    1.81
   0 -11   5    2.65    2.70
   0  11   5    2.39    2.07
   0 -11   5    3.32    1.93
   0 -11   6    1.19    2.55
   0 -11   6    0.81    2.66
   0  12   0  337.42   13.11
   0 -12   0  343.24   13.48
   0  12   1    9.33    1.17
   0 -12   1    8.89    1.18
   0  12  -1    8.32    0.47
   0 -12  -1    9.20    0.82
   0 -12   2    8.78    1.37
   0  12   2    7.69    1.41
   0 -12   3   48.98    3.80
   0  12   3   46.16    3.93
   0 -12   4   85.55    5.76
   0  12   4   81.31    6.07
   0  12   5    4.45    2.39
   0 -12   5    3.39    2.24
   0 -12   5    4.29    3.05
   0 -12   6    0.01    2.01
   0 -12   6   -0.49    2.03
   0  13   0    0.08    0.25
   0 -13   0   -0.02    0.28
   0 -13   1    6.56    1.21
   0  13   1    7.34    1.14
   0  13  -1    8.18    0.50
   0 -13  -1    7.79    0.88
   0 -13   2  101.32    5.42
   0  13   2  101.76    6.71
   0  13   3   40.23    3.74
   0 -13   3   41.60    3.44
   0 -13   4    6.62    1.93
   0  13   4    5.12    2.18
   0  13   5    2.42    2.24
   0 -13   5    2.91    2.88
   0 -13   5    2.44    2.06
   0 -13   6   79.28   10.38
   0 -13   6   84.35   10.49
   0  14   0   65.13    2.96
   0 -14   0   69.01    3.82
   0 -14   1   10.63    1.39
   0  14   1    8.49    1.29
   0 -14  -1    9.97    0.76
   0  14  -1    9.46    0.85
   0  14   2    0.92    1.35
   0 -14   2    1.00    0.87
   0 -14   3   40.74    3.57
   0  14   3   38.12    3.69
   0  14   4   30.65    3.98
   0 -14   4   32.89    3.58
   0 -14   5    0.74    1.58
   0 -14   5    0.45    1.42
   0  14   5    0.96    1.73
   0 -14   6   -0.57    0.97
   0 -14   6    0.23    0.62
   0  15   0    0.07    0.56
   0 -15   0    0.23    0.40
   0  15   1    6.69    1.23
   0 -15   1    7.48    1.91
   0  15  -1    6.53    0.80
   0 -15  -1    6.31    0.71
   0 -15   2    0.60    0.60
   0  15   2    0.13    0.59
   0 -15  -2    0.26    0.08
   0 -15  -2   -0.01    0.07
   0 -15   3   31.50    4.54
   0  15   3   27.49    3.40
   0  15   4    0.82    1.32
   0 -15   4    0.34    1.13
   0  15   5    3.70    2.87
   0 -15   5    5.93    2.40
   0 -15   5    4.63    2.70
   0  16   0   19.26    1.47
   0 -16   0   19.03    1.58
   0 -16   1   10.99    1.58
   0  16   1   10.69    2.29
   0 -16  -1   10.13    0.92
   0  16  -1   10.22    0.79
   0 -16   2    0.88    1.28
   0  16   2    0.09    0.80
   0 -16  -2    0.40    0.17
   0 -16  -2    0.38    0.17
   0  16   3   29.95    5.23
   0 -16   3   33.22    3.50
   0  16   4    0.00    1.31
   0 -16   4    0.70    1.10
   0 -16   5    2.33    2.25
   0  16   5    2.29    2.38
   0 -16   5    1.83    1.97
   0 -17   0    0.04    0.48
   0  17   0    0.31    0.43
   0  17   1   11.55    1.72
   0 -17   1   12.17    1.77
   0  17  -1   11.15    0.89
   0 -17  -1   12.22    1.48
   0 -17   2   30.67    2.97
   0  17   2   27.13    2.90
   0 -17  -2   28.57    0.94
   0 -17  -2   28.82    0.92
   0 -17   3   35.27    3.75
   0  17   3   36.09    5.60
   0 -17   4    1.66    1.46
   0  17   4    0.64    1.76
   0  17   5    0.09    2.11
   0 -17   5    1.53    1.95
   0 -17   5    1.10    1.72
   0 -18   0  173.42    8.93
   0  18   0  168.52    7.49
   0 -18   1   10.00    1.77
   0  18   1   10.83    1.73
   0 -18  -1   10.72    1.55
   0  18  -1   10.38    0.91
   0  18   2    1.36    1.07
   0 -18   2    1.09    1.08
   0 -18  -2    0.84    0.21
   0 -18  -2    0.87    0.22
   0 -18   3   39.22    4.16
   0  18   3   42.02    4.42
   0 -18   4    1.16    1.47
   0  18   4    1.06    1.80
   0 -18   5    0.76    2.21
   0 -18   5    1.29    1.86
   0  18   5    1.57    2.29
   0  19   0    0.27    1.56
   0 -19   0    7.38    1.24
   0  19   1   10.26    1.82
   0 -19   1   10.70    2.69
   0  19  -1    9.27    1.40
   0 -19  -1   10.54    1.66
   0  19   2    6.02    1.86
   0 -19   2    6.46    1.79
   0 -19  -2    6.16    0.69
   0 -19  -2    5.97    0.48
   0 -19   3   41.92    4.41
   0  19   3   36.22    4.48
   0 -19   4    7.30    3.79
   0  19   4    6.86    4.65
   0 -19   5    3.01    2.39
   0  19   5    1.68    2.92
   0 -19   5    3.48    2.80
   0 -20   0  197.55    9.18
   0  20   0  194.16    8.85
   0 -20   1   11.86    2.05
   0  20   1   11.52    1.98
   0  20  -1   11.97    1.59
   0 -20  -1   11.84    1.88
   0 -20   2    5.24    1.80
   0  20   2    4.10    2.90
   0 -20  -2    5.25    0.52
   0 -20  -2    5.00    0.74
   0  20   3   30.43    4.30
   0 -20   3   33.55    4.10
   0  20   4   74.21   10.45
   0 -20   4   76.89    6.71
   0  20   5    4.10    3.33
   0 -20   5    4.34    2.69
   0 -20   5    3.79    3.17
   0  21   0    0.23    0.47
   0 -21   0   -0.12    0.51
   0  21   1   13.70    3.45
   0 -21   1   15.20    2.36
   0  21  -1   15.08    1.31
   0 -21  -1   14.80    1.49
   0 -21   2  108.05    8.81
   0  21   2  101.83    7.00
   0 -21  -2  104.16    3.81
   0 -21  -2  102.82    4.12
   0 -21   3   32.07    5.61
   0  21   3   26.24    4.26
   0  21   4    3.85    2.74
   0 -21   4    3.98    2.33
   0 -21   5    1.57    2.29
   0  21   5    2.34    2.80
   0 -21   5    1.37    2.69
   0 -22   0   58.56    3.89
   0  22   0   59.55    3.72
   0  22   1    7.73    2.01
   0 -22   1    9.77    2.02
   0  22  -1    9.01    1.07
   0 -22  -1    7.69    1.26
   0 -22   2    1.38    1.29
   0  22   2    1.19    1.42
   0 -22  -2    1.06    0.39
   0 -22  -2    0.81    0.42
   0 -22   3   19.69    3.47
   0  22   3   20.45    3.84
   0 -22   4   18.32    3.83
   0  22   4   18.52    4.51
   0  22   5    0.24    1.74
   0 -22   5   -0.14    1.33
   0 -22   5    0.04    1.65
   0 -23   0   -0.08    1.06
   0  23   0    0.38    0.97
   0 -23   1    0.39    1.08
   0  23   1    1.14    1.16
   0  23  -1    0.40    0.93
   0 -23  -1    0.96    0.69
   0 -23   2    8.72    2.32
   0  23   2   10.50    2.60
   0 -23  -2    8.60    0.83
   0 -23  -2    8.72    1.32
   0  23   3   12.30    3.39
   0 -23   3   11.49    2.90
   0 -23   4   -0.00    1.67
   0 -23   4    0.38    1.97
   0  23   4    2.09    2.05
   0  24   0   10.49    1.84
   0 -24   0   11.40    1.98
   0 -24   1   -0.08    1.45
   0  24   1   -0.26    1.01
   0 -24  -1    0.19    0.64
   0 -24  -1    1.25    0.84
   0  24   2    0.11    1.08
   0 -24   2    0.14    0.94
   0 -24  -2   -0.03    0.55
   0 -24  -2    0.26    0.32
   0 -24   3   -0.01    1.78
   0  24   3    6.34    3.29
   0 -24   4   -0.05    4.12
   0  24   4   15.14    4.20
   0 -24   4   14.38    3.42
   0  25   0   -0.16    0.64
   0 -25   0   -0.05    0.68
   0 -25   1   -0.06    1.43
   0  25   1    2.87    1.56
   0 -25  -1    2.93    0.84
   0 -25  -1    0.07    1.56
   0 -25   2   21.61    3.32
   0  25   2   21.77    3.87
   0 -25  -2   20.70    1.41
   0 -25  -2   21.24    2.12
   0  25   3    3.90    3.00
   0 -25   3   -0.00    1.55
   0  25   4    0.50    1.76
   0 -25   4    0.01    2.19
   0 -25   4    0.21    1.73
   0  26   0    7.45    1.79
   0 -26   0    7.17    1.86
   0 -26   1    0.02    1.36
   0  26   1    2.35    2.36
   0 -26  -1    1.36    1.05
   0 -26  -1    1.82    1.55
   0 -26  -1    1.55    0.83
   0 -26   2   -0.28    1.20
   0  26   2   -0.58    1.53
   0 -26  -2    0.06    0.32
   0 -26  -2    0.08    0.29
   0  26   3    3.13    2.42
   0 -26   3    0.00    2.96
   0 -26   4    0.09    2.71
   0  26   4    5.31    2.75
   0 -26   4    0.01    2.16
   0 -27   0   -0.02    1.03
   0  27   0   -0.10    1.02
   0  27   1    0.01    1.19
   0 -27   1   -0.30    1.04
   0 -27  -1    0.36    0.82
   0 -27  -1    0.73    1.05
   0 -27  -1    0.71    0.77
   0  27   2   24.55    4.27
   0 -27   2   22.76    3.56
   0 -27  -2   22.28    1.73
   0 -27  -2   21.68    1.61
   0 -27   3   -0.01    1.95
   0  27   3    4.48    2.51
   0 -27   4    0.02    1.62
   0  27   4    1.18    2.12
   0 -27   4    0.16    2.07
   0 -28   0   -0.14    0.79
   0  28   0    0.40    0.78
   0 -28   1    0.32    2.19
   0  28   1    1.49    1.68
   0 -28  -1    0.54    1.06
   0 -28  -1    1.48    1.78
   0 -28  -1    1.64    0.86
   0 -28   2   -0.00    1.52
   0  28   2    2.72    1.96
   0  28   3    4.34    2.66
   0 -28   3   -0.01    2.03
   0 -29   0    0.08    0.85
   0  29   0    0.26    0.87
   0 -29   1    0.23    1.49
   0  29   1    1.06    1.70
   0 -29  -1    0.82    1.13
   0 -29  -1    0.75    1.23
   0 -29  -1    2.18    0.91
   0 -29   2   51.57    5.33
   0  29   2   53.93    6.47
   0 -29   3    0.22    2.67
   0  29   3    4.89    2.61
   0 -29   3   -0.00    2.03
   0 -30   0  192.96   11.91
   0 -30   0  206.34   11.50
   0  30   0  192.97   11.22
   0 -30   1    0.00    1.30
   0  30   1    0.75    2.42
   0 -30  -1    0.95    1.31
   0 -30  -1    0.46    1.08
   0 -30  -1    1.21    1.56
   0  30   2    1.23    1.94
   0 -30   2   -0.00    2.30
   0 -30   3    0.00    1.73
   0 -30   3    0.18    2.32
   0  30   3    4.31    3.54
   0 -31   0   -0.00    1.73
   0 -31   0    1.61    1.85
   0 -31   0    0.01    1.33
   0  31   1    1.54    1.92
   0 -31   1    2.26    2.13
   0 -31   1    0.15    1.66
   0 -31  -1    1.64    1.47
   0 -31  -1    2.15    1.11
   0 -31  -1    1.15    1.25
   0  31   2   -0.44    3.35
   0 -31   2    2.90    2.12
   0 -31   2   -0.06    1.58
   0 -32   0   25.02    6.14
   0 -32   0   22.61    3.29
   0 -32   0   22.05    3.62
   0 -32   1   -0.03    2.32
   0 -32   1    1.44    2.01
   0  32   1    1.37    1.79
   0 -32  -1    0.87    2.13
   0 -32  -1    0.74    1.13
   0  32   2    0.82    1.58
   0 -32   2    0.16    1.23
   0 -32   2   -0.44    1.68
   0 -33   0   -0.18    2.22
   0 -33   0   -0.72    1.19
   0 -33   0    0.00    1.08
   0  33   1    0.63    1.71
   0 -33   1   -0.12    1.40
   0 -33   1    1.76    1.95
   0 -33  -1    0.70    1.10
   0 -33  -1    0.75    1.34
   0 -33   2   -0.50    2.01
   0  33   2   -0.96    1.90
   0 -33   2    0.06    1.47
   0 -34   0   -0.01    1.10
   0 -34   0    0.97    1.49
   0 -34   0    0.32    2.03
   0 -34   1   -0.02    2.08
   0 -34   1   -0.87    2.29
   0 -34   1   -0.00    1.04
  -1   0   7    3.86    1.50
  -1   0   7    0.05    2.51
  -1   0   7    0.56    2.63
  -1   0   6   17.91    3.28
  -1   0   6   -0.11    1.89
  -1   0   6   17.34    2.25
  -1   0   6   18.18    3.11
  -1   0   5    0.32    0.55
  -1   0   5    0.15    0.56
  -1   0   5   -0.05    0.55
  -1   0   4    0.71    0.90
  -1   0   4    8.05    1.08
  -1   0   4    9.20    1.09
  -1   0   3   -0.01    0.79
  -1   0   3   23.02    1.13
   1   0  -2    1.34    0.59
  -1   0   2    0.80    0.32
   1   0  -1    0.90    0.27
  -1   0   1    0.87    0.44
   1   0   0   18.88    0.82
  -1   0   0   19.89    0.85
   1   0   1    0.55    0.25
  -1   0  -1    0.54    0.45
   1   0   2   24.00    1.81
  -1   0  -2   24.16    1.75
  -1   0  -2   21.69    1.46
   1   0   3    0.06    0.32
  -1   0  -3    0.18    0.72
   1   0   4   36.54    3.64
   1   0   5    0.10    0.56
   1   0   5    0.04    0.55
   1   0   6    4.36    1.80
   1   0   6    5.88    1.85
  -1   1   7   23.93    4.47
  -1  -1   7   23.57    3.07
  -1   1   7   21.60    2.88
  -1  -1   7   26.21    3.30
  -1  -1   7    3.60    2.50
  -1   1   7    3.37    4.36
  -1   1   6   19.87    2.22
  -1  -1   6   20.18    2.63
  -1  -1   6   20.99    2.72
  -1   1   6   18.20    2.49
  -1   1   6   21.82    2.59
  -1  -1   6   23.26    4.08
  -1   1   6   20.40    4.06
  -1  -1   6   17.88    2.63
  -1   1   5    0.96    0.82
  -1  -1   5    1.44    0.83
  -1  -1   5    0.91    0.88
  -1  -1   5    1.04    0.91
  -1   1   5    1.51    0.90
  -1   1   5    0.75    0.81
  -1  -1   4    8.85    1.12
  -1  -1   4   -0.08    0.94
  -1  -1   4    8.39    0.99
  -1   1   4    8.57    1.00
  -1   1   4    7.09    1.09
  -1   1   4    0.35    0.86
  -1   1   3   57.96    2.66
  -1  -1   3   60.49    3.50
   1  -1  -2  144.93    5.67
   1  -1  -2  165.96    5.96
   1   1  -2  147.83    6.04
  -1  -1   2  155.58    6.68
  -1  -1   2  166.56    6.17
  -1   1   2  171.75    6.14
  -1   1   2  144.62    6.07
   1  -1  -1    0.42    0.21
   1   1  -1    0.44    0.25
  -1   1   1    0.35    0.22
  -1  -1   1    0.39    0.25
   1  -1   0   28.08    1.17
   1   1   0   30.42    1.35
  -1   1   0   31.51    1.58
  -1  -1   0   29.85    1.35
   1  -1   1  158.42    6.06
   1   1   1  156.49    5.33
  -1  -1  -1  155.48    5.84
  -1  -1  -1  153.65    5.30
  -1   1  -1  155.52    5.66
   1  -1   2   18.77    1.26
   1   1   2   18.33    1.15
  -1   1  -2   17.47    1.42
  -1  -1  -2   19.17    1.56
  -1   1  -2   17.73    1.35
  -1  -1  -2   17.41    1.23
   1   1   3   -0.08    0.42
   1  -1   3    0.09    0.30
  -1   1  -3    0.10    0.61
  -1  -1  -3    0.04    0.67
   1   1   4   49.60    3.19
   1  -1   4   47.45    3.49
   1   1   5   22.85    3.29
   1  -1   5   19.33    3.56
   1  -1   5   22.31    2.55
   1   1   5   22.76    2.32
   1  -1   6    3.37    1.82
   1  -1   6    2.79    1.86
   1   1   6    3.57    1.66
   1   1   6   21.55    3.21
   1   1   6    2.49    2.60
  -1  -2   7    4.50    1.49
  -1  -2   7    0.27    1.64
  -1   2   7    0.60    1.49
  -1   2   7    0.37    2.21
  -1   2   7    4.91    1.68
  -1  -2   7    0.10    1.74
  -1  -2   6    0.74    2.05
  -1   2   6   17.92    2.09
  -1  -2   6   18.45    2.28
  -1   2   6    0.25    1.52
  -1   2   6   16.89    2.40
  -1  -2   6   16.38    2.07
  -1   2   6   15.58    2.89
  -1  -2   6   18.87    3.47
  -1   2   5  212.15   10.02
  -1   2   5  215.92   12.33
  -1  -2   5  211.14   10.09
  -1  -2   5  211.55   10.83
  -1  -2   5  219.91   11.11
  -1   2   5  224.30   10.56
  -1   2   4   11.11    1.44
  -1  -2   4    9.41    1.43
  -1  -2   4   11.71    1.22
  -1   2   4   11.35    1.18
  -1   2   3   20.14    1.17
  -1  -2   3   24.18    2.27
   1   2  -2  154.64    6.77
   1  -2  -2  150.04    5.59
  -1   2   2  141.42    5.22
  -1  -2   2  139.19    5.66
   1   2  -1   67.50    2.42
   1  -2  -1   64.44    2.21
  -1   2   1   64.82    2.23
  -1  -2   1   64.84    2.76
   1  -2   0   39.49    1.56
   1   2   0   38.13    1.30
  -1   2   0   38.71    1.55
  -1  -2   0   38.14    1.32
   1   2   1    0.12    0.17
   1  -2   1    0.07    0.18
  -1  -2  -1   -0.02    0.20
  -1   2  -1   -0.07    0.19
  -1  -2  -1    0.02    0.21
   1   2   2   22.83    1.49
   1  -2   2   22.73    1.54
  -1  -2  -2   20.77    1.25
  -1   2  -2   21.32    1.57
  -1   2  -2   22.38    2.03
  -1  -2  -2   24.87    2.39
   1  -2   3   48.95    3.46
   1   2   3   47.44    2.32
  -1  -2  -3   45.00    3.17
  -1   2  -3   45.60    2.81
   1   2   4   53.69    3.15
   1  -2   4   52.31    3.69
   1   2   5    0.31    0.97
   1   2   5    0.52    0.61
   1  -2   5    0.04    0.75
   1  -2   5   -0.03    0.77
   1   2   6    1.00    1.67
   1  -2   6    4.48    1.75
   1  -2   6    3.61    1.73
  -1  -3   7    2.85    1.88
  -1   3   7    0.91    1.45
  -1   3   7    0.41    1.39
  -1  -3   7    3.23    2.67
  -1   3   7    4.61    1.62
  -1  -3   7    4.53    2.82
  -1   3   6   21.34    2.59
  -1  -3   6   21.37    3.77
  -1  -3   6   25.23    4.69
  -1   3   6   22.36    2.60
  -1  -3   6   44.95    4.79
  -1  -3   6   20.59    4.43
  -1   3   6   22.13    3.23
  -1   3   6   42.61    3.62
  -1  -3   5   -0.05    0.41
  -1   3   5    0.01    0.32
  -1   3   5    0.34    0.64
  -1  -3   5    0.25    0.48
  -1   3   5   -0.14    0.30
  -1  -3   5    0.04    0.64
  -1   3   4   11.92    1.15
  -1  -3   4    0.40    1.31
  -1   3   4   11.58    1.48
  -1  -3   4    9.83    1.42
  -1  -3   4   10.35    1.07
   1  -3  -3  127.89    5.21
  -1   3   3  127.31    5.00
  -1  -3   3  122.64    6.19
   1  -3  -2  703.74   27.82
  -1  -3   2  709.42   29.73
   1   3  -1    0.12    0.41
   1  -3  -1    0.34    0.33
  -1  -3   1    0.48    0.29
  -1   3   1    0.45    0.22
   1  -3   0   49.69    1.95
   1   3   0   46.42    1.53
  -1  -3   0   47.21    1.56
  -1   3   0   49.32    1.95
   1  -3   1  673.51   28.31
   1   3   1  706.80   26.68
  -1   3  -1  663.75   27.45
  -1  -3  -1  706.92   26.75
  -1  -3  -1  686.76   28.59
   1  -3   2   32.08    2.42
   1   3   2   31.44    1.66
  -1   3  -2   31.96    1.80
  -1   3  -2   26.59    1.93
  -1  -3  -2   32.44    2.21
  -1  -3  -2   28.12    1.45
   1   3   3    0.08    0.34
   1  -3   3   -0.10    0.33
  -1   3  -3   -0.10    0.34
  -1  -3  -3    0.01    0.44
   1  -3   4   60.62    4.16
   1   3   4   63.38    4.10
   1   3   4   58.77    3.29
   1  -3   5   54.00    5.54
   1   3   5   49.45    4.20
   1  -3   5   47.12    3.90
   1   3   5   47.25    3.19
   1  -3   6    5.38    1.88
   1   3   6    2.03    1.68
   1  -3   6    4.88    2.97
  -1  -4   7    6.53    1.94
  -1  -4   7    0.46    1.76
  -1  -4   7    0.05    1.91
  -1   4   6   23.22    3.00
  -1  -4   6   24.15    2.87
  -1   4   6    0.96    1.94
  -1   4   6   23.82    2.27
  -1   4   6   23.94    3.03
  -1  -4   6    1.18    2.34
  -1  -4   6   25.38    4.32
  -1  -4   6   24.42    2.29
  -1   4   5    0.34    0.54
  -1  -4   5    0.14    0.77
  -1  -4   5    0.23    0.53
  -1   4   5    0.34    1.28
  -1   4   5    0.44    0.52
  -1  -4   5    0.28    0.78
  -1   4   4   18.04    1.33
  -1  -4   4    9.58    1.60
  -1  -4   4    0.94    1.52
  -1   4   4   17.47    1.88
  -1  -4   4   18.01    2.61
  -1  -4   4   18.13    1.73
   1  -4  -3    3.20    0.66
  -1  -4   3    2.82    0.80
  -1   4   3    3.22    0.52
   1  -4  -2  192.01    7.41
  -1   4   2  190.49    7.23
  -1  -4   2  193.10    8.53
   1   4  -1    3.73    0.48
   1  -4  -1    3.12    0.38
  -1   4   1    3.16    0.56
  -1  -4   1    3.41    0.52
   1  -4   0   68.99    2.63
   1   4   0   60.80    1.99
  -1   4   0   67.30    2.61
  -1  -4   0   63.45    2.05
   1  -4   1    0.16    0.24
   1   4   1    0.09    0.10
  -1  -4  -1    0.01    0.17
  -1   4  -1   -0.04    0.25
  -1  -4  -1   -0.01    0.27
   1   4   2   39.38    1.81
   1  -4   2   37.22    2.24
  -1   4  -2   34.48    2.30
  -1   4  -2   38.80    2.05
  -1  -4  -2   35.19    2.57
  -1  -4  -2   36.59    1.95
   1   4   3    0.42    0.30
   1  -4   3    0.15    0.55
  -1   4  -3    0.24    0.49
  -1  -4  -3    0.42    0.70
   1   4   4   65.65    3.41
   1  -4   4   65.53    4.62
   1   4   4   63.92    4.05
   1  -4   5    0.69    1.59
   1   4   5    0.75    1.02
   1  -4   5    0.86    0.98
   1   4   5    0.33    0.64
   1   4   6    1.20    2.44
   1  -4   6    6.18    3.23
   1  -4   6    7.63    3.12
  -1   5   6   15.53    1.88
  -1   5   6   14.53    2.90
  -1  -5   6   15.83    1.99
  -1  -5   6   15.69    2.92
  -1   5   6   14.71    1.98
  -1  -5   6   16.80    2.80
  -1  -5   5    1.86    1.15
  -1  -5   5    1.63    0.75
  -1   5   5    1.76    1.96
  -1   5   5    1.74    0.73
  -1   5   5    1.45    0.76
  -1  -5   5    1.48    1.21
  -1  -5   4   25.43    1.61
  -1  -5   4   26.57    2.41
  -1  -5   4   26.86    2.47
  -1   5   4   24.45    2.53
  -1   5   4   25.86    1.66
   1  -5  -3  375.83   15.49
  -1   5   3  382.60   14.70
  -1  -5   3  368.41   16.10
   1  -5  -2  986.62   41.07
  -1  -5   2 1187.14   53.11
   1   5  -1    0.22    0.27
   1  -5  -1    0.27    0.21
  -1  -5   1    0.15    0.47
  -1   5   1    0.35    0.21
   1   5   0   98.50    3.36
   1  -5   0   88.67    3.41
  -1  -5   0   88.62    2.91
  -1   5   0   86.34    3.40
   1   5   1 1112.19   44.43
   1  -5   1 1066.99   47.76
  -1  -5  -1 1078.82   48.47
  -1  -5  -1 1087.24   43.57
  -1   5  -1 1041.24   46.74
   1  -5   2   44.15    2.69
   1   5   2   45.99    1.67
  -1  -5  -2   45.91    1.79
  -1   5  -2   46.40    2.21
  -1   5  -2   45.07    2.88
  -1  -5  -2   49.53    3.15
   1   5   3    0.05    0.18
   1  -5   3    0.08    0.38
  -1   5  -3   -0.05    0.49
  -1  -5  -3    0.01    0.50
   1   5   4   57.54    2.99
   1  -5   4   57.61    5.56
   1   5   4   55.63    2.87
   1  -5   5  117.73    7.43
   1  -5   5  111.87    7.15
   1   5   5  114.43    5.54
   1   5   5  114.71    6.38
   1  -5   6    7.72    3.75
   1  -5   6    7.13    2.51
  -1   6   6   13.28    2.41
  -1  -6   6   12.03    2.58
  -1  -6   6   -0.40    2.35
  -1   6   6   11.10    2.63
  -1   6   6   11.69    1.58
  -1  -6   6    9.62    3.73
  -1   6   5  374.85   17.13
  -1  -6   5  381.88   19.42
  -1   6   5  379.52   16.59
  -1  -6   5  375.76   17.04
  -1  -6   5  365.50   18.72
  -1   6   5  368.59   19.22
  -1  -6   4   23.27    2.49
  -1  -6   4   25.86    1.53
  -1  -6   4   25.42    2.47
  -1   6   4   26.14    2.60
  -1   6   4   25.52    1.57
   1  -6  -3    1.96    0.51
  -1   6   3    1.45    0.38
  -1  -6   3    1.69    1.18
   1  -6  -2  152.38    5.36
  -1  -6   2  144.75    6.39
  -1   6   2  151.84    5.24
   1  -6  -1  661.96   25.81
   1   6  -1  687.69   27.77
  -1   6   1  653.77   25.84
  -1  -6   1  660.34   26.79
   1   6   0  106.05    3.67
   1  -6   0   97.27    3.95
  -1  -6   0  100.50    3.88
  -1   6   0   96.11    3.84
  -1  -6   0   97.28    3.26
   1   6   1    0.11    0.08
   1  -6   1    0.12    0.30
  -1   6  -1   -0.22    0.32
  -1  -6  -1    0.34    0.33
  -1  -6  -1    0.07    0.14
   1  -6   2   56.23    3.24
   1   6   2   58.02    2.11
   1   6   2   56.01    3.33
  -1   6  -2   60.01    3.03
  -1  -6  -2   59.46    4.53
  -1   6  -2   54.23    3.34
   1   6   3  292.20   10.67
   1  -6   3  296.62   13.69
  -1  -6  -3  299.11   14.51
  -1   6  -3  289.16   12.69
   1  -6   4   57.71    5.55
   1   6   4   57.92    2.81
   1   6   4   60.01    3.27
   1   6   5   11.15    1.48
   1   6   5    0.51    0.66
   1   6   5    0.69    0.70
   1  -6   5    0.25    1.38
  -1   7   6   22.61    2.15
  -1  -7   6   65.33    4.46
  -1   7   6   20.61    3.65
  -1  -7   6   24.18    3.66
  -1  -7   6   23.54    5.21
  -1   7   6   23.33    2.27
  -1   7   5    0.84    1.14
  -1  -7   5    0.60    1.70
  -1   7   5    0.47    0.53
  -1   7   5    0.82    0.82
  -1  -7   5    0.84    0.50
  -1  -7   5    0.42    1.01
  -1  -7   4   16.15    1.07
  -1   7   4   17.16    1.19
  -1  -7   4   16.77    2.17
  -1   7   4   15.94    2.25
  -1  -7   4   15.44    2.06
   1  -7  -3  142.05    5.98
  -1   7   3  149.41    5.38
  -1  -7   3  140.36    6.70
   1  -7  -2  169.49    5.94
  -1  -7   2  159.03    7.06
  -1   7   2  161.57    5.58
   1  -7  -1    0.27    0.23
  -1   7   1    0.31    0.23
  -1  -7   1    0.22    0.33
   1   7   0   74.11    2.54
   1  -7   0   75.68    3.26
  -1   7   0   77.13    3.27
  -1  -7   0   78.92    3.05
  -1  -7   0   75.69    3.14
   1   7   1  365.22   15.90
   1   7   1  375.63   12.26
   1  -7   1  368.56   15.22
  -1  -7  -1  376.81   12.11
  -1   7  -1  363.38   15.03
  -1  -7  -1  370.25   15.32
   1   7   2   44.05    2.92
   1   7   2   45.59    1.50
   1  -7   2   45.19    2.85
  -1  -7  -2   43.28    3.05
  -1   7  -2   46.37    2.45
  -1   7  -2   44.71    3.04
   1   7   3    0.09    0.17
   1   7   3    0.04    0.18
   1  -7   3   -0.02    0.35
   1   7   3   -0.68    0.66
  -1  -7  -3   -0.16    0.44
  -1   7  -3   -0.07    0.36
   1   7   4   68.37    3.26
   1  -7   4   60.72    4.70
   1   7   4   61.84    2.72
   1   7   5   69.36    3.40
   1   7   5   72.37    3.44
   1  -7   5   73.97    5.69
  -1   8   6   20.74    3.45
  -1   8   6   19.70    1.80
  -1  -8   6   18.84    3.37
  -1  -8   6   22.55    3.39
  -1  -8   6   -0.13    3.14
  -1   8   6   19.19    1.86
  -1   8   5   91.46    6.57
  -1  -8   5   91.41    6.21
  -1  -8   5   94.23    4.05
  -1   8   5   95.23    4.81
  -1   8   5   93.82    4.87
  -1  -8   5   93.65    7.72
  -1  -8   5   52.10    5.55
  -1   8   4   17.25    1.13
  -1  -8   4   16.10    1.31
  -1   8   4   14.61    2.36
  -1  -8   4   17.28    2.18
  -1  -8   4   18.07    3.28
   1  -8  -3    0.61    0.33
  -1  -8   3   -0.02    0.62
  -1   8   3    0.47    0.38
   1  -8  -2  147.32    5.23
  -1  -8   2  138.25    6.55
  -1   8   2  151.99    5.46
   1  -8  -1   52.10    2.05
  -1  -8   1   48.15    2.19
  -1  -8   1   51.10    2.35
  -1   8   1   51.60    1.99
   1   8   0   51.28    1.90
   1   8   0   52.11    1.83
   1  -8   0   55.70    3.16
  -1  -8   0   57.25    2.97
  -1   8   0   54.26    2.50
  -1  -8   0   57.32    2.45
   1   8   1    0.20    0.33
   1  -8   1    0.18    0.50
   1   8   1    0.05    0.10
  -1   8  -1    0.11    0.34
  -1  -8  -1    0.08    0.11
  -1  -8  -1    0.06    0.51
   1  -8   2   34.14    2.48
   1   8   2   35.71    0.99
   1   8   2   33.68    2.69
  -1   8  -2   35.71    2.70
  -1   8  -2   34.85    1.61
  -1  -8  -2   36.29    2.86
   1   8   3   22.62    1.01
   1   8   3   23.63    1.05
   1  -8   3   23.87    2.26
   1   8   3   22.32    2.55
  -1   8  -3   23.66    1.48
  -1  -8  -3   22.58    2.66
   1   8   4   53.52    2.58
   1   8   4   52.76    2.17
   1  -8   4   55.20    4.47
   1  -8   5    0.08    2.49
   1   8   5   18.06    1.55
  -1   9   6    9.88    1.39
  -1  -9   6    2.67    4.47
  -1   9   6   10.89    2.96
  -1   9   6   10.90    1.95
  -1  -9   6   11.09    2.97
  -1  -9   6   12.78    2.82
  -1  -9   5    2.04    1.50
  -1   9   5    2.42    0.64
  -1  -9   5    2.67    1.59
  -1   9   5    1.74    2.66
  -1   9   5    2.69    0.95
  -1   9   4   14.80    2.41
  -1  -9   4   18.22    3.43
  -1  -9   4   16.71    3.20
  -1  -9   4   16.07    1.14
  -1   9   4   15.90    1.01
   1  -9  -3    7.41    1.02
  -1  -9   3    6.96    1.37
  -1   9   3    7.41    0.56
  -1  -9   3    7.14    0.48
   1  -9  -2  111.33    3.97
  -1  -9   2  107.42    5.35
  -1   9   2  107.61    3.75
   1  -9  -1    1.64    0.63
  -1  -9   1    1.57    0.85
  -1   9   1    1.90    0.40
  -1  -9   1    1.68    0.30
   1  -9   0   45.67    2.41
  -1  -9   0   46.01    2.19
  -1  -9   0   45.47    2.24
  -1   9   0   40.20    2.26
   1   9   1    0.51    0.54
   1  -9   1    0.50    0.82
  -1  -9  -1    0.40    0.52
  -1   9  -1    0.01    0.86
  -1  -9  -1    0.69    0.18
   1  -9   2   30.26    2.40
   1   9   2   29.96    2.55
  -1   9  -2   28.60    3.43
  -1  -9  -2   30.60    2.64
  -1   9  -2   30.00    1.36
   1  -9   3    1.17    0.91
   1   9   3    1.23    0.16
   1   9   3    1.09    0.15
   1   9   3    1.29    1.06
  -1   9  -3    1.01    0.47
   1   9   4   40.76    1.67
   1  -9   4   43.52    4.07
   1   9   4   43.36    1.74
   1  -9   5    4.30    2.03
  -1 -10   6    0.80    4.21
  -1 -10   6    9.21    2.41
  -1 -10   6    8.75    2.59
  -1  10   6   -0.20    2.60
  -1 -10   5   32.52    4.80
  -1 -10   5   63.27    5.27
  -1  10   5   64.54    2.85
  -1  10   5   66.53    3.32
  -1 -10   5   63.93    5.05
  -1  10   5   61.25    7.66
  -1  10   4   11.64    2.27
  -1 -10   4   12.09    0.60
  -1 -10   4   12.73    2.06
  -1  10   4   11.81    1.12
  -1 -10   4   12.03    2.16
   1 -10  -3    0.28    0.21
  -1  10   3    0.07    0.15
  -1  10   3    0.09    0.48
  -1 -10   3   -0.31    0.45
  -1 -10   3    0.02    0.09
  -1 -10   3    0.33    0.47
   1 -10  -2   88.69    3.30
  -1 -10   2   78.45    4.26
  -1  10   2   91.19    3.46
   1 -10  -1   26.87    1.36
  -1 -10   1   25.53    1.11
  -1 -10   1   28.36    1.64
  -1 -10   1   26.03    1.63
  -1  10   1   26.29    1.31
   1 -10   0   29.33    1.84
  -1 -10   0   31.61    1.76
  -1  10   0   29.13    1.72
  -1 -10   0   26.20    1.22
  -1 -10   0   32.02    1.53
   1  10   1    0.12    0.39
   1 -10   1    0.00    0.38
  -1  10  -1    0.28    0.38
  -1 -10  -1    0.11    0.13
  -1 -10  -1   -0.20    0.36
   1 -10   2   24.43    2.22
   1  10   2   23.94    2.36
  -1 -10  -2   26.11    3.35
  -1  10  -2   25.75    1.14
  -1  10  -2   24.66    3.37
   1 -10   3    0.41    0.74
   1  10   3    0.40    0.89
   1  10   4   60.36    2.33
   1 -10   4   33.48    4.06
   1 -10   5    0.13    0.95
  -1 -11   6   13.67    3.35
  -1  11   6   11.74    3.40
  -1 -11   6    7.05    3.43
  -1 -11   6   11.02    3.02
  -1  11   5    0.05    0.36
  -1  11   5    0.38    1.45
  -1  11   5   -0.16    0.23
  -1 -11   5    0.11    0.78
  -1 -11   5   -0.31    0.87
  -1 -11   4    6.37    1.73
  -1 -11   4    5.48    1.84
  -1  11   4    6.97    1.95
  -1  11   4    6.80    0.57
   1 -11  -3   17.29    1.01
  -1 -11   3   17.14    1.95
  -1 -11   3   16.79    2.03
  -1  11   3   17.60    0.83
  -1  11   3   16.52    2.11
   1 -11  -2   80.10    3.05
  -1  11   2   86.27    3.04
  -1 -11   2   77.42    5.14
  -1 -11   2   81.20    2.49
   1 -11  -1   -0.05    0.38
  -1  11   1    0.13    0.21
  -1 -11   1    0.03    0.31
  -1 -11   1    0.07    0.16
   1 -11   0   20.79    1.64
  -1  11   0   20.07    1.51
  -1 -11   0   21.71    1.65
  -1 -11   0   21.19    1.87
   1 -11   1  146.66    6.72
   1  11   1  144.26    6.58
  -1  11  -1  143.22    6.60
  -1 -11  -1  147.74    4.37
  -1 -11  -1  146.13    4.51
  -1 -11  -1  146.29    7.35
   1  11   2   17.89    2.14
   1 -11   2   19.46    2.00
  -1  11  -2   18.46    2.20
  -1  11  -2   18.28    1.08
  -1 -11  -2   17.50    2.05
   1 -11   3   -0.20    0.51
   1  11   3    0.18    0.59
   1 -11   4   34.48    3.72
   1 -11   5    8.62    2.61
  -1 -12   6   14.77    3.07
  -1 -12   6   13.42    3.30
  -1 -12   6    0.81    2.69
  -1  12   6   12.52    3.52
  -1  12   5   21.02    5.27
  -1 -12   5   17.79    3.29
  -1 -12   5   18.04    3.03
  -1  12   5   17.93    1.27
  -1  12   5   18.04    0.97
  -1 -12   5   25.93    4.41
  -1 -12   4    4.16    1.75
  -1  12   4    4.24    0.63
  -1  12   4    4.80    1.79
  -1 -12   4    7.14    1.61
   1 -12  -3    0.54    0.46
  -1  12   3    0.32    0.80
  -1 -12   3   -0.05    1.25
  -1 -12   3    0.29    0.74
  -1  12   3    0.42    0.32
   1 -12  -2   77.24    3.51
  -1  12   2   79.60    3.27
  -1 -12   2   76.04    5.15
  -1 -12   2   80.59    2.50
   1 -12  -1    2.73    0.61
  -1 -12   1    2.89    0.45
  -1  12   1    2.85    0.85
  -1 -12   1    8.26    0.81
  -1 -12   1    3.14    0.80
   1 -12   0    8.57    1.13
  -1  12   0    7.92    1.50
  -1 -12   0    9.16    0.96
  -1 -12   0    8.37    0.82
   1 -12   1   -0.41    0.31
   1  12   1    0.11    0.30
  -1 -12  -1   -0.08    0.27
  -1 -12  -1    0.01    0.12
  -1  12  -1   -0.03    0.28
  -1 -12  -1    0.02    0.11
   1  12   2    6.72    1.54
   1 -12   2    8.36    1.44
  -1  12  -2    6.71    0.62
  -1 -12  -2    7.10    1.50
  -1  12  -2    6.76    1.55
   1 -12   3    0.83    0.95
   1  12   3    0.77    1.12
   1 -12   4   34.32    3.94
   1 -12   5   -0.13    1.02
  -1 -13   6    4.18    2.74
  -1 -13   6    7.21    4.97
  -1  13   6   10.03    3.50
  -1 -13   6   10.66    2.96
  -1  13   5   -0.11    3.36
  -1 -13   5   -0.34    1.77
  -1 -13   5    0.40    2.01
  -1 -13   5   20.22    2.89
  -1  13   4    1.00    0.35
  -1 -13   4    2.11    1.32
  -1  13   4    2.18    1.35
  -1 -13   4    1.92    1.17
   1 -13  -3   10.65    0.77
  -1  13   3   11.07    1.90
  -1 -13   3   10.61    2.93
  -1 -13   3    9.60    1.86
  -1  13   3   11.34    0.83
   1 -13  -2   68.58    2.84
  -1  13   2   68.31    2.98
  -1 -13   2   63.92    3.94
  -1 -13   2   66.50    2.02
  -1 -13   2   67.10    4.17
   1 -13  -1    1.41    0.57
  -1 -13   1    1.65    0.70
  -1  13   1    1.49    0.50
  -1 -13   1    2.06    0.39
   1 -13   0    9.40    1.18
  -1 -13   0    7.55    0.82
  -1 -13   0    9.18    1.42
  -1  13   0    8.11    1.09
  -1 -13   0    8.07    0.85
   1  13   1    0.54    0.59
   1 -13   1    0.22    0.64
  -1 -13  -1    0.38    0.27
  -1  13  -1    0.63    0.93
  -1 -13  -1    0.56    0.55
  -1 -13  -1    0.35    0.26
   1  13   2    5.82    1.56
   1 -13   2    7.17    1.49
  -1  13  -2    5.77    0.53
  -1 -13  -2    6.25    1.51
  -1  13  -2    7.92    1.62
   1 -13   3    0.48    0.95
   1  13   3    0.73    1.10
   1 -13   4   27.27    3.60
   1 -13   5    5.14    2.45
  -1 -14   6    7.22    2.73
  -1  14   6    7.37    3.38
  -1 -14   6    2.82    2.61
  -1 -14   6    4.80    4.75
  -1 -14   5  240.97   14.06
  -1 -14   5  220.92   13.96
  -1  14   5  224.73   14.46
  -1 -14   4    0.97    1.61
  -1  14   4    1.24    1.86
  -1 -14   4    0.73    1.15
  -1  14   4    0.54    0.23
   1 -14  -3    9.33    1.04
  -1 -14   3    7.80    1.85
  -1  14   3   10.31    1.96
  -1 -14   3   10.52    2.90
  -1  14   3    9.02    0.57
   1 -14  -2   64.70    2.80
  -1 -14   2   60.98    4.09
  -1 -14   2   58.63    3.91
  -1  14   2   67.34    3.03
   1 -14  -1  352.27   14.43
  -1 -14   1  361.23   15.58
  -1 -14   1  366.85   14.10
  -1 -14   1  349.79   15.24
  -1  14   1  357.60   14.57
   1 -14   0   10.66    1.35
  -1 -14   0   11.53    1.03
  -1  14   0    9.43    1.78
  -1 -14   0    9.72    1.48
  -1 -14   0   10.70    1.13
   1  14   1    0.02    0.35
   1 -14   1    0.10    0.57
  -1  14  -1    0.04    0.34
  -1 -14  -1   -0.14    0.31
  -1 -14  -1   -0.03    0.17
  -1 -14  -1    0.01    0.16
   1 -14   2    8.14    1.66
   1  14   2    6.70    1.78
  -1  14  -2    6.80    1.78
  -1  14  -2    7.74    0.50
   1 -14   3  189.55   10.33
   1  14   3  188.90   10.94
   1 -14   4   26.56    3.67
   1  14   4   25.28    6.29
   1 -14   5    3.69    2.36
  -1  15   6    8.08    3.88
  -1 -15   6    8.66    4.84
  -1 -15   6    7.48    5.62
  -1 -15   5    7.40    2.75
  -1 -15   5    4.69    3.67
  -1  15   5    6.68    2.87
  -1  15   4    3.08    1.98
  -1 -15   4    4.43    1.91
  -1 -15   4    4.32    1.74
   1 -15  -3  606.96   24.20
  -1  15   3  612.82   23.71
  -1 -15   3  578.42   30.86
  -1 -15   3  603.70   29.88
  -1  15   3  588.96   31.35
   1 -15  -2   47.43    2.32
  -1  15   2   49.83    2.55
  -1 -15   2   44.74    3.50
  -1 -15   2   42.92    3.38
   1 -15  -1    1.33    0.92
  -1 -15   1    0.19    0.71
  -1 -15   1    0.62    0.71
  -1 -15   1    0.66    0.64
  -1  15   1    2.56    0.81
   1 -15   0    6.52    1.21
  -1 -15   0    6.13    0.90
  -1 -15   0    7.26    0.88
  -1  15   0    6.43    1.11
  -1 -15   0    6.37    1.45
   1  15   1 1512.25   77.40
   1 -15   1 1555.26   81.35
  -1 -15  -1 1525.44   69.14
  -1  15  -1 1509.98   77.50
  -1 -15  -1 1580.47   80.19
  -1 -15  -1 1631.99   72.24
   1 -15   2    3.39    1.34
   1  15   2    3.13    1.45
  -1  15  -2    3.50    0.29
  -1  15  -2    3.55    1.46
   1 -15   3    0.54    1.29
   1  15   3    3.15    1.52
   1 -15   4   24.02    3.58
   1  15   4   20.70    6.28
   1 -15   5  238.87   15.42
  -1 -16   6    0.76    2.17
  -1 -16   6    3.53    3.49
  -1 -16   6    4.25    4.05
  -1 -16   5  157.69   10.53
  -1 -16   5  151.23   13.78
  -1  16   5  151.29   11.23
  -1 -16   4    3.43    2.49
  -1 -16   4    4.10    2.24
  -1  16   4   29.56    3.00
   1 -16  -3    0.05    0.33
  -1  16   3    0.47    1.04
  -1 -16   3    1.11    1.62
  -1 -16   3    0.95    1.03
  -1  16   3    0.96    0.25
   1 -16  -2   37.72    2.60
  -1  16   2   41.36    1.91
  -1  16   2   37.75    3.19
  -1 -16   2   40.90    3.33
  -1 -16   2   36.88    3.24
   1 -16  -1  158.85    7.67
  -1  16   1  158.50    6.73
  -1 -16   1  157.97    6.22
  -1 -16   1  158.79    8.48
  -1 -16   1  150.99    7.19
   1 -16   0   10.39    1.52
  -1 -16   0   10.25    1.12
  -1 -16   0   10.71    1.19
  -1  16   0   10.14    1.37
  -1 -16   0    9.04    1.14
   1  16   1   -0.21    0.43
   1 -16   1    0.04    0.72
  -1  16  -1    0.30    0.43
  -1 -16  -1   -0.18    0.37
  -1 -16  -1   -0.11    0.23
  -1 -16  -1    0.03    0.17
   1  16   2    8.78    2.06
   1 -16   2    9.49    1.95
  -1  16  -2    9.53    2.08
   1  16   3   86.31    6.70
   1 -16   3   93.45    6.34
   1 -16   4   17.48    3.28
   1  16   4   18.69    5.97
   1 -16   5    0.49    1.52
  -1 -17   6    5.26    2.54
  -1 -17   6    4.58    3.03
  -1 -17   6   -0.19    2.50
  -1 -17   5    0.46    2.03
  -1 -17   5   13.42    3.26
  -1  17   5    1.18    2.50
  -1 -17   5    0.67    3.71
  -1  17   4    1.21    1.60
  -1 -17   4    1.25    1.57
  -1 -17   4    1.07    1.39
   1 -17  -3   -0.02    0.64
  -1  17   3    2.17    1.37
  -1 -17   3    2.09    1.33
  -1  17   3    1.96    0.31
  -1 -17   3    2.05    2.09
   1 -17  -2   50.39    2.57
  -1  17   2   47.88    2.29
  -1 -17   2   44.37    3.72
  -1  17   2   43.09    3.72
  -1 -17   2   47.99    3.85
   1 -17  -1    1.11    0.89
  -1 -17   1   -0.09    0.69
  -1 -17   1    0.50    0.68
  -1  17   1    0.76    0.74
   1 -17   0   12.88    1.75
  -1 -17   0   13.78    1.37
  -1 -17   0   13.70    1.45
  -1  17   0   14.12    2.31
  -1 -17   0   12.66    1.36
   1 -17   1   16.44    2.19
   1  17   1   16.73    2.18
  -1  17  -1   17.49    3.15
  -1 -17  -1   16.63    0.97
  -1 -17  -1   17.82    1.41
   1 -17   2   13.92    2.29
   1  17   2   10.18    2.34
   1 -17   3    0.27    1.04
   1  17   3    0.54    1.23
   1 -17   4   19.23    5.16
   1  17   4   15.18    6.27
   1 -17   5   -0.34    1.50
  -1 -18   6    7.22    2.93
  -1 -18   6    6.43    3.40
  -1 -18   6   -0.19    2.88
  -1 -18   5    8.83    3.02
  -1  18   5    7.65    3.65
  -1 -18   5   17.94    4.72
  -1 -18   5    9.34    5.33
  -1  18   4    1.41    1.67
  -1 -18   4    1.02    1.45
  -1 -18   4    0.82    1.62
   1 -18  -3    0.38    0.28
  -1  18   3    0.72    0.94
  -1 -18   3    0.37    1.47
  -1 -18   3    0.47    0.89
  -1  18   3   -0.00    0.32
   1 -18  -2   58.71    2.96
  -1  18   2   57.59    3.21
  -1 -18   2   54.30    4.28
  -1  18   2   52.43    4.29
  -1 -18   2   58.07    4.44
   1 -18  -1    6.10    1.14
  -1 -18   1    6.29    1.42
  -1 -18   1    7.92    2.13
  -1 -18   1   10.17    1.41
  -1  18   1    6.49    1.00
   1 -18   0   12.11    1.69
  -1 -18   0   11.33    1.28
  -1 -18   0   11.47    1.37
  -1 -18   0    7.02    1.03
  -1  18   0   10.55    1.49
   1 -18   1   -0.03    0.46
   1  18   1    0.24    0.44
  -1  18  -1   -0.05    0.43
  -1 -18  -1   -0.03    0.19
  -1 -18  -1   -0.05    0.27
   1 -18   2    7.99    2.12
   1  18   2   10.09    2.23
   1  18   3    3.03    2.23
   1 -18   3    4.90    1.90
   1 -18   4   28.17    6.25
   1 -18   5    0.30    1.47
  -1 -19   5   17.22    3.54
  -1 -19   5   -0.11    3.96
  -1 -19   5   -0.04    2.19
  -1  19   5   -0.36    2.64
  -1 -19   4   -0.12    2.19
  -1  19   4    5.03    2.21
  -1 -19   4    4.68    2.96
   1 -19  -3    0.26    0.41
  -1  19   3    0.67    0.88
  -1 -19   3    0.32    1.42
  -1  19   3    0.02    0.30
  -1 -19   3    0.12    0.84
   1 -19  -2   47.01    3.43
  -1  19   2   52.81    3.06
  -1 -19   2   44.17    4.06
  -1  19   2   47.03    5.66
  -1 -19   2   48.81    4.12
   1 -19  -1    0.64    0.63
  -1 -19   1    0.77    0.76
  -1  19   1    0.39    0.82
  -1 -19   1    0.11    0.77
  -1  19   1    0.50    0.76
   1 -19   0    9.59    1.77
  -1  19   0   10.59    1.63
  -1 -19   0   10.44    1.37
  -1 -19   0   10.92    1.38
   1 -19   1   14.94    2.26
   1  19   1   12.66    2.24
  -1  19  -1   15.20    1.08
  -1  19  -1   15.87    2.14
  -1 -19  -1   12.27    1.56
  -1 -19  -1   13.04    0.97
   1 -19   2    7.12    2.04
   1  19   2    6.46    2.17
   1 -19   3    0.27    1.29
   1  19   3    1.28    1.49
   1 -19   4   21.76    4.05
   1 -19   5    0.63    1.84
  -1  20   5   25.78    5.37
  -1 -20   5   33.60    4.50
  -1 -20   5   16.16    4.25
  -1 -20   5   29.80    7.76
  -1  20   4    7.49    2.63
  -1 -20   4   -0.16    2.61
  -1 -20   4    7.11    2.29
   1 -20  -3    0.20    0.25
  -1 -20   3    0.89    1.39
  -1 -20   3    0.75    0.83
  -1  20   3    0.44    1.42
  -1  20   3   -0.00    0.19
   1 -20  -2   38.33    3.12
  -1 -20   2   38.01    3.75
  -1  20   2   40.13    2.20
  -1  20   2   37.81    3.81
  -1 -20   2   34.70    5.30
   1 -20  -1   15.28    1.72
  -1 -20   1   15.61    2.03
  -1 -20   1   14.36    2.06
  -1 -20   1   12.49    1.87
  -1  20   1   16.61    2.04
  -1  20   1   14.41    1.49
   1 -20   0   12.13    1.96
  -1 -20   0   10.64    1.51
  -1  20   0   12.12    1.49
  -1 -20   0   10.39    1.56
  -1  20   0   11.93    2.61
  -1 -20   0   14.94    1.35
   1 -20   1    0.28    0.75
   1  20   1    0.12    0.76
  -1  20  -1    0.14    0.32
  -1  20  -1    0.09    0.71
  -1 -20  -1    0.25    0.53
  -1 -20  -1    0.08    0.30
   1 -20   2    5.46    3.41
   1  20   2    9.08    2.38
   1 -20   3    9.59    4.22
   1  20   3   12.13    3.11
   1 -20   4   16.56    3.76
  -1 -21   5    0.17    3.34
  -1 -21   5    0.40    4.32
  -1  21   5   -0.14    3.53
  -1 -21   5   16.96    3.03
  -1 -21   4    0.09    2.06
  -1  21   4    2.16    3.40
  -1 -21   4    3.12    1.81
   1 -21  -3    0.51    0.61
  -1  21   3    1.29    1.37
  -1 -21   3    0.43    2.12
  -1 -21   3    0.89    1.89
   1 -21  -2   39.29    2.54
  -1 -21   2   39.58    3.87
  -1 -21   2   39.89    5.70
  -1  21   2   39.10    2.87
  -1  21   2   36.30    3.95
   1 -21  -1    1.27    0.83
  -1 -21   1    0.89    1.04
  -1  21   1    0.99    1.60
  -1 -21   1    1.36    1.58
  -1  21   1    0.88    1.11
   1 -21   0   17.42    2.38
  -1 -21   0   17.25    2.63
  -1  21   0   15.16    2.55
  -1  21   0   14.94    2.05
  -1 -21   0   15.18    1.84
   1 -21   1   27.82    3.16
   1  21   1   25.42    3.13
  -1 -21  -1   27.59    2.19
  -1  21  -1   23.04    2.93
  -1  21  -1   26.70    2.26
  -1 -21  -1   25.67    1.71
   1 -21   2   10.98    2.67
   1  21   2   12.93    2.89
   1  21   3   -0.07    0.95
   1 -21   3    0.00    1.28
   1 -21   4   21.41    4.32
  -1 -22   5    1.68    2.77
  -1  22   5    1.89    5.59
  -1 -22   5    0.95    3.37
  -1 -22   5   12.91    2.98
  -1  22   4    0.95    1.74
  -1 -22   4   -0.05    1.68
  -1 -22   4    0.91    1.42
   1 -22  -3    0.36    0.64
  -1 -22   3    1.42    1.25
  -1  22   3    0.92    1.47
  -1 -22   3    1.02    1.44
   1 -22  -2   30.69    2.28
  -1  22   2   30.25    2.02
  -1 -22   2   28.73    4.98
  -1 -22   2   30.26    5.51
  -1  22   2   26.46    3.67
   1 -22  -1   14.81    2.86
  -1  22   1   15.04    1.67
  -1 -22   1   15.44    2.29
  -1  22   1   15.64    2.22
  -1 -22   1    9.48    2.05
  -1 -22   1   14.81    2.17
   1 -22   0    9.35    1.95
  -1 -22   0    8.76    1.57
  -1 -22   0   14.11    1.44
  -1  22   0    8.76    1.52
  -1  22   0    8.69    1.76
  -1 -22   0    8.23    1.62
   1  22   1   -0.12    0.81
   1 -22   1   -0.36    0.76
  -1  22  -1   -0.22    0.35
  -1 -22  -1   -0.03    0.40
  -1 -22  -1   -0.08    0.35
   1 -22   2    6.72    2.25
   1  22   2    6.72    2.54
   1 -22   3   -0.02    2.41
   1  22   3   11.16    2.84
   1 -22   4   18.96    4.28
  -1  23   5    0.38    2.90
  -1 -23   5    5.44    2.36
  -1 -23   5    0.45    2.76
  -1 -23   5    0.14    2.28
  -1  23   4    0.05    1.49
  -1 -23   4    0.69    1.23
  -1 -23   4   -0.16    1.47
   1 -23  -3    6.95    0.80
  -1  23   3    5.09    2.71
  -1 -23   3    7.29    2.32
  -1 -23   3   -0.18    2.72
   1 -23  -2   14.81    1.54
  -1 -23   2   13.66    2.75
  -1  23   2    6.38    1.19
  -1  23   2    9.50    4.05
  -1 -23   2   14.91    2.50
   1 -23  -1    2.58    1.92
  -1 -23   1    3.00    1.54
  -1  23   1    3.56    1.06
  -1  23   1    2.74    1.47
  -1 -23   1    3.81    1.45
  -1 -23   1    1.56    1.31
   1 -23   0    0.25    1.91
  -1 -23   0    1.54    1.03
  -1  23   0    0.92    1.11
  -1  23   0    0.84    1.50
  -1 -23   0    2.85    0.87
  -1 -23   0    0.90    1.53
   1  23   1   42.26    6.25
   1 -23   1   47.56    4.25
  -1 -23  -1   42.27    2.58
  -1 -23  -1   47.22    3.25
  -1  23  -1   43.41    3.22
   1  23   2    0.47    1.34
   1 -23   2    0.33    1.16
   1  23   3    2.08    1.87
   1 -23   3   -0.00    1.53
   1 -23   4    9.88    3.47
  -1 -24   5   60.25    7.48
  -1 -24   5   65.29    6.52
  -1  24   5   58.60    7.58
  -1 -24   5    2.41    5.26
  -1  24   4    1.04    1.83
  -1 -24   4   -0.08    1.83
  -1 -24   4    0.60    2.30
   1 -24  -3    0.68    0.47
  -1  24   3    1.71    1.66
  -1 -24   3    0.77    1.39
  -1 -24   3    0.21    1.64
   1 -24  -2    7.27    1.34
  -1 -24   2    1.55    3.49
  -1 -24   2    5.46    2.43
  -1 -24   2    6.50    2.13
  -1  24   2    7.48    2.40
   1 -24  -1   68.56    5.75
  -1 -24   1   69.33    5.26
  -1 -24   1   68.48    6.57
  -1  24   1   68.90    6.90
   1 -24   0    0.11    1.33
  -1 -24   0    0.19    0.75
  -1  24   0    0.62    0.69
  -1 -24   0    0.05    0.70
   1 -24   1    0.50    1.21
  -1  24  -1   -0.33    0.37
  -1 -24  -1    0.06    0.42
  -1 -24  -1    0.01    0.37
   1  24   2   -0.72    1.37
   1 -24   2   -0.08    1.15
   1  24   3   42.07    9.24
   1 -24   3   47.19    5.38
   1 -24   4    3.52    2.71
  -1 -25   4   -0.13    1.37
  -1 -25   4    0.40    1.78
  -1 -25   4    0.10    1.10
  -1  25   4    0.15    1.38
   1 -25  -3   20.42    2.00
  -1  25   3   20.90    6.49
  -1 -25   3   20.35    4.23
  -1 -25   3   21.13    5.27
   1 -25  -2    4.12    1.26
  -1 -25   2    4.63    3.02
  -1  25   2    4.33    2.27
  -1 -25   2    5.36    2.35
   1 -25  -1    1.80    1.15
  -1  25   1    0.82    1.43
  -1 -25   1    2.09    2.10
  -1 -25   1    1.70    1.32
  -1 -25   1    2.03    1.49
   1 -25   0   -0.04    1.11
  -1 -25   0    0.10    0.94
  -1 -25   0    0.63    0.82
  -1  25   0    1.75    0.91
  -1 -25   0    1.98    1.56
   1 -25   1   87.44    6.46
  -1 -25  -1   91.44    4.32
  -1  25  -1   85.36    4.26
  -1 -25  -1   83.63    4.40
   1  25   2    1.62    2.34
   1 -25   2    0.00    1.22
   1 -25   3    0.01    0.80
   1 -25   4    3.95    2.94
  -1 -26   4    0.27    2.82
  -1 -26   4    0.97    2.19
  -1  26   4   -0.46    2.86
  -1 -26   4    7.11    2.33
  -1 -26   3   -0.10    1.60
  -1  26   3    0.65    1.61
  -1 -26   3    0.03    1.23
  -1 -26   3    1.95    2.11
   1 -26  -2    4.00    1.29
  -1 -26   2    5.09    1.95
  -1 -26   2   -0.76    2.19
  -1 -26   2    5.90    2.38
  -1  26   2    5.19    2.34
   1 -26  -1   11.07    2.00
  -1 -26   1   12.95    2.28
  -1 -26   1    2.29    3.31
  -1 -26   1    9.71    2.63
  -1  26   1   10.94    2.44
   1 -26   0   -0.17    1.54
  -1 -26   0   -0.01    2.11
  -1 -26   0    1.25    2.23
  -1 -26   0   12.35    1.92
  -1  26   0    1.04    2.03
   1 -26   1    0.13    0.84
  -1 -26  -1    0.01    0.71
  -1  26  -1   -0.44    0.43
  -1 -26  -1    0.24    0.49
   1 -26   2   -0.00    0.59
   1 -26   3   -0.00    0.70
  -1  27   4    1.51    2.83
  -1 -27   4    0.37    1.45
  -1 -27   4   -0.15    2.80
  -1 -27   4   -0.12    1.39
  -1 -27   3   23.04    4.46
  -1 -27   3   23.33    3.44
  -1  27   3   22.47    4.33
  -1 -27   3   -1.40    3.30
   1 -27  -2    3.30    1.40
  -1  27   2    6.32    3.91
  -1 -27   2    5.45    2.08
  -1 -27   2    5.55    2.64
   1 -27  -1    0.40    0.85
  -1  27   1    0.39    1.71
  -1 -27   1    0.49    0.98
  -1 -27   1    0.03    1.85
  -1 -27   1   -0.14    1.55
   1 -27   0   -0.05    0.62
  -1  27   0    0.24    0.55
  -1 -27   0   -0.72    0.66
  -1 -27   0    0.42    0.93
  -1 -27   0    0.02    0.55
   1 -27   1   97.52    7.08
  -1  27  -1   91.58    4.89
  -1 -27  -1   93.99    4.77
  -1 -27  -1   96.42    5.16
   1 -27   2    0.00    0.92
   1 -27   3    0.00    0.52
  -1 -28   4    3.74    2.43
  -1 -28   4    1.01    2.28
  -1 -28   4    0.22    4.64
  -1  28   4    0.85    3.00
  -1 -28   3    0.26    2.19
  -1 -28   3    0.54    1.72
  -1  28   3    0.35    2.16
  -1 -28   3    1.98    1.61
   1 -28  -2    6.94    1.62
  -1 -28   2   -1.00    2.68
  -1  28   2    7.03    2.88
  -1 -28   2    8.07    2.33
  -1 -28   2    8.08    2.98
   1 -28  -1    3.99    1.43
  -1 -28   1   -0.04    1.68
  -1  28   1    3.84    1.88
  -1 -28   1    1.69    1.65
  -1 -28   1    3.91    1.98
   1 -28   0   -0.04    1.41
  -1  28   0    1.48    1.99
  -1 -28   0    3.60    1.01
  -1 -28   0    0.00    1.24
  -1 -28   0    1.01    1.37
   1 -28   1    0.06    0.96
  -1 -28  -1    0.00    0.98
  -1 -28  -1   -0.23    0.55
  -1  28  -1   -0.15    0.52
   1 -28   2   -0.00    0.57
   1 -28   3    0.01    1.19
  -1 -29   4    0.01    2.86
  -1 -29   4    0.04    1.95
  -1 -29   4    0.26    2.41
  -1  29   4    2.33    2.49
  -1  29   3    0.45    3.20
  -1 -29   3    0.84    1.65
  -1 -29   3    0.98    2.34
  -1 -29   3   -0.04    2.03
   1 -29  -2    8.22    1.90
  -1 -29   2   11.95    3.20
  -1 -29   2    0.42    4.08
  -1  29   2   10.11    3.24
  -1 -29   2    9.55    3.42
   1 -29  -1    0.32    0.92
  -1  29   1    0.67    1.20
  -1 -29   1    0.27    1.04
  -1 -29   1    0.54    1.26
  -1 -29   1   -0.02    1.10
   1 -29   0    0.01    1.21
  -1  29   0    1.02    1.10
  -1 -29   0    0.52    0.85
  -1 -29   0    0.00    1.64
  -1 -29   0    1.32    1.17
   1 -29   1   11.38    2.76
  -1 -29  -1   10.56    2.53
  -1 -29  -1   10.40    2.85
  -1  29  -1    9.42    1.60
   1 -29   2   -0.00    0.57
   1 -29   3    0.01    0.82
  -1 -30   3   -0.00    1.29
  -1 -30   3    0.00    2.82
  -1  30   3    0.81    1.70
  -1 -30   3   -1.20    1.39
   1 -30  -2    4.20    2.05
  -1 -30   2    3.45    3.77
  -1 -30   2   -2.16    3.43
  -1 -30   2   -0.23    1.80
  -1  30   2    4.65    3.57
   1 -30  -1    0.60    1.08
  -1 -30   1    0.25    1.90
  -1  30   1    0.45    2.24
  -1 -30   1    0.68    1.29
  -1 -30   1    0.71    1.51
   1 -30   0    1.37    1.94
  -1 -30   0   -0.00    1.12
  -1  30   0    0.52    1.15
  -1 -30   0   -0.06    1.32
  -1 -30   0    1.38    0.89
   1 -30   1   -0.20    1.67
   1 -30   2   -0.02    0.81
  -1 -31   3   15.28    3.36
  -1 -31   3   -1.90    3.39
  -1  31   3   12.49    4.47
  -1 -31   3   14.96    4.46
   1 -31  -2    3.24    2.62
  -1 -31   2   10.86    2.79
  -1  31   2    4.58    2.95
  -1 -31   2    5.07    3.09
  -1 -31   2    0.15    2.26
   1 -31  -1    1.46    2.10
  -1  31   1    1.29    1.80
  -1 -31   1    2.01    1.92
  -1 -31   1   -0.11    1.48
  -1 -31   1    3.43    2.50
   1 -31   0    1.52    1.47
  -1 -31   0   -0.00    1.31
  -1  31   0    1.50    2.14
  -1 -31   0    1.30    1.07
  -1 -31   0    1.62    1.51
   1 -31   1   14.23    3.17
   1 -31   2    0.00    0.49
  -1 -32   2    5.76    2.92
  -1 -32   2    0.63    2.54
  -1  32   2    4.93    2.79
  -1 -32   2    0.02    3.27
   1 -32  -1   85.69    6.37
  -1 -32   1   88.55    6.76
  -1  32   1   81.87    7.48
  -1 -32   1   85.16    7.92
   1 -32   0    0.96    1.30
  -1 -32   0   -0.00    1.82
  -1  32   0    0.63    1.22
  -1 -32   0    0.38    2.18
   1 -32   1    0.06    0.91
  -1 -33   2   -0.84    2.35
  -1 -33   2   -0.11    1.93
  -1  33   2    4.39    2.63
  -1 -33   2    5.99    2.71
   1 -33  -1    0.57    1.49
  -1 -33   1    2.23    1.84
  -1 -33   1    1.97    3.38
  -1  33   1    3.85    3.13
  -1 -33   1   -0.15    2.48
   1 -33   0    0.01    1.32
  -1 -33   0    1.51    1.18
  -1 -33   0    0.00    1.17
  -1 -33   0    0.01    2.30
  -1  33   0    0.85    1.31
   1 -33   1   -0.00    0.61
   1 -34  -1    0.76    1.38
  -1 -34   1    1.21    1.46
  -1 -34   1    0.27    1.73
  -1  34   1    0.53    1.85
  -1 -34   1    1.38    1.98
   1 -34   0   -0.03    0.66
  -1 -34   0    0.00    0.59
  -1 -34   0   -0.06    0.76
  -1  34   0    0.11    0.65
  -2   0   7   19.26    3.02
  -2   0   7   20.07    4.95
  -2   0   6  139.03    9.78
  -2   0   6  143.50    8.23
  -2   0   5    6.86    2.00
  -2   0   5   28.63    2.38
  -2   0   4 1046.13   50.78
   2   0  -3    6.95    1.30
   2   0  -3   23.24    1.48
  -2   0   3    7.32    1.14
   2   0  -2 2346.40  119.70
  -2   0   2 2253.33  115.30
   2   0  -1  125.27    5.09
  -2   0   1  130.90    5.39
   2   0   0   34.81    1.76
  -2   0   0   35.71    1.84
   2   0   1   23.18    1.50
  -2   0  -1   21.91    1.59
   2   0   2 2493.53  130.25
  -2   0  -2 2305.77  123.83
  -2   0  -2 2410.06  129.31
   2   0   3    6.48    1.15
  -2   0  -3    6.02    1.63
  -2   0  -3    5.33    2.21
   2   0   4    4.53    1.31
  -2   0  -4    6.18    1.87
   2   0   5   31.90    3.25
  -2   1   7   24.36    5.28
  -2  -1   7   24.58    3.80
  -2   1   7   25.84    3.34
  -2  -1   7   26.37    5.56
  -2  -1   7   26.03    5.08
  -2  -1   6   11.95    2.11
  -2   1   6   11.11    2.05
  -2  -1   6    1.00    1.98
  -2   1   6   10.86    1.92
  -2  -1   6   11.80    2.90
  -2  -1   5   13.71    2.36
  -2  -1   5   27.00    3.56
  -2   1   5   26.28    3.23
   2   1  -4  767.66   36.56
   2  -1  -4  773.29   37.80
  -2  -1   4  736.35   34.62
  -2   1   4  743.74   34.36
   2  -1  -3   19.43    1.96
   2   1  -3   11.22    1.42
   2  -1  -3   10.73    1.37
   2   1  -3   19.03    2.06
  -2   1   3    9.85    1.20
  -2  -1   3   10.01    1.84
   2   1  -2    2.19    0.64
   2  -1  -2    2.10    0.61
  -2   1   2    2.31    0.62
  -2  -1   2    2.25    0.99
   2  -1  -1  141.88    5.78
   2   1  -1  143.42    5.72
  -2  -1   1  147.53    5.98
  -2   1   1  146.28    5.99
   2  -1   0  511.21   20.86
   2   1   0  511.77   21.08
  -2   1   0  504.80   20.62
  -2  -1   0  524.30   21.13
   2  -1   1   19.44    1.39
   2   1   1   16.58    1.63
  -2  -1  -1   17.59    1.36
  -2   1  -1   18.14    1.47
   2  -1   2   -0.05    0.27
   2   1   2    0.18    0.25
  -2  -1  -2   -0.37    0.48
  -2  -1  -2   -0.45    0.62
  -2   1  -2    0.18    0.34
  -2   1  -2    0.02    0.37
   2   1   3   11.34    1.41
   2  -1   3   13.95    1.56
  -2   1  -3   12.38    2.05
  -2  -1  -3   12.88    2.06
  -2  -1  -3   10.43    1.72
  -2   1  -3   12.32    2.83
   2   1   4  164.02    8.06
   2  -1   4  165.41    9.93
  -2   1  -4  159.47    9.30
  -2  -1  -4  160.19    9.46
   2   1   5   22.01    2.81
   2   1   5   26.37    2.87
   2  -1   5   23.14    3.04
  -2  -2   7   28.75    3.85
  -2   2   7   26.41    5.28
  -2  -2   7   28.55    5.90
  -2  -2   7   27.89    4.11
  -2   2   7   26.10    3.38
  -2  -2   6   29.63    3.85
  -2  -2   6   28.85    4.47
  -2  -2   6    0.90    2.81
  -2   2   6   28.72    3.09
  -2   2   6   29.75    2.70
  -2  -2   6   30.97    3.23
  -2  -2   5   15.06    3.22
  -2   2   5   26.14    2.48
  -2  -2   5   25.79    2.71
   2  -2  -4    1.20    0.94
  -2  -2   4    1.20    0.94
  -2   2   4    1.73    0.73
  -2  -2   4    1.92    0.89
   2   2  -3   25.39    1.89
   2  -2  -3   25.34    1.66
   2  -2  -3   15.43    1.57
   2   2  -3   15.00    1.72
  -2   2   3   14.40    1.96
  -2  -2   3   14.64    1.55
   2   2  -2    2.02    0.67
   2  -2  -2    1.75    0.92
  -2  -2   2    2.21    0.64
  -2   2   2    2.08    0.59
   2  -2  -1  161.79    6.51
   2   2  -1  153.42    6.14
  -2   2   1  160.86    6.53
  -2  -2   1  158.46    6.41
   2   2   0   14.50    1.35
   2  -2   0   14.97    1.10
  -2   2   0   14.85    1.15
  -2  -2   0   14.27    1.45
   2   2   1   23.79    1.41
   2  -2   1   24.24    2.23
  -2  -2  -1   24.38    1.57
  -2   2  -1   24.09    2.41
   2  -2   2    0.74    0.60
   2   2   2    0.50    0.76
  -2   2  -2    0.90    0.76
  -2  -2  -2    3.56    0.97
  -2   2  -2    1.19    0.78
  -2  -2  -2    0.93    0.88
   2  -2   3   15.37    1.83
   2   2   3   16.14    1.57
  -2   2  -3   16.40    3.26
  -2  -2  -3   16.06    2.40
  -2  -2  -3   15.17    1.83
  -2   2  -3   16.25    3.31
   2  -2   4    2.28    1.17
   2   2   4    1.91    1.53
  -2   2  -4    3.34    1.46
  -2  -2  -4    1.70    1.53
   2   2   5   23.80    2.76
   2   2   5   27.22    2.84
   2  -2   5   24.17    3.16
  -2  -3   7   33.58    4.10
  -2  -3   7   19.63    5.45
  -2   3   7   20.93    4.76
  -2   3   7   20.64    3.01
  -2  -3   7   16.97    3.42
  -2   3   6    1.34    1.01
  -2  -3   6    1.18    1.28
  -2  -3   6    0.92    1.01
  -2  -3   6    1.06    1.29
  -2   3   6    1.19    1.25
  -2  -3   5   15.76    2.46
  -2  -3   5   37.45    3.20
  -2   3   5   40.56    3.65
   2  -3  -4   28.73    2.42
  -2  -3   4   27.68    2.39
  -2   3   4   28.80    2.06
   2   3  -3   13.73    1.82
   2   3  -3   36.17    2.13
   2  -3  -3   13.10    1.52
   2  -3  -3   33.22    2.41
  -2  -3   3   38.71    2.23
  -2   3   3   12.53    1.32
  -2  -3   3   13.47    1.61
   2  -3  -2   17.57    1.28
   2   3  -2   17.99    1.42
  -2  -3   2   17.14    1.41
  -2   3   2   17.51    1.24
   2  -3  -1  184.04    7.39
   2   3  -1  182.68    7.19
  -2  -3   1  177.08    7.16
  -2   3   1  181.67    7.30
   2   3   0   43.15    2.01
   2  -3   0   42.81    2.70
  -2  -3   0   42.30    1.97
  -2   3   0   42.52    2.21
   2  -3   1   33.16    2.07
   2   3   1   32.97    1.66
  -2  -3  -1   31.54    2.27
  -2   3  -1   31.20    2.18
   2  -3   2   -0.20    0.37
   2   3   2    0.07    0.27
  -2   3  -2    0.00    0.46
  -2   3  -2    0.62    0.67
  -2  -3  -2    0.24    0.52
  -2  -3  -2    0.16    0.33
   2  -3   3   17.54    1.99
   2   3   3   18.80    1.61
  -2   3  -3   14.87    3.20
  -2   3  -3   16.29    3.56
  -2  -3  -3   18.05    2.61
  -2  -3  -3   16.02    1.81
   2   3   4   15.60    1.79
   2  -3   4   17.65    2.30
  -2   3  -4   16.87    2.54
  -2  -3  -4   16.81    2.84
   2   3   5   32.77    4.25
   2  -3   5   33.22    5.41
   2   3   5   34.44    3.13
  -2  -4   7   34.13    4.24
  -2   4   7   21.70    3.05
  -2   4   7   22.89    4.72
  -2  -4   7   23.79    5.89
  -2  -4   7   23.98    5.43
  -2   4   6   29.99    3.39
  -2  -4   6   32.26    3.54
  -2  -4   6   34.42    3.50
  -2  -4   6    1.96    2.64
  -2  -4   6   31.78    2.69
  -2   4   6   31.59    2.65
  -2   4   5   32.57    2.47
  -2  -4   5   31.54    3.12
  -2  -4   5   18.06    2.53
   2  -4  -4   -0.14    0.56
  -2  -4   4   -0.20    0.38
  -2   4   4    0.18    0.28
   2  -4  -3   31.74    1.83
   2   4  -3   30.73    2.48
   2  -4  -3   30.70    2.81
  -2   4   3   31.58    1.89
  -2  -4   3   40.43    2.63
  -2  -4   3   28.11    2.23
   2   4  -2  109.12    4.83
   2  -4  -2  108.16    4.60
  -2   4   2  108.09    4.48
  -2  -4   2  106.48    4.75
   2  -4  -1  174.67    7.92
   2   4  -1  172.45    6.91
  -2  -4   1  182.41    7.97
  -2   4   1  169.84    6.94
   2   4   0   12.96    0.89
   2  -4   0   12.75    1.12
  -2   4   0   12.73    1.19
  -2  -4   0   12.63    0.95
   2   4   1   36.08    1.74
   2  -4   1   35.59    2.22
  -2  -4  -1   36.11    2.49
  -2   4  -1   34.80    2.42
  -2  -4  -1   34.70    1.85
   2   4   2   81.08    3.43
   2  -4   2   80.47    4.17
  -2  -4  -2   80.42    4.78
  -2   4  -2   81.92    4.17
  -2  -4  -2   79.79    3.58
  -2   4  -2   80.08    4.55
   2  -4   3   21.59    3.08
   2   4   3   19.74    1.59
  -2  -4  -3   22.74    2.82
  -2   4  -3   21.42    2.31
  -2  -4  -3   19.87    1.85
  -2   4  -3   22.08    4.02
   2   4   4    1.77    0.82
   2  -4   4    1.64    1.88
  -2  -4  -4    2.18    1.53
  -2   4  -4    1.83    1.31
   2  -4   5   31.60    3.74
  -2  -5   7   32.93    4.32
  -2  -5   7   34.25    6.64
  -2  -5   7   22.98    5.46
  -2   5   7   35.41    5.13
  -2   5   7   32.96    4.70
  -2   5   6    1.74    1.55
  -2   5   6    1.68    1.09
  -2  -5   6    1.61    1.57
  -2  -5   6    2.86    1.49
  -2  -5   6    2.56    1.06
  -2  -5   6    2.54    2.57
  -2  -5   5   24.63    3.76
  -2  -5   5   22.04    2.79
  -2   5   5   20.71    2.04
   2  -5  -4  135.04    6.62
  -2   5   4  139.14    7.01
  -2  -5   4  133.88    7.00
   2  -5  -3   39.52    2.10
   2   5  -3   44.34    3.09
   2  -5  -3   48.76    2.72
  -2  -5   3   43.20    2.64
  -2   5   3   48.69    2.51
  -2  -5   3   43.27    3.79
   2   5  -2   12.66    1.24
   2  -5  -2   12.29    1.10
  -2   5   2   12.24    1.05
  -2  -5   2   12.54    1.29
   2   5  -1  153.44    6.25
   2  -5  -1  152.75    6.46
  -2  -5   1  161.01    6.59
  -2   5   1  155.97    7.14
   2   5   0   71.06    2.84
   2  -5   0   71.46    3.30
  -2  -5   0   71.45    2.94
  -2   5   0   69.19    3.33
   2  -5   1   43.33    2.63
   2   5   1   45.65    2.38
  -2  -5  -1   45.94    2.63
  -2   5  -1   43.18    3.60
  -2  -5  -1   43.78    2.95
   2  -5   2    0.07    0.53
   2   5   2   -0.03    0.20
  -2  -5  -2    0.14    0.72
  -2   5  -2   -0.12    0.43
  -2  -5  -2   -0.00    0.24
  -2   5  -2   -0.11    0.34
   2  -5   3   28.78    2.66
   2   5   3   28.32    1.84
  -2  -5  -3   30.31    4.72
  -2   5  -3   27.48    2.58
  -2   5  -3   28.88    4.59
  -2  -5  -3   26.13    2.00
   2   5   4    3.82    1.40
   2  -5   4    3.74    2.28
  -2  -5  -4    3.22    1.79
  -2   5  -4    2.80    1.52
   2  -5   5   31.26    3.92
  -2  -6   7   25.46    3.83
  -2   6   7   28.49    3.12
  -2   6   7   26.16    3.31
  -2  -6   7   29.79    4.25
  -2  -6   7   34.55    4.68
  -2  -6   6   -0.17    1.31
  -2   6   6    0.09    1.24
  -2  -6   6    1.97    1.17
  -2  -6   6    0.91    1.23
  -2   6   6    0.84    1.25
  -2  -6   6    0.21    1.19
  -2  -6   5   26.60    3.22
  -2  -6   5   31.89    3.44
  -2   6   5   24.22    3.09
   2  -6  -4    1.03    0.85
  -2   6   4    1.08    1.00
  -2  -6   4    0.87    0.98
  -2  -6   4    3.77    1.12
   2  -6  -3   42.43    3.36
   2   6  -3   41.92    3.22
   2  -6  -3   67.02    3.01
  -2  -6   3   56.36    3.13
  -2   6   3   41.25    2.35
  -2  -6   3   40.62    3.01
   2   6  -2    9.60    1.65
   2   6  -2    8.88    1.03
   2  -6  -2    9.39    0.98
  -2  -6   2    8.94    1.16
  -2   6   2    9.40    0.92
   2  -6  -1  152.69    6.86
   2   6  -1  158.65    6.44
   2   6  -1  160.44    6.39
  -2   6   1  154.97    6.51
  -2  -6   1  171.19    7.06
   2   6   0    9.39    1.08
   2  -6   0    9.38    1.08
  -2   6   0    9.35    1.10
  -2  -6   0    9.04    0.82
   2   6   1   65.73    2.64
   2  -6   1   59.79    3.41
  -2   6  -1   60.89    3.60
  -2  -6  -1   60.25    3.61
  -2  -6  -1   64.07    2.76
   2  -6   2    4.05    1.05
   2   6   2    3.74    0.57
  -2  -6  -2    4.48    0.69
  -2  -6  -2    4.00    1.36
  -2   6  -2    4.03    0.95
  -2   6  -2    4.56    1.27
   2  -6   3   28.69    2.91
   2   6   3   30.90    1.82
  -2   6  -3   30.30    2.65
  -2   6  -3   29.91    3.47
  -2  -6  -3   32.15    3.46
   2   6   4    1.15    1.04
   2  -6   4    2.38    1.25
  -2   6  -4    1.17    1.19
  -2  -6  -4    1.42    1.47
   2  -6   5   32.41    4.13
  -2   7   7   16.01    2.71
  -2  -7   7   29.39    3.71
  -2  -7   7   21.71    3.87
  -2   7   7   14.88    2.59
  -2  -7   7   21.80    3.99
  -2  -7   6    0.26    1.11
  -2  -7   6   -0.33    1.90
  -2   7   6    0.21    0.66
  -2  -7   6    0.54    0.62
  -2   7   6   -0.10    1.12
  -2  -7   6    0.88    1.18
  -2  -7   5   40.39    5.40
  -2  -7   5   35.66    2.36
  -2   7   5   37.87    3.47
  -2  -7   5   28.12    3.72
   2  -7  -4   98.79    5.07
  -2  -7   4  101.72    5.83
  -2   7   4  100.80    4.67
   2   7  -3   29.12    2.68
   2  -7  -3   29.71    2.14
   2  -7  -3   53.21    2.48
  -2  -7   3   45.75    2.75
  -2  -7   3   30.57    2.59
  -2   7   3   30.45    1.87
   2   7  -2    0.79    0.83
   2   7  -2    7.78    1.01
   2  -7  -2    7.99    0.85
  -2   7   2    7.59    0.79
  -2  -7   2    0.05    0.93
  -2  -7   2    7.46    1.01
   2   7  -1  178.74    7.22
   2   7  -1  137.84    5.49
   2  -7  -1  170.03    7.11
  -2  -7   1  178.59    8.03
  -2   7   1  177.66    7.34
   2   7   0    0.42    0.28
   2  -7   0   -0.05    0.70
  -2  -7   0    0.32    0.32
  -2   7   0    0.29    0.47
   2   7   1   53.71    2.46
   2  -7   1   46.37    2.95
  -2  -7  -1   47.94    3.30
  -2  -7  -1   49.90    2.63
  -2   7  -1   47.19    3.16
   2  -7   2    0.03    0.36
   2   7   2   -0.00    0.24
  -2   7  -2    0.16    0.69
  -2  -7  -2    0.07    0.47
  -2  -7  -2   -0.17    0.31
   2  -7   3   28.79    2.91
   2   7   3   27.75    1.60
  -2   7  -3   25.88    2.44
  -2  -7  -3   28.78    3.36
  -2   7  -3   23.77    3.41
   2   7   4    0.15    0.40
   2  -7   4    0.49    0.84
   2   7   4    0.10    0.61
  -2   7  -4    0.49    0.78
   2  -7   5   34.52    6.27
  -2  -8   7   20.79    4.23
  -2  -8   7   27.30    4.04
  -2  -8   7   17.34    6.16
  -2   8   6   31.43    3.91
  -2  -8   6   -0.31    3.56
  -2   8   6   31.34    2.53
  -2  -8   6   33.88    3.92
  -2  -8   6   31.76    2.29
  -2  -8   6   29.96    4.07
  -2  -8   5   18.02    3.33
  -2  -8   5   32.28    3.62
  -2   8   5   33.20    2.27
  -2  -8   5   28.51    1.97
   2  -8  -4   -0.16    0.36
  -2   8   4   -0.00    0.27
  -2  -8   4    0.50    0.51
   2  -8  -3   23.02    1.73
  -2  -8   3   34.46    3.09
  -2  -8   3   20.86    2.21
  -2   8   3   24.89    1.60
   2  -8  -2  113.57    4.91
   2   8  -2  124.10    5.61
  -2   8   2  122.17    5.09
  -2  -8   2  117.00    6.30
   2   8  -1  147.37    6.73
   2  -8  -1  134.64    6.08
   2   8  -1  136.69    6.08
  -2  -8   1  146.62    6.31
  -2   8   1  137.71    6.04
   2  -8   0    3.74    0.88
   2   8   0    4.23    0.55
  -2   8   0    4.25    0.89
  -2  -8   0    3.36    0.95
   2   8   1   36.03    1.51
   2  -8   1   32.83    2.47
  -2   8  -1   35.16    2.69
  -2  -8  -1   35.42    2.62
  -2  -8  -1   34.41    1.60
   2  -8   2  320.06   15.04
   2   8   2  325.79   12.00
  -2  -8  -2  311.67   12.17
  -2   8  -2  307.55   14.98
  -2  -8  -2  323.03   15.74
   2  -8   3   17.81    2.34
   2   8   3   18.02    1.46
  -2   8  -3   17.29    2.98
  -2   8  -3   17.11    1.92
  -2  -8  -3   19.48    2.85
   2  -8   4    0.93    1.04
   2   8   4    0.43    0.40
   2   8   4    0.42    0.39
  -2   8  -4    0.66    0.86
   2  -8   5   33.69    6.29
  -2  -9   7   18.05    3.94
  -2  -9   7   26.38    4.45
  -2  -9   7   25.23    4.50
  -2  -9   6    2.55    3.12
  -2   9   6    3.92    1.11
  -2   9   6    3.41    2.03
  -2  -9   6    3.81    3.44
  -2  -9   6    3.35    0.92
  -2  -9   5   14.82    2.75
  -2  -9   5   13.63    1.78
  -2   9   5   13.58    2.87
  -2  -9   5   15.69    2.84
  -2   9   5   15.11    1.53
   2  -9  -4  573.55   26.87
  -2   9   4  589.08   25.41
  -2  -9   4  567.02   28.15
   2  -9  -3   21.35    1.67
  -2  -9   3   19.43    2.19
  -2  -9   3   32.17    2.60
  -2   9   3   23.52    1.52
   2  -9  -2    2.88    0.73
   2   9  -2    3.20    0.87
  -2   9   2    3.34    0.67
  -2  -9   2    3.29    0.91
   2  -9  -1  102.98    4.89
   2   9  -1  112.45    5.42
   2   9  -1   96.96    4.13
  -2   9   1  104.25    5.47
  -2  -9   1  104.84    4.79
   2   9   0  358.99   13.81
   2  -9   0  328.53   14.31
  -2  -9   0  336.81   13.28
  -2   9   0  344.45   14.88
  -2  -9   0  349.69   14.89
   2  -9   1   29.38    3.17
   2   9   1   30.94    1.63
  -2  -9  -1   29.19    1.82
  -2  -9  -1   30.33    2.47
  -2   9  -1   28.23    2.48
   2  -9   2   -0.23    0.31
   2   9   2   -0.03    0.10
  -2   9  -2    0.03    0.36
  -2  -9  -2    0.17    0.19
  -2  -9  -2    0.09    0.60
   2  -9   3   16.07    3.37
   2   9   3   15.19    0.86
  -2   9  -3   13.89    2.92
  -2   9  -3   14.94    1.72
  -2  -9  -3   13.94    2.68
   2  -9   4  126.06    8.19
   2   9   4  127.58    4.77
   2   9   4  131.15    5.20
   2  -9   5   21.93    3.83
  -2 -10   7   15.86    3.84
  -2 -10   7   20.94    4.31
  -2 -10   7   18.06    4.29
  -2 -10   6   13.01    1.95
  -2  10   6   17.18    4.80
  -2 -10   6   14.60    5.09
  -2 -10   6   14.22    3.08
  -2 -10   6    3.18    3.21
  -2  10   6   14.38    1.66
  -2 -10   5   12.52    2.56
  -2 -10   5   10.01    1.01
  -2  10   5    7.99    2.67
  -2  10   5   10.94    1.30
  -2 -10   5   10.09    2.58
   2 -10  -4   12.78    1.50
  -2  10   4   11.98    1.17
  -2 -10   4   12.20    2.19
   2 -10  -3   14.47    1.41
  -2 -10   3   28.90    2.37
  -2 -10   3   14.96    2.03
  -2  10   3   14.93    1.22
   2  10  -2  261.24   11.38
   2 -10  -2  245.03   10.26
  -2  10   2  253.03   10.91
  -2 -10   2  244.20   10.90
   2 -10  -1   91.13    4.49
   2  10  -1   90.27    4.12
   2  10  -1   83.63    3.70
  -2 -10   1   89.28    4.38
  -2  10   1   93.93    4.45
   2  10   0   20.10    1.52
   2 -10   0   18.52    1.73
  -2 -10   0   18.50    1.57
  -2  10   0   18.02    1.68
  -2 -10   0   18.67    1.25
   2  10   1   30.07    1.59
   2 -10   1   27.45    2.40
  -2 -10  -1   29.91    2.51
  -2  10  -1   26.21    2.59
  -2 -10  -1   28.85    1.77
   2  10   2  449.98   16.32
   2 -10   2  434.16   20.92
  -2  10  -2  428.03   21.11
  -2 -10  -2  448.69   22.03
  -2 -10  -2  434.28   15.89
   2 -10   3   12.09    3.26
   2  10   3   12.04    0.82
  -2  10  -3   11.15    1.51
  -2  10  -3   13.39    2.77
  -2 -10  -3   11.84    2.52
   2 -10   4    4.33    1.89
   2 -10   5   20.68    3.81
  -2 -11   7   13.32    3.96
  -2 -11   7   13.15    4.10
  -2 -11   7   13.40    5.63
  -2  11   6    6.92    1.09
  -2 -11   6    5.96    2.51
  -2  11   6    0.23    1.03
  -2 -11   6    2.47    2.43
  -2  11   6    5.44    3.84
  -2 -11   6    5.61    2.24
  -2 -11   5   16.56    1.53
  -2 -11   5   18.06    3.08
  -2 -11   5    8.68    4.39
  -2  11   5   15.28    3.19
  -2  11   5   19.25    1.57
  -2 -11   5    1.25    2.54
   2 -11  -4    0.88    0.74
   2 -11  -4   -0.41    0.97
  -2 -11   4    0.64    1.99
  -2 -11   4    1.64    1.80
  -2  11   4    1.76    0.54
   2 -11  -3    8.59    1.14
  -2  11   3    7.15    0.95
  -2 -11   3    7.30    1.66
  -2 -11   3   20.53    1.95
   2 -11  -2    4.05    0.90
  -2 -11   2    5.52    0.93
  -2 -11   2    5.78    1.75
  -2  11   2    4.62    1.17
   2  11  -1   97.67    4.50
   2  11  -1   92.28    4.03
   2 -11  -1   86.34    4.49
  -2 -11   1   91.42    5.34
  -2  11   1   86.77    4.22
   2 -11   0    7.65    1.77
   2  11   0    4.14    0.94
   2  11   0    6.67    0.99
  -2  11   0    6.27    1.15
  -2 -11   0    6.23    1.06
  -2 -11   0    6.37    1.23
   2 -11   1   18.29    2.03
   2  11   1   19.81    0.96
  -2 -11  -1   19.57    1.06
  -2  11  -1   18.20    2.21
  -2 -11  -1   19.98    2.92
   2 -11   2    0.29    0.91
   2  11   2   -0.10    0.12
  -2  11  -2   -0.00    0.68
  -2 -11  -2    0.23    0.70
  -2 -11  -2   -0.14    0.21
   2 -11   3    8.35    3.01
  -2  11  -3    7.65    2.46
  -2  11  -3    7.68    1.27
  -2 -11  -3    9.06    3.46
   2 -11   4    3.29    1.86
   2 -11   5   20.53    4.05
  -2 -12   6    0.84    2.78
  -2  12   6    6.33    1.11
  -2  12   6    6.39    1.19
  -2 -12   6    7.11    2.55
  -2 -12   6    6.63    2.85
  -2  12   6    5.26    4.64
  -2 -12   5   20.35    3.14
  -2 -12   5   20.10    3.36
  -2 -12   5   18.64    1.42
  -2  12   5   18.39    3.53
  -2  12   5   20.12    1.56
  -2 -12   5    6.05    4.63
   2 -12  -4   -0.00    0.70
  -2 -12   4   -0.21    0.70
  -2  12   4   -0.09    0.49
   2 -12  -3    6.33    1.02
  -2 -12   3    7.96    1.68
  -2  12   3    6.94    0.86
  -2 -12   3    6.29    2.43
   2 -12  -2  139.24    7.09
  -2 -12   2  143.30    6.96
  -2  12   2  146.73    6.24
   2 -12  -1   72.65    4.16
   2  12  -1   84.75    4.08
  -2 -12   1   88.86    3.99
  -2  12   1   74.77    4.70
  -2 -12   1   78.06    4.24
   2 -12   0    7.70    1.39
   2  12   0    8.42    0.76
  -2 -12   0    6.89    1.18
  -2  12   0    7.54    1.31
  -2 -12   0    8.58    0.95
   2 -12   1    6.23    1.46
   2  12   1    7.03    0.53
   2  12   1    5.56    0.86
  -2  12  -1   10.46    2.33
  -2 -12  -1    7.21    1.40
  -2 -12  -1    6.69    0.88
   2 -12   2  213.87   12.46
   2  12   2  213.65    6.53
  -2  12  -2  198.48   10.76
  -2 -12  -2  214.86   11.32
  -2 -12  -2  203.01    6.39
   2 -12   3    3.97    1.71
  -2  12  -3    4.34    1.51
  -2  12  -3    4.21    2.18
  -2 -12  -3    4.48    1.95
   2 -12   4    2.35    1.79
   2 -12   5   13.68    3.58
  -2 -13   6   -0.82    0.78
  -2  13   6    0.34    0.94
  -2 -13   6    0.81    0.88
  -2  13   5   14.49    3.06
  -2 -13   5   11.78    0.87
  -2 -13   5   10.38    4.54
  -2 -13   5    4.29    2.68
  -2 -13   5   13.01    2.70
  -2  13   5   13.26    1.76
   2 -13  -4  186.74    8.28
  -2 -13   4  184.28   10.46
  -2  13   4  193.48    8.56
   2 -13  -3    4.01    0.91
  -2 -13   3    3.22    1.38
  -2  13   3    3.69    0.72
  -2 -13   3    7.12    1.53
   2 -13  -2   11.46    1.35
  -2  13   2   11.23    1.15
  -2 -13   2   12.22    1.69
   2 -13  -1   61.51    4.64
  -2 -13   1   59.72    3.03
  -2 -13   1   60.68    3.57
  -2  13   1   65.38    3.53
   2 -13   0  101.70    5.37
   2  13   0  105.58    4.25
  -2  13   0  102.20    5.30
  -2 -13   0  104.18    5.23
  -2 -13   0  107.88    5.30
   2  13   1    3.76    0.50
   2  13   1    6.71    0.70
   2 -13   1    6.62    1.43
  -2  13  -1    6.67    1.51
  -2 -13  -1    6.09    1.33
  -2 -13  -1    5.88    0.56
   2 -13   2   -0.04    1.23
  -2 -13  -2    0.37    1.37
  -2  13  -2    0.65    1.42
   2 -13   3    4.75    1.90
  -2  13  -3    6.41    1.48
  -2  13  -3    4.18    2.33
  -2 -13  -3    4.40    2.10
   2 -13   4   40.60    6.49
  -2 -14   6   38.58    4.39
  -2  14   6   34.15    5.06
  -2 -14   6   -0.30    3.43
  -2 -14   6   35.62    4.80
  -2 -14   5   12.33    2.70
  -2 -14   5   13.20    4.56
  -2 -14   5    4.86    2.25
  -2  14   5   11.70    3.21
  -2  14   5   13.28    1.70
   2 -14  -4    2.15    0.83
  -2  14   4    1.36    0.89
  -2 -14   4    1.91    1.46
   2 -14  -3   -0.06    1.21
  -2 -14   3    1.30    1.22
  -2 -14   3    9.63    1.37
  -2  14   3    1.41    0.59
   2 -14  -2   52.34    3.04
  -2 -14   2   53.44    3.60
  -2  14   2   54.46    2.86
  -2 -14   2   56.50    2.49
   2 -14  -1   57.95    3.64
  -2 -14   1   64.50    3.32
  -2 -14   1   62.19    4.56
  -2  14   1   61.09    3.39
   2 -14   0    0.69    0.85
  -2 -14   0    0.94    0.56
  -2  14   0    0.75    1.24
  -2 -14   0    1.07    0.69
   2 -14   1    7.18    1.67
  -2  14  -1    7.45    1.73
  -2 -14  -1    9.12    2.34
  -2 -14  -1    7.59    0.64
   2 -14   2   47.01    3.82
  -2 -14  -2   45.58    4.00
  -2  14  -2   42.62    4.13
   2 -14   3    4.15    1.85
  -2  14  -3    4.48    0.86
  -2  14  -3    3.73    2.35
  -2 -14  -3    4.44    2.07
   2 -14   4    0.42    2.00
  -2 -15   6    0.78    1.86
  -2  15   6    0.33    1.99
  -2 -15   6    0.74    1.53
  -2 -15   6    0.71    2.51
  -2 -15   5    4.25    2.36
  -2 -15   5   13.08    3.09
  -2 -15   5   15.41    2.92
  -2  15   5   12.36    5.06
  -2  15   5   11.97    1.09
   2 -15  -4    0.00    0.32
   2 -15  -4    0.56    0.70
  -2 -15   4    0.33    0.85
  -2 -15   4   -1.19    0.85
  -2  15   4    0.33    0.32
  -2 -15   4    0.11    0.14
   2 -15  -3    7.61    1.17
  -2  15   3    7.69    0.97
  -2 -15   3    6.90    1.84
  -2 -15   3    7.86    0.61
  -2 -15   3    3.37    2.91
   2 -15  -2    1.80    1.18
  -2  15   2    1.11    0.97
  -2 -15   2    0.12    1.24
  -2 -15   2    1.23    0.97
  -2 -15   2    1.39    0.47
   2 -15  -1   52.23    3.42
  -2  15   1   48.57    3.15
  -2 -15   1   54.44    3.00
  -2 -15   1   51.69    3.26
   2 -15   0    0.24    0.76
  -2 -15   0    0.32    0.75
  -2 -15   0    0.46    0.61
  -2  15   0    0.66    0.72
   2 -15   1    2.54    1.44
  -2  15  -1    4.21    1.50
  -2 -15  -1    3.69    0.75
  -2 -15  -1    3.63    1.28
   2 -15   2   -0.08    0.66
  -2 -15  -2   -0.00    0.70
  -2  15  -2   -0.20    0.78
   2 -15   3    4.27    1.96
  -2  15  -3    3.97    0.74
  -2  15  -3    5.36    2.35
  -2 -15  -3    4.46    2.10
   2 -15   4    1.52    2.77
  -2 -16   6    0.96    1.65
  -2  16   6    1.30    1.99
  -2 -16   6    0.14    1.52
  -2 -16   6    0.22    1.92
  -2 -16   5   10.03    4.07
  -2 -16   5    9.18    3.03
  -2 -16   5    3.33    2.35
  -2  16   5    9.49    3.20
  -2  16   5   10.23    1.37
   2 -16  -4   -0.08    1.07
  -2 -16   4    1.20    1.37
  -2 -16   4    7.82    1.13
  -2 -16   4   -0.41    1.31
  -2  16   4    0.00    0.50
   2 -16  -3    0.02    0.96
  -2  16   3    3.94    0.80
  -2 -16   3    3.09    1.54
  -2 -16   3   11.52    2.55
  -2 -16   3    4.62    0.68
   2 -16  -2    0.85    0.70
  -2 -16   2    1.48    1.37
  -2 -16   2    0.68    1.44
  -2 -16   2    0.57    0.65
  -2  16   2    0.76    0.61
   2 -16  -1   42.28    3.15
  -2 -16   1   46.17    2.75
  -2 -16   1   46.64    3.24
  -2  16   1   40.83    2.93
  -2 -16   1   41.77    2.86
   2 -16   0    0.02    0.70
  -2 -16   0    0.46    0.57
  -2  16   0    0.39    0.66
  -2 -16   0    0.12    0.46
   2 -16   1   10.26    2.11
  -2 -16  -1   10.60    0.82
  -2  16  -1   11.04    2.10
  -2 -16  -1   11.11    1.90
   2 -16   2    9.14    2.15
  -2  16  -2    8.00    2.41
  -2 -16  -2    9.83    2.12
   2 -16   3    2.84    1.87
  -2  16  -3    3.36    0.60
  -2  16  -3   -0.53    2.23
   2 -16   4   -0.30    2.00
  -2 -17   6   -0.23    2.08
  -2 -17   6   -0.17    2.41
  -2  17   6   -0.53    2.50
  -2 -17   6    5.49    2.03
  -2 -17   5    7.24    2.97
  -2 -17   5    4.51    2.36
  -2  17   5    7.54    1.20
  -2  17   5    8.94    3.15
  -2 -17   5    8.86    2.64
   2 -17  -4   53.20    3.03
  -2 -17   4   50.43    5.04
  -2 -17   4   58.04    4.98
  -2  17   4   54.36    2.66
   2 -17  -3    1.26    1.27
  -2 -17   3    1.17    0.54
  -2 -17   3    1.82    1.32
  -2 -17   3   10.19    2.25
  -2  17   3    1.47    0.63
   2 -17  -2    3.02    1.00
  -2 -17   2    2.79    0.97
  -2 -17   2    2.07    2.13
  -2  17   2    3.21    0.84
   2 -17  -1   44.62    3.32
  -2 -17   1   45.49    2.85
  -2 -17   1   45.63    3.08
  -2  17   1   46.58    3.14
  -2 -17   1   42.71    3.21
   2 -17   0   28.55    2.82
  -2 -17   0   30.11    2.45
  -2 -17   0   27.30    2.00
  -2  17   0   27.52    3.82
   2 -17   1   11.50    2.29
  -2 -17  -1   11.49    2.01
  -2 -17  -1   11.81    1.25
  -2 -17  -1   13.16    0.90
  -2  17  -1   12.00    2.28
   2 -17   2    0.25    0.94
  -2  17  -2    0.47    1.06
  -2 -17  -2    0.10    0.90
   2 -17   3    6.83    2.22
  -2  17  -3    4.88    0.80
   2 -17   4    9.37    4.67
  -2 -18   6   14.33    3.66
  -2 -18   6   12.87    4.28
  -2 -18   6    0.99    5.21
  -2  18   6   11.33    4.55
  -2 -18   5   11.74    3.03
  -2 -18   5   11.30    3.40
  -2 -18   5    4.64    2.64
  -2  18   5   12.84    3.56
  -2  18   5   10.62    0.90
   2 -18  -4    0.01    0.53
  -2  18   4    0.64    1.20
  -2  18   4    0.40    0.40
  -2 -18   4    0.06    1.16
  -2 -18   4    0.69    1.10
   2 -18  -3    2.03    0.93
  -2 -18   3    2.32    0.42
  -2 -18   3    6.62    2.56
  -2  18   3    2.59    1.14
  -2 -18   3    2.54    1.57
   2 -18  -2    1.67    0.93
  -2 -18   2    1.83    1.11
  -2 -18   2    1.36    1.89
  -2 -18   2    1.35    0.56
  -2  18   2    2.62    1.16
   2 -18  -1   52.20    3.85
  -2 -18   1   52.98    3.82
  -2  18   1   55.27    3.67
  -2 -18   1   59.19    4.11
  -2 -18   1   55.15    3.55
   2 -18   0    1.25    1.06
  -2 -18   0    0.96    1.12
  -2  18   0    0.84    0.99
  -2 -18   0    1.30    0.84
   2 -18   1    8.15    2.13
  -2 -18  -1    7.58    0.78
  -2  18  -1    8.84    2.15
  -2 -18  -1    9.03    0.76
  -2 -18  -1    8.60    1.84
   2 -18   2   95.34    8.59
  -2  18  -2   84.97    9.23
  -2 -18  -2   93.12    6.50
   2 -18   3    6.47    2.47
   2 -18   4    0.71    2.59
  -2 -19   6   -0.03    1.49
  -2  19   6    0.23    1.82
  -2 -19   6    0.46    1.77
  -2 -19   6    0.58    2.31
  -2 -19   5    4.43    2.72
  -2 -19   5   15.65    3.62
  -2 -19   5   13.60    3.21
  -2  19   5   10.40    3.77
   2 -19  -4   -0.12    0.72
   2 -19  -4   -0.59    0.45
  -2 -19   4   -0.22    0.81
  -2 -19   4   -0.22    0.93
  -2  19   4    0.14    0.34
  -2 -19   4   -0.08    1.01
  -2  19   4   -0.07    1.07
   2 -19  -3    6.42    1.27
  -2 -19   3    8.23    3.36
  -2 -19   3    5.83    0.83
  -2 -19   3    5.03    2.09
  -2 -19   3    6.00    2.00
  -2  19   3    6.34    1.01
   2 -19  -2   10.04    1.66
  -2 -19   2    6.71    1.93
  -2 -19   2   11.73    1.10
  -2 -19   2   11.13    2.12
  -2  19   2   11.48    1.46
   2 -19  -1   49.69    3.98
  -2  19   1   55.79    3.94
  -2 -19   1   52.89    3.63
  -2 -19   1   60.62    3.56
  -2 -19   1   58.01    4.17
   2 -19   0    7.17    1.73
  -2 -19   0    7.60    2.11
  -2 -19   0    4.50    1.86
  -2  19   0    5.49    1.65
  -2 -19   0    5.97    1.11
   2 -19   1    8.85    2.11
  -2 -19  -1    8.46    0.80
  -2 -19  -1    7.56    1.91
  -2  19  -1    6.08    3.34
  -2 -19  -1    7.57    1.18
   2 -19   2    0.06    1.61
  -2  19  -2   -0.14    1.15
  -2 -19  -2   -0.47    0.97
   2 -19   3    6.05    2.47
   2 -19   4    3.26    3.75
  -2 -20   6   20.27    5.28
  -2 -20   6   22.92    4.50
  -2 -20   6    3.61    6.35
  -2  20   6   17.61    8.56
  -2 -20   5    4.80    2.55
  -2 -20   5    7.98    3.22
  -2  20   5    5.31    3.32
  -2 -20   5    6.82    4.27
   2 -20  -4    0.49    0.98
  -2 -20   4   -0.14    1.41
  -2  20   4    0.54    0.45
  -2  20   4    0.37    1.49
  -2 -20   4    0.72    1.26
   2 -20  -3    7.94    1.47
  -2 -20   3    9.12    2.31
  -2  20   3    8.84    1.19
  -2 -20   3    7.21    2.46
  -2 -20   3    9.28    3.81
   2 -20  -2  125.93    7.89
  -2 -20   2  127.13    5.52
  -2  20   2  126.73    6.26
  -2 -20   2  127.91    7.49
  -2 -20   2  117.89    7.41
   2 -20  -1   44.08    3.78
  -2 -20   1   45.18    5.00
  -2 -20   1   46.73    3.86
  -2 -20   1   43.18    3.30
  -2  20   1   41.46    4.47
  -2 -20   1   43.62    3.44
   2 -20   0    5.95    1.74
  -2 -20   0    5.94    1.43
  -2 -20   0    5.67    1.28
  -2  20   0    3.66    2.60
  -2 -20   0    6.39    1.17
   2 -20   1   10.73    2.37
  -2  20  -1    7.28    2.51
  -2 -20  -1    9.95    3.13
  -2 -20  -1    8.98    0.93
  -2 -20  -1   10.62    0.91
   2 -20   2  126.39   10.55
  -2  20  -2  119.11    8.84
  -2 -20  -2  122.30    8.19
   2 -20   3    6.55    4.08
   2 -20   4    1.17    1.97
  -2 -21   5   -0.04    2.84
  -2 -21   5    7.64    2.31
  -2 -21   5    1.92    2.43
  -2  21   5    1.40    4.62
   2 -21  -4  100.12    5.00
  -2 -21   4  104.24    8.43
  -2 -21   4  112.64    8.13
  -2  21   4  109.82    4.70
  -2  21   4  107.29    8.75
   2 -21  -3    2.24    1.85
  -2 -21   3    2.75    2.15
  -2  21   3    4.47    0.96
  -2 -21   3   12.22    3.37
  -2 -21   3    3.68    1.93
   2 -21  -2    5.15    2.25
  -2  21   2    6.11    1.23
  -2 -21   2    5.09    1.40
  -2 -21   2    4.73    1.79
  -2 -21   2    3.03    1.91
   2 -21  -1   35.71    3.59
  -2 -21   1   41.23    2.88
  -2  21   1   38.60    3.28
  -2 -21   1   37.30    3.34
  -2 -21   1   38.05    3.18
  -2 -21   1   35.99    4.79
   2 -21   0  104.88    6.61
  -2 -21   0  109.05    5.38
  -2 -21   0  105.79    6.14
  -2 -21   0  104.84    5.51
  -2  21   0  101.80    6.54
   2 -21   1   10.16    2.54
  -2  21  -1   12.65    2.67
  -2 -21  -1   11.39    0.98
  -2 -21  -1   10.42    1.49
  -2 -21  -1   11.55    2.22
   2 -21   2   -0.37    1.39
  -2  21  -2    0.06    1.05
   2 -21   3    8.18    4.45
   2 -21   4   47.41    6.23
  -2 -22   5   -0.02    2.82
  -2 -22   5    2.67    2.22
  -2 -22   5    3.34    2.40
  -2  22   5    4.97    2.94
   2 -22  -4    0.26    0.49
  -2 -22   4    0.47    1.05
  -2  22   4    0.79    1.31
  -2 -22   4   -0.26    1.25
  -2  22   4    0.04    0.37
   2 -22  -3    0.98    1.44
  -2  22   3    1.07    1.15
  -2 -22   3    1.63    1.71
  -2 -22   3    8.10    2.75
  -2  22   3    0.52    1.70
  -2 -22   3    0.54    1.46
   2 -22  -2   25.15    3.60
  -2 -22   2   25.10    4.32
  -2  22   2   25.11    2.19
  -2 -22   2   22.52    3.16
  -2 -22   2    1.04    2.62
  -2 -22   2   25.16    1.74
   2 -22  -1   27.87    3.09
  -2 -22   1   27.08    4.57
  -2 -22   1   27.59    2.86
  -2 -22   1   28.75    4.26
  -2 -22   1   28.60    3.32
  -2  22   1   29.80    4.09
   2 -22   0    0.73    1.17
  -2 -22   0    1.79    0.98
  -2 -22   0    0.64    0.90
  -2 -22   0    0.48    1.28
  -2  22   0    0.87    1.16
   2 -22   1    5.86    2.15
  -2 -22  -1    7.76    1.99
  -2 -22  -1    5.96    1.33
  -2 -22  -1    7.42    1.26
  -2  22  -1    6.84    2.35
   2 -22   2   44.84    4.57
  -2  22  -2   35.73    1.63
  -2  22  -2   44.36    5.27
   2 -22   3    5.98    4.14
  -2 -23   5    1.45    2.11
  -2  23   5    2.59    2.87
  -2 -23   5    4.00    2.31
  -2 -23   5   -0.15    2.80
   2 -23  -4   33.94    2.42
  -2  23   4   34.57    5.31
  -2  23   4   36.68    2.02
  -2 -23   4   38.80    6.44
  -2 -23   4   -0.92    3.48
  -2 -23   4   38.08    5.13
   2 -23  -3    1.41    0.94
  -2 -23   3    1.84    1.75
  -2  23   3    1.14    0.77
  -2  23   3    0.60    1.81
  -2 -23   3    1.29    1.46
  -2 -23   3    0.22    2.79
   2 -23  -2    2.69    1.42
  -2 -23   2    2.33    1.88
  -2 -23   2    9.15    1.87
  -2 -23   2    2.50    1.69
  -2  23   2    3.03    1.22
   2 -23  -1   14.67    2.43
  -2  23   1   14.14    2.26
  -2 -23   1   14.66    3.81
  -2 -23   1   15.35    2.31
  -2 -23   1   15.48    2.38
  -2 -23   1   15.29    1.91
   2 -23   0    9.33    2.25
  -2 -23   0    9.04    1.90
  -2  23   0    7.60    3.54
  -2 -23   0    9.26    1.74
  -2 -23   0   11.69    1.61
   2 -23   1    0.74    1.17
  -2  23  -1    0.03    2.03
  -2 -23  -1    0.45    0.45
  -2 -23  -1    0.53    0.47
   2 -23   2    0.01    0.99
  -2  23  -2   -0.33    1.24
   2 -23   3    1.42    1.97
  -2 -24   5    0.12    2.26
  -2 -24   5    0.35    2.88
  -2  24   5    1.03    2.45
  -2 -24   5    1.25    1.87
  -2  24   4    1.51    2.03
  -2 -24   4   -0.04    1.95
  -2 -24   4    3.02    1.54
  -2 -24   4    1.50    1.57
  -2  24   4    0.01    0.85
   2 -24  -3    0.92    0.93
  -2 -24   3    0.41    1.45
  -2  24   3    1.60    0.77
  -2  24   3    1.67    1.80
  -2 -24   3    0.20    1.78
  -2 -24   3   -1.06    1.80
   2 -24  -2   20.66    2.53
  -2  24   2   21.37    2.21
  -2 -24   2   20.91    5.20
  -2 -24   2    0.10    4.44
  -2 -24   2   21.37    2.96
   2 -24  -1    7.68    2.01
  -2 -24   1    5.08    2.97
  -2  24   1    8.56    1.86
  -2 -24   1    7.52    3.36
  -2 -24   1    6.91    1.91
   2 -24   0    0.57    1.13
  -2 -24   0    0.99    0.88
  -2 -24   0   -0.02    1.28
  -2  24   0    0.54    1.16
   2 -24   1    0.41    0.91
  -2 -24  -1    0.19    0.36
  -2 -24  -1    0.04    0.33
  -2  24  -1   -0.04    1.01
   2 -24   2    0.00    0.46
   2 -24   3    0.00    0.73
  -2 -25   5   -0.12    2.67
  -2  25   5    0.26    2.20
  -2 -25   5    1.88    2.64
  -2 -25   5    0.04    2.09
  -2 -25   4    7.00    2.46
  -2 -25   4   -0.04    3.11
  -2 -25   4   -0.39    3.68
  -2  25   4    7.31    3.14
   2 -25  -3    0.16    0.76
  -2  25   3    0.39    0.96
  -2 -25   3    1.65    1.46
  -2  25   3   -0.78    2.38
  -2 -25   3   -0.15    1.44
  -2 -25   3    0.29    1.16
   2 -25  -2   -0.10    1.20
  -2  25   2    0.56    1.04
  -2  25   2   -0.24    1.70
  -2 -25   2    0.08    2.21
  -2 -25   2   22.41    2.65
  -2 -25   2    0.17    2.69
   2 -25  -1    5.31    1.84
  -2 -25   1    4.28    1.77
  -2  25   1    7.17    2.67
  -2 -25   1    4.65    1.79
  -2 -25   1    6.00    3.09
   2 -25   0   21.58    3.09
  -2 -25   0   21.85    2.40
  -2 -25   0   21.24    2.61
  -2  25   0   19.74    3.26
   2 -25   1    0.67    1.28
  -2 -25  -1    0.96    0.76
  -2 -25  -1    0.65    0.53
  -2  25  -1    0.03    0.67
  -2  25  -1   -0.14    1.43
   2 -25   2   -0.00    0.61
   2 -25   3   -0.00    0.54
  -2 -26   4    0.34    1.66
  -2 -26   4    0.28    2.11
  -2 -26   4    3.03    2.67
  -2  26   4    0.09    3.50
   2 -26  -3    0.52    0.85
  -2  26   3   -0.19    1.64
  -2 -26   3   -0.03    1.63
  -2  26   3    0.40    0.70
  -2 -26   3    0.68    1.29
  -2 -26   3    1.23    1.65
   2 -26  -2   10.34    2.06
  -2 -26   2   10.11    2.44
  -2 -26   2    0.35    3.53
  -2 -26   2    9.42    4.54
  -2  26   2   10.34    1.83
  -2  26   2    8.39    2.97
   2 -26  -1    5.76    1.94
  -2  26   1    3.14    2.13
  -2  26   1    4.68    1.80
  -2 -26   1    3.90    3.25
  -2 -26   1    4.76    1.78
  -2 -26   1    5.98    1.85
   2 -26   0    0.54    0.56
  -2 -26   0   -0.02    0.67
  -2  26   0   -0.29    0.45
  -2  26   0   -0.68    0.95
  -2 -26   0    0.14    0.46
   2 -26   1    0.00    1.96
  -2  26  -1    0.33    0.68
  -2 -26  -1    0.65    0.51
  -2 -26  -1    0.71    0.87
  -2  26  -1   -0.39    1.46
   2 -26   2   -0.01    0.74
   2 -26   3   -0.00    0.67
  -2 -27   4   -0.23    1.70
  -2  27   4    0.50    1.76
  -2 -27   4    0.66    2.22
  -2 -27   4    0.19    2.09
   2 -27  -3    0.55    0.96
  -2  27   3    2.12    1.87
  -2 -27   3    0.90    1.85
  -2  27   3    0.27    1.24
  -2 -27   3    0.02    1.86
  -2 -27   3    0.59    1.38
   2 -27  -2    2.74    1.80
  -2 -27   2    2.54    4.23
  -2 -27   2    3.66    2.14
  -2  27   2    3.51    4.11
  -2 -27   2   19.45    2.24
  -2  27   2    2.70    1.62
   2 -27  -1    4.69    1.94
  -2  27   1    4.40    2.11
  -2  27   1    4.60    1.90
  -2 -27   1    4.49    1.86
  -2 -27   1    4.45    3.46
  -2 -27   1    6.53    1.97
   2 -27   0   24.25    4.96
  -2  27   0   23.83    3.69
  -2 -27   0   23.06    2.62
  -2 -27   0   21.24    2.89
  -2  27   0   21.72    4.20
   2 -27   1    0.00    1.62
  -2  27  -1    0.14    1.19
  -2  27  -1    0.20    0.88
   2 -27   2   -0.00    0.67
  -2  28   4    2.14    1.81
  -2 -28   4   -1.40    1.45
  -2 -28   4   -0.38    1.76
  -2 -28   4    0.85    1.33
   2 -28  -3    0.85    1.11
  -2 -28   3    0.71    2.13
  -2  28   3    1.34    2.13
  -2  28   3    0.87    0.91
  -2 -28   3    2.55    2.17
  -2 -28   3   -0.03    2.49
   2 -28  -2   16.05    3.66
  -2 -28   2    1.98    2.53
  -2  28   2   15.39    3.32
  -2 -28   2   13.13    2.78
  -2 -28   2   15.93    3.49
  -2  28   2   14.17    3.36
   2 -28  -1    7.73    2.28
  -2  28   1    5.32    2.52
  -2  28   1    8.69    2.29
  -2 -28   1    6.91    2.60
  -2 -28   1    8.89    2.36
  -2 -28   1    8.16    2.16
   2 -28   0    2.52    2.39
  -2 -28   0    2.18    1.42
  -2 -28   0    0.00    1.97
  -2  28   0    2.43    1.35
  -2  28   0   -0.08    1.79
   2 -28   1    0.02    0.71
   2 -28   2    0.00    0.43
  -2 -29   4   48.69    6.96
  -2 -29   4   51.50    5.56
  -2 -29   4   -0.82    4.89
  -2  29   4   48.21    7.11
   2 -29  -3    2.28    1.25
  -2 -29   3    4.55    2.37
  -2  29   3   -0.13    0.99
  -2  29   3    6.04    3.82
  -2 -29   3    3.34    2.40
  -2 -29   3   -0.27    1.76
   2 -29  -2   12.60    3.87
  -2 -29   2    7.26    2.88
  -2 -29   2   40.31    3.42
  -2 -29   2    9.08    3.71
  -2  29   2   10.21    2.39
  -2  29   2    6.52    3.68
   2 -29  -1    9.92    2.42
  -2  29   1    5.19    2.69
  -2  29   1    9.45    2.45
  -2 -29   1    9.69    2.49
  -2 -29   1    7.46    3.56
  -2 -29   1    6.76    2.78
   2 -29   0   46.75    4.85
  -2 -29   0   50.80    4.10
  -2  29   0   48.47    5.41
  -2  29   0   46.82    6.16
  -2 -29   0   48.54    4.45
   2 -29   1    0.03    0.81
   2 -29   2   -0.00    0.57
  -2  30   3    2.86    2.55
  -2 -30   3    3.25    2.56
  -2 -30   3    1.21    2.55
  -2 -30   3   -0.10    1.85
   2 -30  -2   71.47    7.12
  -2 -30   2   72.38    7.15
  -2  30   2   70.75    9.93
  -2 -30   2   74.08    6.03
  -2  30   2   40.37    4.43
   2 -30  -1    4.54    1.82
  -2  30   1    6.12    3.28
  -2  30   1   -0.01    1.90
  -2 -30   1    5.48    2.15
  -2 -30   1    2.56    1.88
  -2 -30   1   -0.02    1.74
   2 -30   0   -0.10    1.12
  -2 -30   0    0.80    1.05
  -2  30   0    0.22    0.98
  -2 -30   0    0.00    1.44
   2 -30   1   -0.03    0.87
  -2  31   3    0.05    0.95
  -2 -31   3    0.12    1.50
  -2 -31   3    0.04    1.07
  -2 -31   3   -0.06    0.74
   2 -31  -2    0.95    2.14
  -2 -31   2    0.15    1.58
  -2 -31   2    0.95    2.13
  -2  31   2    1.91    2.11
  -2 -31   2    2.01    1.64
   2 -31  -1    5.39    1.99
  -2  31   1    3.47    2.30
  -2 -31   1    0.01    2.98
  -2 -31   1    2.73    2.38
   2 -31   0   -0.29    0.88
  -2 -31   0    0.00    0.72
  -2 -31   0    0.57    0.84
  -2  31   0   -0.07    1.27
   2 -31   1   -0.16    1.21
   2 -32  -2    6.06    1.94
  -2  32   2    5.51    2.93
  -2 -32   2    0.74    2.26
  -2 -32   2    0.14    2.22
  -2 -32   2    7.51    3.00
   2 -32  -1    0.02    2.64
  -2  32   1    2.77    1.98
  -2 -32   1    0.00    1.67
  -2 -32   1    3.48    2.07
   2 -32   0   -0.23    0.82
  -2  32   0    0.11    0.73
   2 -33  -1    6.75    2.17
  -2  33   1    6.20    2.63
  -2 -33   1    4.43    2.75
  -2 -33   1   -0.00    2.14
   2 -33   0    0.17    1.10
  -3   0   7    0.38    1.14
  -3   0   6   33.71    3.86
   3   0  -5   -0.30    0.94
  -3   0   5   -0.39    0.81
   3   0  -4   44.59    3.73
  -3   0   4   43.63    3.49
   3   0  -3   -0.19    0.54
  -3   0   3   -0.10    0.49
   3   0  -2    7.29    1.21
  -3   0   2    8.16    1.21
   3   0  -1    0.12    0.36
  -3   0   1    0.04    0.39
   3   0   0  109.15    6.08
  -3   0   0  101.54    5.25
   3   0   1    0.05    0.34
  -3   0  -1    0.03    0.71
   3   0   2    6.53    1.29
  -3   0  -2    6.74    2.73
  -3   0  -2    5.34    1.60
   3   0   3    0.30    0.56
  -3   0  -3    0.04    0.77
  -3   0  -3   -0.20    0.75
   3   0   4    9.81    3.12
  -3   0  -4    8.70    2.63
  -3   1   7    1.26    2.44
  -3  -1   7    1.73    1.66
  -3   1   6   37.74    3.95
  -3  -1   6   37.57    5.84
   3  -1  -5   54.72    4.45
   3   1  -5   54.70    6.21
  -3  -1   5   50.62    3.99
  -3   1   5   53.14    5.17
   3  -1  -4    1.23    3.44
   3  -1  -4   42.67    3.36
   3   1  -4   41.25    3.38
  -3  -1   4   43.09    3.15
  -3   1   4   41.76    3.01
   3   1  -3    3.04    1.71
   3  -1  -3    3.55    1.70
  -3   1   3    3.44    1.02
  -3  -1   3    3.63    1.60
   3  -1  -2   11.31    1.40
   3   1  -2   11.06    1.35
  -3   1   2   12.13    1.42
  -3  -1   2   12.44    1.45
   3  -1  -1   57.55    3.76
   3   1  -1   62.13    3.14
  -3  -1   1   60.36    3.26
  -3   1   1   58.89    3.21
   3  -1   0   86.62    4.56
   3   1   0   90.72    4.55
  -3  -1   0   91.98    5.84
  -3   1   0   88.67    4.66
   3   1   1    0.15    0.37
   3  -1   1   -0.07    0.40
  -3   1  -1   -0.10    0.51
  -3  -1  -1    0.31    0.46
   3   1   2   12.19    1.61
   3  -1   2   12.51    1.69
  -3   1  -2    9.95    2.04
  -3   1  -2   12.31    2.09
  -3  -1  -2   12.08    2.24
  -3  -1  -2   12.76    2.83
   3  -1   3   52.66    3.76
   3   1   3   48.36    3.48
  -3   1  -3   49.30    4.32
  -3   1  -3   49.06    4.41
  -3  -1  -3   49.06    4.46
  -3  -1  -3   48.51    4.11
   3  -1   4    6.58    1.90
   3   1   4    5.56    1.71
  -3   1  -4    5.86    2.27
  -3  -1  -4    5.44    2.31
  -3   2   7   88.90    6.57
  -3  -2   7   87.94    9.33
  -3  -2   6   40.97    4.37
  -3   2   6   42.85    4.06
   3  -2  -5    0.39    0.97
   3   2  -5    0.39    1.00
  -3  -2   5   -0.10    0.89
  -3   2   5    0.80    0.79
   3   2  -4   39.61    4.90
   3   2  -4   50.99    4.83
   3  -2  -4   38.91    3.40
   3  -2  -4   49.12    3.30
  -3   2   4   39.12    3.11
  -3  -2   4   37.67    3.22
   3  -2  -3  372.49   16.90
   3   2  -3  370.28   17.06
  -3  -2   3  373.75   17.00
  -3   2   3  369.01   16.69
   3  -2  -2   14.63    1.62
   3   2  -2   14.82    1.55
  -3   2   2   14.41    2.25
  -3  -2   2   14.69    1.62
   3   2  -1   -0.10    0.64
   3  -2  -1    0.21    0.43
  -3   2   1    0.10    0.71
  -3  -2   1    0.40    0.47
   3   2   0   89.08    4.47
   3  -2   0   95.13    5.68
  -3   2   0   87.94    4.75
  -3  -2   0   85.93    4.60
   3   2   1   47.10    2.71
   3  -2   1   49.70    2.98
  -3   2  -1   45.93    3.28
  -3  -2  -1   45.63    2.96
   3  -2   2   14.67    1.90
   3   2   2   15.00    1.66
  -3   2  -2   16.31    2.34
  -3  -2  -2   15.79    2.45
  -3  -2  -2   14.60    2.97
  -3   2  -2   15.26    2.31
   3  -2   3   -0.13    0.88
   3   2   3   -0.11    0.47
  -3   2  -3    0.07    0.69
  -3   2  -3    0.04    0.75
  -3  -2  -3   -0.50    0.72
  -3  -2  -3    0.19    0.63
   3  -2   4    8.75    2.09
   3   2   4    6.52    2.72
  -3   2  -4    5.89    2.42
  -3  -2  -4    9.80    2.54
  -3  -3   7    0.77    1.30
  -3   3   7   -0.08    1.68
  -3   3   6   32.02    3.50
  -3  -3   6   33.72    4.08
   3   3  -5    2.54    1.58
   3  -3  -5    3.06    2.33
  -3  -3   5    2.62    1.39
  -3   3   5    2.77    1.88
   3  -3  -4   54.33    5.29
   3   3  -4   51.14    4.15
  -3  -3   4   47.67    3.70
  -3   3   4   58.61    4.76
   3   3  -3    0.39    1.04
   3  -3  -3    0.07    0.97
  -3  -3   3    0.33    0.99
  -3   3   3    0.41    0.56
   3   3  -2   14.01    1.52
   3  -3  -2   14.09    1.55
  -3   3   2   13.72    1.49
  -3  -3   2   11.60    1.55
   3   3  -1  130.81    5.81
   3  -3  -1  127.22    5.87
  -3  -3   1  126.01    5.90
  -3   3   1  130.14    5.99
   3   3   0  109.81    5.10
   3  -3   0  108.58    5.65
  -3   3   0  106.39    5.75
  -3  -3   0  117.44    6.62
   3  -3   1    0.21    0.79
   3   3   1    0.24    0.41
  -3  -3  -1    0.16    0.80
  -3   3  -1    0.14    0.64
   3  -3   2   18.62    3.03
   3   3   2   16.85    2.38
  -3   3  -2   17.46    2.44
  -3   3  -2   16.84    2.54
  -3  -3  -2   17.67    3.05
  -3  -3  -2   17.89    2.65
   3  -3   3  193.39   10.41
   3   3   3  193.86    9.27
  -3   3  -3  188.97   12.48
  -3   3  -3  184.56   10.89
  -3  -3  -3  187.19   10.98
  -3  -3  -3  191.33    9.82
   3  -3   4    9.82    3.60
   3   3   4   10.84    1.88
  -3   3  -4   10.26    2.64
  -3  -3  -4   10.46    2.81
  -3  -4   7    2.08    1.88
  -3   4   7    1.42    1.45
  -3   4   6   34.05    3.61
  -3  -4   6   34.03    6.03
   3   4  -5    1.45    1.51
   3  -4  -5    1.97    1.36
  -3  -4   5    0.89    2.13
  -3   4   5    2.46    1.10
   3   4  -4   54.81    4.29
   3  -4  -4   53.40    3.92
  -3  -4   4   51.57    3.98
  -3   4   4   55.42    3.71
   3   4  -3    0.57    0.77
   3  -4  -3    0.64    0.72
  -3   4   3    0.53    0.99
  -3  -4   3    0.71    0.72
   3   4  -2   31.67    3.05
   3  -4  -2   30.94    2.34
  -3   4   2   31.39    2.32
  -3  -4   2   30.78    2.38
   3   4  -1    2.76    0.79
   3  -4  -1    2.56    0.89
  -3   4   1    4.06    0.96
  -3  -4   1    4.08    0.92
   3   4   0  121.29    6.25
   3  -4   0  114.63    6.83
  -3  -4   0  113.85    5.58
  -3   4   0  110.05    5.80
   3   4   1   -0.04    0.63
   3  -4   1    0.32    0.55
  -3  -4  -1    0.31    0.49
  -3   4  -1    0.27    1.04
   3  -4   2   22.39    2.43
   3   4   2   22.24    1.88
  -3  -4  -2   22.33    4.32
  -3   4  -2   20.31    2.99
  -3   4  -2   21.34    2.59
  -3  -4  -2   21.18    2.19
   3  -4   3    0.10    0.68
   3   4   3    0.09    0.76
  -3   4  -3    0.37    1.16
  -3   4  -3   -0.17    0.92
  -3  -4  -3    0.13    1.34
  -3  -4  -3    0.18    0.62
   3  -4   4    9.95    2.48
   3   4   4   11.91    2.75
  -3   4  -4   10.13    2.61
  -3  -4  -4   12.56    4.44
  -3  -5   7    3.25    3.33
  -3   5   7    2.01    2.46
  -3  -5   6   51.63    5.30
  -3   5   6   50.20    5.71
   3  -5  -5   60.08    4.55
  -3   5   5   61.87    4.06
  -3  -5   5   55.34    4.61
   3  -5  -4   30.92    2.88
   3   5  -4   32.01    3.31
  -3   5   4   30.43    2.52
  -3  -5   4   33.18    3.07
   3   5  -3    3.21    1.85
   3  -5  -3    2.64    1.75
  -3  -5   3    3.20    1.17
  -3   5   3    4.62    1.00
   3   5  -2  123.66    4.87
   3   5  -2   52.69    3.42
   3  -5  -2   53.15    3.48
  -3  -5   2   53.03    4.51
   3  -5  -1  373.57   16.63
   3   5  -1  382.77   16.38
  -3  -5   1  387.15   17.85
  -3   5   1  376.27   16.69
   3  -5   0  100.76    5.39
   3   5   0  102.37    4.71
  -3   5   0   94.74    5.38
  -3  -5   0  108.04    6.13
   3   5   1   -0.04    0.45
   3  -5   1    2.06    0.66
  -3  -5  -1    0.28    1.32
  -3   5  -1    0.03    0.80
  -3  -5  -1    0.31    0.55
   3   5   2   29.23    2.18
   3  -5   2   29.11    2.91
  -3   5  -2   29.86    4.90
  -3   5  -2   29.45    4.19
  -3  -5  -2   28.48    2.48
  -3  -5  -2   30.26    3.48
   3  -5   3  252.56   13.41
   3   5   3  250.49   11.37
  -3   5  -3  234.21   13.82
  -3   5  -3  241.05   14.70
  -3  -5  -3  244.54   13.98
  -3  -5  -3  235.38   11.36
   3  -5   4   12.91    2.77
   3   5   4   12.46    1.89
  -3   5  -4   12.03    2.74
  -3  -5  -4   14.50    4.50
  -3  -6   7  112.75    9.06
  -3   6   7  112.63    7.36
  -3  -6   6   41.96    4.48
  -3  -6   6    0.34    3.93
  -3   6   6   45.27    3.52
   3  -6  -5    1.07    1.07
  -3   6   5    0.70    0.86
  -3  -6   5    0.70    1.17
   3   6  -4   29.33    3.19
   3  -6  -4   31.53    3.90
  -3  -6   4   27.02    3.00
  -3   6   4   30.35    2.44
   3   6  -3  671.33   31.71
   3  -6  -3  658.88   30.59
  -3   6   3  685.98   31.47
  -3  -6   3  647.05   30.84
   3  -6  -2   39.08    2.74
   3   6  -2   40.76    2.76
  -3  -6   2   42.26    2.94
  -3   6   2   40.40    2.74
   3  -6  -1    1.75    0.82
   3   6  -1    1.68    0.98
  -3   6   1    1.70    0.78
  -3  -6   1    1.21    0.78
   3  -6   0  108.14    5.79
   3   6   0  114.01    5.15
  -3   6   0  114.81    7.30
  -3  -6   0  108.93    5.33
   3  -6   1  295.18   13.90
   3   6   1  306.14   12.77
  -3  -6  -1  286.67   13.30
  -3   6  -1  286.89   14.01
  -3  -6  -1  295.30   14.56
   3  -6   2   30.13    3.01
   3   6   2   31.60    2.08
  -3   6  -2   26.37    4.98
  -3  -6  -2   31.85    3.55
  -3  -6  -2   28.29    2.38
   3  -6   3   -0.02    1.17
   3   6   3    0.29    0.46
  -3   6  -3   -0.48    1.21
  -3   6  -3    0.93    1.05
  -3  -6  -3   -0.12    0.92
  -3  -6  -3   -0.03    0.59
   3  -6   4   17.78    3.14
  -3   6  -4   16.81    3.00
  -3  -6  -4   17.25    3.41
  -3  -7   7    3.00    2.09
  -3   7   7    1.99    1.42
  -3  -7   7    0.85    2.05
  -3  -7   7    2.38    2.25
  -3   7   6   28.73    4.75
  -3  -7   6   25.80    4.82
  -3  -7   6  188.92    8.79
   3  -7  -5   83.22    6.30
   3  -7  -5   30.22    3.51
  -3  -7   5   30.75    4.73
  -3   7   5   82.99    4.36
  -3  -7   5   81.14    5.31
   3   7  -4   48.85    4.14
   3  -7  -4   47.55    3.55
  -3  -7   4   42.86    3.87
  -3   7   4   48.54    3.24
   3   7  -3    0.69    1.14
   3  -7  -3    0.67    0.71
  -3  -7   3    0.14    0.79
  -3   7   3    0.60    0.62
   3   7  -2   26.65    2.16
   3  -7  -2   27.12    2.24
  -3  -7   2   28.41    2.38
  -3   7   2   28.29    2.21
   3  -7  -1  145.40    8.04
   3   7  -1  149.83    6.62
  -3  -7   1  148.42    7.88
  -3   7   1  140.73    6.76
   3  -7   0  121.57    7.29
   3   7   0  122.09    5.50
  -3   7   0  116.18    6.53
  -3  -7   0  117.56    6.51
   3  -7   1    1.79    0.70
   3   7   1   -0.02    0.40
  -3  -7  -1    0.04    0.81
  -3  -7  -1    0.25    0.49
  -3   7  -1    0.24    0.77
   3  -7   2   30.02    3.96
   3   7   2   27.51    2.59
  -3   7  -2   25.91    3.47
  -3  -7  -2   27.33    2.22
  -3  -7  -2   29.04    3.38
   3  -7   3  172.22    9.89
   3   7   3  174.80    7.71
  -3   7  -3  172.54    9.43
  -3   7  -3  164.69   10.89
  -3  -7  -3  169.55   10.63
  -3  -7  -3  167.89    9.29
   3  -7   4   12.59    4.18
  -3   7  -4   11.83    2.58
  -3  -7  -4   12.26    3.18
  -3  -8   7   63.00    6.64
  -3  -8   7   67.36    6.34
  -3  -8   7   42.89    4.29
  -3  -8   7   11.84    5.85
  -3   8   7   63.74    4.58
   3  -8  -6   32.12    3.63
  -3  -8   6   33.65    6.13
  -3   8   6   31.02    2.90
  -3  -8   6    0.31    3.96
   3  -8  -5    2.19    1.80
   3  -8  -5   19.12    1.96
  -3   8   5    2.99    1.42
  -3  -8   5   22.31    2.83
  -3  -8   5    2.15    3.36
   3   8  -4   45.23    4.02
   3  -8  -4   46.27    3.36
   3  -8  -4   25.15    2.72
  -3   8   4   44.40    2.99
  -3  -8   4   44.62    3.79
   3   8  -3  120.76    7.83
   3   8  -3  158.74    7.88
   3  -8  -3  149.06    7.23
  -3  -8   3  148.32    9.08
  -3   8   3  148.24    6.99
   3  -8  -2   23.94    2.17
   3   8  -2   25.17    2.15
  -3  -8   2   25.59    2.34
  -3   8   2   26.77    2.94
   3   8  -1    0.23    0.51
   3  -8  -1    1.01    0.68
  -3  -8   1    0.59    0.63
  -3   8   1    0.59    0.63
   3  -8   0  103.05    5.90
   3   8   0  116.34    5.19
  -3   8   0  103.51    6.08
  -3  -8   0  109.47    5.28
   3  -8   1   25.24    2.40
   3   8   1   24.44    1.57
  -3  -8  -1   23.61    4.00
  -3   8  -1   24.55    2.74
  -3  -8  -1   22.71    1.77
   3   8   2   19.24    2.04
   3  -8   2   17.53    2.43
  -3  -8  -2   19.32    4.19
  -3  -8  -2   16.41    1.71
  -3   8  -2   17.36    3.08
   3  -8   3    0.18    0.52
   3   8   3    0.05    0.27
  -3   8  -3    0.27    0.50
  -3   8  -3    0.18    0.73
  -3  -8  -3   -0.06    0.65
  -3  -8  -3   -0.25    0.34
   3  -8   4   11.69    2.80
  -3   8  -4   10.45    2.47
  -3  -8  -4   11.38    3.14
  -3  -9   7    0.95    2.35
  -3  -9   7    1.49    2.13
  -3   9   7    0.22    1.34
  -3  -9   7   10.38    2.67
   3  -9  -6   37.70    3.94
  -3  -9   6   37.20    4.75
  -3  -9   6    1.31    4.34
  -3   9   6   38.04    3.25
   3  -9  -5   21.59    2.72
   3  -9  -5   16.49    2.28
  -3  -9   5   19.98    3.56
  -3   9   5   26.57    3.19
  -3  -9   5    6.35    2.79
   3  -9  -4    0.95    1.60
   3   9  -4   21.31    2.44
   3  -9  -4   23.04    2.88
  -3  -9   4   20.80    3.52
  -3  -9   4    0.45    2.18
  -3   9   4   23.57    2.48
   3   9  -3    4.56    1.92
   3  -9  -3    3.51    1.17
  -3  -9   3    4.29    1.34
  -3   9   3    4.16    1.04
   3   9  -2    8.43    1.50
   3  -9  -2   26.22    2.92
   3   9  -2   22.37    1.89
  -3  -9   2   22.99    2.14
  -3   9   2   24.35    1.97
   3   9  -1    8.03    1.16
   3   9  -1   20.12    1.38
   3  -9  -1    7.22    1.54
  -3  -9   1    7.54    2.15
  -3   9   1    7.68    1.45
   3   9   0   84.39    3.92
   3  -9   0   74.67    4.75
  -3   9   0   76.55    4.93
  -3  -9   0   77.78    4.94
   3  -9   1    1.86    0.99
   3   9   1    1.14    0.53
  -3  -9  -1    1.49    0.66
  -3   9  -1    1.09    1.14
  -3  -9  -1    1.23    1.17
   3  -9   2   14.17    2.32
   3   9   2   15.61    1.30
  -3   9  -2   14.87    2.96
  -3  -9  -2   16.94    2.84
  -3  -9  -2   14.91    1.55
   3  -9   3    1.18    1.15
   3   9   3    0.64    0.50
  -3   9  -3    0.54    1.02
  -3   9  -3    0.93    1.56
  -3  -9  -3    0.64    1.33
  -3  -9  -3    0.50    0.65
   3  -9   4    9.10    2.72
  -3   9  -4    9.12    2.28
  -3  -9  -4   10.24    3.13
  -3 -10   7    7.37    5.48
  -3  10   7   36.34    3.53
  -3 -10   7   38.54    8.34
  -3 -10   7   38.99    5.30
   3 -10  -6   33.40    3.60
  -3 -10   6   30.50    4.50
  -3  10   6   32.01    3.99
  -3 -10   6   -0.51    4.21
   3 -10  -5   11.15    1.58
   3 -10  -5    1.16    1.55
  -3 -10   5   16.05    2.59
  -3  10   5    1.64    1.24
  -3 -10   5    1.73    2.03
   3 -10  -4    0.79    1.51
   3 -10  -4   15.20    1.82
  -3  10   4   16.77    1.59
  -3 -10   4   14.51    2.23
  -3 -10   4    2.14    2.12
   3  10  -3  131.99    6.70
   3  10  -3   65.56    4.73
   3 -10  -3  121.28    7.14
  -3 -10   3  121.21    6.57
  -3  10   3  125.34    5.89
   3  10  -2   -0.01    1.92
   3  10  -2   13.30    1.56
   3 -10  -2   13.45    1.68
  -3 -10   2   14.71    2.67
  -3  10   2   15.09    1.53
   3  10  -1   -0.10    0.50
  -3 -10   1    0.11    0.41
  -3  10   1   -0.17    0.42
   3  10   0   68.00    3.34
   3 -10   0   66.17    4.45
  -3  10   0   65.03    4.59
  -3 -10   0   67.02    3.65
   3  10   1    0.45    0.40
   3 -10   1   -0.01    1.19
  -3 -10  -1    0.51    0.74
  -3  10  -1    0.15    0.92
  -3 -10  -1    0.25    0.84
   3 -10   2   28.62    2.72
   3  10   2   11.51    1.10
  -3 -10  -2   11.25    2.59
  -3 -10  -2   10.56    1.32
  -3  10  -2   16.97    3.05
   3 -10   3   -0.49    0.69
   3  10   3    0.28    0.40
  -3  10  -3    0.16    0.58
  -3  10  -3    0.18    0.95
  -3 -10  -3    0.42    1.24
  -3 -10  -3   -0.08    0.33
   3 -10   4    8.89    2.73
  -3  10  -4    5.66    3.44
  -3 -10  -4   11.43    3.16
  -3 -11   7    2.37    2.90
  -3 -11   7    0.05    2.61
  -3 -11   7    9.87    3.16
   3 -11  -6   23.35    3.33
  -3 -11   6   53.26    5.46
  -3 -11   6   24.97    4.55
  -3  11   6   22.95    3.90
   3 -11  -5    7.53    2.26
   3 -11  -5    4.66    2.68
  -3  11   5    4.91    1.32
  -3 -11   5   12.14    2.75
  -3 -11   5    4.06    2.37
   3 -11  -4   -0.13    1.63
   3 -11  -4   21.37    2.09
  -3 -11   4   21.17    2.60
  -3 -11   4    1.15    2.50
  -3  11   4   24.27    1.82
   3  11  -3    0.27    0.73
   3 -11  -3    0.35    0.66
  -3 -11   3    0.41    0.80
  -3  11   3    0.29    0.89
   3  11  -2   15.51    1.40
   3  11  -2    8.42    1.42
   3 -11  -2    6.00    1.50
  -3 -11   2    7.78    1.60
  -3  11   2    7.75    1.34
   3  11  -1   17.32    1.46
   3  11  -1    6.55    1.05
   3 -11  -1   17.73    1.91
  -3  11   1   16.31    1.77
  -3 -11   1   16.99    1.72
   3 -11   0   60.14    5.46
   3  11   0   64.12    3.18
  -3  11   0   61.97    5.83
  -3 -11   0   60.30    4.08
  -3 -11   0   63.55    3.54
   3 -11   1   -0.15    0.69
   3  11   1   -0.16    0.53
  -3 -11  -1   -0.29    1.23
  -3 -11  -1   -0.30    0.42
  -3  11  -1   -0.12    1.33
   3 -11   2    7.69    1.96
   3  11   2    8.07    1.24
  -3  11  -2    8.02    3.87
  -3 -11  -2    7.77    1.58
  -3 -11  -2    9.08    2.35
   3 -11   3   48.92    4.59
   3  11   3   47.42    2.14
  -3  11  -3   45.40    3.77
  -3  11  -3   46.97    5.84
  -3 -11  -3   48.20    5.02
   3 -11   4    7.09    2.58
  -3 -11  -4    5.07    2.90
  -3 -12   7    0.15    1.95
  -3 -12   7    3.12    2.37
  -3 -12   7   -0.02    2.19
   3 -12  -6   22.14    3.14
  -3 -12   6   26.95    4.36
  -3 -12   6   -1.64    4.19
  -3 -12   6   20.88    1.92
  -3  12   6   23.78    2.46
   3 -12  -5    0.24    1.15
   3 -12  -5    5.23    1.59
  -3 -12   5    0.18    1.63
  -3 -12   5    3.27    1.94
  -3  12   5    0.14    1.36
   3 -12  -4   29.93    3.55
  -3 -12   4   27.54    3.22
  -3 -12   4    1.80    2.97
  -3  12   4   30.24    2.98
   3  12  -3   29.71    2.76
   3 -12  -3   26.92    2.50
  -3 -12   3   27.00    4.24
  -3  12   3   29.90    2.31
   3  12  -2    8.41    1.95
   3  12  -2    1.10    1.74
   3 -12  -2    5.50    2.22
  -3 -12   2    7.67    1.52
  -3  12   2    7.70    1.29
   3  12  -1    0.20    0.51
   3 -12  -1    0.40    0.73
  -3  12   1    0.29    0.70
  -3 -12   1    0.68    0.68
   3  12   0   54.51    2.72
   3  12   0   29.62    2.15
   3 -12   0   47.55    3.70
  -3 -12   0   50.84    2.97
  -3  12   0   47.96    3.83
  -3 -12   0   53.11    3.63
   3  12   1    1.00    0.63
   3 -12   1    0.52    0.85
  -3 -12  -1    0.40    0.94
  -3 -12  -1    0.35    0.48
  -3  12  -1   -0.32    1.01
   3 -12   2    5.37    1.70
   3  12   2    4.44    0.64
  -3 -12  -2    4.44    2.95
  -3  12  -2    4.23    2.11
  -3 -12  -2    2.40    1.17
   3 -12   3    0.20    1.34
  -3  12  -3    0.09    0.65
  -3  12  -3    0.40    1.89
  -3 -12  -3    0.01    0.95
   3 -12   4    3.42    2.22
  -3 -12  -4    2.80    2.46
  -3 -13   7    2.49    2.70
  -3 -13   7    1.34    3.75
  -3 -13   7    1.56    2.72
   3 -13  -6   22.98    3.17
  -3 -13   6    2.88    6.93
  -3 -13   6   27.37    4.61
  -3  13   6   23.27    2.48
   3 -13  -5   53.57    4.04
  -3 -13   5   50.58    7.34
  -3  13   5   54.78    4.37
  -3 -13   5    7.58    7.42
   3 -13  -4   19.34    2.17
  -3 -13   4   20.13    2.95
  -3 -13   4    1.17    2.75
  -3  13   4   20.07    2.60
   3  13  -3   -0.60    0.80
   3 -13  -3   -0.69    1.12
  -3 -13   3   -0.62    0.90
  -3  13   3    0.06    0.60
   3  13  -2   10.46    1.25
   3  13  -2    3.93    1.24
   3 -13  -2    3.61    1.41
  -3 -13   2    2.90    1.48
  -3  13   2    3.58    1.84
   3  13  -1   11.31    1.30
   3  13  -1    3.77    1.68
   3 -13  -1   11.34    1.73
  -3  13   1    9.80    1.67
  -3 -13   1   10.17    1.61
   3  13   0   51.07    3.36
   3 -13   0   46.88    3.84
  -3  13   0   44.11    3.88
  -3 -13   0   48.11    2.98
  -3 -13   0   48.80    3.74
   3 -13   1    0.60    1.00
   3  13   1    0.80    0.44
  -3 -13  -1    0.46    0.84
  -3 -13  -1    0.43    1.04
  -3  13  -1    1.42    1.17
   3 -13   2    4.54    2.87
   3  13   2    5.24    0.93
  -3 -13  -2    5.12    2.15
  -3  13  -2    4.48    2.36
  -3 -13  -2    5.47    0.74
   3 -13   3    0.44    0.96
  -3  13  -3    0.09    0.67
  -3  13  -3    0.97    1.33
  -3 -13  -3   -0.52    0.66
   3 -13   4    2.18    2.13
   3 -14  -6   11.06    2.47
  -3 -14   6    7.80    5.70
  -3 -14   6    0.76    4.90
  -3  14   6   12.59    1.77
  -3  14   6    9.27    3.96
   3 -14  -5    3.26    1.21
   3 -14  -5    2.75    1.46
  -3  14   5    3.02    1.08
  -3 -14   5    2.82    2.13
  -3 -14   5    4.43    3.26
   3 -14  -4   17.05    2.15
  -3 -14   4   14.79    4.56
  -3  14   4   16.80    1.85
   3 -14  -3  372.27   17.59
  -3 -14   3  352.08   18.08
  -3  14   3  374.30   18.11
   3  14  -2    0.86    1.34
   3 -14  -2    1.48    1.01
  -3 -14   2    1.42    1.70
  -3  14   2    1.14    0.86
   3  14  -1    9.75    1.79
   3 -14  -1    8.28    1.63
   3  14  -1    0.95    0.97
  -3  14   1    9.01    1.56
  -3 -14   1    7.42    1.49
  -3 -14   1    8.15    1.31
   3  14   0   46.73    3.25
   3 -14   0   44.34    3.93
  -3 -14   0   43.23    3.60
  -3 -14   0   44.64    3.77
  -3  14   0   44.63    5.52
   3 -14   1  190.11   10.43
   3  14   1  194.43    7.70
  -3 -14  -1  189.25    7.85
  -3 -14  -1  196.68   12.45
  -3  14  -1  185.65   10.86
   3 -14   2    2.39    2.80
   3  14   2    3.93    0.72
  -3 -14  -2    4.33    0.87
  -3 -14  -2    4.37    2.03
  -3  14  -2    5.09    2.28
   3 -14   3    0.95    1.08
  -3  14  -3   -0.15    0.71
  -3  14  -3   -0.33    0.93
  -3 -14  -3   -0.12    0.72
   3 -14   4    3.28    2.40
   3 -15  -6   14.57    2.62
  -3 -15   6   14.33    3.73
  -3  15   6   12.75    4.36
  -3 -15   6   13.40    6.38
  -3  15   6   14.81    1.91
   3 -15  -5   84.01    5.45
  -3  15   5   84.07    4.75
  -3 -15   5   82.86    7.15
   3 -15  -4   17.96    3.08
  -3 -15   4    0.71    2.88
  -3  15   4   16.95    1.74
  -3 -15   4   15.55    2.91
   3 -15  -3    7.48    1.71
  -3 -15   3    9.73    2.07
  -3 -15   3    0.77    2.00
  -3  15   3    9.21    1.43
   3  15  -2    7.73    1.43
   3 -15  -2    7.66    1.69
  -3  15   2    7.59    2.25
  -3 -15   2    6.96    1.82
   3 -15  -1  592.85   31.00
   3  15  -1  623.41   28.92
  -3 -15   1  604.23   30.46
  -3 -15   1  627.56   29.58
  -3  15   1  605.68   29.55
   3  15   0    7.59    2.14
   3  15   0   31.91    2.55
   3 -15   0   27.92    3.07
  -3 -15   0   32.17    3.97
  -3 -15   0   30.72    2.24
  -3  15   0   28.31    3.16
   3  15   1    0.28    0.52
   3 -15   1    0.45    0.87
  -3  15  -1    0.79    1.62
  -3 -15  -1    0.94    0.88
  -3 -15  -1    0.00    0.42
   3  15   2    3.93    0.56
   3 -15   2    4.33    2.87
  -3 -15  -2    4.34    2.10
  -3 -15  -2    3.77    0.44
  -3  15  -2    4.69    2.29
   3 -15   3  531.40   29.95
  -3  15  -3  539.02   26.68
  -3  15  -3  514.76   31.11
  -3 -15  -3  532.69   33.60
   3 -16  -6   13.26    2.52
  -3 -16   6   14.34    4.23
  -3 -16   6   16.86    3.77
  -3  16   6   15.95    4.44
  -3 -16   6    0.80    3.44
  -3  16   6   15.50    2.57
   3 -16  -5    3.64    2.23
   3 -16  -5    3.56    1.19
  -3 -16   5    1.85    2.20
  -3  16   5    3.19    1.07
  -3 -16   5    2.35    2.36
   3 -16  -4   11.19    1.93
  -3 -16   4    8.76    2.76
  -3  16   4   11.54    2.31
   3 -16  -3  253.12   13.91
  -3 -16   3  235.04   12.98
  -3  16   3  249.94   11.79
   3 -16  -2    3.78    2.19
  -3 -16   2    3.66    1.58
  -3  16   2    4.01    1.27
   3 -16  -1    1.65    1.20
   3  16  -1    4.32    1.23
   3  16  -1    0.69    0.80
  -3 -16   1    0.94    1.07
  -3  16   1    1.18    1.11
  -3 -16   1    2.02    0.94
   3  16   0   34.85    2.81
   3 -16   0   31.38    3.47
  -3 -16   0   33.04    2.52
  -3 -16   0   30.37    3.16
  -3  16   0   28.51    3.50
   3  16   1   93.98    4.41
   3 -16   1   87.73    6.19
  -3 -16  -1   94.05    6.36
  -3  16  -1   86.96    6.71
  -3 -16  -1   91.06    4.04
   3 -16   2    3.90    2.69
   3  16   2    2.34    0.54
  -3  16  -2    3.55    2.18
  -3 -16  -2    3.93    2.88
   3 -16   3   -0.02    1.03
  -3  16  -3   -0.23    1.39
  -3 -16  -3   -0.14    1.11
  -3 -17   6   11.98    3.80
  -3  17   6    8.60    4.05
  -3 -17   6   13.17    3.31
  -3 -17   6    2.22    2.53
   3 -17  -5   17.48    3.34
   3 -17  -5    5.61    1.63
  -3 -17   5   17.55    3.63
  -3  17   5   18.43    1.73
  -3 -17   5    4.16    3.17
   3 -17  -4    8.20    1.77
  -3 -17   4   -1.56    4.35
  -3  17   4    9.54    2.16
  -3 -17   4   10.06    2.71
   3 -17  -3   -0.67    0.74
  -3 -17   3    0.10    0.62
  -3  17   3    0.42    0.62
   3 -17  -2    1.46    1.78
  -3 -17   2    2.11    0.81
  -3 -17   2    1.34    1.30
  -3  17   2    0.80    1.01
   3 -17  -1    1.96    1.35
  -3 -17   1    2.28    1.06
  -3 -17   1    2.67    1.21
  -3  17   1    2.12    1.29
   3  17   0   40.34    2.45
   3 -17   0   41.07    3.98
  -3 -17   0   39.10    3.83
  -3  17   0   37.62    5.58
  -3 -17   0   39.67    3.62
   3 -17   1   -0.09    0.83
  -3 -17  -1   -0.00    0.57
  -3 -17  -1    0.10    1.25
  -3  17  -1    0.77    0.97
   3 -17   2    5.94    2.31
  -3  17  -2    5.80    4.35
  -3 -17  -2    6.19    2.35
   3 -17   3    2.53    2.05
  -3  17  -3    2.58    2.74
  -3 -17  -3    1.94    2.14
  -3 -18   6    5.95    2.65
  -3 -18   6   -1.15    2.09
  -3  18   6    4.35    3.30
  -3 -18   6    7.63    3.15
   3 -18  -5    0.30    1.35
   3 -18  -5    4.51    1.07
  -3 -18   5    0.17    2.40
  -3 -18   5    5.57    2.23
  -3  18   5    0.63    1.56
   3 -18  -4   15.75    2.30
  -3  18   4   17.15    1.89
  -3 -18   4    2.02    4.48
  -3 -18   4   17.29    3.37
  -3 -18   4   15.20    1.25
   3 -18  -3   12.21    2.19
  -3 -18   3   11.84    4.46
  -3 -18   3   13.72    1.43
  -3 -18   3   45.76    3.53
  -3  18   3   12.83    1.89
   3 -18  -2    2.92    1.36
  -3 -18   2    1.73    1.56
  -3 -18   2    3.21    0.96
  -3  18   2    2.09    1.23
   3 -18  -1    0.48    1.08
  -3  18   1   -0.05    1.58
  -3 -18   1    0.49    0.97
  -3 -18   1    1.40    0.85
   3 -18   0   47.34    4.44
  -3 -18   0   46.30    3.26
  -3  18   0   43.86    4.57
  -3 -18   0   46.90    3.98
   3 -18   1    3.70    1.57
  -3 -18  -1    3.50    1.54
  -3 -18  -1    0.01    1.02
  -3  18  -1    3.07    1.81
   3 -18   2    5.71    2.36
  -3  18  -2    5.46    2.91
  -3 -18  -2    6.46    2.49
   3 -18   3   -0.21    1.29
  -3  18  -3   -0.42    1.71
  -3 -18  -3   -0.14    1.41
  -3 -19   6    3.85    2.67
  -3  19   6    7.81    6.37
  -3 -19   6   10.30    3.94
  -3 -19   6   10.45    5.06
   3 -19  -5    1.38    1.36
   3 -19  -5    5.11    1.10
  -3 -19   5    0.09    2.53
  -3 -19   5    0.12    2.11
  -3 -19   5    3.89    2.25
  -3  19   5    1.94    1.57
   3 -19  -4   14.09    2.22
  -3 -19   4   15.75    3.41
  -3 -19   4    0.58    4.45
  -3  19   4   14.27    1.83
  -3 -19   4   14.06    1.17
   3 -19  -3    0.38    0.66
  -3 -19   3    0.07    0.40
  -3 -19   3    0.09    1.43
  -3  19   3   -0.06    0.55
   3 -19  -2    6.09    1.81
  -3 -19   2    5.90    3.24
  -3 -19   2    6.92    1.95
  -3  19   2    7.02    1.62
   3 -19  -1    0.07    0.95
  -3  19   1   -0.07    0.95
  -3 -19   1    1.10    0.76
  -3 -19   1   -0.19    1.41
   3 -19   0   36.70    4.10
  -3  19   0   37.22    4.27
  -3 -19   0   42.88    3.86
  -3 -19   0   40.49    3.03
   3 -19   1    0.34    0.84
  -3  19  -1    0.09    1.55
  -3 -19  -1    0.52    0.83
  -3 -19  -1   -0.01    0.35
   3 -19   2    4.71    2.34
  -3  19  -2    5.30    2.95
  -3 -19  -2    6.41    2.49
   3 -19   3    8.43    3.10
  -3  19  -3    7.33    4.01
  -3 -19  -3    7.48    3.27
  -3 -20   6   19.53    3.92
  -3 -20   6   17.46    4.68
  -3 -20   6   -0.55    3.04
  -3  20   6   20.09    4.95
   3 -20  -5   -0.04    1.33
   3 -20  -5    6.01    1.04
  -3 -20   5    4.38    1.75
  -3 -20   5    0.18    2.46
  -3 -20   5    0.28    2.06
  -3  20   5    0.06    0.97
   3 -20  -4    6.54    2.80
  -3 -20   4   -0.08    2.91
  -3 -20   4    7.60    0.91
  -3 -20   4   11.05    4.05
  -3  20   4    6.93    2.28
   3 -20  -3   42.96    3.64
  -3 -20   3   42.22    7.06
  -3 -20   3   46.43    2.74
  -3 -20   3   32.47    4.70
  -3  20   3   45.32    3.43
   3 -20  -2    8.72    1.97
  -3 -20   2    7.19    3.64
  -3 -20   2    7.74    1.42
  -3  20   2    9.79    1.83
   3 -20  -1    0.27    0.82
  -3 -20   1    0.32    0.64
  -3 -20   1   -0.05    1.21
  -3  20   1   -0.08    0.83
   3 -20   0   30.87    3.78
  -3 -20   0   34.20    2.86
  -3  20   0   30.41    5.63
  -3 -20   0   35.14    4.88
   3 -20   1   10.30    2.43
  -3  20  -1    0.21    2.83
  -3 -20  -1    8.68    1.01
  -3 -20  -1    9.60    3.60
   3 -20   2    6.52    2.57
  -3  20  -2    6.01    3.21
  -3 -20  -2    7.06    4.07
   3 -20   3    0.33    1.47
  -3  20  -3    0.28    1.96
  -3 -21   6    5.99    3.17
  -3  21   6    9.19    4.93
  -3 -21   6   12.17    4.73
  -3 -21   6   15.78    4.03
   3 -21  -5    2.94    1.50
  -3  21   5    3.26    2.98
  -3 -21   5   -0.12    2.85
  -3 -21   5    5.59    2.02
  -3  21   5    3.24    1.12
  -3 -21   5    2.60    2.38
   3 -21  -4    3.64    2.24
  -3 -21   4    2.17    0.98
  -3 -21   4    1.16    3.33
  -3 -21   4    0.07    2.41
  -3  21   4    4.34    1.18
   3 -21  -3   -0.56    0.75
  -3  21   3   -0.00    0.63
  -3 -21   3   -0.04    0.71
  -3 -21   3   -0.02    1.10
   3 -21  -2    4.13    1.63
  -3 -21   2    3.22    3.09
  -3 -21   2    3.73    1.83
  -3  21   2    4.19    1.54
   3 -21  -1    0.32    1.04
  -3 -21   1    0.22    1.01
  -3 -21   1    0.71    0.84
  -3  21   1    0.56    1.05
   3 -21   0   27.94    5.42
  -3 -21   0   31.55    3.44
  -3 -21   0   29.71    3.95
  -3  21   0   30.03    4.09
   3 -21   1    0.02    0.91
  -3  21  -1    0.22    1.09
  -3 -21  -1    0.54    0.90
  -3 -21  -1    0.00    0.34
  -3 -21  -1    0.24    0.54
   3 -21   2    7.81    2.92
  -3  21  -2    7.74    3.59
  -3 -21  -2    9.46    3.00
   3 -21   3    9.72    3.49
  -3 -22   5   -0.02    2.19
  -3 -22   5    3.84    1.52
  -3 -22   5    1.64    1.85
  -3  22   5    1.32    2.28
  -3  22   5    0.04    0.80
   3 -22  -4    5.15    1.72
  -3 -22   4    5.82    1.15
  -3 -22   4    9.06    4.11
  -3  22   4    5.92    1.43
  -3 -22   4    3.42    2.35
  -3 -22   4   -0.15    2.92
   3 -22  -3    1.19    1.47
  -3  22   3    1.75    2.00
  -3 -22   3    0.63    2.23
  -3 -22   3    1.73    0.90
  -3 -22   3   20.80    2.44
   3 -22  -2    0.87    1.24
  -3 -22   2    1.55    1.53
  -3 -22   2    1.35    0.89
  -3  22   2    0.85    1.19
   3 -22  -1    1.13    1.30
  -3 -22   1    0.84    1.26
  -3 -22   1    1.21    1.06
  -3  22   1    1.12    1.33
   3 -22   0   22.12    3.38
  -3 -22   0   23.40    3.08
  -3  22   0   20.55    3.65
  -3 -22   0   20.12    3.62
   3 -22   1    0.01    2.53
  -3 -22  -1    9.54    2.45
  -3 -22  -1    9.33    1.45
  -3 -22  -1    8.04    0.99
  -3  22  -1    0.08    3.00
   3 -22   2   -0.02    2.32
  -3 -22  -2    5.46    2.30
  -3  22  -2    4.31    4.35
  -3 -23   5    0.14    1.90
  -3  23   5    0.46    1.95
  -3 -23   5    0.10    1.24
  -3 -23   5    1.39    2.38
   3 -23  -4    5.36    1.75
  -3 -23   4   -0.26    3.01
  -3 -23   4    4.99    2.38
  -3  23   4    6.80    2.15
  -3 -23   4    0.81    4.22
   3 -23  -3    0.87    2.20
  -3  23   3    1.32    1.30
  -3 -23   3   11.10    2.27
  -3 -23   3    2.06    0.91
  -3 -23   3   -0.27    2.17
   3 -23  -2    1.90    1.31
  -3 -23   2    1.08    1.65
  -3  23   2    0.90    1.26
  -3 -23   2    1.31    0.95
   3 -23  -1    7.64    2.12
  -3 -23   1    7.67    1.77
  -3  23   1    4.03    3.38
  -3 -23   1    5.04    2.10
   3 -23   0    8.56    2.65
  -3  23   0    0.28    4.40
  -3 -23   0   10.85    2.98
  -3 -23   0   11.56    1.76
  -3 -23   0   10.85    2.34
   3 -23   1    0.00    1.51
  -3 -23  -1    2.19    1.52
  -3  23  -1    0.04    2.89
   3 -23   2   -0.00    2.14
  -3 -23  -2    0.55    1.38
  -3  23  -2    0.03    1.70
  -3 -24   5   -0.14    1.52
  -3 -24   5    0.38    1.93
  -3 -24   5   -0.67    1.33
  -3  24   5   -0.61    1.93
   3 -24  -4    0.91    1.50
  -3  24   4    1.89    1.21
  -3 -24   4    0.04    2.71
  -3 -24   4    1.05    2.07
  -3 -24   4   40.03    4.21
   3 -24  -3   91.39    7.57
  -3  24   3   95.47    7.08
  -3 -24   3    6.23    5.42
  -3 -24   3   98.42    4.67
  -3 -24   3   87.51    7.60
  -3 -24   3   93.86    6.78
   3 -24  -2    1.80    1.29
  -3 -24   2    0.11    1.32
  -3 -24   2    1.30    1.64
  -3  24   2    1.68    1.26
  -3 -24   2    0.50    1.47
   3 -24  -1    1.16    1.32
  -3 -24   1    1.00    1.18
  -3 -24   1    0.62    1.71
  -3  24   1    1.04    1.42
  -3 -24   1    1.10    1.35
   3 -24   0    5.74    2.08
  -3 -24   0    4.65    1.54
  -3  24   0   -0.05    2.34
  -3 -24   0   -0.01    2.13
  -3 -24   0    5.90    1.87
   3 -24   1   44.53    5.00
  -3 -24  -1   45.91    5.00
  -3  24  -1   39.09    5.83
   3 -24   2   -0.01    1.33
  -3  24  -2    0.03    1.06
  -3 -25   5   -0.02    1.44
  -3 -25   5    0.13    1.85
  -3  25   5    0.40    2.98
  -3 -25   5    0.36    1.27
   3 -25  -4    0.31    0.85
  -3  25   4    0.03    0.70
  -3 -25   4    0.03    1.59
  -3 -25   4    0.26    1.89
  -3 -25   4    1.77    2.32
   3 -25  -3    3.44    2.77
  -3  25   3    3.92    1.64
  -3 -25   3    4.55    2.71
  -3 -25   3    5.69    2.72
  -3 -25   3    3.62    2.14
  -3 -25   3    4.12    1.73
   3 -25  -2   -0.01    0.95
  -3 -25   2    0.17    0.73
  -3  25   2   -0.00    1.50
  -3 -25   2    0.46    1.00
  -3 -25   2    0.91    1.26
   3 -25  -1   20.22    3.31
  -3  25   1   22.37    3.53
  -3 -25   1   24.55    2.96
  -3 -25   1   22.36    3.40
  -3 -25   1   21.58    2.90
   3 -25   0    0.01    1.68
  -3 -25   0   -0.06    1.11
  -3 -25   0    2.82    1.27
  -3  25   0   -0.08    1.88
  -3 -25   0    4.43    1.53
   3 -25   1   -0.01    1.32
  -3 -25  -1    1.03    1.32
  -3  25  -1   -0.04    1.68
   3 -25   2   -0.00    2.29
  -3  25  -2    0.53    1.92
   3 -26  -4    1.31    1.38
  -3 -26   4   -0.05    2.60
  -3 -26   4    1.82    1.95
  -3 -26   4   10.53    4.56
  -3  26   4    0.71    1.71
  -3  26   4    1.82    2.62
   3 -26  -3    2.67    2.50
  -3  26   3    2.69    2.36
  -3 -26   3    4.36    2.55
  -3 -26   3   -0.10    3.04
  -3 -26   3    2.72    1.02
  -3 -26   3    2.89    2.60
   3 -26  -2    0.23    1.13
  -3 -26   2    0.44    1.44
  -3  26   2    1.30    1.13
  -3 -26   2   -0.27    1.15
  -3 -26   2    0.52    1.31
   3 -26  -1   -0.08    0.96
  -3  26   1   -0.06    1.05
  -3 -26   1    0.36    1.25
  -3 -26   1    0.04    1.33
  -3 -26   1    0.57    1.00
   3 -26   0    0.01    1.71
  -3  26   0    0.29    3.04
  -3 -26   0    4.13    1.56
  -3 -26   0    2.39    1.32
  -3 -26   0   -0.01    1.16
   3 -26   1    0.00    2.30
  -3 -26  -1    8.10    2.26
  -3  26  -1    0.16    2.79
   3 -26   2    0.00    1.74
  -3  26  -2    0.11    1.45
   3 -27  -4    1.12    1.30
  -3 -27   4    1.57    1.89
  -3  27   4    1.25    1.06
  -3  27   4    0.96    2.60
  -3 -27   4   -0.38    2.55
  -3 -27   4    1.94    4.44
   3 -27  -3   -0.00    2.02
  -3  27   3    0.42    1.23
  -3 -27   3    6.86    2.07
  -3 -27   3   -0.47    1.54
  -3 -27   3   -0.10    2.07
   3 -27  -2    1.08    1.23
  -3 -27   2    0.63    1.63
  -3 -27   2    0.20    1.27
  -3 -27   2    0.64    0.95
  -3  27   2    0.80    2.03
   3 -27  -1   22.02    3.52
  -3  27   1   23.28    3.82
  -3 -27   1   22.89    3.07
  -3 -27   1   21.90    3.12
  -3 -27   1   22.82    3.60
   3 -27   0    0.00    1.89
  -3 -27   0    5.41    1.76
  -3 -27   0   -0.01    2.02
  -3 -27   0    2.61    1.49
  -3  27   0    0.02    2.24
   3 -27   1    0.03    0.92
  -3  27  -1    0.04    1.10
  -3 -28   4   -0.04    2.71
  -3 -28   4    0.42    3.08
  -3 -28   4    3.14    2.22
  -3  28   4    0.34    2.70
   3 -28  -3   43.41    5.89
  -3  28   3   44.84    5.71
  -3 -28   3   49.17    9.41
  -3 -28   3    8.04    5.38
  -3 -28   3   47.88    4.90
   3 -28  -2    1.39    1.20
  -3  28   2   -0.02    1.25
  -3 -28   2   -0.05    1.24
  -3 -28   2    0.64    1.62
   3 -28  -1   -0.11    1.36
  -3  28   1   -0.01    1.51
  -3 -28   1    0.05    1.86
  -3 -28   1    1.48    1.46
  -3 -28   1    1.37    1.18
   3 -28   0   -0.01    2.29
  -3  28   0    0.34    2.75
  -3 -28   0    3.15    1.80
  -3 -28   0    7.32    1.61
   3 -28   1   -0.01    1.28
  -3  28  -1    0.47    1.61
   3 -29  -3    0.39    2.28
  -3  29   3    1.65    2.46
  -3 -29   3    6.28    2.45
  -3 -29   3    1.18    3.86
  -3 -29   3   -0.19    2.73
  -3  29   3    0.23    1.44
   3 -29  -2    3.15    1.68
  -3 -29   2    2.51    3.63
  -3 -29   2    2.68    2.74
  -3  29   2   -0.05    1.79
   3 -29  -1    0.16    1.01
  -3  29   1    0.02    1.17
  -3 -29   1    0.51    1.08
  -3 -29   1   -0.06    0.87
   3 -29   0    0.08    0.91
  -3  29   0   -0.02    1.09
   3 -29   1   -0.01    0.62
  -3  29  -1    0.01    0.78
   3 -30  -3    1.64    2.63
  -3  30   3    3.38    2.58
  -3  30   3    1.68    2.86
  -3 -30   3    0.30    2.04
  -3 -30   3    4.55    2.78
  -3 -30   3    3.12    4.49
   3 -30  -2    2.42    1.50
  -3  30   2    1.56    2.07
  -3 -30   2    2.00    3.31
  -3  30   2   -0.03    1.61
  -3 -30   2    0.12    1.53
   3 -30  -1   -0.18    1.28
  -3  30   1   -0.07    1.49
  -3 -30   1    1.74    1.41
  -3 -30   1   -0.01    1.75
   3 -30   0   -0.09    2.57
  -3  30   0   15.00    3.07
  -3  30   0    1.61    2.03
   3 -31  -2    0.85    1.22
  -3 -31   2    0.04    2.80
  -3 -31   2   -0.32    1.27
  -3  31   2    1.09    1.75
  -3  31   2    0.45    1.37
   3 -31  -1   13.56    3.08
  -3  31   1    0.01    5.53
  -3  31   1   12.53    3.37
  -3 -31   1   12.32    2.65
  -3 -31   1    6.89    3.30
  -4   0   7    7.96    2.89
   4   0  -6   10.38    2.70
  -4   0   6    9.32    2.63
   4   0  -5   38.69    3.84
   4   0  -5   37.34    4.08
  -4   0   5   39.77    3.94
   4   0  -4  736.64   27.28
   4   0  -4  232.06   12.92
  -4   0   4  235.55   13.02
   4   0  -3   43.99    4.85
  -4   0   3   42.00    4.80
   4   0  -2   28.92    2.55
  -4   0   2   27.16    3.91
   4   0  -1    9.40    1.58
  -4   0   1   10.54    1.81
   4   0   0  831.68   41.70
  -4   0   0  833.49   41.08
   4   0   1   38.99    3.17
  -4   0  -1   35.51    3.85
   4   0   2    6.07    1.62
  -4   0  -2    1.79    3.27
  -4   0  -2    5.14    3.13
   4   0   3    7.28    3.23
  -4   0  -3   10.45    2.68
  -4   0  -3    8.47    2.82
  -4   1   7    5.26    2.59
  -4  -1   7    6.36    2.75
   4   1  -6  203.35   14.91
   4  -1  -6  206.95   12.45
  -4  -1   6  201.37   12.27
  -4   1   6  197.14   11.87
   4   1  -5   47.69    6.40
   4  -1  -5   49.31    4.65
   4  -1  -5   50.22    4.38
   4   1  -5   51.82    6.10
  -4  -1   5   48.53    4.57
  -4   1   5   51.23    6.28
   4   1  -4    0.11    1.58
   4   1  -4   20.53    2.22
   4  -1  -4   19.79    3.20
   4  -1  -4   -0.21    1.93
  -4  -1   4   20.64    3.22
  -4   1   4   19.93    3.03
   4   1  -3   42.42    3.51
   4  -1  -3   38.16    3.42
  -4  -1   3   42.41    3.53
  -4   1   3   43.30    3.63
   4  -1  -2  754.87   36.42
   4   1  -2  758.55   36.50
  -4   1   2  748.93   36.51
  -4  -1   2  763.58   37.23
   4  -1  -1    9.29    1.53
   4   1  -1    9.25    1.52
  -4   1   1    9.01    1.81
  -4  -1   1    9.48    2.66
   4   1   0   -0.27    0.50
   4  -1   0    0.14    0.52
  -4  -1   0    0.02    0.96
  -4   1   0    0.72    0.66
   4   1   1   48.24    3.67
   4  -1   1   51.06    3.91
  -4   1  -1   52.43    4.61
  -4  -1  -1   51.05    5.99
   4   1   2  170.29    9.06
   4  -1   2  163.01    9.03
  -4  -1  -2  162.41   12.03
  -4   1  -2  159.56    9.76
  -4   1  -2  161.33   10.03
  -4  -1  -2  160.27    9.88
   4  -1   3    6.12    1.95
   4   1   3    5.84    1.87
  -4   1  -3    6.49    2.38
  -4   1  -3    3.72    2.63
  -4  -1  -3    7.25    2.39
  -4  -1  -3    5.52    3.86
  -4   2   7    5.74    4.05
  -4  -2   7    7.02    2.85
   4   2  -6   -0.04    0.88
   4  -2  -6    0.40    0.85
  -4  -2   6   -0.54    0.89
  -4   2   6   -0.26    1.27
   4   2  -5   59.79    5.37
   4   2  -5   61.25    5.15
   4  -2  -5   60.34    4.82
   4  -2  -5   59.31    6.91
  -4   2   5   59.86    5.04
  -4  -2   5   58.93    5.18
   4   2  -4   44.34    5.51
   4  -2  -4   43.27    3.82
  -4  -2   4   43.64    3.82
  -4   2   4   43.26    3.62
   4   2  -3   39.99    3.39
   4  -2  -3   43.47    3.53
  -4  -2   3   43.36    5.02
  -4   2   3   41.81    3.44
   4  -2  -2    2.09    1.01
   4   2  -2    1.76    1.01
  -4  -2   2    1.62    1.76
  -4   2   2    1.76    1.13
   4  -2  -1   12.47    1.74
   4   2  -1   13.95    1.73
  -4  -2   1   12.67    2.02
  -4   2   1   12.49    1.98
   4   2   0    1.03    1.08
   4  -2   0    0.90    0.70
  -4  -2   0   -0.33    0.83
  -4   2   0   -0.05    1.43
   4   2   1   59.57    4.00
   4  -2   1   61.53    5.72
  -4   2  -1   56.17    5.18
  -4  -2  -1   55.09    4.65
   4  -2   2    2.06    1.28
   4   2   2    1.93    1.73
  -4   2  -2    1.72    1.50
  -4  -2  -2    1.27    1.56
  -4  -2  -2    2.61    2.45
  -4   2  -2    1.97    1.72
   4  -2   3    7.94    2.18
   4   2   3    7.11    3.00
  -4   2  -3    3.96    4.51
  -4  -2  -3    9.44    2.67
  -4  -2  -3    6.34    4.00
  -4   2  -3    7.60    3.82
  -4   3   7    0.02    2.35
  -4  -3   7    8.93    2.66
   4   3  -6    2.92    2.08
   4  -3  -6    4.30    1.95
  -4   3   6    4.42    1.92
  -4  -3   6    2.84    2.15
   4   3  -5   41.36    4.65
   4   3  -5   72.07    5.20
   4  -3  -5   68.15    6.45
   4  -3  -5   40.18    4.38
  -4  -3   5   38.64    4.52
  -4   3   5   41.68    5.79
   4  -3  -4    2.41    1.44
   4   3  -4    1.90    1.47
   4   3  -4    3.58    1.44
   4  -3  -4    4.08    1.46
  -4  -3   4    1.55    1.45
  -4   3   4    2.53    1.31
   4   3  -3   56.49    4.21
   4  -3  -3   57.75    4.32
  -4  -3   3   55.73    4.35
  -4   3   3   59.42    4.36
   4  -3  -2   27.01    2.53
   4   3  -2   27.97    2.41
  -4  -3   2   26.99    2.71
  -4   3   2   28.37    2.73
   4  -3  -1   11.89    1.74
   4   3  -1   12.94    1.66
  -4   3   1   10.74    1.99
  -4  -3   1   11.97    1.96
   4   3   0    3.76    1.13
   4  -3   0    3.63    1.28
  -4   3   0    5.08    1.57
  -4  -3   0    4.84    1.42
   4  -3   1   66.92    4.97
   4   3   1   65.01    4.31
  -4  -3  -1   65.16    4.91
  -4   3  -1   60.07    7.31
   4  -3   2   15.89    3.58
   4   3   2   15.22    2.07
  -4   3  -2   14.42    2.70
  -4   3  -2   15.14    3.13
  -4  -3  -2   15.07    2.86
  -4  -3  -2   14.40    2.70
   4  -3   3    9.69    3.72
   4   3   3    9.66    2.04
  -4   3  -3   11.24    4.14
  -4   3  -3    8.48    5.08
  -4  -3  -3   10.67    2.85
  -4  -3  -3    9.86    4.13
  -4  -4   7    8.65    2.63
  -4   4   7    0.03    2.22
   4   4  -6    3.97    2.10
   4  -4  -6    4.23    3.01
  -4  -4   6    2.88    2.13
  -4   4   6    3.41    1.83
   4   4  -5   72.65    5.34
   4   4  -5   47.61    4.91
   4  -4  -5   67.54    4.90
   4  -4  -5   46.64    4.68
  -4  -4   5   42.25    4.71
  -4   4   5   47.12    4.38
   4   4  -4   53.81    4.41
   4  -4  -4   52.65    4.13
   4   4  -4   38.86    3.83
  -4   4   4   53.34    3.99
  -4  -4   4   53.15    5.74
   4   4  -3   54.64    3.74
   4   4  -3   19.85    2.93
   4  -4  -3   47.11    3.74
  -4  -4   3   52.97    4.07
  -4   4   3   51.69    3.68
   4   4  -2    0.00    0.43
   4  -4  -2   -0.32    0.77
  -4  -4   2    0.29    0.51
  -4   4   2    0.01    0.51
   4  -4  -1   19.21    3.23
   4   4  -1   22.03    2.06
  -4  -4   1   19.13    2.37
  -4   4   1   20.40    2.40
   4   4   0   38.55    2.73
   4  -4   0   35.92    3.05
  -4  -4   0   37.90    4.46
  -4   4   0   37.43    3.51
   4   4   1   70.01    5.34
   4  -4   1   66.08    4.86
  -4   4  -1   66.44    5.49
  -4  -4  -1   67.44    4.99
   4  -4   2    1.72    1.30
   4   4   2    1.70    1.03
  -4   4  -2    1.18    1.78
  -4   4  -2    2.00    1.44
  -4  -4  -2    2.00    1.39
  -4  -4  -2    1.21    1.58
   4   4   3   11.23    3.03
   4  -4   3   10.33    2.64
  -4   4  -3   13.05    2.78
  -4   4  -3    9.98    5.41
  -4  -4  -3   10.60    3.01
  -4  -4  -3    7.78    4.07
  -4  -5   7    1.92    1.81
  -4   5   7   -0.02    1.41
   4  -5  -6  105.83    7.54
  -4  -5   6   99.13    7.94
  -4   5   6  106.31    7.20
   4  -5  -5   69.18    5.58
   4   5  -5   71.31    5.89
   4  -5  -5   60.33    5.01
  -4   5   5   67.32    5.06
  -4  -5   5   63.25    5.68
   4   5  -4    2.45    1.44
   4   5  -4    2.01    2.18
   4  -5  -4    2.84    1.37
  -4  -5   4    2.52    1.46
  -4   5   4    2.20    1.28
   4   5  -3   34.13    3.03
   4   5  -3   28.59    2.87
   4  -5  -3   30.05    4.35
  -4   5   3   31.51    3.00
  -4  -5   3   31.86    3.20
   4   5  -2  137.92    7.11
   4  -5  -2  135.26    7.34
  -4  -5   2  137.83    7.57
  -4   5   2  138.87    7.48
   4   5  -1   28.36    2.43
   4  -5  -1   26.42    2.61
  -4   5   1   27.34    2.84
  -4  -5   1   29.58    2.84
   4   5   0    1.99    0.90
   4  -5   0    2.32    1.75
  -4   5   0    2.13    2.09
  -4  -5   0    1.96    1.17
   4  -5   1   57.22    5.94
   4   5   1   61.87    4.06
  -4  -5  -1   59.25    4.53
  -4   5  -1   56.08    5.19
  -4  -5  -1   66.74    6.99
   4  -5   2    3.56    1.56
   4   5   2    2.96    1.17
  -4   5  -2    4.01    1.69
  -4   5  -2    2.35    2.14
  -4  -5  -2    2.58    1.56
  -4  -5  -2    2.97    2.92
   4   5   3   12.58    2.04
   4  -5   3   13.46    2.79
  -4   5  -3   12.17    2.81
  -4   5  -3    4.99    5.78
  -4  -5  -3   16.00    4.68
  -4  -5  -3    7.56    3.97
  -4   6   7    0.03    1.58
  -4  -6   7    3.37    2.11
   4  -6  -6    0.83    1.27
  -4   6   6    0.63    1.17
  -4  -6   6    0.45    1.53
   4   6  -5   66.81    5.90
   4  -6  -5   66.26    5.16
   4  -6  -5   62.06    7.11
  -4   6   5   63.23    5.02
  -4  -6   5   64.16    5.79
   4   6  -4    0.18    1.04
   4   6  -4    1.81    0.95
   4  -6  -4    0.23    0.97
  -4  -6   4    0.28    1.03
  -4   6   4    0.12    0.90
   4   6  -3   25.94    2.38
   4   6  -3   32.16    3.08
   4  -6  -3   32.11    3.13
  -4  -6   3   28.60    3.07
  -4   6   3   30.01    2.90
   4   6  -2    1.18    0.82
   4  -6  -2    0.78    0.96
  -4  -6   2    0.99    1.00
  -4   6   2    0.23    0.91
   4   6  -1   31.42    3.38
   4  -6  -1   29.68    2.83
  -4   6   1   27.49    4.03
  -4  -6   1   29.55    2.90
   4  -6   0    1.71    1.13
   4   6   0    2.74    0.90
  -4  -6   0    2.01    1.17
  -4   6   0    1.83    1.39
   4  -6   1   63.46    4.88
   4   6   1   63.95    4.01
  -4  -6  -1   58.95    5.80
  -4   6  -1   59.80    5.62
  -4  -6  -1   63.81    5.42
   4  -6   2    1.85    1.28
   4   6   2    1.03    0.91
  -4   6  -2    1.62    2.08
  -4   6  -2    1.09    1.75
  -4  -6  -2    1.02    1.18
  -4  -6  -2    1.02    1.48
   4  -6   3   16.60    4.80
   4   6   3   18.85    2.33
  -4   6  -3   19.42    6.67
  -4   6  -3   17.35    3.22
  -4  -6  -3   17.06    5.50
  -4  -6  -3   16.80    2.88
  -4  -7   7    5.50    4.97
  -4   7   7    5.96    2.34
   4  -7  -6   63.95    5.06
   4  -7  -6    0.08    5.32
  -4  -7   6   64.19    8.15
  -4   7   6   63.34    4.78
   4   7  -5   42.59    4.81
   4  -7  -5   67.26    5.51
   4  -7  -5   40.55    4.27
  -4  -7   5   42.89    4.79
  -4   7   5   42.76    5.49
   4   7  -4    0.04    1.74
   4   7  -4    1.04    1.05
   4  -7  -4    0.27    1.67
  -4  -7   4    0.89    1.88
  -4   7   4    1.51    1.57
   4   7  -3   17.10    2.37
   4   7  -3   53.45    3.76
   4  -7  -3   49.02    3.71
  -4  -7   3   49.81    3.90
  -4   7   3   52.95    3.73
   4   7  -2  103.10    5.67
   4  -7  -2   96.11    5.82
  -4  -7   2   99.98    6.11
  -4   7   2  101.10    6.01
   4  -7  -1   20.89    2.40
   4   7  -1   21.65    2.09
  -4  -7   1   18.96    2.49
  -4   7   1   20.11    2.52
   4  -7   0    1.00    0.99
   4   7   0    1.02    0.74
  -4  -7   0    0.99    1.49
  -4   7   0    0.83    1.18
   4  -7   1   71.95    5.55
   4   7   1   74.85    5.42
  -4  -7  -1   75.98    6.04
  -4   7  -1   69.32    6.18
  -4  -7  -1   69.09    4.79
   4  -7   2   -0.18    1.48
   4   7   2    0.27    0.62
  -4   7  -2    0.45    2.11
  -4  -7  -2    0.01    1.10
  -4  -7  -2    0.54    0.84
   4   7   3   14.42    2.90
   4  -7   3   13.12    3.08
  -4   7  -3   12.61    2.89
  -4   7  -3   13.23    4.09
  -4  -7  -3   13.48    3.45
  -4  -7  -3   13.70    2.52
  -4  -8   7    3.48    3.06
  -4   8   7    5.30    2.11
   4  -8  -6   -0.22    1.05
   4  -8  -6    0.49    0.98
  -4   8   6    0.25    0.95
  -4  -8   6    0.68    1.32
   4   8  -5   43.04    6.65
   4  -8  -5   42.39    4.19
   4  -8  -5   49.51    3.76
  -4   8   5   43.74    4.08
  -4  -8   5   41.05    6.84
   4   8  -4   46.22    4.13
   4   8  -4   75.50    5.86
   4  -8  -4   43.15    3.85
  -4   8   4   42.24    3.64
  -4  -8   4   43.75    4.32
   4   8  -3   45.18    3.57
   4   8  -3   18.49    3.94
   4  -8  -3   43.12    4.98
  -4   8   3   43.09    4.68
  -4  -8   3   43.08    3.79
   4   8  -2    0.24    0.36
   4   8  -2    0.06    0.55
   4  -8  -2   -0.33    0.43
  -4  -8   2   -0.33    0.47
  -4   8   2    0.19    0.42
   4  -8  -1   18.16    2.38
   4   8  -1   17.96    1.97
  -4  -8   1   17.92    2.38
  -4   8   1   18.11    2.54
   4  -8   0   74.69    4.98
   4   8   0   79.61    4.30
  -4   8   0   75.92    5.39
  -4  -8   0   72.92    4.66
   4  -8   1   56.08    4.71
   4   8   1   56.89    3.57
  -4   8  -1   53.72    7.51
  -4  -8  -1   52.65    3.94
  -4  -8  -1   57.50    5.22
   4  -8   2    0.58    1.11
   4   8   2   -0.08    1.08
  -4   8  -2    1.06    1.51
  -4  -8  -2    0.83    0.91
  -4  -8  -2    0.12    1.29
   4  -8   3   12.70    3.11
  -4   8  -3   12.52    2.81
  -4   8  -3   21.75    4.34
  -4  -8  -3   10.76    3.46
   4  -9  -7   -0.13    1.21
  -4   9   7    0.41    1.13
  -4  -9   7    0.80    1.62
   4  -9  -6  131.54    8.13
   4  -9  -6  113.07   10.13
  -4   9   6  117.81    7.73
  -4  -9   6  111.27    9.15
   4  -9  -5   48.05    4.38
   4   9  -5   50.69    5.02
   4  -9  -5   39.82    3.55
  -4   9   5   49.09    5.60
  -4  -9   5   47.43    5.07
   4   9  -4    6.63    1.84
   4   9  -4    0.27    1.67
   4  -9  -4    5.48    1.69
  -4  -9   4    6.71    1.99
  -4   9   4    6.74    2.35
   4   9  -3   23.49    2.52
   4   9  -3   15.69    2.35
   4  -9  -3   21.95    2.70
  -4  -9   3   23.09    2.88
  -4   9   3   22.60    2.57
   4   9  -2  597.99   28.53
   4   9  -2  594.65   28.59
   4  -9  -2  562.02   27.75
  -4  -9   2  587.27   29.16
  -4   9   2  562.24   27.66
   4  -9  -1   16.12    2.40
   4   9  -1   18.15    2.75
  -4   9   1   17.20    2.51
  -4  -9   1   18.73    3.53
   4  -9   0    0.83    1.45
   4   9   0    0.45    0.63
  -4   9   0    0.98    1.08
  -4  -9   0    0.30    0.82
   4   9   1   44.67    3.06
   4  -9   1   43.07    5.68
  -4  -9  -1   43.41    3.46
  -4   9  -1   47.00    4.94
  -4  -9  -1   46.66    4.72
   4  -9   2  129.77    8.47
   4   9   2  130.73    7.52
  -4  -9  -2  121.76    6.81
  -4   9  -2  124.84    9.69
  -4  -9  -2  127.47    8.89
   4  -9   3   10.38    2.82
  -4   9  -3    6.75    2.51
  -4   9  -3    9.65    3.86
  -4  -9  -3    9.44    3.16
   4 -10  -7    1.27    1.74
  -4 -10   7    2.10    2.44
  -4  10   7    1.40    1.57
   4 -10  -6    1.31    1.71
   4 -10  -6    4.81    1.64
  -4  10   6    1.57    2.49
  -4 -10   6    1.16    2.32
   4  10  -5   42.21    4.68
   4 -10  -5   31.91    3.19
   4 -10  -5   41.05    5.45
  -4  10   5   39.01    3.72
  -4 -10   5   41.25    4.84
   4  10  -4   25.25    3.09
   4 -10  -4   20.92    4.12
  -4 -10   4   21.44    3.21
  -4  10   4   22.45    2.63
   4  10  -3   13.56    3.09
   4  10  -3   16.67    2.31
   4 -10  -3   14.44    2.34
  -4 -10   3   15.28    2.64
  -4  10   3   16.70    3.36
   4  10  -2    9.37    1.45
   4  10  -2   11.38    2.63
   4 -10  -2   10.78    3.14
  -4 -10   2   11.01    2.24
  -4  10   2   12.51    2.02
   4 -10  -1   12.58    3.35
   4  10  -1   15.22    1.75
  -4  10   1   13.13    2.34
  -4 -10   1   13.23    2.20
   4  10   0  129.86    6.39
   4 -10   0  123.31    7.36
  -4 -10   0  122.96    6.75
  -4  10   0  125.08    7.96
   4 -10   1   34.11    3.92
   4  10   1   36.20    2.66
  -4 -10  -1   33.94    3.03
  -4 -10  -1   38.92    4.32
  -4  10  -1   38.16    4.77
   4 -10   2    4.47    1.95
   4  10   2    3.86    1.08
  -4  10  -2    4.14    2.65
  -4 -10  -2    4.60    3.37
  -4 -10  -2    3.34    1.37
   4 -10   3   10.97    3.08
  -4  10  -3   11.18    2.56
  -4  10  -3    8.07    4.06
  -4 -10  -3    7.64    3.31
   4 -11  -7    1.77    2.06
  -4 -11   7    3.95    2.92
  -4  11   7    3.26    1.81
   4 -11  -6    3.45    1.38
   4 -11  -6    0.35    1.44
  -4 -11   6    0.67    1.96
  -4  11   6    0.33    1.30
   4 -11  -5   31.31    2.97
   4 -11  -5   30.17    3.53
  -4 -11   5   28.01    4.39
  -4  11   5   27.77    3.21
   4  11  -4    9.15    2.23
   4 -11  -4    7.89    2.06
  -4 -11   4   10.09    3.73
  -4  11   4    9.15    1.87
   4  11  -3   24.86    3.70
   4  11  -3    7.67    2.05
   4 -11  -3   25.99    3.88
  -4 -11   3   24.17    4.30
  -4  11   3   24.27    2.57
   4  11  -2    1.76    1.02
   4  11  -2    1.64    0.85
   4 -11  -2    1.26    1.23
  -4 -11   2    1.37    1.34
  -4  11   2    2.12    1.21
   4 -11  -1    6.47    2.00
   4  11  -1   15.96    1.67
   4  11  -1    7.01    1.46
  -4  11   1    7.19    3.25
  -4 -11   1    6.82    1.89
   4  11   0    1.74    1.24
   4 -11   0    1.26    1.21
  -4 -11   0    1.36    1.91
  -4 -11   0    1.21    1.61
  -4  11   0    1.12    1.44
   4 -11   1   38.39    4.00
   4  11   1   36.67    2.65
  -4  11  -1   33.27    4.75
  -4 -11  -1   36.43    4.28
  -4 -11  -1   34.08    4.15
   4 -11   2    2.92    1.71
   4  11   2    1.72    0.86
  -4  11  -2    1.59    2.28
  -4 -11  -2    1.90    1.10
  -4 -11  -2    2.37    1.86
   4 -11   3    6.75    2.62
  -4  11  -3    3.61    2.09
  -4  11  -3    6.51    3.57
  -4 -11  -3    6.37    2.86
   4 -12  -7    2.80    1.90
  -4  12   7    0.64    2.60
  -4 -12   7    1.79    2.74
   4 -12  -6    2.06    1.66
   4 -12  -6    2.83    1.78
  -4 -12   6    3.76    3.95
  -4  12   6    3.05    1.59
   4 -12  -5   30.14    4.32
   4 -12  -5   32.88    3.69
  -4 -12   5   30.39    4.62
  -4  12   5   34.07    3.41
   4  12  -4   10.68    3.49
   4 -12  -4    9.41    2.14
  -4 -12   4   10.49    2.55
  -4  12   4    9.41    1.93
   4  12  -3   29.58    2.87
   4  12  -3    4.80    2.09
   4 -12  -3   30.30    2.96
  -4 -12   3   29.30    3.30
  -4  12   3   29.16    3.87
   4  12  -2   -0.09    0.81
   4  12  -2    2.84    0.81
   4 -12  -2   -0.42    1.00
  -4  12   2   -0.32    0.96
  -4 -12   2   -0.07    1.07
   4 -12  -1    5.35    1.71
   4  12  -1    4.47    1.84
  -4  12   1    3.59    1.81
  -4 -12   1    5.29    2.47
   4 -12   0   83.90    5.76
   4  12   0   86.62    5.60
  -4  12   0   86.37    6.32
  -4 -12   0   82.90    5.07
  -4 -12   0   84.76    5.88
   4  12   1   35.67    3.40
   4 -12   1   35.19    4.03
  -4 -12  -1   34.19    4.07
  -4 -12  -1   36.63    6.08
  -4  12  -1   33.70    6.77
   4 -12   2    1.79    1.64
   4  12   2    1.60    1.20
  -4  12  -2    1.17    2.24
  -4 -12  -2    1.56    1.85
  -4 -12  -2    1.53    1.57
   4 -12   3    2.97    3.33
  -4  12  -3    2.09    1.69
  -4  12  -3    2.95    2.99
  -4 -12  -3    1.81    3.58
   4 -13  -6   77.57    5.86
   4 -13  -6   43.11    4.68
  -4 -13   6   82.62    7.72
  -4  13   6   82.85    5.55
   4 -13  -5   29.63    3.43
   4 -13  -5   26.99    3.39
  -4  13   5   30.79    3.23
  -4 -13   5   26.87    6.76
   4  13  -4    1.09    0.83
   4 -13  -4   -0.70    0.74
  -4 -13   4    0.30    0.95
  -4  13   4    0.08    0.69
   4  13  -3   19.06    3.53
   4  13  -3    2.65    2.01
   4 -13  -3   17.88    2.47
  -4 -13   3   19.75    2.83
  -4  13   3   18.23    2.26
   4  13  -2  192.50    9.61
   4  13  -2  194.55    9.95
   4 -13  -2  184.98   10.32
  -4 -13   2  186.25   10.44
  -4  13   2  185.21   11.95
   4 -13  -1    1.81    1.47
   4  13  -1    2.63    1.04
  -4  13   1    2.06    1.53
  -4 -13   1    2.46    1.34
   4  13   0   -0.30    1.14
   4 -13   0    5.06    1.79
   4  13   0    6.00    1.12
  -4 -13   0    6.94    1.43
  -4 -13   0    5.61    1.77
  -4  13   0    5.82    2.07
   4  13   1   26.66    2.93
   4 -13   1   24.86    3.57
  -4 -13  -1   26.04    2.44
  -4  13  -1   24.70    4.22
  -4 -13  -1   24.44    3.83
   4 -13   2   42.23    6.74
   4  13   2   39.58    3.29
  -4  13  -2   36.41    8.66
  -4 -13  -2   40.57    5.01
  -4 -13  -2   40.49    3.95
   4 -13   3    3.39    3.39
  -4  13  -3    1.33    1.65
  -4  13  -3    2.40    3.04
  -4 -13  -3    3.07    2.30
   4 -14  -6    4.65    1.96
   4 -14  -6    0.57    1.77
  -4 -14   6    6.04    3.05
  -4  14   6    5.94    1.76
   4 -14  -5   15.34    4.35
   4 -14  -5   28.17    3.12
  -4 -14   5   13.51    3.93
  -4  14   5   16.63    3.93
   4  14  -4   56.52    4.88
   4 -14  -4   53.02    6.05
  -4 -14   4   54.45    5.27
  -4  14   4   53.48    4.19
   4  14  -3   17.31    2.34
   4  14  -3    1.02    1.93
   4 -14  -3   14.70    2.33
  -4 -14   3   15.60    2.79
  -4  14   3   18.64    3.36
   4 -14  -2    1.82    2.14
   4  14  -2    1.92    1.12
   4  14  -2    2.04    1.05
  -4 -14   2    1.86    2.36
  -4  14   2    2.00    1.35
   4 -14  -1    0.91    1.13
   4  14  -1    0.68    0.76
  -4 -14   1    0.70    1.05
  -4  14   1    0.19    1.88
   4  14   0   32.37    2.59
   4  14   0   56.80    3.19
   4 -14   0   31.94    5.44
  -4  14   0   30.26    4.15
  -4 -14   0   34.14    3.77
  -4 -14   0   31.89    4.29
   4  14   1   26.32    2.87
   4 -14   1   26.69    3.77
  -4 -14  -1   26.23    3.83
  -4 -14  -1   26.04    2.43
  -4  14  -1   23.44    4.39
   4 -14   2    0.33    1.21
  -4  14  -2   -0.04    1.59
  -4 -14  -2    0.64    2.02
   4 -14   3    4.40    2.65
  -4  14  -3    4.54    3.59
  -4 -14  -3    3.55    2.87
   4 -15  -6    0.06    1.63
   4 -15  -6    4.81    2.83
  -4  15   6    4.30    2.48
  -4 -15   6    6.88    2.83
   4 -15  -5   21.41    4.69
   4 -15  -5   26.97    3.22
  -4 -15   5   23.32    4.39
  -4  15   5   21.05    2.90
   4 -15  -4   -0.03    0.91
  -4  15   4    0.20    0.81
  -4 -15   4    1.13    1.21
   4  15  -3   18.88    2.68
   4 -15  -3   19.02    4.05
  -4 -15   3   17.63    3.31
  -4  15   3   17.11    2.57
   4  15  -2    0.23    0.85
   4  15  -2    0.89    0.80
   4 -15  -2    0.79    1.07
  -4 -15   2   -0.03    1.19
  -4  15   2    1.50    1.66
   4  15  -1    4.93    2.23
   4  15  -1   17.20    1.67
   4 -15  -1    4.86    2.14
  -4 -15   1    4.48    1.85
  -4 -15   1    7.34    2.01
  -4  15   1    5.45    2.26
   4  15   0    0.62    0.59
   4 -15   0    0.21    1.65
   4  15   0    0.08    0.52
  -4 -15   0    0.28    1.22
  -4  15   0   -0.03    1.82
  -4 -15   0    0.55    0.97
   4  15   1   21.31    2.20
   4 -15   1   24.50    3.74
   4  15   1   26.42    2.86
  -4 -15  -1   27.81    3.87
  -4 -15  -1   24.42    2.33
  -4  15  -1   20.81    4.32
   4 -15   2    0.45    1.30
  -4  15  -2   -0.05    1.68
  -4 -15  -2    0.34    1.34
   4 -16  -6   -1.68    1.44
   4 -16  -6   -0.00    1.54
  -4  16   6    0.28    0.85
  -4 -16   6   -0.23    1.62
   4 -16  -5   23.41    3.14
   4 -16  -5   19.17    3.01
  -4  16   5   21.39    2.75
  -4 -16   5   21.99    4.48
   4 -16  -4    1.14    1.20
  -4 -16   4    1.45    2.60
  -4  16   4    0.71    1.69
   4  16  -3   10.65    2.33
   4 -16  -3   12.51    3.52
  -4 -16   3    9.98    4.49
  -4  16   3   13.50    3.33
   4  16  -2   -0.18    0.63
   4  16  -2    0.26    0.61
   4 -16  -2    0.36    0.79
  -4 -16   2    0.26    0.87
  -4  16   2   -0.04    0.78
   4  16  -1    4.40    1.41
   4  16  -1   12.47    1.44
   4 -16  -1    3.69    3.14
  -4 -16   1    4.26    3.02
  -4  16   1    3.81    2.19
  -4 -16   1    3.58    1.78
   4 -16   0    0.54    1.19
   4  16   0    0.71    1.04
   4  16   0    0.45    1.04
  -4  16   0    0.69    1.29
  -4 -16   0    0.48    1.10
  -4 -16   0    0.27    0.87
   4 -16   1   18.43    4.99
   4  16   1   17.38    1.64
   4  16   1   17.74    2.44
  -4 -16  -1   19.05    3.49
  -4 -16  -1   16.72    2.01
  -4  16  -1   17.75    6.06
   4 -16   2    0.14    1.36
  -4  16  -2    0.02    1.74
  -4 -16  -2    0.78    1.45
   4 -17  -6   17.09    4.71
   4 -17  -6    8.74    4.19
  -4 -17   6   20.41    4.98
  -4  17   6   19.20    2.60
   4 -17  -5   20.42    2.83
   4 -17  -5   14.16    2.79
  -4  17   5   15.23    2.47
  -4 -17   5   13.46    4.16
   4 -17  -4    0.21    0.98
  -4 -17   4    0.61    2.17
  -4  17   4    0.46    0.91
   4  17  -3    8.88    2.24
   4 -17  -3    8.88    2.16
  -4 -17   3    7.10    4.19
  -4  17   3    9.27    2.10
   4  17  -2   54.92    4.01
   4  17  -2   54.97    5.43
   4 -17  -2   52.12    4.61
  -4 -17   2   53.97    4.95
  -4  17   2   52.81    4.66
   4 -17  -1    1.49    1.43
   4  17  -1    1.45    0.96
  -4 -17   1    0.36    1.89
  -4  17   1    1.51    1.52
  -4 -17   1    0.99    2.11
   4  17   0    1.18    1.24
   4  17   0    0.95    1.26
   4 -17   0    0.89    1.47
  -4 -17   0    1.24    1.05
  -4  17   0    0.79    1.64
  -4 -17   0    1.38    1.38
   4  17   1   20.49    2.44
   4 -17   1   18.06    5.08
   4  17   1   14.08    1.77
  -4 -17  -1   17.74    1.99
  -4 -17  -1   18.85    3.53
  -4  17  -1   19.49    4.17
   4 -17   2    8.14    3.12
  -4  17  -2    8.34    3.94
  -4 -17  -2    8.48    3.18
   4 -18  -6    1.21    2.69
   4 -18  -6    4.29    3.05
  -4  18   6    4.28    2.40
  -4 -18   6    3.68    3.22
   4 -18  -5   27.48    2.86
   4 -18  -5    8.92    2.54
  -4  18   5    9.44    2.35
  -4 -18   5   10.11    4.04
   4 -18  -4   24.88    3.18
  -4 -18   4   21.12    4.22
  -4  18   4   24.58    4.24
   4 -18  -3   15.11    2.69
  -4 -18   3   14.84    3.35
  -4  18   3   17.71    3.91
   4  18  -2    0.35    0.95
   4 -18  -2    0.87    1.17
  -4 -18   2    0.80    1.31
  -4 -18   2    0.80    0.93
  -4  18   2    0.42    1.19
   4 -18  -1    0.97    1.46
   4  18  -1    1.27    1.50
  -4  18   1    1.35    1.58
  -4 -18   1    1.53    1.25
  -4 -18   1    1.25    1.41
   4  18   0    2.26    0.89
   4 -18   0    2.34    1.61
  -4  18   0    0.33    2.90
  -4 -18   0    0.50    1.18
  -4 -18   0    0.74    1.52
   4  18   1   25.66    2.51
   4  18   1    9.83    1.63
   4 -18   1   28.17    5.45
  -4 -18  -1   22.40    2.07
  -4 -18  -1   23.13    3.67
  -4  18  -1   24.03    4.44
   4 -18   2    0.10    1.16
  -4  18  -2   -0.31    2.42
  -4 -18  -2    0.41    1.83
   4 -19  -6   11.19    2.83
  -4 -19   6   12.83    4.58
  -4  19   6   11.82    3.20
   4 -19  -5   16.49    2.99
   4 -19  -5   23.94    3.11
  -4  19   5   16.22    3.94
  -4 -19   5   18.35    4.68
   4 -19  -4    0.06    0.86
  -4 -19   4    0.18    1.27
  -4  19   4    0.23    0.79
   4 -19  -3   15.41    2.73
  -4 -19   3   12.12    3.35
  -4 -19   3   15.35    2.94
  -4  19   3   13.23    2.71
   4 -19  -2    0.02    1.03
  -4 -19   2    0.89    1.20
  -4 -19   2    0.27    0.80
  -4  19   2    0.30    1.09
   4  19  -1    3.46    1.38
   4 -19  -1    5.26    2.02
  -4 -19   1    4.23    1.79
  -4 -19   1    5.04    1.96
  -4  19   1    5.39    3.43
   4 -19   0    0.02    1.96
   4  19   0    0.06    1.06
   4  19   0    6.52    1.11
  -4 -19   0    5.44    2.87
  -4 -19   0    5.13    2.22
  -4  19   0    0.11    2.28
   4 -19   1   24.11    5.55
   4  19   1   14.36    1.77
  -4  19  -1   24.98    4.49
  -4 -19  -1   26.21    5.62
   4 -19   2    3.64    2.58
  -4  19  -2    2.34    5.08
  -4 -19  -2    3.02    2.63
  -4 -20   6    3.87    2.37
  -4  20   6   -0.02    1.04
   4 -20  -5   24.32    3.25
   4 -20  -5   17.88    3.09
  -4  20   5   23.46    2.92
  -4 -20   5   21.87    5.19
   4 -20  -4   27.06    5.04
  -4 -20   4   28.84    4.98
  -4 -20   4   30.48    2.58
  -4  20   4   29.57    3.43
   4 -20  -3    5.56    2.14
  -4 -20   3    7.11    2.82
  -4 -20   3    6.79    1.57
  -4  20   3    7.33    3.32
   4 -20  -2   -0.02    1.04
  -4 -20   2    0.20    1.93
  -4 -20   2    0.69    0.83
  -4  20   2   -0.32    1.71
   4 -20  -1    5.78    2.30
  -4 -20   1    6.58    2.32
  -4 -20   1    8.27    2.11
  -4  20   1    7.45    2.65
   4 -20   0   78.05    6.70
  -4 -20   0   88.07    6.76
  -4  20   0   81.56    7.48
  -4 -20   0   78.60    7.02
   4 -20   1   18.20    4.01
  -4  20  -1   21.42    7.23
  -4 -20  -1   20.94    4.00
   4 -20   2    1.35    2.35
  -4  20  -2    3.37    2.98
  -4 -20  -2    2.37    2.43
   4 -21  -5   20.61    2.96
   4 -21  -5   13.96    4.45
  -4 -21   5   15.13    4.96
  -4  21   5   15.16    2.75
   4 -21  -4    1.50    2.08
  -4  21   4    1.03    1.28
  -4 -21   4    1.43    2.09
  -4 -21   4    0.64    1.36
   4 -21  -3    3.35    1.71
  -4 -21   3   -0.01    2.31
  -4 -21   3    3.21    1.27
  -4  21   3    3.22    1.75
   4 -21  -2  105.39    7.47
  -4 -21   2  111.93    8.61
  -4  21   2  109.56    7.76
  -4 -21   2  111.25   10.87
   4 -21  -1    2.31    1.80
  -4 -21   1    2.44    1.79
  -4 -21   1    2.05    1.60
  -4  21   1    2.96    2.05
   4 -21   0    0.03    1.81
  -4 -21   0    3.85    1.74
  -4  21   0   -0.00    2.19
  -4 -21   0    2.33    1.33
   4 -21   1   20.82    4.08
  -4  21  -1   20.02    4.85
  -4 -21  -1   18.40    4.10
   4 -21   2   46.36    6.33
  -4  21  -2   47.19    7.75
  -4 -21  -2   49.45    6.49
   4 -22  -5    5.72    3.86
   4 -22  -5   17.10    2.62
  -4  22   5    6.37    3.57
  -4 -22   5    7.80    4.32
   4 -22  -4   16.12    2.92
  -4 -22   4   16.54    4.46
  -4 -22   4   17.54    2.06
  -4  22   4   17.96    2.88
   4 -22  -3    4.77    1.87
  -4  22   3    4.43    2.91
  -4 -22   3   -0.02    2.59
  -4 -22   3    3.67    2.16
   4 -22  -2    0.31    1.70
  -4 -22   2    0.78    1.27
  -4 -22   2   -0.01    0.87
  -4  22   2    0.46    1.79
   4 -22  -1    0.00    1.39
  -4 -22   1    1.99    2.33
  -4 -22   1    2.19    1.95
  -4  22   1   -0.10    2.58
   4 -22   0   17.45    3.50
  -4 -22   0   17.08    2.61
  -4  22   0   18.97    4.27
  -4 -22   0   20.27    5.13
   4 -22   1   16.36    4.05
  -4 -22  -1   18.60    5.86
  -4  22  -1   15.85    4.78
   4 -23  -5    6.13    3.66
   4 -23  -5    7.35    2.35
  -4 -23   5    8.53    4.29
  -4  23   5   10.19    2.26
   4 -23  -4    1.71    1.46
  -4 -23   4    2.68    2.47
  -4 -23   4    1.03    0.97
  -4  23   4    1.17    2.27
   4 -23  -3    4.77    3.23
  -4  23   3    4.89    2.20
  -4 -23   3   -0.04    2.97
  -4 -23   3    7.35    1.64
   4 -23  -2   35.53    6.18
  -4 -23   2   35.25    4.95
  -4 -23   2   40.30    5.25
  -4  23   2   38.20    4.64
   4 -23  -1   -0.02    1.09
  -4  23   1    0.02    1.28
  -4 -23   1    0.16    1.81
  -4 -23   1    0.62    1.00
   4 -23   0    0.03    1.55
  -4  23   0    0.04    1.92
  -4 -23   0    1.07    1.14
  -4 -23   0    1.57    1.51
   4 -23   1    0.04    2.74
  -4 -23  -1   10.21    2.70
  -4  23  -1    0.44    3.40
   4 -24  -5    3.41    2.85
  -4 -24   5    5.15    3.53
  -4 -24   5    0.07    2.63
  -4  24   5    3.81    1.60
   4 -24  -4   12.84    2.71
  -4 -24   4   11.48    4.31
  -4 -24   4   12.00    1.85
  -4  24   4   13.34    2.74
   4 -24  -3    1.94    2.29
  -4  24   3    1.42    2.48
  -4 -24   3    0.01    2.15
  -4 -24   3    1.79    1.78
   4 -24  -2    1.78    2.83
  -4 -24   2    1.48    2.20
  -4  24   2    3.72    2.00
  -4 -24   2    2.07    1.49
   4 -24  -1    0.00    1.26
  -4  24   1    0.15    1.52
  -4 -24   1    1.27    2.05
  -4 -24   1    1.01    1.82
   4 -24   0   14.37    3.42
  -4 -24   0   12.36    2.46
  -4 -24   0   13.74    3.29
  -4  24   0   14.05    4.09
   4 -24   1    0.04    2.23
  -4 -24  -1    4.07    2.19
  -4  24  -1   -0.02    2.72
   4 -25  -4    0.74    1.19
  -4 -25   4   -0.01    2.01
  -4  25   4    0.15    1.87
   4 -25  -3   -0.36    1.31
  -4  25   3    0.10    0.92
  -4 -25   3   -0.01    1.23
  -4 -25   3    0.19    0.64
   4 -25  -2    6.83    3.28
  -4 -25   2    6.98    2.78
  -4  25   2    0.00    2.44
  -4 -25   2    4.12    2.63
   4 -25  -1    0.02    1.41
  -4  25   1    0.06    2.62
  -4 -25   1    1.07    1.29
  -4 -25   1    0.92    2.25
   4 -25   0    0.01    0.98
  -4 -25   0   -0.30    1.46
  -4  25   0    0.12    1.90
   4 -25   1   -0.01    2.08
  -4 -25  -1    2.91    2.01
  -4  25  -1   -0.27    2.63
   4 -26  -4   16.37    2.74
  -4 -26   4   -0.06    4.65
  -4 -26   4    0.16    3.26
  -4  26   4   17.44    2.88
   4 -26  -3    0.66    2.26
  -4  26   3    1.72    2.43
  -4 -26   3   -0.01    2.12
  -4 -26   3    1.07    1.11
   4 -26  -2   -0.29    1.08
  -4 -26   2   -0.05    0.86
  -4  26   2    0.01    0.79
  -4 -26   2    0.07    0.59
   4 -26  -1   -0.00    1.20
  -4  26   1    0.15    1.48
  -4 -26   1    0.92    1.11
  -4 -26   1   -0.24    1.28
   4 -26   0    0.00    2.23
  -4 -26   0    5.56    2.13
  -4  26   0   -0.20    2.72
   4 -27  -4    0.33    1.14
  -4 -27   4    0.05    2.02
  -4 -27   4   -0.33    1.44
  -4  27   4    1.57    1.85
   4 -27  -3    2.53    2.07
  -4  27   3   -0.02    1.47
  -4 -27   3    1.78    1.65
  -4 -27   3   -0.02    2.00
  -4 -27   3   -0.33    1.42
   4 -27  -2   -0.15    1.66
  -4 -27   2   -0.23    0.94
  -4  27   2    0.00    1.98
  -4 -27   2   -0.27    1.02
  -4 -27   2   -0.02    1.37
   4 -27  -1    0.13    1.10
  -4  27   1    0.01    1.30
  -4 -27   1    0.53    0.97
  -4 -27   1   -0.15    1.15
  -4 -27   1   -0.00    0.87
   4 -27   0   -0.01    2.10
  -4 -27   0    3.98    2.04
  -4  27   0    0.09    2.56
   4 -28  -3    1.51    2.08
  -4  28   3    0.02    1.48
  -4 -28   3    1.00    1.06
  -4 -28   3   -0.01    2.03
  -4 -28   3    0.06    1.44
   4 -28  -2   -0.30    1.34
  -4 -28   2   -0.42    0.74
  -4 -28   2   -0.02    0.80
  -4  28   2    0.03    0.99
  -4 -28   2    1.41    1.10
   4 -28  -1    0.10    1.21
  -4  28   1   -0.03    2.32
  -4 -28   1    0.01    0.98
  -4 -28   1    0.33    1.27
  -4 -28   1    0.43    1.10
   4 -29  -2   52.32    7.87
  -4 -29   2   47.14    6.54
  -4  29   2   49.78    6.21
  -4 -29   2   51.63    5.30
  -4 -29   2   51.37    5.03
   4 -29  -1   -0.01    1.67
  -4  29   1    0.01    2.00
  -4 -29   1    3.18    2.34
  -4 -29   1    1.66    1.70
  -4 -29   1   -0.04    1.29
   5   0  -7   -0.13    1.13
  -5   0   7   -0.12    1.29
   5   0  -6    0.72    2.38
   5   0  -6    9.79    2.61
  -5   0   6   11.14    2.82
   5   0  -5    0.14    1.40
   5   0  -5    5.44    2.10
  -5   0   5   -0.37    1.52
   5   0  -4   -0.67    2.80
   5   0  -4   45.53    3.77
  -5   0   4   44.07    3.98
   5   0  -3    0.22    0.77
  -5   0   3    0.09    0.92
   5   0  -2   37.58    3.58
  -5   0   2   35.51    3.89
   5   0  -1    0.29    0.55
  -5   0   1   -0.60    0.72
   5   0   0    1.64    2.20
  -5   0   0    3.63    1.93
   5   0   1    0.01    0.56
  -5   0  -1    0.04    0.80
   5   0   2   29.96    3.91
  -5   0  -2   34.85    4.75
  -5   0  -2   29.88    5.07
   5   1  -7  113.72    9.19
   5  -1  -7  113.82   11.84
  -5  -1   7  113.15    9.88
  -5   1   7  111.90    9.59
   5   1  -6    9.46    3.05
   5   1  -6   21.84    3.19
   5  -1  -6   23.02    4.45
   5  -1  -6    8.29    4.45
  -5  -1   6    7.59    3.41
  -5   1   6   10.89    3.24
   5   1  -5    2.36    2.07
   5   1  -5    7.32    2.00
   5  -1  -5    5.86    1.71
   5  -1  -5    2.16    3.09
  -5   1   5    2.03    2.12
  -5  -1   5    2.98    3.39
   5   1  -4   51.59    4.78
   5  -1  -4   56.18    6.79
  -5  -1   4   50.75    7.04
  -5   1   4   51.29    5.08
   5   1  -3   54.50    4.31
   5  -1  -3   54.80    6.05
  -5   1   3   51.83    4.68
  -5  -1   3   51.64    4.80
   5  -1  -2   26.76    3.08
   5   1  -2   30.56    4.42
  -5  -1   2   29.55    3.61
  -5   1   2   28.17    5.14
   5   1  -1    0.92    1.06
   5  -1  -1    0.76    1.14
  -5  -1   1    1.03    1.41
  -5   1   1    1.79    1.38
   5  -1   0    5.89    1.86
   5   1   0    7.48    1.81
  -5  -1   0    5.58    3.62
  -5   1   0    5.36    2.40
   5   1   1   22.12    2.84
   5  -1   1   21.47    2.97
  -5   1  -1   20.49    5.99
  -5  -1  -1   20.48    3.81
   5  -1   2   26.33    3.61
   5   1   2   21.58    3.35
  -5  -1  -2   21.56    4.42
  -5   1  -2   24.62    4.68
  -5   1  -2   24.34    3.99
  -5  -1  -2   25.41    4.19
   5   2  -7    0.90    1.46
   5  -2  -7    0.20    1.43
  -5   2   7   -0.00    1.57
  -5  -2   7    0.72    2.63
   5  -2  -6   -1.10    1.90
   5   2  -6    6.23    2.19
   5   2  -6    0.98    2.14
   5  -2  -6    6.80    2.12
  -5   2   6    5.82    2.30
  -5  -2   6    5.22    2.52
   5   2  -5  136.33    9.12
   5  -2  -5  134.74    8.82
  -5  -2   5  134.38    9.49
  -5   2   5  129.51    9.02
   5   2  -4   53.88    6.79
   5  -2  -4   56.92    5.04
  -5  -2   4   53.25    5.21
  -5   2   4   55.24    5.18
   5   2  -3    0.08    0.90
   5  -2  -3    0.64    0.94
  -5  -2   3    0.20    1.05
  -5   2   3    0.53    1.05
   5   2  -2   28.10    3.11
   5  -2  -2   28.92    3.11
  -5  -2   2   30.66    5.18
  -5   2   2   29.55    3.59
   5   2  -1  227.15   13.33
   5  -2  -1  222.64   11.98
  -5  -2   1  217.66   12.51
  -5   2   1  209.52   12.10
   5   2   0    6.00    1.81
   5  -2   0    6.64    1.89
  -5   2   0    6.00    2.47
  -5  -2   0    8.52    2.34
   5   2   1    0.23    1.42
   5  -2   1    0.26    0.96
  -5   2  -1    0.24    1.32
  -5  -2  -1    0.51    1.25
   5   2   2   23.61    3.37
   5  -2   2   26.86    5.27
  -5   2  -2   26.07    4.81
  -5  -2  -2   25.78    4.35
  -5   2  -2   22.40    5.73
  -5  -2  -2   26.22    4.21
   5   3  -7   19.47    4.06
   5  -3  -7   18.07    3.74
  -5  -3   7   17.25    4.54
  -5   3   7   19.89    4.08
   5   3  -6   48.21    4.24
   5  -3  -6   48.49    3.93
   5  -3  -6   11.25    3.49
   5   3  -6   10.70    5.48
  -5   3   6   10.91    3.73
  -5  -3   6   11.62    4.02
   5   3  -5    6.15    1.65
   5   3  -5   -0.38    1.63
   5  -3  -5    4.35    1.39
   5  -3  -5   -0.35    1.59
  -5   3   5    0.56    1.70
  -5  -3   5   -0.06    1.82
   5   3  -4   41.85    3.96
   5   3  -4    1.00    3.08
   5  -3  -4   39.69    3.85
  -5  -3   4   43.45    4.21
  -5   3   4   40.73    4.21
   5   3  -3    2.34    1.37
   5  -3  -3    2.16    1.46
  -5  -3   3    2.36    1.62
  -5   3   3    1.71    2.48
   5   3  -2   39.83    3.60
   5  -3  -2   39.36    3.91
  -5   3   2   41.04    4.19
  -5  -3   2   39.68    4.24
   5   3  -1    0.17    0.41
   5  -3  -1   -0.40    0.69
  -5  -3   1   -0.42    0.86
  -5   3   1    0.14    0.54
   5   3   0    7.15    1.72
   5  -3   0    6.71    2.96
  -5   3   0    5.08    3.89
  -5  -3   0    6.89    2.26
   5   3   1   49.16    4.16
   5  -3   1   48.50    4.51
  -5  -3  -1   47.35    5.12
  -5   3  -1   46.73    5.53
   5  -3   2   32.31    4.36
   5   3   2   33.23    5.36
  -5   3  -2   34.70    5.50
  -5   3  -2   33.41    6.41
  -5  -3  -2   33.47    4.79
  -5  -3  -2   35.03    4.84
   5  -4  -7    0.50    1.57
  -5  -4   7    1.38    1.95
  -5   4   7    0.08    2.68
   5  -4  -6    8.55    2.32
   5  -4  -6    0.22    2.05
   5   4  -6    9.35    2.48
  -5  -4   6    9.01    2.75
  -5   4   6   -0.05    2.47
   5   4  -5    2.43    2.17
   5   4  -5   13.46    2.25
   5  -4  -5    9.60    2.88
   5  -4  -5    3.09    2.13
  -5  -4   5    2.87    2.47
  -5   4   5    2.39    3.44
   5   4  -4   50.10    4.72
   5  -4  -4   50.69    6.61
  -5  -4   4   45.68    7.06
  -5   4   4   49.24    7.04
   5   4  -3    1.84    2.04
   5  -4  -3    2.60    2.26
  -5  -4   3    1.91    1.60
  -5   4   3    1.47    1.52
   5   4  -2   39.26    3.64
   5  -4  -2   40.89    3.87
  -5  -4   2   37.06    4.18
  -5   4   2   38.82    5.76
   5   4  -1    0.19    1.15
   5  -4  -1    0.15    0.80
  -5   4   1    0.33    0.98
  -5  -4   1    0.15    0.97
   5  -4   0   13.49    2.50
   5   4   0   11.95    2.18
  -5   4   0   13.40    3.18
  -5  -4   0   14.26    2.84
   5  -4   1    0.59    1.34
   5   4   1    0.66    1.68
  -5   4  -1    0.75    1.76
  -5  -4  -1    0.76    2.28
  -5  -4  -1    1.52    1.51
   5  -4   2   28.29    4.22
   5   4   2   30.54    3.67
  -5   4  -2   29.45    4.20
  -5   4  -2   28.35    5.50
  -5  -4  -2   27.02    4.48
  -5  -4  -2   31.81    6.79
   5  -5  -7   29.34    4.41
  -5   5   7   28.40    4.75
  -5  -5   7   30.06    8.21
   5  -5  -6    1.86    2.58
   5   5  -6    2.76    1.81
  -5  -5   6    2.11    2.09
  -5   5   6   -0.09    1.81
   5   5  -5    4.10    2.65
   5   5  -5   24.66    2.83
   5  -5  -5    3.95    2.54
   5  -5  -5   25.71    2.95
  -5  -5   5    6.37    2.98
  -5   5   5    4.26    2.72
   5   5  -4   82.09    8.28
   5  -5  -4   74.06    5.94
  -5   5   4   72.02    6.15
  -5  -5   4   74.07    6.42
   5   5  -3   59.62    4.61
   5  -5  -3   58.82    4.86
  -5  -5   3   57.40    5.14
  -5   5   3   55.80    4.92
   5   5  -2   23.05    2.81
   5  -5  -2   23.75    3.03
  -5  -5   2   21.52    5.09
  -5   5   2   22.97    3.28
   5  -5  -1    1.74    1.30
   5   5  -1    1.80    1.18
  -5   5   1    1.85    1.61
  -5  -5   1    1.00    1.56
   5  -5   0   23.96    3.13
   5   5   0   22.84    2.77
  -5   5   0   20.70    3.93
  -5  -5   0   21.12    5.10
   5  -5   1  119.10    8.10
   5   5   1  117.10    7.09
  -5   5  -1  113.60    9.23
  -5  -5  -1  116.71    8.44
  -5  -5  -1  115.90   10.70
   5  -5   2   29.83    4.20
   5   5   2   27.31    3.39
  -5   5  -2   27.63    8.22
  -5   5  -2   27.33    4.14
  -5  -5  -2   31.13    4.89
  -5  -5  -2   28.23    6.41
   5  -6  -7    2.11    1.78
  -5  -6   7    1.66    2.34
  -5   6   7    0.09    1.94
   5  -6  -6    1.49    2.77
   5   6  -6    3.79    2.13
   5  -6  -6    3.44    1.98
  -5  -6   6    3.73    3.86
  -5   6   6   -0.03    3.26
   5   6  -5  184.42   13.74
   5  -6  -5  171.73   10.67
  -5  -6   5  167.78   11.39
  -5   6   5  171.40   10.99
   5   6  -4   66.49    5.71
   5  -6  -4   60.88    5.29
  -5   6   4   63.82    5.62
  -5  -6   4   58.43    5.90
   5   6  -3    0.96    1.04
   5  -6  -3    0.55    1.15
  -5   6   3    1.00    1.22
  -5  -6   3    0.02    1.27
   5   6  -2   26.83    2.98
   5  -6  -2   24.81    3.27
  -5  -6   2   27.73    3.74
  -5   6   2   26.16    3.59
   5   6  -1  389.90   20.96
   5  -6  -1  371.13   21.21
  -5  -6   1  374.52   22.45
  -5   6   1  371.92   20.17
   5   6   0   17.37    2.34
   5  -6   0   15.99    4.10
  -5  -6   0   14.71    2.94
  -5   6   0   14.69    3.42
   5  -6   1    0.97    1.20
   5   6   1    0.38    1.44
  -5  -6  -1    0.41    1.33
  -5   6  -1    0.56    2.62
  -5  -6  -1   -0.36    1.98
   5  -6   2   35.78    6.62
   5   6   2   33.19    3.61
  -5   6  -2   35.17    9.06
  -5   6  -2   34.62    4.59
  -5  -6  -2   36.73    5.28
  -5  -6  -2   31.67    6.62
   5  -7  -7  178.03   14.76
  -5   7   7  179.19   12.49
  -5  -7   7  170.39   13.69
   5   7  -6    7.05    3.92
   5  -7  -6    7.11    2.32
  -5   7   6    0.03    2.47
  -5  -7   6    8.37    2.90
   5   7  -5    1.45    2.18
   5   7  -5   12.60    3.37
   5  -7  -5    1.84    1.97
   5  -7  -5   12.11    2.18
  -5  -7   5    2.21    2.43
  -5   7   5    1.59    2.09
   5   7  -4   41.81    4.39
   5  -7  -4   39.03    4.17
  -5  -7   4   41.06    4.83
  -5   7   4   40.28    4.43
   5   7  -3   37.60    4.51
   5   7  -3   86.19    5.61
   5  -7  -3   84.93    7.58
  -5  -7   3   80.45    6.04
  -5   7   3   88.37    6.09
   5   7  -2   41.71    3.68
   5  -7  -2   38.13    4.02
  -5  -7   2   40.10    4.56
  -5   7   2   40.80    4.36
   5  -7  -1    0.64    1.17
   5   7  -1    1.31    0.96
  -5  -7   1    0.39    1.32
  -5   7   1    0.24    2.17
   5   7   0   13.02    2.13
   5  -7   0   12.62    2.58
  -5   7   0   12.76    5.12
  -5  -7   0   12.91    2.74
   5  -7   1   73.04    8.14
   5   7   1   70.46    4.90
  -5   7  -1   70.39   10.53
  -5  -7  -1   71.16    6.41
  -5  -7  -1   69.64    5.86
   5  -7   2   34.52    4.71
   5   7   2   34.78    3.55
  -5   7  -2   34.45    4.48
  -5   7  -2   34.90    6.24
  -5  -7  -2   35.71    5.39
  -5  -7  -2   33.41    6.45
   5  -8  -7    2.09    2.77
  -5   8   7    0.02    1.98
  -5  -8   7    2.79    2.48
   5  -8  -6    4.92    2.05
   5   8  -6    6.10    2.37
   5  -8  -6    0.91    1.90
  -5  -8   6    4.80    2.78
  -5   8   6    0.01    3.47
   5   8  -5  100.03    7.71
   5  -8  -5   96.52    7.13
  -5   8   5   97.98    7.22
  -5  -8   5   97.17   10.95
   5   8  -4   43.60    4.59
   5   8  -4   94.59    5.69
   5  -8  -4   43.98    4.77
  -5  -8   4   41.14    7.40
  -5   8   4   48.79    5.04
   5   8  -3    2.66    1.49
   5  -8  -3    2.59    1.59
  -5  -8   3    2.03    1.83
  -5   8   3    3.47    2.65
   5   8  -2   37.71    3.53
   5  -8  -2   37.22    5.48
  -5  -8   2   37.51    4.39
  -5   8   2   37.11    4.15
   5   8  -1   98.77    7.32
   5  -8  -1   95.91    6.59
  -5   8   1   94.13    7.06
  -5  -8   1   94.51    6.86
   5  -8   0   12.73    2.63
   5   8   0   11.01    3.06
  -5   8   0   11.77    3.26
  -5  -8   0    8.75    2.51
   5  -8   1   -0.15    0.90
   5   8   1   -0.20    0.65
  -5  -8  -1    0.67    1.55
  -5   8  -1   -0.27    1.26
  -5  -8  -1   -0.02    0.85
   5  -8   2   33.12    4.71
   5   8   2   33.87    4.85
  -5   8  -2   32.37    4.43
  -5   8  -2   30.80    6.27
  -5  -8  -2   32.05    6.30
  -5  -8  -2   35.82    5.26
   5  -9  -7    0.02    1.08
  -5  -9   7    0.46    1.58
  -5   9   7    0.05    1.83
   5   9  -6    1.23    1.76
   5  -9  -6    1.02    1.54
   5  -9  -6    1.56    1.46
  -5   9   6    0.02    1.59
  -5  -9   6    1.21    2.00
   5   9  -5    1.66    3.54
   5   9  -5   11.88    2.29
   5  -9  -5    5.71    2.10
   5  -9  -5    1.95    1.97
  -5  -9   5    2.13    2.60
  -5   9   5    1.21    3.31
   5   9  -4   58.49    4.90
   5   9  -4    2.53    5.11
   5  -9  -4   57.25    4.90
  -5   9   4   56.29    6.77
  -5  -9   4   52.97    5.35
   5   9  -3   16.18    2.01
   5   9  -3    8.83    3.39
   5  -9  -3    7.41    2.31
  -5  -9   3    6.64    4.20
  -5   9   3    7.22    2.54
   5   9  -2   17.15    2.51
   5  -9  -2   16.23    2.89
  -5  -9   2   18.22    3.23
  -5   9   2   17.09    4.49
   5   9  -1    3.17    1.32
   5  -9  -1    2.89    1.62
  -5  -9   1    2.75    1.85
  -5   9   1    2.70    1.96
   5  -9   0   10.78    2.62
   5   9   0   10.18    1.94
  -5  -9   0    9.01    2.45
  -5   9   0   12.17    3.25
   5  -9   1    3.68    2.07
   5   9   1    3.30    2.25
  -5   9  -1    3.77    2.90
  -5  -9  -1    3.22    1.95
  -5  -9  -1    5.51    2.35
   5  -9   2   24.09    4.11
   5   9   2   21.87    2.89
  -5   9  -2   22.24    5.57
  -5   9  -2   20.77    3.67
  -5  -9  -2   23.29    6.73
  -5  -9  -2   23.27    5.34
   5 -10  -7    0.13    1.40
  -5 -10   7    0.10    3.27
  -5  10   7    1.00    1.50
   5  10  -6    3.77    1.98
   5 -10  -6    2.11    1.71
   5 -10  -6   -0.04    1.59
  -5 -10   6    2.20    2.30
  -5  10   6   -0.02    2.76
   5  10  -5   59.35    5.37
   5  10  -5    5.75    3.93
   5 -10  -5   55.78    4.73
  -5 -10   5   56.63    5.87
  -5  10   5   59.16    4.96
   5  10  -4   66.25    4.79
   5  10  -4   47.21    4.84
   5 -10  -4   39.20    4.48
  -5  10   4   40.10    4.75
  -5 -10   4   41.43    5.42
   5  10  -3    1.91    1.69
   5  10  -3   11.49    1.54
   5 -10  -3    1.15    1.83
  -5  10   3    1.64    2.02
  -5 -10   3    0.86    2.15
   5  10  -2   11.14    1.98
   5  10  -2    1.42    1.87
   5 -10  -2   12.23    2.43
  -5 -10   2   12.29    2.67
  -5  10   2   11.91    2.64
   5 -10  -1   61.59    5.23
   5  10  -1   66.35    5.99
  -5  10   1   65.73    8.24
  -5 -10   1   62.16    7.59
   5  10   0    5.07    1.61
   5 -10   0    5.03    3.35
  -5  10   0    8.11    2.73
  -5 -10   0    4.11    3.21
   5 -10   1   -0.02    0.77
   5  10   1   -0.01    0.52
  -5 -10  -1    0.37    0.69
  -5  10  -1   -0.33    1.08
  -5 -10  -1   -0.09    0.85
   5 -10   2   20.37    4.09
  -5  10  -2   19.05    5.54
  -5  10  -2   20.97    3.60
  -5 -10  -2   24.43    4.56
   5 -11  -6    4.09    3.54
   5 -11  -6    6.43    2.21
  -5 -11   6    4.19    5.03
  -5  11   6    4.81    2.40
   5  11  -5   -0.33    0.95
   5 -11  -5    0.10    0.83
  -5 -11   5    0.53    1.12
  -5  11   5    0.23    1.37
   5  11  -4   30.30    3.41
   5  11  -4   -0.93    2.56
   5 -11  -4   29.10    3.37
  -5  11   4   27.97    4.99
  -5 -11   4   27.07    3.93
   5  11  -3   17.88    2.26
   5  11  -3    5.42    3.24
   5 -11  -3    5.23    3.53
  -5 -11   3    4.22    2.76
  -5  11   3    5.53    2.36
   5  11  -2    5.15    2.25
   5  11  -2   18.37    2.48
   5 -11  -2   17.81    2.86
  -5  11   2   18.59    3.14
  -5 -11   2   20.76    3.30
   5 -11  -1    0.04    0.96
   5  11  -1   -0.42    0.73
  -5  11   1   -0.07    1.15
  -5 -11   1   -0.18    1.03
   5  11   0    3.43    1.36
   5 -11   0    3.19    2.90
  -5  11   0    3.92    3.74
  -5 -11   0    3.00    1.98
  -5 -11   0    2.25    2.85
   5 -11   1    7.55    2.48
   5  11   1    6.64    1.67
  -5 -11  -1    5.25    2.23
  -5  11  -1    6.91    3.47
  -5 -11  -1    7.23    2.79
   5 -11   2   19.07    6.23
  -5  11  -2   22.28    5.69
  -5  11  -2   19.94    5.29
  -5 -11  -2   22.28    4.54
   5 -12  -6    1.07    1.84
   5 -12  -6    2.86    1.92
  -5 -12   6    3.99    2.82
  -5  12   6    3.89    2.02
   5  12  -5   -0.31    1.91
   5 -12  -5    0.43    1.10
  -5  12   5    0.21    1.14
  -5 -12   5    0.57    1.48
   5  12  -4   34.91    4.20
   5  12  -4   20.84    5.07
   5 -12  -4   35.37    5.64
  -5 -12   4   34.89    7.14
  -5  12   4   37.47    4.26
   5  12  -3    0.05    0.83
   5 -12  -3    0.43    0.90
  -5 -12   3    0.13    1.12
  -5  12   3    0.04    0.94
   5  12  -2   24.73    2.98
   5 -12  -2   21.06    4.86
  -5  12   2   21.70    5.39
  -5 -12   2   21.56    3.81
   5 -12  -1   19.15    3.03
   5  12  -1   19.18    2.22
   5  12  -1    1.16    2.08
  -5  12   1   17.84    3.36
  -5 -12   1   18.61    2.91
   5  12   0    3.70    1.45
   5 -12   0    4.07    2.08
  -5  12   0    5.03    2.57
  -5 -12   0    3.60    2.10
  -5 -12   0    3.66    1.94
   5 -12   1    0.21    0.96
   5  12   1    0.05    0.93
  -5 -12  -1   -0.24    1.62
  -5 -12  -1    0.07    0.78
  -5  12  -1    0.11    1.29
   5 -12   2   14.15    3.83
  -5  12  -2    8.30    4.61
  -5  12  -2   12.15    7.97
  -5 -12  -2   18.56    4.18
   5 -13  -6    1.83    2.05
   5 -13  -6    5.88    3.06
  -5 -13   6    5.27    3.08
  -5  13   6    3.06    2.16
   5  13  -5    4.18    2.26
   5 -13  -5    2.83    3.07
  -5 -13   5    4.32    4.21
  -5  13   5    3.23    3.23
   5  13  -4   33.46    5.40
   5  13  -4   -1.20    2.94
   5 -13  -4   30.63    3.48
  -5 -13   4   30.15    4.41
  -5  13   4   31.56    3.69
   5  13  -3   54.70    4.44
   5  13  -3   15.30    5.09
   5 -13  -3   53.30    4.74
  -5 -13   3   51.68    5.47
  -5  13   3   57.17    6.81
   5  13  -2   45.23    2.93
   5  13  -2   17.78    2.83
   5 -13  -2   15.87    3.29
  -5 -13   2   15.33    5.72
  -5  13   2   12.37    3.55
   5  13  -1   -0.03    0.65
   5 -13  -1   -0.19    0.91
  -5 -13   1    0.13    0.91
  -5  13   1   -0.94    1.64
   5 -13   0    4.67    2.01
   5  13   0    2.54    2.06
  -5 -13   0    3.28    2.02
  -5  13   0    2.58    2.45
  -5 -13   0    2.33    1.81
   5  13   1    6.48    1.54
   5 -13   1    6.82    3.93
  -5  13  -1    6.01    3.39
  -5 -13  -1    5.12    2.77
  -5 -13  -1    3.08    1.94
   5 -14  -6    3.30    2.08
   5 -14  -6    4.46    2.69
  -5 -14   6    4.01    3.24
  -5  14   6    3.45    2.17
   5  14  -5  144.77   10.36
   5 -14  -5  132.12   11.16
  -5 -14   5  124.60   10.66
  -5  14   5  137.15    9.38
   5  14  -4   16.58    3.24
   5 -14  -4   15.59    3.03
  -5  14   4   15.55    3.07
  -5 -14   4   16.42    3.99
   5  14  -3    2.21    1.99
   5  14  -3   15.30    2.01
   5 -14  -3    2.25    2.13
  -5 -14   3    2.95    4.23
  -5  14   3    2.98    2.24
   5  14  -2    3.26    2.02
   5  14  -2   15.73    2.28
   5 -14  -2   14.97    2.75
  -5 -14   2   12.70    3.16
  -5  14   2   15.13    2.99
   5 -14  -1  232.78   13.99
   5  14  -1  240.71   12.73
  -5  14   1  228.44   14.51
  -5 -14   1  223.18   13.25
   5 -14   0    0.84    1.53
   5  14   0    1.11    0.97
  -5 -14   0    1.08    1.55
  -5  14   0    1.25    1.83
  -5 -14   0    0.14    1.36
   5 -14   1    4.16    2.30
   5  14   1    2.49    1.32
  -5 -14  -1    2.81    1.69
  -5 -14  -1    3.52    2.49
  -5  14  -1    4.33    2.97
   5 -15  -6    0.82    1.59
  -5  15   6    1.13    1.68
  -5 -15   6    2.02    2.55
   5 -15  -5   13.62    2.92
  -5 -15   5   15.58    4.23
  -5  15   5   15.10    4.76
   5  15  -4   22.62    3.62
   5 -15  -4   20.37    3.34
  -5 -15   4   19.12    4.48
  -5  15   4   22.80    3.48
   5  15  -3   89.75    6.44
   5 -15  -3   83.98    6.64
  -5 -15   3   79.23    7.43
  -5  15   3   85.50    6.82
   5  15  -2   13.90    2.35
   5 -15  -2   12.40    2.85
  -5 -15   2   11.56    3.35
  -5  15   2   13.52    3.22
   5  15  -1   16.25    1.91
   5  15  -1    5.25    3.10
   5 -15  -1    7.66    2.70
  -5 -15   1    4.87    3.97
  -5 -15   1    7.44    4.30
  -5  15   1    6.28    3.21
   5 -15   0    5.89    2.60
   5  15   0   14.79    1.94
   5  15   0    4.10    1.66
  -5 -15   0    5.52    2.60
  -5  15   0    4.06    3.23
  -5 -15   0    2.88    2.22
   5 -15   1  232.10   15.28
   5  15   1  227.49   11.66
  -5 -15  -1  223.56   12.31
  -5 -15  -1  242.51   15.86
  -5  15  -1  236.72   17.11
   5 -16  -6    0.59    1.64
   5 -16  -6    1.40    1.36
  -5 -16   6    1.91    2.57
  -5  16   6    2.47    2.69
   5 -16  -5   75.56    6.30
  -5 -16   5   81.02    8.54
  -5  16   5   78.77    6.44
   5  16  -4   23.19    3.76
   5 -16  -4   20.99    3.42
  -5  16   4   22.37    3.62
  -5 -16   4   21.82    4.61
   5  16  -3    2.87    1.96
   5  16  -3   11.88    2.02
   5 -16  -3    2.49    2.10
  -5 -16   3    1.96    2.65
  -5  16   3    3.14    2.28
   5  16  -2   11.33    2.18
   5  16  -2    2.56    1.87
   5 -16  -2    8.17    2.51
  -5 -16   2   12.09    2.96
  -5  16   2   11.43    2.83
   5 -16  -1  156.17   10.50
   5  16  -1  161.82    9.03
  -5 -16   1  158.47   10.29
  -5 -16   1  151.01   10.14
  -5  16   1  155.79   14.48
   5 -16   0    1.93    1.89
   5  16   0    1.49    1.14
  -5 -16   0    1.92    1.91
  -5  16   0    2.22    2.32
  -5 -16   0    0.80    2.48
   5  16   1    1.78    1.77
   5 -16   1    0.79    1.93
  -5 -16  -1    0.51    3.03
  -5  16  -1    0.22    3.98
   5 -17  -6    0.20    1.15
   5 -17  -6   -0.39    0.94
  -5 -17   6    1.99    1.90
  -5  17   6    0.65    1.19
   5 -17  -5    0.60    1.13
  -5 -17   5   -0.05    1.73
  -5  17   5   -0.08    1.85
   5  17  -4   18.50    3.46
   5 -17  -4   13.42    4.67
  -5 -17   4   15.90    4.35
  -5  17   4   17.18    3.36
   5  17  -3   18.62    2.98
   5  17  -3    9.61    2.75
   5 -17  -3   19.96    4.64
  -5 -17   3   18.35    3.94
  -5  17   3   17.41    3.40
   5  17  -2   17.21    2.33
   5  17  -2   10.38    2.32
   5 -17  -2    7.09    2.73
  -5 -17   2    7.91    3.25
  -5  17   2    8.78    4.87
   5  17  -1   -0.11    0.91
   5 -17  -1    0.23    2.03
  -5 -17   1    0.62    1.31
  -5  17   1    0.04    1.57
  -5 -17   1    1.44    1.21
   5 -17   0    0.91    1.66
   5  17   0    1.23    1.52
   5  17   0    0.02    1.63
  -5 -17   0    1.56    2.59
  -5  17   0    1.35    2.10
  -5 -17   0    0.73    2.18
   5 -17   1    0.70    1.72
  -5 -17  -1    0.34    1.72
  -5  17  -1    0.87    2.20
   5 -18  -6    2.24    2.75
   5 -18  -6    0.63    1.41
  -5 -18   6    3.08    4.66
  -5  18   6    3.99    2.83
   5 -18  -5    0.18    1.16
  -5 -18   5    0.46    1.82
  -5  18   5    0.54    1.23
   5 -18  -4   10.26    4.05
  -5  18   4   11.06    2.88
  -5 -18   4    8.49    3.87
   5  18  -3    0.42    1.65
   5 -18  -3    0.13    1.11
  -5 -18   3   -0.01    1.48
  -5  18   3    0.60    1.22
   5 -18  -2   12.48    2.79
   5  18  -2   13.84    2.36
   5  18  -2    1.66    2.10
  -5 -18   2   15.14    3.81
  -5 -18   2   10.99    5.05
  -5  18   2   13.37    3.26
   5  18  -1    9.02    1.99
   5  18  -1    9.53    2.04
   5 -18  -1    9.22    4.25
  -5 -18   1    8.32    2.65
  -5  18   1   10.08    3.32
  -5 -18   1    6.43    2.83
   5  18   0    0.68    1.07
   5 -18   0    1.40    2.81
   5  18   0    0.82    1.06
  -5 -18   0    2.13    1.80
  -5 -18   0    1.38    2.23
  -5  18   0    1.77    3.54
   5 -18   1    0.28    1.46
  -5 -18  -1    0.96    1.50
  -5  18  -1   -0.89    1.85
   5 -19  -5    0.28    1.00
  -5 -19   5   -0.31    1.65
  -5  19   5    0.31    1.68
   5 -19  -4   15.44    3.14
  -5 -19   4   12.69    7.04
  -5  19   4   16.35    3.38
   5  19  -3    2.84    1.73
   5 -19  -3    2.80    1.79
  -5 -19   3   -0.06    2.40
  -5  19   3    2.44    2.04
   5  19  -2   12.49    2.36
   5  19  -2    2.46    2.16
   5 -19  -2    9.63    4.19
  -5 -19   2   11.93    5.07
  -5 -19   2   12.98    2.55
  -5  19   2   12.13    3.28
   5 -19  -1    0.42    1.91
   5  19  -1   14.46    2.12
   5  19  -1    0.20    1.33
  -5  19   1    0.21    2.31
  -5 -19   1   -0.50    1.91
  -5 -19   1    0.53    1.82
   5  19   0    0.54    1.08
   5  19   0    1.76    1.12
   5 -19   0   -0.03    2.95
  -5 -19   0    3.11    1.87
  -5 -19   0    1.04    1.50
  -5  19   0   -0.06    2.36
   5 -19   1    0.89    1.94
  -5  19  -1    0.67    2.52
   5 -20  -5   33.51    6.01
  -5 -20   5   34.43    6.61
  -5  20   5   35.06    4.58
   5 -20  -4   21.84    3.60
  -5  20   4   23.31    5.96
  -5 -20   4   23.61    8.08
   5 -20  -3   -0.57    1.17
  -5 -20   3   -0.04    2.54
  -5 -20   3   -0.23    1.00
  -5  20   3   -0.22    2.14
   5  20  -2    4.67    2.03
   5 -20  -2    5.37    3.65
  -5  20   2    2.35    4.44
  -5 -20   2    6.15    2.91
  -5 -20   2    6.69    3.33
   5  20  -1   22.80    3.13
   5 -20  -1   27.68    4.43
   5  20  -1   30.76    4.65
  -5 -20   1   30.83    6.17
  -5  20   1   29.41    5.27
  -5 -20   1   31.77    4.42
   5  20   0    2.08    1.85
   5 -20   0   -0.05    3.33
  -5 -20   0    1.76    1.57
  -5  20   0   -0.07    2.65
  -5 -20   0    3.44    3.21
   5 -21  -5   -0.28    0.96
  -5 -21   5    0.44    1.06
  -5  21   5   -0.12    1.06
   5 -21  -4   17.28    3.22
  -5 -21   4   12.11    4.79
  -5 -21   4   18.50    3.94
  -5  21   4   15.34    3.63
   5 -21  -3    4.10    2.11
  -5 -21   3    0.02    4.66
  -5 -21   3    3.93    1.84
  -5  21   3    4.23    2.49
   5  21  -2    1.69    1.56
   5 -21  -2    2.98    2.97
  -5 -21   2    0.68    2.32
  -5 -21   2    2.69    1.71
  -5  21   2    2.14    2.27
   5  21  -1    0.07    0.88
   5 -21  -1    0.40    1.27
  -5 -21   1    0.23    1.21
  -5 -21   1    0.48    1.30
  -5  21   1    0.32    1.60
   5 -21   0    0.01    1.80
   5  21   0    0.25    1.02
  -5 -21   0    3.28    1.77
  -5  21   0    0.02    2.23
   5 -22  -5   17.33    5.18
  -5  22   5   19.81    3.76
  -5 -22   5   16.73    9.05
   5 -22  -4   10.44    2.63
  -5 -22   4   -0.05    4.10
  -5 -22   4    9.98    2.19
  -5  22   4    2.93    4.69
   5 -22  -3    2.07    1.75
  -5  22   3    2.17    2.10
  -5 -22   3    0.07    3.88
  -5 -22   3    1.28    1.53
   5 -22  -2    3.63    2.32
  -5 -22   2    2.75    2.71
  -5 -22   2    3.90    2.06
  -5  22   2    3.70    2.65
   5 -22  -1    1.67    2.03
  -5 -22   1    2.78    1.93
  -5 -22   1    0.01    3.26
  -5  22   1    1.47    2.53
   5 -22   0    0.01    1.62
  -5 -22   0    0.77    1.54
  -5  22   0    0.06    3.20
   5 -23  -4    9.57    2.64
  -5  23   4    6.72    3.04
  -5 -23   4    0.00    4.14
  -5 -23   4    8.48    2.16
   5 -23  -3   -0.48    1.27
  -5  23   3    1.47    1.46
  -5 -23   3   -0.02    1.78
  -5 -23   3    0.48    1.10
   5 -23  -2    4.57    2.52
  -5 -23   2    3.28    2.96
  -5 -23   2    5.59    2.26
  -5  23   2    4.54    4.62
   5 -23  -1    1.08    1.49
  -5  23   1    0.11    1.84
  -5 -23   1    0.13    2.20
  -5 -23   1   -0.58    2.35
   5 -24  -4    5.07    2.17
  -5 -24   4    0.03    3.39
  -5 -24   4    2.51    2.72
  -5  24   4    4.80    3.85
   5 -24  -3    1.86    1.53
  -5  24   3    0.13    1.78
  -5 -24   3   -0.03    2.14
  -5 -24   3    0.54    1.30
   5 -24  -2    1.54    2.05
  -5 -24   2    2.65    1.89
  -5  24   2    0.92    2.50
  -5 -24   2    2.91    2.50
   5 -24  -1   62.43    6.84
  -5  24   1   63.43    7.98
  -5 -24   1   57.26    9.24
  -5 -24   1   68.16    6.66
   5 -25  -3    1.11    1.47
  -5  25   3    0.00    2.77
  -5 -25   3    0.01    2.07
  -5 -25   3    0.57    1.29
   5 -25  -2    0.26    1.50
  -5 -25   2    0.66    1.32
  -5 -25   2    0.87    1.78
  -5  25   2   -0.24    1.81
   6   0  -6  177.22   10.49
   6   0  -6    6.59    8.42
  -6   0   6  171.27   11.26
   6   0  -5   15.83    3.99
   6   0  -5   10.39    3.02
  -6   0   5    5.64    5.67
   6   0  -4   11.09    2.85
  -6   0   4    9.30    5.24
   6   0  -3   36.28    4.33
  -6   0   3   38.97    5.18
   6   0  -2  148.04    9.58
  -6   0   2  148.75   10.75
   6   0  -1   17.07    3.20
  -6   0   1   18.16    4.10
   6   0   0    9.04    3.87
  -6   0   0    8.76    3.58
   6   0   1    5.09    2.34
  -6   0  -1    3.54    3.24
   6   1  -6  273.76   11.61
   6  -1  -6   16.55    8.32
   6  -1  -6  275.77   11.76
  -6  -1   6    3.85    9.99
  -6   1   6   14.14    6.40
   6   1  -5   18.70    2.81
   6   1  -5    8.61    3.07
   6  -1  -5   21.15    3.35
   6  -1  -5    8.73    3.06
  -6   1   5   10.08    3.76
  -6  -1   5    7.48    3.76
   6   1  -4  206.25   15.14
   6  -1  -4  208.68   12.82
  -6  -1   4  204.81   13.91
  -6   1   4  202.52   13.57
   6   1  -3   37.58    4.46
   6  -1  -3   39.08    4.53
  -6  -1   3   42.14    5.32
  -6   1   3   41.28    5.31
   6   1  -2   12.25    2.68
   6  -1  -2   12.91    2.79
  -6   1   2   11.52    3.42
  -6  -1   2   13.45    3.50
   6   1  -1   22.18    3.35
   6  -1  -1   19.67    3.39
  -6   1   1   21.21    4.46
  -6  -1   1   23.53    4.31
   6   1   0  288.68   16.59
   6  -1   0  285.21   16.72
  -6  -1   0  278.23   21.99
  -6   1   0  280.98   18.52
   6  -1   1    3.58    2.15
   6   1   1    3.44    3.18
  -6   1  -1    3.20    2.95
  -6  -1  -1    2.60    3.81
  -6  -1  -1    2.60    2.86
   6   2  -6  122.31    9.58
   6  -2  -6  126.53    9.76
  -6  -2   6  123.31   10.43
  -6   2   6  125.42   13.91
   6   2  -5   17.72    2.80
   6   2  -5    7.18    4.65
   6  -2  -5    7.19    3.01
   6  -2  -5   21.46    3.31
  -6  -2   5    6.27    3.70
  -6   2   5    7.03    3.61
   6   2  -4   -0.22    0.92
   6  -2  -4   -0.20    0.91
  -6   2   4   -0.03    1.07
  -6  -2   4    0.23    1.11
   6   2  -3   54.11    5.16
   6  -2  -3   49.69    5.19
  -6  -2   3   49.67    5.87
  -6   2   3   48.79    8.18
   6   2  -2   30.18    3.68
   6  -2  -2   30.32    3.78
  -6  -2   2   27.23    4.68
  -6   2   2   29.59    4.60
   6  -2  -1   19.56    3.40
   6   2  -1   21.45    3.41
  -6   2   1   19.90    4.43
  -6  -2   1   18.14    4.23
   6  -2   0    0.53    1.40
   6   2   0    0.64    1.29
  -6  -2   0    0.40    2.87
  -6   2   0    1.34    1.96
   6  -2   1    4.90    2.43
   6   2   1    5.79    2.30
  -6   2  -1    4.09    3.47
  -6  -2  -1    5.40    2.81
  -6  -2  -1    4.25    3.13
   6  -3  -6   11.46    2.50
   6   3  -6    0.47    2.58
   6   3  -6   12.48    2.52
   6  -3  -6    0.40    2.51
  -6   3   6    0.95    3.01
  -6  -3   6    0.39    3.20
   6  -3  -5   29.37    3.84
   6   3  -5   22.95    3.12
   6   3  -5   12.55    3.46
   6  -3  -5   11.49    3.34
  -6  -3   5    9.58    4.16
  -6   3   5   11.20    6.18
   6   3  -4    5.12    2.12
   6   3  -4    1.27    2.20
   6  -3  -4    4.85    2.16
  -6  -3   4    5.88    2.63
  -6   3   4    5.23    3.97
   6   3  -3   38.22    4.54
   6  -3  -3   39.87    4.53
  -6   3   3   37.03    5.17
  -6  -3   3   36.51    5.32
   6   3  -2    0.06    2.14
   6  -3  -2    1.09    2.24
  -6  -3   2    1.36    1.88
  -6   3   2    1.82    2.82
   6  -3  -1   24.63    3.80
   6   3  -1   25.82    5.18
  -6  -3   1   26.13    4.52
  -6   3   1   24.79    4.76
   6   3   0   13.28    2.75
   6  -3   0   12.92    4.52
  -6  -3   0    9.57    3.66
  -6   3   0   12.97    4.13
   6  -3   1    6.44    2.48
   6   3   1    5.05    2.26
  -6   3  -1    4.14    5.38
  -6  -3  -1    2.71    3.11
  -6  -3  -1    5.01    2.83
   6   4  -6  127.65   10.16
   6  -4  -6  127.92    9.80
  -6  -4   6  121.73   10.90
  -6   4   6  128.54   10.51
   6   4  -5   10.36    3.33
   6   4  -5   22.57    3.48
   6  -4  -5   10.32    3.19
   6  -4  -5   26.44    3.56
  -6   4   5   10.69    3.83
  -6  -4   5    8.84    4.02
   6   4  -4    2.80    4.13
   6   4  -4   32.25    3.20
   6  -4  -4    4.41    2.60
  -6  -4   4    2.78    4.97
  -6   4   4    2.93    3.18
   6   4  -3   38.30    4.48
   6  -4  -3   35.25    6.29
  -6  -4   3   35.96    5.25
  -6   4   3   38.63    5.16
   6   4  -2   34.59    3.89
   6  -4  -2   31.14    3.92
  -6   4   2   32.00    4.79
  -6  -4   2   32.89    7.51
   6  -4  -1   26.65    3.91
   6   4  -1   27.31    3.65
  -6   4   1   24.83    7.33
  -6  -4   1   25.74    4.67
   6   4   0    0.76    1.11
   6  -4   0   -0.22    1.23
  -6  -4   0    0.61    1.54
  -6   4   0   -0.18    2.81
   6  -4   1    7.65    2.71
   6   4   1    4.39    3.63
  -6  -4  -1    5.33    3.10
  -6   4  -1    6.06    3.81
  -6  -4  -1    8.94    5.12
   6   5  -6    0.19    3.48
   6   5  -6   54.87    5.98
   6  -5  -6    0.39    5.02
   6  -5  -6   43.75    4.74
  -6  -5   6    0.93    6.85
  -6   5   6    0.80    6.10
   6   5  -5   15.77    2.43
   6   5  -5    2.45    2.42
   6  -5  -5    2.63    2.20
   6  -5  -5    0.25    2.28
  -6   5   5    2.94    2.65
  -6  -5   5    1.55    2.88
   6   5  -4  109.15    8.04
   6  -5  -4  104.82    7.84
  -6   5   4  109.07    8.74
  -6  -5   4  104.88    8.93
   6   5  -3   55.11    7.21
   6  -5  -3   55.14    5.45
  -6  -5   3   51.67    9.03
  -6   5   3   58.58    8.79
   6   5  -2    1.16    1.47
   6  -5  -2    1.83    1.59
  -6   5   2    1.73    1.94
  -6  -5   2    1.44    2.07
   6   5  -1   18.83    3.03
   6  -5  -1   17.23    3.29
  -6   5   1   15.66    4.10
  -6  -5   1    0.03    6.09
   6   5   0   57.34    6.94
   6  -5   0   53.22    5.48
  -6   5   0   52.65    7.18
  -6  -5   0   48.33    6.20
   6  -5   1    6.41    4.46
   6   5   1    8.87    2.51
  -6  -5  -1    6.02    3.35
  -6   5  -1    8.60    4.17
  -6  -5  -1    9.57    5.34
   6   6  -6    1.13    1.38
   6   6  -6    1.01    1.33
   6  -6  -6   -0.57    1.23
   6  -6  -6    0.20    1.01
  -6   6   6   -0.98    1.47
  -6  -6   6    1.09    1.69
   6   6  -5    3.20    2.63
   6   6  -5   15.94    2.76
   6  -6  -5    3.86    2.51
  -6   6   5    3.47    4.63
  -6  -6   5    3.61    3.22
   6   6  -4   -0.02    1.66
   6   6  -4    0.57    1.27
   6  -6  -4    1.11    1.90
  -6  -6   4    0.07    1.61
  -6   6   4    0.56    2.39
   6   6  -3   58.56    5.50
   6  -6  -3   53.76    5.43
  -6  -6   3   50.96    6.40
  -6   6   3   52.05    6.39
   6   6  -2    0.54    1.13
   6  -6  -2    0.64    1.26
  -6  -6   2    0.73    1.62
  -6   6   2    0.01    1.55
   6  -6  -1   16.21    4.81
   6   6  -1   14.42    2.83
  -6  -6   1   14.87    3.88
  -6   6   1   13.29    4.02
   6   6   0   -0.37    0.74
   6  -6   0   -0.25    0.85
  -6  -6   0    0.42    1.00
  -6   6   0    0.56    1.22
   6   7  -6    0.04    3.49
   6   7  -6   42.76    4.09
   6  -7  -6    0.13    3.20
   6  -7  -6   36.04    3.16
  -6   7   6   -0.01    3.72
  -6  -7   6    0.09    4.38
   6   7  -5   25.45    4.90
   6   7  -5    8.06    3.09
   6  -7  -5   10.23    2.95
  -6  -7   5    8.90    3.80
  -6   7   5    8.30    3.40
   6   7  -4   67.74    8.32
   6  -7  -4   66.15    6.05
  -6  -7   4   64.01    7.10
  -6   7   4   66.91    6.77
   6   7  -3    5.00    3.36
   6   7  -3   31.58    3.96
   6  -7  -3   33.27    3.99
  -6   7   3   33.41    4.69
  -6  -7   3   33.46    4.97
   6   7  -2    0.20    1.01
   6  -7  -2    0.78    1.16
  -6  -7   2   -0.07    1.42
  -6   7   2    0.01    1.42
   6   7  -1   25.59    3.46
   6  -7  -1   28.09    3.97
  -6   7   1   23.98    4.97
  -6  -7   1   22.49    4.64
   6  -7   0   45.05    7.48
   6   7   0   45.36    6.28
  -6  -7   0   43.67    8.18
  -6   7   0   43.91    6.79
   6   8  -6  177.33   12.93
   6  -8  -6  167.43   11.79
  -6   8   6  180.70   16.41
  -6  -8   6  169.79   13.86
   6   8  -5    4.74    2.90
   6   8  -5   22.64    3.08
   6  -8  -5    4.39    2.70
  -6  -8   5    5.83    5.52
  -6   8   5    4.46    3.25
   6   8  -4    0.53    1.49
   6  -8  -4    1.47    1.43
  -6  -8   4    0.26    2.87
  -6   8   4    0.25    1.74
   6   8  -3   34.57    4.33
   6   8  -3   36.09    4.43
   6  -8  -3   36.05    6.36
  -6  -8   3   32.78    5.58
  -6   8   3   36.49    7.68
   6   8  -2   33.89    5.62
   6  -8  -2   35.00    4.42
  -6  -8   2   34.72    5.24
  -6   8   2   34.78    5.18
   6   8  -1   23.26    4.73
   6  -8  -1   21.64    3.82
  -6  -8   1   20.79    4.45
  -6   8   1   21.81    4.78
   6   8   0   -0.09    0.86
   6  -8   0    0.12    1.10
  -6  -8   0   -0.08    1.93
  -6   8   0    0.99    1.54
   6   9  -6    5.34    2.95
   6  -9  -6    5.29    2.59
  -6   9   6    4.78    2.99
  -6  -9   6    4.82    5.72
   6   9  -5    2.13    3.72
   6   9  -5   11.65    2.40
   6  -9  -5    1.45    2.22
  -6  -9   5    2.04    2.99
  -6   9   5    1.54    2.63
   6   9  -4  117.59    7.98
   6   9  -4    3.56    7.06
   6  -9  -4  113.97    7.76
  -6  -9   4  113.29    8.97
  -6   9   4  112.77   11.32
   6   9  -3   41.65    4.64
   6   9  -3   41.01    4.68
   6  -9  -3   36.09    4.71
  -6  -9   3   39.22    5.93
  -6   9   3   38.34    5.38
   6   9  -2    3.51    1.88
   6  -9  -2    3.91    2.23
  -6  -9   2    4.86    4.26
  -6   9   2    4.21    2.64
   6  -9  -1   12.37    3.13
   6   9  -1   12.07    2.65
  -6   9   1   12.32    4.07
  -6  -9   1   12.33    3.61
   6   9   0  234.37   15.57
   6  -9   0  229.38   14.91
  -6   9   0  235.76   16.88
  -6  -9   0  233.92   18.67
  -6  -9   0  218.93   14.36
   6  10  -6   35.39    4.86
   6 -10  -6   34.77    6.13
   6 -10  -6    3.42    3.04
  -6 -10   6   35.14    5.76
  -6  10   6   34.77    4.80
   6  10  -5    1.50    2.35
   6  10  -5    8.49    2.23
   6 -10  -5    0.92    3.34
  -6 -10   5    2.36    2.92
  -6  10   5    1.82    2.58
   6  10  -4    1.02    3.57
   6  10  -4   15.40    2.43
   6 -10  -4    2.01    2.28
  -6 -10   4    1.73    2.97
  -6  10   4    1.06    2.72
   6  10  -3   33.31    5.22
   6  10  -3   38.11    6.30
   6 -10  -3   37.64    4.67
  -6 -10   3   34.65    8.55
  -6  10   3   35.15    5.28
   6  10  -2   16.32    2.94
   6 -10  -2   15.47    3.46
  -6  10   2   14.07    6.18
  -6 -10   2   16.88    4.09
   6  10  -1    5.98    3.38
   6 -10  -1    8.54    2.69
  -6  10   1    7.71    3.47
  -6 -10   1   -0.03    4.77
   6  10   0    3.97    1.94
   6 -10   0    4.40    2.57
  -6 -10   0    4.30    2.61
  -6 -10   0    5.13    2.70
  -6  10   0    3.80    3.44
   6  11  -6    4.04    4.47
   6 -11  -6    4.29    3.74
   6 -11  -6    1.64    3.01
  -6 -11   6    5.01    3.52
  -6  11   6    5.77    2.82
   6  11  -5    3.98    2.82
   6  11  -5   13.90    2.95
   6 -11  -5    3.96    2.48
  -6 -11   5    4.75    3.54
  -6  11   5    4.48    4.60
   6  11  -4    0.71    1.85
   6  11  -4    7.20    1.90
   6 -11  -4    0.27    2.84
  -6 -11   4    0.04    2.47
  -6  11   4    0.06    2.26
   6  11  -3   26.43    3.93
   6  11  -3   24.33    3.28
   6 -11  -3   25.13    4.09
  -6 -11   3   24.59    5.04
  -6  11   3   28.94    6.86
   6  11  -2    0.49    2.07
   6  11  -2    5.83    2.04
   6 -11  -2    6.21    3.67
  -6 -11   2    6.00    2.93
  -6  11   2    8.59    2.96
   6 -11  -1   11.19    4.54
   6  11  -1   12.25    2.45
  -6 -11   1   -0.01    3.30
  -6  11   1   10.40    5.79
   6 -11   0    0.94    1.82
   6  11   0   -0.08    2.06
  -6  11   0    1.89    2.41
  -6 -11   0    0.75    1.93
  -6 -11   0    1.53    1.82
   6  12  -6    7.91    3.13
   6 -12  -6   -0.35    3.93
   6 -12  -6    5.81    2.60
  -6 -12   6    5.45    3.84
  -6  12   6    5.85    3.07
   6  12  -5    4.97    4.56
   6  12  -5   16.74    3.04
   6 -12  -5    4.63    2.59
  -6 -12   5    4.07    3.71
  -6  12   5    4.23    3.16
   6  12  -4    3.93    2.23
   6  12  -4    7.42    3.30
   6 -12  -4    3.06    2.19
  -6 -12   4    3.85    2.93
  -6  12   4    3.08    2.60
   6  12  -3   28.18    3.99
   6  12  -3   23.19    3.24
   6 -12  -3   25.63    4.04
  -6 -12   3   28.15    5.25
  -6  12   3   26.86    4.87
   6  12  -2    6.76    2.24
   6  12  -2    4.43    2.28
   6 -12  -2    6.47    2.63
  -6 -12   2    7.80    3.19
  -6  12   2    7.43    3.09
   6  12  -1   16.71    4.23
   6 -12  -1   14.34    3.63
  -6  12   1   14.38    4.48
  -6 -12   1   13.69    3.93
   6  12   0   -0.10    0.71
   6 -12   0    0.45    1.54
  -6  12   0    0.38    1.34
  -6 -12   0   -0.41    1.06
  -6 -12   0   -0.04    0.95
   6  13  -6    1.10    2.15
   6 -13  -6    1.16    1.76
  -6  13   6    1.73    3.28
  -6 -13   6    0.69    2.66
   6  13  -5    3.81    2.68
   6  13  -5    8.80    2.72
   6 -13  -5    2.59    2.31
  -6 -13   5    0.83    5.25
  -6  13   5    4.39    2.79
   6  13  -4   86.66    7.29
   6 -13  -4   76.56    6.94
  -6 -13   4   79.75   12.50
  -6  13   4   83.06    7.67
   6  13  -3   23.50    3.69
   6  13  -3   23.87    3.69
   6 -13  -3   20.44    5.84
  -6 -13   3   23.33    5.19
  -6  13   3   24.93    4.66
   6 -13  -2   -0.06    1.17
   6  13  -2   -0.56    1.02
  -6 -13   2    0.20    1.46
  -6  13   2   -0.01    2.30
   6 -13  -1    9.10    2.85
   6  13  -1    3.12    2.22
   6  13  -1    8.84    2.21
  -6  13   1   10.19    3.53
  -6 -13   1    0.04    3.05
   6  13   0   86.79    6.48
   6 -13   0   81.48   11.07
  -6 -13   0   80.99    7.41
  -6 -13   0   85.25    8.34
  -6  13   0   85.19   13.96
   6  14  -5    5.53    2.86
   6 -14  -5    4.73    2.46
  -6  14   5    4.29    4.45
  -6 -14   5    5.55    3.53
   6  14  -4    7.68    3.28
   6  14  -4   36.96    3.58
   6 -14  -4    6.83    3.07
  -6 -14   4    8.16    4.41
  -6  14   4    6.80    5.67
   6  14  -3   15.59    3.11
   6  14  -3   12.78    3.15
   6 -14  -3   14.36    3.33
  -6 -14   3   14.16    4.38
  -6  14   3   11.46    6.04
   6  14  -2    5.85    2.71
   6  14  -2   38.19    3.83
   6 -14  -2   36.23    4.34
  -6  14   2   35.71    5.18
  -6 -14   2   34.87    7.66
   6  14  -1    5.07    3.20
   6 -14  -1    7.06    2.72
   6  14  -1    4.94    2.20
  -6  14   1    7.87    3.47
  -6 -14   1    8.15    4.22
  -6 -14   1    0.14    2.95
   6  14   0   -0.09    0.90
   6 -14   0    0.14    1.34
  -6  14   0    2.36    1.74
  -6 -14   0   -0.51    1.21
  -6 -14   0    0.21    1.34
   6  15  -5    2.74    3.35
   6 -15  -5    1.94    1.85
  -6 -15   5    1.06    2.77
  -6  15   5    0.90    2.14
   6  15  -4    1.22    2.45
   6  15  -4    6.95    3.97
   6 -15  -4    7.56    2.50
  -6 -15   4    7.98    3.57
  -6  15   4    5.14    2.98
   6  15  -3   19.16    4.91
   6  15  -3   14.30    4.77
   6 -15  -3   16.70    3.59
  -6 -15   3   12.96    7.29
  -6  15   3   17.10    4.27
   6  15  -2    6.81    2.37
   6  15  -2    0.36    1.49
   6 -15  -2    0.16    1.81
  -6 -15   2    0.18    3.51
  -6  15   2    0.27    2.24
   6  15  -1   10.20    2.36
   6 -15  -1    9.50    3.05
   6  15  -1    0.99    1.92
  -6 -15   1    9.42    3.20
  -6  15   1    6.60    6.00
  -6 -15   1   10.90    3.07
   6  16  -5    1.01    1.78
   6 -16  -5   -0.29    2.41
  -6 -16   5    1.19    2.40
  -6  16   5    0.73    2.83
   6  16  -4   -0.52    1.24
   6  16  -4   -0.52    1.19
   6 -16  -4   -0.08    1.18
  -6 -16   4    0.38    1.74
  -6  16   4    0.14    1.39
   6  16  -3   20.08    3.65
   6  16  -3   18.31    3.39
   6 -16  -3   19.64    3.85
  -6 -16   3   18.52    4.89
  -6  16   3   17.29    4.60
   6  16  -2    0.80    1.45
   6  16  -2    1.89    1.47
   6 -16  -2    0.68    1.77
  -6 -16   2    0.42    2.20
  -6  16   2    0.63    3.46
   6  16  -1    0.58    1.62
   6 -16  -1    4.67    2.61
   6  16  -1    4.56    1.90
  -6 -16   1    4.27    4.27
  -6  16   1    5.67    3.32
  -6 -16   1    6.47    2.56
   6  17  -5    1.16    2.04
   6 -17  -5    0.66    2.73
  -6 -17   5    0.77    2.66
  -6  17   5    1.44    2.04
   6  17  -4   -0.14    3.21
   6  17  -4   22.32    3.73
   6 -17  -4   19.85    5.25
  -6  17   4   17.72    4.09
  -6 -17   4   20.12    5.00
   6  17  -3   14.39    3.06
   6  17  -3   11.01    2.94
   6 -17  -3    9.02    3.32
  -6 -17   3   12.15    4.38
  -6  17   3   10.33    6.15
   6  17  -2   -0.01    1.84
   6  17  -2   21.42    3.07
   6 -17  -2    0.52    2.27
  -6 -17   2   -0.88    2.80
  -6  17   2    0.31    2.87
   6  17  -1    1.32    1.77
   6 -17  -1    3.20    2.55
   6  17  -1    2.98    1.81
  -6 -17   1    6.48    4.09
  -6 -17   1    3.24    3.83
  -6  17   1    5.03    3.27
   6 -18  -5    2.36    1.97
  -6 -18   5    0.94    3.12
  -6  18   5    1.07    2.27
   6  18  -4    4.19    4.12
   6 -18  -4    5.68    3.99
  -6 -18   4    3.83    3.82
  -6  18   4    5.75    3.02
   6  18  -3    7.65    2.63
   6  18  -3    5.61    2.57
   6 -18  -3    6.37    2.84
  -6 -18   3    4.80    3.61
  -6  18   3    5.69    3.42
   6  18  -2   14.63    2.93
   6  18  -2    5.30    2.70
   6 -18  -2   11.72    5.33
  -6 -18   2   10.39    4.38
  -6 -18   2   17.44    3.41
  -6  18   2   16.37    4.49
   6  18  -1   10.63    2.38
   6  18  -1    2.72    2.32
   6 -18  -1    6.58    5.11
  -6  18   1    9.38    4.19
  -6 -18   1    7.84    3.25
  -6 -18   1    8.75    5.20
   6  19  -4   11.98    3.58
   6 -19  -4   13.02    3.42
  -6 -19   4   11.71    4.98
  -6  19   4   12.37    6.22
   6  19  -3   10.93    3.26
   6  19  -3   15.01    3.22
   6 -19  -3   13.13    3.57
  -6 -19   3   11.22    4.62
  -6  19   3    9.40    4.29
   6  19  -2   -0.18    1.76
   6  19  -2   13.78    2.70
   6 -19  -2    0.07    3.44
  -6 -19   2    0.20    2.68
  -6 -19   2    0.11    2.08
  -6  19   2    1.04    2.79
   6  20  -4    4.76    2.71
   6 -20  -4    4.60    2.59
  -6 -20   4    4.45    6.10
  -6  20   4    3.61    3.09
   6  20  -3   19.39    3.92
   6 -20  -3   22.12    4.25
  -6 -20   3   20.27    5.74
  -6 -20   3   20.38    5.44
  -6  20   3   18.99    5.09
   6  20  -2    6.27    3.16
   6  20  -2   21.65    3.49
   6 -20  -2   19.20    4.20
  -6 -20   2   22.04    4.94
  -6 -20   2   23.98    5.96
  -6  20   2   20.53    5.11
   6  21  -3   14.06    3.42
   6 -21  -3   11.04    5.61
  -6 -21   3   16.06    4.83
  -6 -21   3   12.35    3.38
  -6  21   3   10.55    4.50
   7   0  -5   24.72    3.90
   7   0  -5    0.49    5.29
  -7   0   5    0.41    4.34
   7   0  -4    8.00    3.03
  -7   0   4    6.85    3.91
   7   0  -3    0.21    1.00
  -7   0   3   -0.60    2.16
   7   0  -2   20.50    4.07
  -7   0   2   20.45    5.37
   7   0  -1    0.31    1.67
  -7   0   1    1.54    2.31
   7   1  -5   30.24    6.62
   7   1  -5  114.52    8.51
   7  -1  -5  116.54    8.56
   7  -1  -5   30.43    6.55
  -7  -1   5  114.72    9.91
  -7   1   5  112.17    9.81
   7   1  -4    5.69    2.79
   7  -1  -4    5.79    2.77
  -7   1   4    5.77    3.65
  -7  -1   4    5.84    3.68
   7   1  -3    0.92    1.77
   7  -1  -3    1.09    1.74
  -7  -1   3    1.72    2.42
  -7   1   3    0.91    2.43
   7   1  -2   29.42    4.73
   7  -1  -2   30.87    6.70
  -7   1   2   26.05    6.04
  -7  -1   2   25.49    6.03
   7   1  -1   23.96    6.34
   7  -1  -1   24.48    4.36
  -7   1   1   21.97    5.89
  -7  -1   1   21.22    5.80
   7  -2  -5   28.96    3.81
   7   2  -5   25.74    4.65
   7   2  -5    0.04    3.35
   7  -2  -5    0.92    3.29
  -7  -2   5   -0.03    6.66
  -7   2   5    0.02    6.53
   7   2  -4    5.70    2.77
   7  -2  -4    6.11    4.27
  -7  -2   4    3.64    5.58
  -7   2   4    5.00    3.48
   7   2  -3   92.37   10.65
   7  -2  -3   93.30    8.12
  -7  -2   3   92.17    9.74
  -7   2   3   96.10    9.79
   7  -2  -2   27.58    4.71
   7   2  -2   27.38    6.47
  -7   2   2   31.60    9.04
  -7  -2   2   29.58    9.35
   7  -2  -1   -0.56    1.69
   7   2  -1    0.41    1.04
  -7  -2   1    0.06    2.37
  -7   2   1   -0.11    1.52
   7   3  -5   17.04    3.41
   7   3  -5   17.61    3.98
   7  -3  -5   15.78    3.88
   7  -3  -5   -1.19    3.67
  -7  -3   5   19.64    5.03
  -7   3   5   18.61    4.87
   7   3  -4    8.41    3.30
   7  -3  -4    9.52    3.30
  -7   3   4   11.74    4.17
  -7  -3   4   10.11    4.30
   7   3  -3   -0.06    1.40
   7  -3  -3    0.86    1.43
  -7  -3   3   -0.43    1.87
  -7   3   3    1.12    1.89
   7   3  -2   21.15    4.04
   7  -3  -2   20.00    4.22
  -7   3   2   18.98    5.42
  -7  -3   2   20.10    5.44
   7  -3  -1    2.99    2.22
   7   3  -1    2.67    2.09
  -7  -3   1    0.11    2.96
  -7   3   1    1.80    3.11
   7   4  -5   20.50    2.99
   7   4  -5    0.87    4.97
   7  -4  -5    0.97    4.78
  -7  -4   5   -0.10    4.07
  -7   4   5   -0.03    3.86
   7   4  -4    8.26    2.97
   7   4  -4    1.52    2.98
   7  -4  -4    8.73    2.99
  -7  -4   4    9.22    3.91
  -7   4   4    6.20    3.81
   7   4  -3    2.56    2.17
   7  -4  -3    2.42    2.20
  -7  -4   3    3.08    4.83
  -7   4   3    2.05    4.65
   7   4  -2   25.25    4.32
   7  -4  -2   27.66    4.67
  -7  -4   2   23.29    6.05
  -7   4   2   26.84    5.94
   7   4  -1    0.33    1.90
   7  -4  -1    0.29    1.35
  -7  -4   1    0.05    1.74
  -7   4   1   -0.14    2.95
   7   5  -5   35.25    4.67
   7   5  -5   29.31    5.17
   7  -5  -5   29.26    5.08
  -7  -5   5   32.70    6.43
  -7   5   5   27.54    9.38
   7   5  -4    2.54    3.82
   7   5  -4    4.96    2.49
   7  -5  -4    2.87    2.35
  -7   5   4    3.45    5.01
  -7  -5   4    1.83    3.25
   7   5  -3    2.89    3.61
   7  -5  -3    3.64    2.42
  -7  -5   3    3.75    3.35
  -7   5   3    2.67    3.08
   7   5  -2   42.91    7.44
   7  -5  -2   38.84    8.05
  -7  -5   2   39.64    7.12
  -7   5   2   39.32    7.08
   7   6  -5    1.83    3.03
   7   6  -5   34.63    4.90
   7  -6  -5    2.54    2.85
  -7  -6   5    3.09    3.94
  -7   6   5    2.40    3.74
   7   6  -4    4.18    2.50
   7  -6  -4    3.71    2.56
  -7   6   4    3.27    3.28
  -7  -6   4    3.20    3.46
   7   6  -3  117.18    9.28
   7  -6  -3  119.52    9.58
  -7   6   3  119.00   11.09
  -7  -6   3  119.39   11.55
   7  -6  -2   33.15    5.21
   7   6  -2   32.20    4.76
  -7  -6   2   32.12    6.59
  -7   6   2   37.52    9.96
   7   7  -5  184.67   16.88
   7  -7  -5  176.33   12.86
  -7  -7   5  177.60   19.80
  -7   7   5  177.56   14.46
   7   7  -4    1.48    3.48
   7   7  -4    5.26    2.74
   7  -7  -4    6.19    4.23
  -7  -7   4    6.22    5.97
  -7   7   4    6.07    3.55
   7   7  -3    2.26    2.09
   7  -7  -3    1.94    2.22
  -7  -7   3    1.38    2.98
  -7   7   3    2.31    2.79
   7  -7  -2   22.90    4.42
   7   7  -2   22.32    4.01
  -7  -7   2    0.14    8.73
  -7   7   2   25.62    5.65
   7   8  -5    3.67    3.32
   7   8  -5   24.56    3.56
   7  -8  -5    3.28    3.12
  -7   8   5    4.45    3.96
  -7  -8   5    1.67    4.30
   7   8  -4    4.72    4.21
   7  -8  -4    4.22    2.74
  -7  -8   4    4.66    3.83
  -7   8   4    4.68    3.45
   7   8  -3    6.32    4.79
   7   8  -3   67.95    8.27
   7  -8  -3   66.89    6.30
  -7  -8   3   67.34    7.88
  -7   8   3   69.51   10.76
   7   8  -2   23.05    3.96
   7  -8  -2   20.73    4.36
  -7  -8   2    0.12    8.59
  -7   8   2   18.62    5.58
   7   9  -5    0.81    1.55
   7  -9  -5   -0.04    2.30
  -7  -9   5    0.07    2.08
  -7   9   5   -0.04    1.86
   7   9  -4    1.07    1.61
   7   9  -4    0.87    1.89
   7  -9  -4    0.58    1.89
  -7   9   4    1.31    2.38
  -7  -9   4    1.64    2.66
   7   9  -3    0.45    1.91
   7   9  -3    1.22    1.82
   7  -9  -3    1.63    1.99
  -7   9   3    1.63    2.56
   7   9  -2   29.20    4.60
   7  -9  -2   31.52    5.11
  -7  -9   2   25.36    6.33
  -7   9   2   28.36    6.54
   7  10  -5    0.19    2.81
   7  10  -5   18.05    2.94
   7 -10  -5    0.23    2.64
  -7 -10   5    1.62    3.81
  -7  10   5    0.36    3.47
   7  10  -4   35.37    4.09
   7  10  -4    1.22    2.90
   7 -10  -4    1.52    2.87
  -7 -10   4    0.27    4.08
  -7  10   4    1.32    3.62
   7  10  -3    1.33    4.23
   7  10  -3   37.66    4.69
   7 -10  -3   36.84    7.26
  -7 -10   3   42.85    6.36
  -7  10   3   38.78    6.18
   7  10  -2   20.54    5.26
   7  10  -2    0.81    3.37
   7 -10  -2   26.05    6.15
  -7  10   2   20.10    7.86
  -7 -10   2   21.56    5.01
   7  11  -4    3.29    3.68
   7  11  -4    1.42    2.31
   7 -11  -4    3.26    2.46
  -7  11   4    3.43    2.98
  -7 -11   4    2.17    3.40
   7  11  -3   -0.22    3.14
   7  11  -3    4.63    1.74
   7 -11  -3   -0.09    2.16
  -7 -11   3    0.65    2.97
  -7  11   3   -0.89    2.78
   7  11  -2   14.18    3.42
   7 -11  -2   16.43    3.94
  -7 -11   2    0.20    4.91
  -7  11   2   14.24    5.04
   7  12  -4    2.47    2.22
   7  12  -4    0.79    2.15
   7 -12  -4    1.96    3.47
  -7  12   4    3.14    4.46
  -7 -12   4    3.03    5.15
   7  12  -3    0.84    2.02
   7  12  -3    3.53    1.71
   7 -12  -3    0.13    2.13
  -7 -12   3    1.08    2.94
  -7  12   3    0.21    2.77
   7  13  -3    1.59    2.15
   7 -13  -3    1.89    2.30
  -7 -13   3    1.44    3.11
  -7  13   3    2.65    3.00
   0   0   0    0.00    0.00
;
_shelx_hkl_checksum              62358
loop_
_space_group_symop_operation_xyz
'x, y, z'
'-x, y+1/2, -z'
loop_
_atom_site_label
_atom_site_type_symbol
_atom_site_fract_x
_atom_site_fract_y
_atom_site_fract_z
_atom_site_U_iso_or_equiv
_atom_site_adp_type
_atom_site_occupancy
_atom_site_site_symmetry_order
_atom_site_calc_flag
_atom_site_refinement_flags_posn
_atom_site_refinement_flags_adp
_atom_site_refinement_flags_occupancy
_atom_site_disorder_assembly
_atom_site_disorder_group
Ba1 Ba 0.3743(3) 0.66729(12) 0.3748(3) 0.0306(6) Uani 0.99 1 d . . P . .
Eu1 Eu 0.3743(3) 0.66729(12) 0.3748(3) 0.0306(6) Uani 0.01 1 d . . P . .
Ba2 Ba 0.127(2) 0.3996(6) 0.624(2) 0.040(3) Uani 0.495 1 d . . P . .
Eu2 Eu 0.127(2) 0.3996(6) 0.624(2) 0.040(3) Uani 0.005 1 d . . P . .
Ba3 Ba 0.6277(11) 0.3990(3) 0.1181(11) 0.0376(18) Uani 0.495 1 d . . P . .
Eu3 Eu 0.6277(11) 0.3990(3) 0.1181(11) 0.0376(18) Uani 0.005 1 d . . P . .
Si1 Si 0.1268(16) 0.3022(4) 0.1181(16) 0.018(2) Uani 0.5714 1 d . . P . .
Si2 Si 0.1302(19) 0.2632(4) 0.6201(19) 0.012(2) Uani 0.5714 1 d . . P . .
Si3 Si 0.6957(11) 0.6685(5) 0.0551(11) 0.0128(13) Uani 0.5714 1 d . . P . .
Si4 Si 0.6314(15) 0.3050(4) 0.6220(16) 0.016(2) Uani 0.5714 1 d . . P . .
Si5 Si 0.0541(10) 0.6660(5) 0.6966(10) 0.0091(12) Uani 0.5714 1 d . . P . .
Si6 Si 0.6295(19) 0.2629(4) 0.1197(19) 0.013(2) Uani 0.5714 1 d . . P . .
Si7 Si 0.154(5) 0.0675(7) 0.580(5) 0.016(5) Uiso 0.2857 1 d . . P . .
Si8 Si 0.095(5) 0.0660(8) 0.669(5) 0.024(5) Uiso 0.2857 1 d . . P . .
Si9 Si 0.198(4) 0.8981(8) 0.053(4) 0.027(4) Uiso 0.2857 1 d . . P . .
Si10 Si 0.050(3) 0.9019(6) 0.197(3) 0.012(3) Uiso 0.2857 1 d . . P . .
Si11 Si 0.445(4) 0.3980(7) 0.303(4) 0.027(4) Uiso 0.2857 1 d . . P . .
Si12 Si 0.304(4) 0.3923(7) 0.442(4) 0.026(4) Uiso 0.2857 1 d . . P . .
Si13 Si 0.151(3) 0.0925(6) 0.095(3) 0.009(4) Uiso 0.2857 1 d . . P . .
Si14 Si 0.104(3) 0.0912(6) 0.146(3) 0.017(4) Uiso 0.2857 1 d . . P . .
Si15 Si 0.656(5) 0.0662(8) 0.084(5) 0.018(5) Uiso 0.2857 1 d . . P . .
Si16 Si 0.594(5) 0.0664(8) 0.164(5) 0.024(6) Uiso 0.2857 1 d . . P . .
Si17 Si 0.086(4) 0.5005(7) 0.156(3) 0.016(4) Uiso 0.2857 1 d . . P . .
Si18 Si 0.164(3) 0.4991(6) 0.094(3) 0.012(3) Uiso 0.2857 1 d . . P . .
Si19 Si 0.336(4) -0.0007(7) 0.405(3) 0.014(4) Uiso 0.2857 1 d . . P . .
Si20 Si 0.412(4) 0.0002(7) 0.344(3) 0.015(4) Uiso 0.2857 1 d . . P . .
Si21 Si 0.154(4) 0.4729(8) 0.598(4) 0.029(5) Uiso 0.2857 1 d . . P . .
Si22 Si 0.608(7) 0.4702(14) 0.147(7) 0.022(8) Uiso 0.1429 1 d . . P . .
Si23 Si 0.657(9) 0.4763(17) 0.089(9) 0.043(10) Uiso 0.1429 1 d . . P . .
Al1 Al 0.1268(16) 0.3022(4) 0.1181(16) 0.018(2) Uani 0.4286 1 d . . P . .
Al2 Al 0.1302(19) 0.2632(4) 0.6201(19) 0.012(2) Uani 0.4286 1 d . . P . .
Al3 Al 0.6957(11) 0.6685(5) 0.0551(11) 0.0128(13) Uani 0.4286 1 d . . P . .
Al4 Al 0.6314(15) 0.3050(4) 0.6220(16) 0.016(2) Uani 0.4286 1 d . . P . .
Al5 Al 0.0541(10) 0.6660(5) 0.6966(10) 0.0091(12) Uani 0.4286 1 d . . P . .
Al6 Al 0.6295(19) 0.2629(4) 0.1197(19) 0.013(2) Uani 0.4286 1 d . . P . .
Al7 Al 0.154(5) 0.0675(7) 0.580(5) 0.016(5) Uiso 0.2143 1 d . . P . .
Al8 Al 0.095(5) 0.0660(8) 0.669(5) 0.024(5) Uiso 0.2143 1 d . . P . .
Al9 Al 0.198(4) 0.8981(8) 0.053(4) 0.027(4) Uiso 0.2143 1 d . . P . .
Al10 Al 0.050(3) 0.9019(6) 0.197(3) 0.012(3) Uiso 0.2143 1 d . . P . .
Al11 Al 0.445(4) 0.3980(7) 0.303(4) 0.027(4) Uiso 0.2143 1 d . . P . .
Al12 Al 0.304(4) 0.3923(7) 0.442(4) 0.026(4) Uiso 0.2143 1 d . . P . .
Al13 Al 0.151(3) 0.0925(6) 0.095(3) 0.009(4) Uiso 0.2143 1 d . . P . .
Al14 Al 0.104(3) 0.0912(6) 0.146(3) 0.017(4) Uiso 0.2143 1 d . . P . .
Al15 Al 0.656(5) 0.0662(8) 0.084(5) 0.018(5) Uiso 0.2143 1 d . . P . .
Al16 Al 0.594(5) 0.0664(8) 0.164(5) 0.024(6) Uiso 0.2143 1 d . . P . .
Al17 Al 0.086(4) 0.5005(7) 0.156(3) 0.016(4) Uiso 0.2143 1 d . . P . .
Al18 Al 0.164(3) 0.4991(6) 0.094(3) 0.012(3) Uiso 0.2143 1 d . . P . .
Al19 Al 0.336(4) -0.0007(7) 0.405(3) 0.014(4) Uiso 0.2143 1 d . . P . .
Al20 Al 0.412(4) 0.0002(7) 0.344(3) 0.015(4) Uiso 0.2143 1 d . . P . .
Al21 Al 0.154(4) 0.4729(8) 0.598(4) 0.029(5) Uiso 0.2143 1 d . . P . .
Al22 Al 0.608(7) 0.4702(14) 0.147(7) 0.022(8) Uiso 0.1071 1 d . . P . .
Al23 Al 0.657(9) 0.4763(17) 0.089(9) 0.043(10) Uiso 0.1071 1 d . . P . .
N1 N 0.791(5) 0.2843(11) 0.455(5) 0.025(6) Uiso 1 1 d . . . . .
N2 N 0.642(6) 0.3709(11) 0.626(7) 0.020(7) Uiso 1 1 d . . . . .
N3 N 0.199(5) 0.7832(12) 0.055(5) 0.026(6) Uiso 1 1 d . . . . .
N4 N 0.631(4) 0.1961(9) 0.119(4) 0.013(6) Uiso 1 1 d . . . . .
N5 N 0.296(5) 0.2808(13) 0.959(5) 0.036(7) Uiso 1 1 d . . . . .
N6 N 0.108(5) 0.6019(9) 0.638(5) 0.022(7) Uiso 1 1 d . . . . .
N7 N 0.133(4) 0.1954(8) 0.614(4) 0.008(5) Uiso 1 1 d . . . . .
N8 N 0.301(5) 0.2863(12) 0.451(5) 0.028(6) Uiso 1 1 d . . . . .
N9 N 0.122(7) 0.3703(13) 0.113(7) 0.025(9) Uiso 1 1 d . . . . .
N10 N 0.646(5) 0.6022(9) 0.106(5) 0.023(7) Uiso 1 1 d . . . . .
N11 N 0.137(4) 0.1706(15) 0.094(5) 0.084(6) Uiso 1 1 d . . . . .
N12 N 0.08(3) 0.411(7) 0.64(3) 0.04(3) Uiso 0.5 1 d . . P . .
N13 N 0.665(14) 0.411(2) 0.155(15) 0.012(16) Uiso 0.5 1 d . . P . .
N14 N 0.146(11) 0.9662(19) 0.094(10) 0.010(13) Uiso 0.5 1 d . . P . .
N15 N 0.117(13) 0.962(2) 0.142(13) 0.022(17) Uiso 0.5 1 d . . P . .
N16 N 0.394(13) 0.467(2) 0.337(13) 0.035(18) Uiso 0.5 1 d . . P . .
N17 N 0.353(12) 0.467(2) 0.407(12) 0.023(15) Uiso 0.5 1 d . . P . .
N18 N 0.148(9) 0.5651(17) 0.071(9) 0.015(10) Uiso 0.5 1 d . . P . .
N19 N 0.086(13) 0.561(2) 0.176(12) 0.038(15) Uiso 0.5 1 d . . P . .
N20 N 0.335(9) 0.0652(16) 0.421(9) 0.010(9) Uiso 0.5 1 d . . P . .
N21 N 0.376(11) 0.060(2) 0.314(11) 0.031(13) Uiso 0.5 1 d . . P . .
N22 N 0.582(8) 0.0092(16) 0.150(8) 0.007(8) Uiso 0.5 1 d . . P . .
N23 N 0.663(11) 0.007(2) 0.091(10) 0.025(12) Uiso 0.5 1 d . . P . .
N24 N 0.078(8) 0.0086(16) 0.639(8) 0.008(8) Uiso 0.5 1 d . . P . .
N25 N 0.176(11) 0.007(2) 0.600(10) 0.023(11) Uiso 0.5 1 d . . P . .
loop_
_atom_site_aniso_label
_atom_site_aniso_U_11
_atom_site_aniso_U_22
_atom_site_aniso_U_33
_atom_site_aniso_U_23
_atom_site_aniso_U_13
_atom_site_aniso_U_12
Ba1 0.0096(7) 0.0716(15) 0.0121(7) 0.0014(13) 0.0064(5) -0.0021(14)
Eu1 0.0096(7) 0.0716(15) 0.0121(7) 0.0014(13) 0.0064(5) -0.0021(14)
Ba2 0.014(2) 0.087(9) 0.016(3) -0.004(4) 0.0066(17) 0.004(4)
Eu2 0.014(2) 0.087(9) 0.016(3) -0.004(4) 0.0066(17) 0.004(4)
Ba3 0.013(2) 0.085(5) 0.014(2) 0.000(3) 0.0053(18) -0.007(3)
Eu3 0.013(2) 0.085(5) 0.014(2) 0.000(3) 0.0053(18) -0.007(3)
Si1 0.013(4) 0.024(5) 0.017(4) -0.003(4) 0.007(4) 0.000(4)
Si2 0.011(5) 0.016(4) 0.011(5) -0.003(3) 0.007(4) 0.002(4)
Si3 0.005(2) 0.028(4) 0.005(2) -0.001(4) 0.002(2) -0.001(4)
Si4 0.011(4) 0.017(4) 0.019(4) -0.002(3) 0.008(4) 0.000(4)
Si5 0.005(2) 0.020(3) 0.005(2) 0.001(4) 0.0043(19) -0.002(4)
Si6 0.013(5) 0.012(4) 0.011(5) 0.001(3) 0.005(4) 0.001(4)
Al1 0.013(4) 0.024(5) 0.017(4) -0.003(4) 0.007(4) 0.000(4)
Al2 0.011(5) 0.016(4) 0.011(5) -0.003(3) 0.007(4) 0.002(4)
Al3 0.005(2) 0.028(4) 0.005(2) -0.001(4) 0.002(2) -0.001(4)
Al4 0.011(4) 0.017(4) 0.019(4) -0.002(3) 0.008(4) 0.000(4)
Al5 0.005(2) 0.020(3) 0.005(2) 0.001(4) 0.0043(19) -0.002(4)
Al6 0.013(5) 0.012(4) 0.011(5) 0.001(3) 0.005(4) 0.001(4)
loop_
_atom_type_symbol
_atom_type_description
_atom_type_scat_dispersion_real
_atom_type_scat_dispersion_imag
_atom_type_scat_source
N N 0.0061 0.0033 'International Tables Vol C Tables 4.2.6.8 and 6.1.1.4'
Al Al 0.0645 0.0514 'International Tables Vol C Tables 4.2.6.8 and 6.1.1.4'
Si Si 0.0817 0.0704 'International Tables Vol C Tables 4.2.6.8 and 6.1.1.4'
Ba Ba -0.3244 2.2819 'International Tables Vol C Tables 4.2.6.8 and 6.1.1.4'
loop_
_exptl_crystal_face_index_h
_exptl_crystal_face_index_k
_exptl_crystal_face_index_l
_exptl_crystal_face_perp_dist
-5.20 5.18 0.61 0.0176
2.43 2.24 -5.88 0.0506
-2.43 -2.24 5.88 0.0375
-0.24 18.10 -3.63 0.0392
4.41 3.24 -5.57 0.0461
2.55 2.12 -5.90 0.0502
5.09 -5.27 -0.36 0.0128
0.04 -4.23 5.02 0.0339
0.56 26.48 0.13 0.0121
-1.05 -26.25 0.39 0.0255
-2.37 2.96 5.86 0.0358
-5.23 -2.62 0.50 0.0193
-5.24 1.63 4.93 0.0351
-4.99 5.34 0.14 0.0171
loop_
_geom_angle_atom_site_label_1
_geom_angle_atom_site_label_2
_geom_angle_atom_site_label_3
_geom_angle
_geom_angle_site_symmetry_1
_geom_angle_site_symmetry_3
N11 Ba1 N7 123.9(6) 2 2_656
N11 Ba1 N4 63.5(6) 2 2_655
N7 Ba1 N4 60.5(5) 2_656 2_655
N11 Ba1 N11 171.2(10) 2 2_656
N7 Ba1 N11 62.8(6) 2_656 2_656
N4 Ba1 N11 123.2(7) 2_655 2_656
N11 Ba1 N4 114.5(6) 2 2_656
N7 Ba1 N4 112.3(6) 2_656 2_656
N4 Ba1 N4 150.5(9) 2_655 2_656
N11 Ba1 N4 56.7(6) 2_656 2_656
N11 Ba1 N7 57.0(6) 2 2_556
N7 Ba1 N7 151.1(8) 2_656 2_556
N4 Ba1 N7 113.4(6) 2_655 2_556
N11 Ba1 N7 114.2(6) 2_656 2_556
N4 Ba1 N7 57.5(5) 2_656 2_556
N11 Ba1 N20 120.3(11) 2 2_656
N7 Ba1 N20 82.5(10) 2_656 2_656
N4 Ba1 N20 110.2(10) 2_655 2_656
N11 Ba1 N20 64.3(11) 2_656 2_656
N4 Ba1 N20 96.2(10) 2_656 2_656
N7 Ba1 N20 123.6(10) 2_556 2_656
N11 Ba1 N18 62.6(12) 2 .
N7 Ba1 N18 111.7(11) 2_656 .
N4 Ba1 N18 82.7(11) 2_655 .
N11 Ba1 N18 121.9(11) 2_656 .
N4 Ba1 N18 124.0(10) 2_656 .
N7 Ba1 N18 94.4(10) 2_556 .
N20 Ba1 N18 57.8(11) 2_656 .
N11 Ba1 N6 87.4(7) 2 .
N7 Ba1 N6 146.0(6) 2_656 .
N4 Ba1 N6 146.3(6) 2_655 .
N11 Ba1 N6 87.7(7) 2_656 .
N4 Ba1 N6 55.8(6) 2_656 .
N7 Ba1 N6 55.0(6) 2_556 .
N20 Ba1 N6 68.8(10) 2_656 .
N18 Ba1 N6 68.3(11) . .
N11 Ba1 N19 64.3(13) 2 .
N7 Ba1 N19 124.7(13) 2_656 .
N4 Ba1 N19 96.8(12) 2_655 .
N11 Ba1 N19 117.8(14) 2_656 .
N4 Ba1 N19 108.9(13) 2_656 .
N7 Ba1 N19 83.2(13) 2_556 .
N20 Ba1 N19 57.5(15) 2_656 .
N18 Ba1 N19 15.4(14) . .
N6 Ba1 N19 53.1(13) . .
N11 Ba1 N10 94.6(7) 2 .
N7 Ba1 N10 56.2(6) 2_656 .
N4 Ba1 N10 56.2(6) 2_655 .
N11 Ba1 N10 94.2(7) 2_656 .
N4 Ba1 N10 147.1(6) 2_656 .
N7 Ba1 N10 147.5(6) 2_556 .
N20 Ba1 N10 54.0(10) 2_656 .
N18 Ba1 N10 55.5(11) . .
N6 Ba1 N10 114.1(7) . .
N19 Ba1 N10 69.1(13) . .
N11 Ba1 Si3 94.2(5) 2 .
N7 Ba1 Si3 34.3(4) 2_656 .
N4 Ba1 Si3 34.0(5) 2_655 .
N11 Ba1 Si3 93.9(4) 2_656 .
N4 Ba1 Si3 146.6(4) 2_656 .
N7 Ba1 Si3 147.4(4) 2_556 .
N20 Ba1 Si3 82.5(9) 2_656 .
N18 Ba1 Si3 83.5(10) . .
N6 Ba1 Si3 147.3(5) . .
N19 Ba1 Si3 98.6(13) . .
N10 Ba1 Si3 33.2(5) . .
Al10 Ba2 Si10 0.0 2_546 2_546
Al10 Ba2 Si12 175.8(14) 2_546 .
Si10 Ba2 Si12 175.8(14) 2_546 .
Al10 Ba2 Si21 95.9(11) 2_546 .
Si10 Ba2 Si21 95.9(11) 2_546 .
Si12 Ba2 Si21 88.3(11) . .
Al10 Ba2 N13 90.8(18) 2_546 1_455
Si10 Ba2 N13 90.8(18) 2_546 1_455
Si12 Ba2 N13 89.5(18) . 1_455
Si21 Ba2 N13 84.0(15) . 1_455
Al10 Ba2 N17 139.0(16) 2_546 .
Si10 Ba2 N17 139.0(16) 2_546 .
Si12 Ba2 N17 45.2(14) . .
Si21 Ba2 N17 43.1(14) . .
N13 Ba2 N17 86(2) 1_455 .
Al10 Ba2 N15 32.8(15) 2_546 2_546
Si10 Ba2 N15 32.8(15) 2_546 2_546
Si12 Ba2 N15 151.5(17) . 2_546
Si21 Ba2 N15 63.2(15) . 2_546
N13 Ba2 N15 87(2) 1_455 2_546
N17 Ba2 N15 106.2(19) . 2_546
Al10 Ba2 N2 34.8(8) 2_546 1_455
Si10 Ba2 N2 34.8(8) 2_546 1_455
Si12 Ba2 N2 142.8(10) . 1_455
Si21 Ba2 N2 111.9(10) . 1_455
N13 Ba2 N2 63.5(18) 1_455 1_455
N17 Ba2 N2 144.7(16) . 1_455
N15 Ba2 N2 57.2(15) 2_546 1_455
Al10 Ba2 Eu3 90.4(6) 2_546 1_556
Si10 Ba2 Eu3 90.4(6) 2_546 1_556
Si12 Ba2 Eu3 89.7(7) . 1_556
Si21 Ba2 Eu3 90.1(7) . 1_556
N13 Ba2 Eu3 174.0(14) 1_455 1_556
N17 Ba2 Eu3 89.1(12) . 1_556
N15 Ba2 Eu3 91.2(13) 2_546 1_556
N2 Ba2 Eu3 119.7(8) 1_455 1_556
Al10 Ba2 Ba3 90.4(6) 2_546 1_556
Si10 Ba2 Ba3 90.4(6) 2_546 1_556
Si12 Ba2 Ba3 89.7(7) . 1_556
Si21 Ba2 Ba3 90.1(7) . 1_556
N13 Ba2 Ba3 174.0(14) 1_455 1_556
N17 Ba2 Ba3 89.1(12) . 1_556
N15 Ba2 Ba3 91.2(13) 2_546 1_556
N2 Ba2 Ba3 119.7(8) 1_455 1_556
Eu3 Ba2 Ba3 0.0 1_556 1_556
Al9 Ba3 Si9 0.0 2_645 2_645
Al9 Ba3 Si11 178.3(12) 2_645 .
Si9 Ba3 Si11 178.3(12) 2_645 .
Al9 Ba3 Si22 98.2(16) 2_645 .
Si9 Ba3 Si22 98.2(16) 2_645 .
Si11 Ba3 Si22 83.5(16) . .
Al9 Ba3 Si23 82.8(16) 2_645 .
Si9 Ba3 Si23 82.8(16) 2_645 .
Si11 Ba3 Si23 98.9(16) . .
Si22 Ba3 Si23 15.4(16) . .
Al9 Ba3 N14 40.0(13) 2_645 2_645
Si9 Ba3 N14 40.0(13) 2_645 2_645
Si11 Ba3 N14 141.7(14) . 2_645
Si22 Ba3 N14 58.2(17) . 2_645
Si23 Ba3 N14 42.8(17) . 2_645
Al9 Ba3 N16 142.4(16) 2_645 .
Si9 Ba3 N16 142.4(16) 2_645 .
Si11 Ba3 N16 39.3(15) . .
Si22 Ba3 N16 44.3(19) . .
Si23 Ba3 N16 59.6(19) . .
N14 Ba3 N16 102.4(19) 2_645 .
Al9 Ba3 Eu2 91.0(7) 2_645 1_554
Si9 Ba3 Eu2 91.0(7) 2_645 1_554
Si11 Ba3 Eu2 89.6(7) . 1_554
Si22 Ba3 Eu2 90.4(11) . 1_554
Si23 Ba3 Eu2 89.8(12) . 1_554
N14 Ba3 Eu2 91.1(11) 2_645 1_554
N16 Ba3 Eu2 88.5(13) . 1_554
Al9 Ba3 Ba2 91.0(7) 2_645 1_554
Si9 Ba3 Ba2 91.0(7) 2_645 1_554
Si11 Ba3 Ba2 89.6(7) . 1_554
Si22 Ba3 Ba2 90.4(11) . 1_554
Si23 Ba3 Ba2 89.8(12) . 1_554
N14 Ba3 Ba2 91.1(11) 2_645 1_554
N16 Ba3 Ba2 88.5(13) . 1_554
Eu2 Ba3 Ba2 0.0 1_554 1_554
N3 Si1 N5 109.5(14) 2_545 1_554
N3 Si1 N8 117.4(14) 2_545 .
N5 Si1 N8 109.5(15) 1_554 .
N3 Si1 N9 106.1(16) 2_545 .
N5 Si1 N9 109.1(19) 1_554 .
N8 Si1 N9 104.8(16) . .
N5 Si2 N7 106.1(14) . .
N5 Si2 N8 111.4(14) . .
N7 Si2 N8 108.5(13) . .
N5 Si2 N1 111.8(14) . 1_455
N7 Si2 N1 108.3(12) . 1_455
N8 Si2 N1 110.6(13) . 1_455
N5 Si2 Ba2 74.6(11) . .
N7 Si2 Ba2 179.2(9) . .
N8 Si2 Ba2 70.8(10) . .
N1 Si2 Ba2 71.8(9) 1_455 .
N11 Si3 N4 115.5(14) 2_655 2_655
N11 Si3 N7 113.2(13) 2_655 2_656
N4 Si3 N7 108.8(11) 2_655 2_656
N11 Si3 N10 108.0(19) 2_655 .
N4 Si3 N10 105.8(12) 2_655 .
N7 Si3 N10 104.7(11) 2_656 .
N11 Si3 Al13 55.1(17) 2_655 2_655
N4 Si3 Al13 125.2(9) 2_655 2_655
N7 Si3 Al13 124.8(9) 2_656 2_655
N10 Si3 Al13 52.9(10) . 2_655
N11 Si3 Si13 55.1(17) 2_655 2_655
N4 Si3 Si13 125.2(9) 2_655 2_655
N7 Si3 Si13 124.8(9) 2_656 2_655
N10 Si3 Si13 52.9(10) . 2_655
Al13 Si3 Si13 0.0 2_655 2_655
N11 Si3 Al14 47.7(16) 2_655 2_655
N4 Si3 Al14 125.4(9) 2_655 2_655
N7 Si3 Al14 125.7(8) 2_656 2_655
N10 Si3 Al14 60.4(10) . 2_655
Al13 Si3 Al14 7.5(6) 2_655 2_655
Si13 Si3 Al14 7.5(6) 2_655 2_655
N11 Si3 Ba1 177.7(14) 2_655 .
N4 Si3 Ba1 65.5(7) 2_655 .
N7 Si3 Ba1 64.6(7) 2_656 .
N10 Si3 Ba1 73.4(10) . .
Al13 Si3 Ba1 126.3(6) 2_655 .
Si13 Si3 Ba1 126.3(6) 2_655 .
Al14 Si3 Ba1 133.8(6) 2_655 .
N11 Si3 Ba1 56.8(9) 2_655 1_655
N4 Si3 Ba1 156.5(10) 2_655 1_655
N7 Si3 Ba1 62.4(7) 2_656 1_655
N10 Si3 Ba1 97.6(9) . 1_655
Al13 Si3 Ba1 71.2(4) 2_655 1_655
Si13 Si3 Ba1 71.2(4) 2_655 1_655
Al14 Si3 Ba1 68.3(4) 2_655 1_655
Ba1 Si3 Ba1 121.38(17) . 1_655
N11 Si3 Eu1 56.8(9) 2_655 1_655
N4 Si3 Eu1 156.5(10) 2_655 1_655
N7 Si3 Eu1 62.4(7) 2_656 1_655
N10 Si3 Eu1 97.6(9) . 1_655
Al13 Si3 Eu1 71.2(4) 2_655 1_655
Si13 Si3 Eu1 71.2(4) 2_655 1_655
Al14 Si3 Eu1 68.3(4) 2_655 1_655
Ba1 Si3 Eu1 121.4 . 1_655
Ba1 Si3 Eu1 0.00(3) 1_655 1_655
N11 Si3 Eu1 60.7(9) 2_655 1_554
N4 Si3 Eu1 61.6(7) 2_655 1_554
N7 Si3 Eu1 157.4(9) 2_656 1_554
N10 Si3 Eu1 97.8(8) . 1_554
Al13 Si3 Eu1 71.6(4) 2_655 1_554
Si13 Si3 Eu1 71.6(4) 2_655 1_554
Al14 Si3 Eu1 68.3(4) 2_655 1_554
Ba1 Si3 Eu1 121.1 . 1_554
Ba1 Si3 Eu1 117.44(18) 1_655 1_554
Eu1 Si3 Eu1 117.44(18) 1_655 1_554
N1 Si4 N3 108.6(14) . 2_646
N1 Si4 N2 107.5(18) . .
N3 Si4 N2 108.7(16) 2_646 .
N1 Si4 N8 109.1(14) . .
N3 Si4 N8 114.4(14) 2_646 .
N2 Si4 N8 108.3(16) . .
N1 Si4 Ba1 72.0(10) . 2_646
N3 Si4 Ba1 70.4(10) 2_646 2_646
N2 Si4 Ba1 178.6(12) . 2_646
N8 Si4 Ba1 73.1(10) . 2_646
N1 Si4 Ba2 66.6(10) . 1_655
N3 Si4 Ba2 100.4(10) 2_646 1_655
N2 Si4 Ba2 47.1(13) . 1_655
N8 Si4 Ba2 143.6(10) . 1_655
Ba1 Si4 Ba2 131.8(3) 2_646 1_655
N1 Si4 Ba3 146.5(10) . 1_556
N3 Si4 Ba3 67.2(10) 2_646 1_556
N2 Si4 Ba3 49.5(13) . 1_556
N8 Si4 Ba3 102.2(10) . 1_556
Ba1 Si4 Ba3 130.2(3) 2_646 1_556
Ba2 Si4 Ba3 81.2(3) 1_655 1_556
N7 Si5 N4 110.9(12) 2_556 2_656
N7 Si5 N6 107.5(11) 2_556 .
N4 Si5 N6 108.2(12) 2_656 .
N7 Si5 N11 110.1(12) 2_556 2_556
N4 Si5 N11 108.3(12) 2_656 2_556
N6 Si5 N11 111.8(16) . 2_556
N7 Si5 Al14 124.1(9) 2_556 2_556
N4 Si5 Al14 125.0(9) 2_656 2_556
N6 Si5 Al14 56.7(10) . 2_556
N11 Si5 Al14 55.1(13) 2_556 2_556
N7 Si5 Si14 124.1(9) 2_556 2_556
N4 Si5 Si14 125.0(9) 2_656 2_556
N6 Si5 Si14 56.7(10) . 2_556
N11 Si5 Si14 55.1(13) 2_556 2_556
Al14 Si5 Si14 0.0 2_556 2_556
N7 Si5 Al13 123.9(8) 2_556 2_556
N4 Si5 Al13 124.5(8) 2_656 2_556
N6 Si5 Al13 65.0(10) . 2_556
N11 Si5 Al13 46.8(13) 2_556 2_556
Al14 Si5 Al13 8.3(5) 2_556 2_556
Si14 Si5 Al13 8.3(5) 2_556 2_556
N7 Si5 Ba1 69.2(7) 2_556 .
N4 Si5 Ba1 68.5(7) 2_656 .
N6 Si5 Ba1 72.3(9) . .
N11 Si5 Ba1 175.7(14) 2_556 .
Al14 Si5 Ba1 129.0(6) 2_556 .
Si14 Si5 Ba1 129.0(6) 2_556 .
Al13 Si5 Ba1 137.3(5) 2_556 .
N7 Si5 Eu1 152.2(9) 2_556 1_556
N4 Si5 Eu1 58.9(7) 2_656 1_556
N6 Si5 Eu1 100.2(8) . 1_556
N11 Si5 Eu1 57.3(7) 2_556 1_556
Al14 Si5 Eu1 71.7(4) 2_556 1_556
Si14 Si5 Eu1 71.7(4) 2_556 1_556
Al13 Si5 Eu1 68.1(3) 2_556 1_556
Ba1 Si5 Eu1 121.3 . 1_556
N7 Si5 Ba1 152.2(9) 2_556 1_556
N4 Si5 Ba1 58.9(7) 2_656 1_556
N6 Si5 Ba1 100.2(8) . 1_556
N11 Si5 Ba1 57.3(7) 2_556 1_556
Al14 Si5 Ba1 71.7(4) 2_556 1_556
Si14 Si5 Ba1 71.7(4) 2_556 1_556
Al13 Si5 Ba1 68.1(3) 2_556 1_556
Ba1 Si5 Ba1 121.33(16) . 1_556
Eu1 Si5 Ba1 0.0 1_556 1_556
N7 Si5 Ba1 57.9(7) 2_556 1_455
N4 Si5 Ba1 152.2(10) 2_656 1_455
N6 Si5 Ba1 99.5(8) . 1_455
N11 Si5 Ba1 60.4(7) 2_556 1_455
Al14 Si5 Ba1 71.7(4) 2_556 1_455
Si14 Si5 Ba1 71.7(4) 2_556 1_455
Al13 Si5 Ba1 68.5(3) 2_556 1_455
Ba1 Si5 Ba1 121.07(16) . 1_455
Eu1 Si5 Ba1 117.6 1_556 1_455
Ba1 Si5 Ba1 117.58(17) 1_556 1_455
N5 Si6 N4 105.9(14) 1_554 .
N5 Si6 N1 110.7(14) 1_554 .
N4 Si6 N1 108.5(12) . .
N5 Si6 N3 112.5(14) 1_554 2_645
N4 Si6 N3 107.0(14) . 2_645
N1 Si6 N3 111.9(13) . 2_645
N5 Si6 Ba3 74.1(11) 1_554 .
N4 Si6 Ba3 179.7(10) . .
N1 Si6 Ba3 71.7(9) . .
N3 Si6 Ba3 72.7(10) 2_645 .
Si8 Si7 N25 87(3) . .
Si8 Si7 N24 64(3) . .
N25 Si7 N24 25(2) . .
Si8 Si7 N6 90(3) . 2_546
N25 Si7 N6 127(3) . 2_546
N24 Si7 N6 115(2) . 2_546
Si8 Si7 N20 169(4) . .
N25 Si7 N20 87(3) . .
N24 Si7 N20 111(2) . .
N6 Si7 N20 101(2) 2_546 .
Si8 Si7 N10 68(3) . 2_646
N25 Si7 N10 115(2) . 2_646
N24 Si7 N10 111(2) . 2_646
N6 Si7 N10 112.0(15) 2_546 2_646
N20 Si7 N10 107(2) . 2_646
Si8 Si7 Si14 149(3) . .
N25 Si7 Si14 107(2) . .
N24 Si7 Si14 121.7(18) . .
N6 Si7 Si14 58.9(13) 2_546 .
N20 Si7 Si14 42.1(16) . .
N10 Si7 Si14 125.6(14) 2_646 .
Si8 Si7 Si19 131(3) . .
N25 Si7 Si19 44(2) . .
N24 Si7 Si19 68.0(16) . .
N6 Si7 Si19 118.7(15) 2_546 .
N20 Si7 Si19 43.4(17) . .
N10 Si7 Si19 124.0(14) 2_646 .
Si14 Si7 Si19 69.0(8) . .
Si7 Si8 N24 90(3) . .
Si7 Si8 N19 170(5) . 2_546
N24 Si8 N19 88(3) . 2_546
Si7 Si8 N25 68(3) . .
N24 Si8 N25 24(2) . .
N19 Si8 N25 112(3) 2_546 .
Si7 Si8 N10 89(3) . 2_646
N24 Si8 N10 129(3) . 2_646
N19 Si8 N10 100(3) 2_546 2_646
N25 Si8 N10 116(2) . 2_646
Si7 Si8 N6 66(3) . 2_546
N24 Si8 N6 115(2) . 2_546
N19 Si8 N6 106(3) 2_546 2_546
N25 Si8 N6 111(2) . 2_546
N10 Si8 N6 111.1(16) 2_646 2_546
Si7 Si8 Si13 144(3) . 1_556
N24 Si8 Si13 112(2) . 1_556
N19 Si8 Si13 45(2) 2_546 1_556
N25 Si8 Si13 125(2) . 1_556
N10 Si8 Si13 55.3(13) 2_646 1_556
N6 Si8 Si13 122.5(14) 2_546 1_556
Si7 Si8 Al13 144(3) . 1_556
N24 Si8 Al13 112(2) . 1_556
N19 Si8 Al13 45(2) 2_546 1_556
N25 Si8 Al13 125(2) . 1_556
N10 Si8 Al13 55.3(13) 2_646 1_556
N6 Si8 Al13 122.5(14) 2_546 1_556
Si13 Si8 Al13 0.0(8) 1_556 1_556
Si7 Si8 Si17 138(3) . 2_546
N24 Si8 Si17 48(2) . 2_546
N19 Si8 Si17 40(2) 2_546 2_546
N25 Si8 Si17 71(2) . 2_546
N10 Si8 Si17 117.5(15) 2_646 2_546
N6 Si8 Si17 123.4(14) 2_546 2_546
Si13 Si8 Si17 70.2(9) 1_556 2_546
Al13 Si8 Si17 70.2(9) 1_556 2_546
Si7 Si8 Al17 138(3) . 2_546
N24 Si8 Al17 48(2) . 2_546
N19 Si8 Al17 40(2) 2_546 2_546
N25 Si8 Al17 71(2) . 2_546
N10 Si8 Al17 117.5(15) 2_646 2_546
N6 Si8 Al17 123.4(14) 2_546 2_546
Si13 Si8 Al17 70.2(9) 1_556 2_546
Al13 Si8 Al17 70.2(9) 1_556 2_546
Si17 Si8 Al17 0.0(13) 2_546 2_546
Si7 Si8 Si23 96(3) . 2_646
N24 Si8 Si23 36(2) . 2_646
N19 Si8 Si23 88(3) 2_546 2_646
N25 Si8 Si23 38(2) . 2_646
N10 Si8 Si23 92.6(15) 2_646 2_646
N6 Si8 Si23 149.0(17) 2_546 2_646
Si13 Si8 Si23 87.2(13) 1_556 2_646
Al13 Si8 Si23 87.2(13) 1_556 2_646
Si17 Si8 Si23 54.2(11) 2_546 2_646
Al17 Si8 Si23 54.2(11) 2_546 2_646
Si10 Si9 Eu3 175.2(16) . 2_655
Si10 Si9 Ba3 175.2(16) . 2_655
Eu3 Si9 Ba3 0.0 2_655 2_655
Si10 Si9 N13 163(3) . 2_655
Eu3 Si9 N13 12(2) 2_655 2_655
Ba3 Si9 N13 12(2) 2_655 2_655
Si10 Si9 N9 66.1(15) . 2
Eu3 Si9 N9 116.1(17) 2_655 2
Ba3 Si9 N9 116.1(17) 2_655 2
N13 Si9 N9 114(3) 2_655 2
Si10 Si9 N2 65.3(16) . 2_656
Eu3 Si9 N2 116.9(16) 2_655 2_656
Ba3 Si9 N2 116.9(16) 2_655 2_656
N13 Si9 N2 128(3) 2_655 2_656
N9 Si9 N2 106.2(19) 2 2_656
Si10 Si9 N14 72(2) . .
Eu3 Si9 N14 104(2) 2_655 .
Ba3 Si9 N14 104(2) 2_655 .
N13 Si9 N14 93(3) 2_655 .
N9 Si9 N14 106(2) 2 .
N2 Si9 N14 107(2) 2_656 .
Si10 Si9 N15 59(2) . .
Eu3 Si9 N15 116(2) 2_655 .
Ba3 Si9 N15 116(2) 2_655 .
N13 Si9 N15 106(3) 2_655 .
N9 Si9 N15 101(3) 2 .
N2 Si9 N15 98(2) 2_656 .
N14 Si9 N15 12(3) . .
Si10 Si9 Al23 120.7(16) . 2_655
Eu3 Si9 Al23 54.5(13) 2_655 2_655
Ba3 Si9 Al23 54.5(13) 2_655 2_655
N13 Si9 Al23 45(2) 2_655 2_655
N9 Si9 Al23 126.0(18) 2 2_655
N2 Si9 Al23 125.9(17) 2_656 2_655
N14 Si9 Al23 49(2) . 2_655
N15 Si9 Al23 61(2) . 2_655
Si10 Si9 Si23 120.7(16) . 2_655
Eu3 Si9 Si23 54.5(13) 2_655 2_655
Ba3 Si9 Si23 54.5(13) 2_655 2_655
N13 Si9 Si23 45(2) 2_655 2_655
N9 Si9 Si23 126.0(18) 2 2_655
N2 Si9 Si23 125.9(17) 2_656 2_655
N14 Si9 Si23 49(2) . 2_655
N15 Si9 Si23 61(2) . 2_655
Al23 Si9 Si23 0.0 2_655 2_655
Si10 Si9 Al22 131.8(14) . 2_655
Eu3 Si9 Al22 43.4(11) 2_655 2_655
Ba3 Si9 Al22 43.4(11) 2_655 2_655
N13 Si9 Al22 34(2) 2_655 2_655
N9 Si9 Al22 126.2(16) 2 2_655
N2 Si9 Al22 127.6(16) 2_656 2_655
N14 Si9 Al22 60(2) . 2_655
N15 Si9 Al22 72(2) . 2_655
Al23 Si9 Al22 11.1(12) 2_655 2_655
Si23 Si9 Al22 11.1(12) 2_655 2_655
Si9 Si10 N15 73(3) . .
Si9 Si10 N12 173(7) . 2_556
N15 Si10 N12 102(7) . 2_556
Si9 Si10 Eu2 174.1(14) . 2_556
N15 Si10 Eu2 113(3) . 2_556
N12 Si10 Eu2 12(7) 2_556 2_556
Si9 Si10 Ba2 174.1(14) . 2_556
N15 Si10 Ba2 113(3) . 2_556
N12 Si10 Ba2 12(7) 2_556 2_556
Eu2 Si10 Ba2 0.0 2_556 2_556
Si9 Si10 N2 66.1(16) . 2_656
N15 Si10 N2 106(2) . 2_656
N12 Si10 N2 113(7) 2_556 2_656
Eu2 Si10 N2 110.4(15) 2_556 2_656
Ba2 Si10 N2 110.4(15) 2_556 2_656
Si9 Si10 N9 65.6(15) . 2
N15 Si10 N9 108(3) . 2
N12 Si10 N9 120(7) 2_556 2
Eu2 Si10 N9 112.1(16) 2_556 2
Ba2 Si10 N9 112.1(16) 2_556 2
N2 Si10 N9 106.3(17) 2_656 2
Si9 Si10 N14 64(2) . .
N15 Si10 N14 9(3) . .
N12 Si10 N14 111(7) 2_556 .
Eu2 Si10 N14 122(2) 2_556 .
Ba2 Si10 N14 122(2) 2_556 .
N2 Si10 N14 102.8(19) 2_656 .
N9 Si10 N14 102(2) 2 .
Si9 Si10 Al21 141.3(12) . 2_556
N15 Si10 Al21 68(2) . 2_556
N12 Si10 Al21 33(7) 2_556 2_556
Eu2 Si10 Al21 44.6(8) 2_556 2_556
Ba2 Si10 Al21 44.6(8) 2_556 2_556
N2 Si10 Al21 125.7(14) 2_656 2_556
N9 Si10 Al21 127.1(14) 2 2_556
N14 Si10 Al21 77.6(18) . 2_556
Si9 Si10 Si21 141.3(12) . 2_556
N15 Si10 Si21 68(2) . 2_556
N12 Si10 Si21 33(7) 2_556 2_556
Eu2 Si10 Si21 44.6(8) 2_556 2_556
Ba2 Si10 Si21 44.6(8) 2_556 2_556
N2 Si10 Si21 125.7(14) 2_656 2_556
N9 Si10 Si21 127.1(14) 2 2_556
N14 Si10 Si21 77.6(18) . 2_556
Al21 Si10 Si21 0.0 2_556 2_556
Si9 Si10 Ba3 2.6(9) . 2_655
N15 Si10 Ba3 70(2) . 2_655
N12 Si10 Ba3 171(7) 2_556 2_655
Eu2 Si10 Ba3 176.6(10) 2_556 2_655
Ba2 Si10 Ba3 176.6(10) 2_556 2_655
N2 Si10 Ba3 67.4(13) 2_656 2_655
N9 Si10 Ba3 66.8(13) 2 2_655
N14 Si10 Ba3 61.1(18) . 2_655
Al21 Si10 Ba3 138.7(7) 2_556 2_655
Si21 Si10 Ba3 138.7(7) 2_556 2_655
Si12 Si11 N2 67.4(15) . .
Si12 Si11 N9 65.6(17) . .
N2 Si11 N9 114.9(19) . .
Si12 Si11 Ba3 174.6(15) . .
N2 Si11 Ba3 110.8(16) . .
N9 Si11 Ba3 111.8(16) . .
Si12 Si11 N16 83(3) . .
N2 Si11 N16 109(2) . .
N9 Si11 N16 107(2) . .
Ba3 Si11 N16 102(3) . .
Si12 Si11 N13 172(3) . .
N2 Si11 N13 108(3) . .
N9 Si11 N13 122(3) . .
Ba3 Si11 N13 12(2) . .
N16 Si11 N13 93(3) . .
Si12 Si11 N17 68(2) . .
N2 Si11 N17 100(2) . .
N9 Si11 N17 102(2) . .
Ba3 Si11 N17 117(2) . .
N16 Si11 N17 15(3) . .
N13 Si11 N17 108(3) . .
Si12 Si11 Si22 136.0(16) . .
N2 Si11 Si22 121.3(16) . .
N9 Si11 Si22 123.7(17) . .
Ba3 Si11 Si22 49.4(11) . .
N16 Si11 Si22 53(3) . .
N13 Si11 Si22 40(2) . .
N17 Si11 Si22 68(2) . .
Si11 Si12 N9 68.2(17) . .
Si11 Si12 Ba2 167.6(15) . .
N9 Si12 Ba2 116.8(17) . .
Si11 Si12 N2 66.9(15) . .
N9 Si12 N2 116.3(18) . .
Ba2 Si12 N2 116.8(16) . .
Si11 Si12 N12 160(5) . .
N9 Si12 N12 117(5) . .
Ba2 Si12 N12 8(5) . .
N2 Si12 N12 121(5) . .
Si11 Si12 N17 72(2) . .
N9 Si12 N17 105(2) . .
Ba2 Si12 N17 96(2) . .
N2 Si12 N17 102(2) . .
N12 Si12 N17 88(5) . .
Si11 Si12 N16 58(2) . .
N9 Si12 N16 95(2) . .
Ba2 Si12 N16 110(2) . .
N2 Si12 N16 96(2) . .
N12 Si12 N16 103(5) . .
N17 Si12 N16 15(3) . .
Si11 Si12 Si21 119.2(12) . .
N9 Si12 Si21 120.8(14) . .
Ba2 Si12 Si21 48.4(9) . .
N2 Si12 Si21 119.7(14) . .
N12 Si12 Si21 41(5) . .
N17 Si12 Si21 47(2) . .
N16 Si12 Si21 62(2) . .
N21 Si13 N18 117(3) . 2_545
N21 Si13 N19 118(3) . 2_545
N18 Si13 N19 29(3) 2_545 2_545
N21 Si13 N20 25(3) . .
N18 Si13 N20 110(2) 2_545 .
N19 Si13 N20 125(3) 2_545 .
N21 Si13 N10 93(3) . 2_645
N18 Si13 N10 117(2) 2_545 2_645
N19 Si13 N10 88(3) 2_545 2_645
N20 Si13 N10 115.9(19) . 2_645
N21 Si13 N11 124(2) . .
N18 Si13 N11 113.6(18) 2_545 .
N19 Si13 N11 118(2) 2_545 .
N20 Si13 N11 113.8(17) . .
N10 Si13 N11 84.7(12) 2_645 .
N21 Si13 Al8 109(3) . 1_554
N18 Si13 Al8 72.6(19) 2_545 1_554
N19 Si13 Al8 44(2) 2_545 1_554
N20 Si13 Al8 131.8(17) . 1_554
N10 Si13 Al8 44.4(10) 2_645 1_554
N11 Si13 Al8 107.5(11) . 1_554
N21 Si13 Si8 109(3) . 1_554
N18 Si13 Si8 72.6(19) 2_545 1_554
N19 Si13 Si8 44(2) 2_545 1_554
N20 Si13 Si8 131.8(17) . 1_554
N10 Si13 Si8 44.4(10) 2_645 1_554
N11 Si13 Si8 107.5(11) . 1_554
Al8 Si13 Si8 0.0 1_554 1_554
N21 Si13 Si16 48(2) . .
N18 Si13 Si16 131.7(19) 2_545 .
N19 Si13 Si16 109(3) 2_545 .
N20 Si13 Si16 71.3(17) . .
N10 Si13 Si16 45.0(10) 2_645 .
N11 Si13 Si16 108.4(12) . .
Al8 Si13 Si16 72.9(10) 1_554 .
Si8 Si13 Si16 72.9(10) 1_554 .
N21 Si13 Al3 115(2) . 2_645
N18 Si13 Al3 125.8(18) 2_545 2_645
N19 Si13 Al3 109(2) 2_545 2_645
N20 Si13 Al3 123.4(16) . 2_645
N10 Si13 Al3 45.9(8) 2_645 2_645
N11 Si13 Al3 38.8(8) . 2_645
Al8 Si13 Al3 77.1(8) 1_554 2_645
Si8 Si13 Al3 77.1(8) 1_554 2_645
Si16 Si13 Al3 76.8(8) . 2_645
N21 Si13 Si3 115(2) . 2_645
N18 Si13 Si3 125.8(18) 2_545 2_645
N19 Si13 Si3 109(2) 2_545 2_645
N20 Si13 Si3 123.4(16) . 2_645
N10 Si13 Si3 45.9(8) 2_645 2_645
N11 Si13 Si3 38.8(8) . 2_645
Al8 Si13 Si3 77.1(8) 1_554 2_645
Si8 Si13 Si3 77.1(8) 1_554 2_645
Si16 Si13 Si3 76.8(8) . 2_645
Al3 Si13 Si3 0.0 2_645 2_645
N18 Si14 N21 122(3) 2_545 .
N18 Si14 N20 127(3) 2_545 .
N21 Si14 N20 27(2) . .
N18 Si14 N19 28(3) 2_545 2_545
N21 Si14 N19 109(3) . 2_545
N20 Si14 N19 128(3) . 2_545
N18 Si14 N11 116(2) 2_545 .
N21 Si14 N11 117(2) . .
N20 Si14 N11 117.1(19) . .
N19 Si14 N11 109(2) 2_545 .
N18 Si14 N6 87(2) 2_545 2_546
N21 Si14 N6 112(2) . 2_546
N20 Si14 N6 85(2) . 2_546
N19 Si14 N6 115(2) 2_545 2_546
N11 Si14 N6 93.8(12) . 2_546
N18 Si14 Si7 108(2) 2_545 .
N21 Si14 Si7 70(2) . .
N20 Si14 Si7 43.3(19) . .
N19 Si14 Si7 130(2) 2_545 .
N11 Si14 Si7 114.6(11) . .
N6 Si14 Si7 42.5(9) 2_546 .
N18 Si14 Al15 43(2) 2_545 1_455
N21 Si14 Al15 126(2) . 1_455
N20 Si14 Al15 109(2) . 1_455
N19 Si14 Al15 71(2) 2_545 1_455
N11 Si14 Al15 113.0(11) . 1_455
N6 Si14 Al15 44.2(9) 2_546 1_455
Si7 Si14 Al15 71.8(10) . 1_455
N18 Si14 Si15 43(2) 2_545 1_455
N21 Si14 Si15 126(2) . 1_455
N20 Si14 Si15 109(2) . 1_455
N19 Si14 Si15 71(2) 2_545 1_455
N11 Si14 Si15 113.0(11) . 1_455
N6 Si14 Si15 44.2(9) 2_546 1_455
Si7 Si14 Si15 71.8(10) . 1_455
Al15 Si14 Si15 0.0 1_455 1_455
N18 Si14 Al5 106(2) 2_545 2_546
N21 Si14 Al5 127(2) . 2_546
N20 Si14 Al5 104.2(18) . 2_546
N19 Si14 Al5 124(2) 2_545 2_546
N11 Si14 Al5 49.8(8) . 2_546
N6 Si14 Al5 44.0(8) 2_546 2_546
Si7 Si14 Al5 73.6(7) . 2_546
Al15 Si14 Al5 74.5(8) 1_455 2_546
Si15 Si14 Al5 74.5(8) 1_455 2_546
N18 Si14 Si5 106(2) 2_545 2_546
N21 Si14 Si5 127(2) . 2_546
N20 Si14 Si5 104.2(18) . 2_546
N19 Si14 Si5 124(2) 2_545 2_546
N11 Si14 Si5 49.8(8) . 2_546
N6 Si14 Si5 44.0(8) 2_546 2_546
Si7 Si14 Si5 73.6(7) . 2_546
Al15 Si14 Si5 74.5(8) 1_455 2_546
Si15 Si14 Si5 74.5(8) 1_455 2_546
Al5 Si14 Si5 0.0 2_546 2_546
Si16 Si15 N23 90(4) . .
Si16 Si15 N22 66(3) . .
N23 Si15 N22 25(2) . .
Si16 Si15 N18 172(4) . 2_645
N23 Si15 N18 89(3) . 2_645
N22 Si15 N18 114(2) . 2_645
Si16 Si15 N6 79(3) . 2_646
N23 Si15 N6 120(3) . 2_646
N22 Si15 N6 116(2) . 2_646
N18 Si15 N6 94(2) 2_645 2_646
Si16 Si15 N10 76(3) . 2_645
N23 Si15 N10 123(3) . 2_645
N22 Si15 N10 109(2) . 2_645
N18 Si15 N10 112(2) 2_645 2_645
N6 Si15 N10 111.0(15) 2_646 2_645
Si16 Si15 Si18 135(3) . 2_645
N23 Si15 Si18 45(2) . 2_645
N22 Si15 Si18 70.0(17) . 2_645
N18 Si15 Si18 44.1(17) 2_645 2_645
N6 Si15 Si18 117.0(14) 2_646 2_645
N10 Si15 Si18 125.9(14) 2_645 2_645
Si16 Si15 Al18 135(3) . 2_645
N23 Si15 Al18 45(2) . 2_645
N22 Si15 Al18 70.0(17) . 2_645
N18 Si15 Al18 44.1(17) 2_645 2_645
N6 Si15 Al18 117.0(14) 2_646 2_645
N10 Si15 Al18 125.9(14) 2_645 2_645
Si18 Si15 Al18 0.0(8) 2_645 2_645
Si16 Si15 Al14 135(4) . 1_655
N23 Si15 Al14 104(3) . 1_655
N22 Si15 Al14 124.5(18) . 1_655
N18 Si15 Al14 37.4(17) 2_645 1_655
N6 Si15 Al14 56.7(12) 2_646 1_655
N10 Si15 Al14 124.7(14) 2_645 1_655
Si18 Si15 Al14 69.2(8) 2_645 1_655
Al18 Si15 Al14 69.2(8) 2_645 1_655
Si16 Si15 Si14 135(4) . 1_655
N23 Si15 Si14 104(3) . 1_655
N22 Si15 Si14 124.5(18) . 1_655
N18 Si15 Si14 37.4(17) 2_645 1_655
N6 Si15 Si14 56.7(12) 2_646 1_655
N10 Si15 Si14 124.7(14) 2_645 1_655
Si18 Si15 Si14 69.2(8) 2_645 1_655
Al18 Si15 Si14 69.2(8) 2_645 1_655
Al14 Si15 Si14 0.0 1_655 1_655
Si16 Si15 Al23 78(3) . 2_645
N23 Si15 Al23 35(2) . 2_645
N22 Si15 Al23 30.3(17) . 2_645
N18 Si15 Al23 105(2) 2_645 2_645
N6 Si15 Al23 146.1(17) 2_646 2_645
N10 Si15 Al23 87.8(15) 2_645 2_645
Si18 Si15 Al23 65.6(11) 2_645 2_645
Al18 Si15 Al23 65.6(11) 2_645 2_645
Al14 Si15 Al23 134.4(14) 1_655 2_645
Si14 Si15 Al23 134.4(14) 1_655 2_645
Si15 Si16 N22 89(3) . .
Si15 Si16 N23 65(3) . .
N22 Si16 N23 24(2) . .
Si15 Si16 N10 82(3) . 2_645
N22 Si16 N10 119(2) . 2_645
N23 Si16 N10 116(2) . 2_645
Si15 Si16 N6 78(3) . 2_646
N22 Si16 N6 124(3) . 2_646
N23 Si16 N6 111(2) . 2_646
N10 Si16 N6 112.3(16) 2_645 2_646
Si15 Si16 N21 168(4) . .
N22 Si16 N21 85(3) . .
N23 Si16 N21 109(3) . .
N10 Si16 N21 92(2) 2_645 .
N6 Si16 N21 114(2) 2_646 .
Si15 Si16 Si13 135(4) . .
N22 Si16 Si13 105(2) . .
N23 Si16 Si13 124(2) . .
N10 Si16 Si13 53.6(13) 2_645 .
N6 Si16 Si13 123.3(15) 2_646 .
N21 Si16 Si13 38.7(19) . .
Si15 Si16 Si20 135(3) . .
N22 Si16 Si20 46(2) . .
N23 Si16 Si20 70(2) . .
N10 Si16 Si20 115.5(15) 2_645 .
N6 Si16 Si20 124.2(13) 2_646 .
N21 Si16 Si20 39.6(18) . .
Si13 Si16 Si20 70.0(8) . .
Si15 Si16 Al23 87(3) . 2_645
N22 Si16 Al23 29.0(19) . 2_645
N23 Si16 Al23 39(2) . 2_645
N10 Si16 Al23 90.4(15) 2_645 2_645
N6 Si16 Al23 150.2(17) 2_646 2_645
N21 Si16 Al23 83(2) . 2_645
Si13 Si16 Al23 85.4(12) . 2_645
Si20 Si16 Al23 53.8(11) . 2_645
Si18 Si17 N19 96(3) . .
Si18 Si17 N14 89(3) . 2_545
N19 Si17 N14 125(3) . 2_545
Si18 Si17 N17 83(3) . .
N19 Si17 N17 118(3) . .
N14 Si17 N17 117(3) 2_545 .
Si18 Si17 N16 65(3) . .
N19 Si17 N16 119(3) . .
N14 Si17 N16 113(3) 2_545 .
N17 Si17 N16 18(3) . .
Si18 Si17 N24 171(3) . 2_556
N19 Si17 N24 80(3) . 2_556
N14 Si17 N24 100(3) 2_545 2_556
N17 Si17 N24 93(3) . 2_556
N16 Si17 N24 111(3) . 2_556
Si18 Si17 N18 70(3) . .
N19 Si17 N18 27(3) . .
N14 Si17 N18 116(3) 2_545 .
N17 Si17 N18 118(3) . .
N16 Si17 N18 110(3) . .
N24 Si17 N18 107(2) 2_556 .
Si18 Si17 N15 77(3) . 2_545
N19 Si17 N15 126(3) . 2_545
N14 Si17 N15 12(3) 2_545 2_545
N17 Si17 N15 114(3) . 2_545
N16 Si17 N15 106(3) . 2_545
N24 Si17 N15 111(3) 2_556 2_545
N18 Si17 N15 112(3) . 2_545
Si18 Si17 Al23 141(3) . 1_455
N19 Si17 Al23 104(3) . 1_455
N14 Si17 Al23 52(2) 2_545 1_455
N17 Si17 Al23 115(3) . 1_455
N16 Si17 Al23 128(3) . 1_455
N24 Si17 Al23 47.7(18) 2_556 1_455
N18 Si17 Al23 121(2) . 1_455
N15 Si17 Al23 64(3) 2_545 1_455
Si18 Si17 Si23 141(3) . 1_455
N19 Si17 Si23 104(3) . 1_455
N14 Si17 Si23 52(2) 2_545 1_455
N17 Si17 Si23 115(3) . 1_455
N16 Si17 Si23 128(3) . 1_455
N24 Si17 Si23 47.7(18) 2_556 1_455
N18 Si17 Si23 121(2) . 1_455
N15 Si17 Si23 64(3) 2_545 1_455
Al23 Si17 Si23 0.0 1_455 1_455
Si18 Si17 Al8 139(2) . 2_556
N19 Si17 Al8 42(3) . 2_556
N14 Si17 Al8 114(2) 2_545 2_556
N17 Si17 Al8 113(2) . 2_556
N16 Si17 Al8 127(2) . 2_556
N24 Si17 Al8 37.8(15) 2_556 2_556
N18 Si17 Al8 69.0(18) . 2_556
N15 Si17 Al8 124(2) 2_545 2_556
Al23 Si17 Al8 69.2(13) 1_455 2_556
Si23 Si17 Al8 69.2(13) 1_455 2_556
Si17 Si18 N16 93(3) . .
Si17 Si18 N18 88(3) . .
N16 Si18 N18 125(3) . .
Si17 Si18 N23 169(3) . 2_655
N16 Si18 N23 97(3) . 2_655
N18 Si18 N23 82(3) . 2_655
Si17 Si18 N14 69(3) . 2_545
N16 Si18 N14 115(3) . 2_545
N18 Si18 N14 116(3) . 2_545
N23 Si18 N14 112(3) 2_655 2_545
Si17 Si18 N17 75(3) . .
N16 Si18 N17 18(3) . .
N18 Si18 N17 122(3) . .
N23 Si18 N17 114(3) 2_655 .
N14 Si18 N17 109(3) 2_545 .
Si17 Si18 N15 81(3) . 2_545
N16 Si18 N15 115(3) . 2_545
N18 Si18 N15 119(3) . 2_545
N23 Si18 N15 100(3) 2_655 2_545
N14 Si18 N15 13(3) 2_545 2_545
N17 Si18 N15 113(3) . 2_545
Si17 Si18 N19 61(3) . .
N16 Si18 N19 117(3) . .
N18 Si18 N19 27(2) . .
N23 Si18 N19 109(3) 2_655 .
N14 Si18 N19 107(3) 2_545 .
N17 Si18 N19 105(3) . .
N15 Si18 N19 116(3) 2_545 .
Si17 Si18 Al15 132(2) . 2_655
N16 Si18 Al15 113(3) . 2_655
N18 Si18 Al15 44.1(19) . 2_655
N23 Si18 Al15 38(2) 2_655 2_655
N14 Si18 Al15 125.3(19) 2_545 2_655
N17 Si18 Al15 125(2) . 2_655
N15 Si18 Al15 118(2) 2_545 2_655
N19 Si18 Al15 71(2) . 2_655
Si17 Si18 Si15 132(2) . 2_655
N16 Si18 Si15 113(3) . 2_655
N18 Si18 Si15 44.1(19) . 2_655
N23 Si18 Si15 38(2) 2_655 2_655
N14 Si18 Si15 125.3(19) 2_545 2_655
N17 Si18 Si15 125(2) . 2_655
N15 Si18 Si15 118(2) 2_545 2_655
N19 Si18 Si15 71(2) . 2_655
Al15 Si18 Si15 0.0 2_655 2_655
Si20 Si19 N15 87(3) . 1_545
Si20 Si19 N20 91(3) . .
N15 Si19 N20 126(3) 1_545 .
Si20 Si19 N21 67(3) . .
N15 Si19 N21 114(3) 1_545 .
N20 Si19 N21 26(2) . .
Si20 Si19 N25 169(3) . .
N15 Si19 N25 104(3) 1_545 .
N20 Si19 N25 80(2) . .
N21 Si19 N25 105(3) . .
Si20 Si19 N16 86(3) . 2_646
N15 Si19 N16 116(3) 1_545 2_646
N20 Si19 N16 118(3) . 2_646
N21 Si19 N16 121(3) . 2_646
N25 Si19 N16 92(3) . 2_646
Si20 Si19 N17 68(3) . 2_646
N15 Si19 N17 111(3) 1_545 2_646
N20 Si19 N17 118(3) . 2_646
N21 Si19 N17 112(3) . 2_646
N25 Si19 N17 110(3) . 2_646
N16 Si19 N17 18(3) 2_646 2_646
Si20 Si19 N14 75(3) . 1_545
N15 Si19 N14 13(3) 1_545 1_545
N20 Si19 N14 121(2) . 1_545
N21 Si19 N14 105(3) . 1_545
N25 Si19 N14 116(3) . 1_545
N16 Si19 N14 118(3) 2_646 1_545
N17 Si19 N14 109(3) 2_646 1_545
Si20 Si19 Si7 133(2) . .
N15 Si19 Si7 119(2) 1_545 .
N20 Si19 Si7 41.9(18) . .
N21 Si19 Si7 67(2) . .
N25 Si19 Si7 38.7(19) . .
N16 Si19 Si7 112(2) 2_646 .
N17 Si19 Si7 126(2) 2_646 .
N14 Si19 Si7 125(2) 1_545 .
Si20 Si19 Si22 137(3) . 2_646
N15 Si19 Si22 113(3) 1_545 2_646
N20 Si19 Si22 104(2) . 2_646
N21 Si19 Si22 128(2) . 2_646
N25 Si19 Si22 41.4(19) . 2_646
N16 Si19 Si22 51(3) 2_646 2_646
N17 Si19 Si22 69(2) 2_646 2_646
N14 Si19 Si22 125(2) 1_545 2_646
Si7 Si19 Si22 71.7(11) . 2_646
Si19 Si20 N21 90(3) . .
Si19 Si20 N17 90(3) . 2_646
N21 Si20 N17 128(3) . 2_646
Si19 Si20 N14 83(3) . 1_545
N21 Si20 N14 114(3) . 1_545
N17 Si20 N14 118(3) 2_646 1_545
Si19 Si20 N22 172(3) . .
N21 Si20 N22 84(3) . .
N17 Si20 N22 98(3) 2_646 .
N14 Si20 N22 95(3) 1_545 .
Si19 Si20 N15 71(3) . 1_545
N21 Si20 N15 116(3) . 1_545
N17 Si20 N15 112(3) 2_646 1_545
N14 Si20 N15 13(3) 1_545 1_545
N22 Si20 N15 107(3) . 1_545
Si19 Si20 N16 73(3) . 2_646
N21 Si20 N16 124(3) . 2_646
N17 Si20 N16 17(3) 2_646 2_646
N14 Si20 N16 116(3) 1_545 2_646
N22 Si20 N16 115(3) . 2_646
N15 Si20 N16 107(3) 1_545 2_646
Si19 Si20 N20 68(3) . .
N21 Si20 N20 24(2) . .
N17 Si20 N20 117(3) 2_646 .
N14 Si20 N20 116(2) 1_545 .
N22 Si20 N20 107(2) . .
N15 Si20 N20 114(3) 1_545 .
N16 Si20 N20 107(3) 2_646 .
Si19 Si20 Al23 134(3) . 2_645
N21 Si20 Al23 102(3) . 2_645
N17 Si20 Al23 115(3) 2_646 2_645
N14 Si20 Al23 52(2) 1_545 2_645
N22 Si20 Al23 43.1(17) . 2_645
N15 Si20 Al23 64(3) 1_545 2_645
N16 Si20 Al23 129(3) 2_646 2_645
N20 Si20 Al23 123(2) . 2_645
Si19 Si20 Si23 134(3) . 2_645
N21 Si20 Si23 102(3) . 2_645
N17 Si20 Si23 115(3) 2_646 2_645
N14 Si20 Si23 52(2) 1_545 2_645
N22 Si20 Si23 43.1(17) . 2_645
N15 Si20 Si23 64(3) 1_545 2_645
N16 Si20 Si23 129(3) 2_646 2_645
N20 Si20 Si23 123(2) . 2_645
Al23 Si20 Si23 0.0 2_645 2_645
Si19 Si20 Al21 141(3) . 2_646
N21 Si20 Al21 112(2) . 2_646
N17 Si20 Al21 52(2) 2_646 2_646
N14 Si20 Al21 113(2) 1_545 2_646
N22 Si20 Al21 46.6(15) . 2_646
N15 Si20 Al21 120(2) 1_545 2_646
N16 Si20 Al21 69(2) 2_646 2_646
N20 Si20 Al21 125.1(17) . 2_646
Al23 Si20 Al21 73.6(12) 2_645 2_646
Si23 Si20 Al21 73.6(12) 2_645 2_646
N24 Si21 N12 120(6) 2_556 .
N24 Si21 N22 113(2) 2_556 2_656
N12 Si21 N22 124(6) . 2_656
N24 Si21 N23 112(3) 2_556 2_656
N12 Si21 N23 113(6) . 2_656
N22 Si21 N23 22(2) 2_656 2_656
N24 Si21 N25 21(2) 2_556 2_556
N12 Si21 N25 107(6) . 2_556
N22 Si21 N25 116(2) 2_656 2_556
N23 Si21 N25 107(3) 2_656 2_556
N24 Si21 N17 92(3) 2_556 .
N12 Si21 N17 105(6) . .
N22 Si21 N17 90(3) 2_656 .
N23 Si21 N17 112(3) 2_656 .
N25 Si21 N17 113(3) 2_556 .
N24 Si21 Ba2 124.0(18) 2_556 .
N12 Si21 Ba2 11(6) . .
N22 Si21 Ba2 122.3(17) 2_656 .
N23 Si21 Ba2 116(2) 2_656 .
N25 Si21 Ba2 114.9(19) 2_556 .
N17 Si21 Ba2 93.4(19) . .
N24 Si21 Al20 108(2) 2_556 2_656
N12 Si21 Al20 123(6) . 2_656
N22 Si21 Al20 47.5(17) 2_656 2_656
N23 Si21 Al20 70(2) 2_656 2_656
N25 Si21 Al20 127(2) 2_556 2_656
N17 Si21 Al20 42.5(19) . 2_656
Ba2 Si21 Al20 113.2(10) . 2_656
N24 Si21 Si20 108(2) 2_556 2_656
N12 Si21 Si20 123(6) . 2_656
N22 Si21 Si20 47.5(17) 2_656 2_656
N23 Si21 Si20 70(2) 2_656 2_656
N25 Si21 Si20 127(2) 2_556 2_656
N17 Si21 Si20 42.5(19) . 2_656
Ba2 Si21 Si20 113.2(10) . 2_656
Al20 Si21 Si20 0.0 2_656 2_656
N24 Si21 Si17 47.9(18) 2_556 .
N12 Si21 Si17 119(6) . .
N22 Si21 Si17 109.2(18) 2_656 .
N23 Si21 Si17 126(2) 2_656 .
N25 Si21 Si17 68.4(18) 2_556 .
N17 Si21 Si17 44.6(19) . .
Ba2 Si21 Si17 112.9(10) . .
Al20 Si21 Si17 72.8(8) 2_656 .
Si20 Si21 Si17 72.8(8) 2_656 .
Si23 Si22 N13 98(8) . .
Si23 Si22 N25 89(7) . 2_656
N13 Si22 N25 119(4) . 2_656
Si23 Si22 N23 84(7) . 2_655
N13 Si22 N23 130(4) . 2_655
N25 Si22 N23 111(3) 2_656 2_655
Si23 Si22 N22 62(7) . 2_655
N13 Si22 N22 127(4) . 2_655
N25 Si22 N22 110(3) 2_656 2_655
N23 Si22 N22 22(2) 2_655 2_655
Si23 Si22 Ba3 99(7) . .
N13 Si22 Ba3 8(3) . .
N25 Si22 Ba3 127(3) 2_656 .
N23 Si22 Ba3 123(3) 2_655 .
N22 Si22 Ba3 120(2) 2_655 .
Si23 Si22 N24 69(7) . 2_656
N13 Si22 N24 112(3) . 2_656
N25 Si22 N24 21(2) 2_656 2_656
N23 Si22 N24 114(3) 2_655 2_656
N22 Si22 N24 105(3) 2_655 2_656
Ba3 Si22 N24 120(2) . 2_656
Si23 Si22 N16 165(8) . .
N13 Si22 N16 96(4) . .
N25 Si22 N16 87(3) 2_656 .
N23 Si22 N16 85(3) 2_655 .
N22 Si22 N16 107(3) 2_655 .
Ba3 Si22 N16 95(3) . .
N24 Si22 N16 108(3) 2_656 .
Si23 Si22 Si11 146(7) . .
N13 Si22 Si11 49(3) . .
N25 Si22 Si11 112(3) 2_656 .
N23 Si22 Si11 111(3) 2_655 .
N22 Si22 Si11 127(2) 2_655 .
Ba3 Si22 Si11 47.1(10) . .
N24 Si22 Si11 125(2) 2_656 .
N16 Si22 Si11 48(2) . .
Si22 Si23 N22 101(7) . 2_655
Si22 Si23 N13 64(7) . .
N22 Si23 N13 128(4) 2_655 .
Si22 Si23 N25 73(7) . 2_656
N22 Si23 N25 115(3) 2_655 2_656
N13 Si23 N25 107(4) . 2_656
Si22 Si23 N24 95(7) . 2_656
N22 Si23 N24 120(3) 2_655 2_656
N13 Si23 N24 111(4) . 2_656
N25 Si23 N24 23(2) 2_656 2_656
Si22 Si23 N23 78(7) . 2_655
N22 Si23 N23 23(2) 2_655 2_655
N13 Si23 N23 118(4) . 2_655
N25 Si23 N23 106(3) 2_656 2_655
N24 Si23 N23 119(3) 2_656 2_655
Si22 Si23 N14 155(8) . 2_645
N22 Si23 N14 95(3) 2_655 2_645
N13 Si23 N14 91(4) . 2_645
N25 Si23 N14 117(4) 2_656 2_645
N24 Si23 N14 94(3) 2_656 2_645
N23 Si23 N14 117(3) 2_655 2_645
Si22 Si23 Ba3 65(7) . .
N22 Si23 Ba3 121(3) 2_655 .
N13 Si23 Ba3 7(2) . .
N25 Si23 Ba3 114(3) 2_656 .
N24 Si23 Ba3 118(3) 2_656 .
N23 Si23 Ba3 113(3) 2_655 .
N14 Si23 Ba3 90(2) 2_645 .
Si22 Si23 N15 154(8) . 2_645
N22 Si23 N15 95(3) 2_655 2_645
N13 Si23 N15 90(4) . 2_645
N25 Si23 N15 119(3) 2_656 2_645
N24 Si23 N15 96(3) 2_656 2_645
N23 Si23 N15 116(3) 2_655 2_645
N14 Si23 N15 2(2) 2_645 2_645
Ba3 Si23 N15 89(2) . 2_645
Si22 Si23 Al17 140(7) . 1_655
N22 Si23 Al17 112(3) 2_655 1_655
N13 Si23 Al17 108(3) . 1_655
N25 Si23 Al17 73(2) 2_656 1_655
N24 Si23 Al17 50(2) 2_656 1_655
N23 Si23 Al17 131(3) 2_655 1_655
N14 Si23 Al17 44.1(19) 2_645 1_655
Ba3 Si23 Al17 111.7(19) . 1_655
N15 Si23 Al17 46.2(19) 2_645 1_655
Si4 N1 Si6 124.8(15) . .
Si4 N1 Al2 123.0(14) . 1_655
Si6 N1 Al2 109.8(14) . 1_655
Si4 N1 Si2 123.0(14) . 1_655
Si6 N1 Si2 109.8(14) . 1_655
Al2 N1 Si2 0.0 1_655 1_655
Si4 N2 Al10 119.4(19) . 2_646
Si4 N2 Si10 119.4(19) . 2_646
Al10 N2 Si10 0.0 2_646 2_646
Si4 N2 Al9 114.5(19) . 2_646
Al10 N2 Al9 48.6(11) 2_646 2_646
Si10 N2 Al9 48.6(11) 2_646 2_646
Si4 N2 Si9 114.5(19) . 2_646
Al10 N2 Si9 48.6(11) 2_646 2_646
Si10 N2 Si9 48.6(11) 2_646 2_646
Al9 N2 Si9 0.0 2_646 2_646
Si4 N2 Si11 112.5(19) . .
Al10 N2 Si11 112(2) 2_646 .
Si10 N2 Si11 112(2) 2_646 .
Al9 N2 Si11 132(2) 2_646 .
Si9 N2 Si11 132(2) 2_646 .
Si4 N2 Si12 106.4(19) . .
Al10 N2 Si12 134(2) 2_646 .
Si10 N2 Si12 134(2) 2_646 .
Al9 N2 Si12 111(2) 2_646 .
Si9 N2 Si12 111(2) 2_646 .
Si11 N2 Si12 45.7(12) . .
Si4 N2 Eu2 106.8(16) . 1_655
Al10 N2 Eu2 34.8(10) 2_646 1_655
Si10 N2 Eu2 34.8(10) 2_646 1_655
Al9 N2 Eu2 83.3(13) 2_646 1_655
Si9 N2 Eu2 83.3(13) 2_646 1_655
Si11 N2 Eu2 91.3(15) . 1_655
Si12 N2 Eu2 133.4(17) . 1_655
Si4 N2 Ba2 106.8(16) . 1_655
Al10 N2 Ba2 34.8(10) 2_646 1_655
Si10 N2 Ba2 34.8(10) 2_646 1_655
Al9 N2 Ba2 83.3(13) 2_646 1_655
Si9 N2 Ba2 83.3(13) 2_646 1_655
Si11 N2 Ba2 91.3(15) . 1_655
Si12 N2 Ba2 133.4(17) . 1_655
Eu2 N2 Ba2 0.0 1_655 1_655
Al1 N3 Si1 0.0 2 2
Al1 N3 Al4 114.9(16) 2 2_656
Si1 N3 Al4 114.9(16) 2 2_656
Al1 N3 Si4 114.9(16) 2 2_656
Si1 N3 Si4 114.9(16) 2 2_656
Al4 N3 Si4 0.0 2_656 2_656
Al1 N3 Al6 120.1(14) 2 2_655
Si1 N3 Al6 120.1(14) 2 2_655
Al4 N3 Al6 121.4(15) 2_656 2_655
Si4 N3 Al6 121.4(15) 2_656 2_655
Al1 N3 Si6 120.1(14) 2 2_655
Si1 N3 Si6 120.1(14) 2 2_655
Al4 N3 Si6 121.4(15) 2_656 2_655
Si4 N3 Si6 121.4(15) 2_656 2_655
Al6 N3 Si6 0.0 2_655 2_655
Si6 N4 Al5 116.5(14) . 2_646
Si6 N4 Si5 116.5(14) . 2_646
Al5 N4 Si5 0.0 2_646 2_646
Si6 N4 Al3 113.5(13) . 2_645
Al5 N4 Al3 129.8(16) 2_646 2_645
Si5 N4 Al3 129.8(16) 2_646 2_645
Si6 N4 Si3 113.5(13) . 2_645
Al5 N4 Si3 129.8(16) 2_646 2_645
Si5 N4 Si3 129.8(16) 2_646 2_645
Al3 N4 Si3 0.0 2_645 2_645
Si6 N4 Ba1 105.2(11) . 2_645
Al5 N4 Ba1 89.6(9) 2_646 2_645
Si5 N4 Ba1 89.6(9) 2_646 2_645
Al3 N4 Ba1 80.5(8) 2_645 2_645
Si3 N4 Ba1 80.5(8) 2_645 2_645
Si6 N4 Eu1 105.2(11) . 2_645
Al5 N4 Eu1 89.6(9) 2_646 2_645
Si5 N4 Eu1 89.6(9) 2_646 2_645
Al3 N4 Eu1 80.5(8) 2_645 2_645
Si3 N4 Eu1 80.5(8) 2_645 2_645
Ba1 N4 Eu1 0.00(14) 2_645 2_645
Si6 N4 Eu1 104.3(10) . 2_646
Al5 N4 Eu1 78.2(8) 2_646 2_646
Si5 N4 Eu1 78.2(8) 2_646 2_646
Al3 N4 Eu1 86.8(9) 2_645 2_646
Si3 N4 Eu1 86.8(9) 2_645 2_646
Ba1 N4 Eu1 150.5(9) 2_645 2_646
Eu1 N4 Eu1 150.5(9) 2_645 2_646
Si6 N4 Ba1 104.3(10) . 2_646
Al5 N4 Ba1 78.2(8) 2_646 2_646
Si5 N4 Ba1 78.2(8) 2_646 2_646
Al3 N4 Ba1 86.8(9) 2_645 2_646
Si3 N4 Ba1 86.8(9) 2_645 2_646
Ba1 N4 Ba1 150.5(9) 2_645 2_646
Eu1 N4 Ba1 150.5 2_645 2_646
Eu1 N4 Ba1 0.0 2_646 2_646
Al1 N5 Si1 0.0 1_556 1_556
Al1 N5 Al6 124.4(16) 1_556 1_556
Si1 N5 Al6 124.4(16) 1_556 1_556
Al1 N5 Si6 124.4(16) 1_556 1_556
Si1 N5 Si6 124.4(16) 1_556 1_556
Al6 N5 Si6 0.0 1_556 1_556
Al1 N5 Si2 121.9(16) 1_556 .
Si1 N5 Si2 121.9(16) 1_556 .
Al6 N5 Si2 112.6(17) 1_556 .
Si6 N5 Si2 112.6(17) 1_556 .
Al7 N6 Si7 0.0 2_556 2_556
Al7 N6 Al15 113.9(17) 2_556 2_656
Si7 N6 Al15 113.9(17) 2_556 2_656
Al7 N6 Si15 113.9(17) 2_556 2_656
Si7 N6 Si15 113.9(17) 2_556 2_656
Al15 N6 Si15 0.0 2_656 2_656
Al7 N6 Si5 118.3(16) 2_556 .
Si7 N6 Si5 118.3(16) 2_556 .
Al15 N6 Si5 117.2(15) 2_656 .
Si15 N6 Si5 117.2(15) 2_656 .
Al7 N6 Al16 115.5(17) 2_556 2_656
Si7 N6 Al16 115.5(17) 2_556 2_656
Al15 N6 Al16 22.8(12) 2_656 2_656
Si15 N6 Al16 22.8(12) 2_656 2_656
Si5 N6 Al16 125.1(15) . 2_656
Al7 N6 Si16 115.5(17) 2_556 2_656
Si7 N6 Si16 115.5(17) 2_556 2_656
Al15 N6 Si16 22.8(12) 2_656 2_656
Si15 N6 Si16 22.8(12) 2_656 2_656
Si5 N6 Si16 125.1(15) . 2_656
Al16 N6 Si16 0.0 2_656 2_656
Al7 N6 Al8 23.6(12) 2_556 2_556
Si7 N6 Al8 23.6(12) 2_556 2_556
Al15 N6 Al8 116.5(16) 2_656 2_556
Si15 N6 Al8 116.5(16) 2_656 2_556
Si5 N6 Al8 125.4(15) . 2_556
Al16 N6 Al8 108.2(16) 2_656 2_556
Si16 N6 Al8 108.2(16) 2_656 2_556
Al7 N6 Si8 23.6(12) 2_556 2_556
Si7 N6 Si8 23.6(12) 2_556 2_556
Al15 N6 Si8 116.5(16) 2_656 2_556
Si15 N6 Si8 116.5(16) 2_656 2_556
Si5 N6 Si8 125.4(15) . 2_556
Al16 N6 Si8 108.2(16) 2_656 2_556
Si16 N6 Si8 108.2(16) 2_656 2_556
Al8 N6 Si8 0.0 2_556 2_556
Al7 N6 Si14 78.7(14) 2_556 2_556
Si7 N6 Si14 78.7(14) 2_556 2_556
Al15 N6 Si14 79.0(14) 2_656 2_556
Si15 N6 Si14 79.0(14) 2_656 2_556
Si5 N6 Si14 79.3(11) . 2_556
Al16 N6 Si14 101.6(15) 2_656 2_556
Si16 N6 Si14 101.6(15) 2_656 2_556
Al8 N6 Si14 102.2(15) 2_556 2_556
Si8 N6 Si14 102.2(15) 2_556 2_556
Al7 N6 Al14 78.7(14) 2_556 2_556
Si7 N6 Al14 78.7(14) 2_556 2_556
Al15 N6 Al14 79.0(14) 2_656 2_556
Si15 N6 Al14 79.0(14) 2_656 2_556
Si5 N6 Al14 79.3(11) . 2_556
Al16 N6 Al14 101.6(15) 2_656 2_556
Si16 N6 Al14 101.6(15) 2_656 2_556
Al8 N6 Al14 102.2(15) 2_556 2_556
Si8 N6 Al14 102.2(15) 2_556 2_556
Si14 N6 Al14 0.0(11) 2_556 2_556
Al5 N7 Si5 0.0 2_546 2_546
Al5 N7 Si2 116.8(13) 2_546 .
Si5 N7 Si2 116.8(13) 2_546 .
Al5 N7 Al3 130.7(15) 2_546 2_646
Si5 N7 Al3 130.7(15) 2_546 2_646
Si2 N7 Al3 112.0(12) . 2_646
Al5 N7 Si3 130.7(15) 2_546 2_646
Si5 N7 Si3 130.7(15) 2_546 2_646
Si2 N7 Si3 112.0(12) . 2_646
Al3 N7 Si3 0.0 2_646 2_646
Al5 N7 Ba1 91.2(8) 2_546 2_646
Si5 N7 Ba1 91.2(8) 2_546 2_646
Si2 N7 Ba1 105.7(10) . 2_646
Al3 N7 Ba1 81.1(7) 2_646 2_646
Si3 N7 Ba1 81.1(7) 2_646 2_646
Al5 N7 Eu1 91.2(8) 2_546 2_646
Si5 N7 Eu1 91.2(8) 2_546 2_646
Si2 N7 Eu1 105.7(10) . 2_646
Al3 N7 Eu1 81.1(7) 2_646 2_646
Si3 N7 Eu1 81.1(7) 2_646 2_646
Ba1 N7 Eu1 0.00(14) 2_646 2_646
Al5 N7 Ba1 78.1(7) 2_546 2_546
Si5 N7 Ba1 78.1(7) 2_546 2_546
Si2 N7 Ba1 103.1(9) . 2_546
Al3 N7 Ba1 85.7(8) 2_646 2_546
Si3 N7 Ba1 85.7(8) 2_646 2_546
Ba1 N7 Ba1 151.1(8) 2_646 2_546
Eu1 N7 Ba1 151.1 2_646 2_546
Al5 N7 Eu1 78.1(7) 2_546 2_546
Si5 N7 Eu1 78.1(7) 2_546 2_546
Si2 N7 Eu1 103.1(9) . 2_546
Al3 N7 Eu1 85.7(8) 2_646 2_546
Si3 N7 Eu1 85.7(8) 2_646 2_546
Ba1 N7 Eu1 151.1(8) 2_646 2_546
Eu1 N7 Eu1 151.1(8) 2_646 2_546
Ba1 N7 Eu1 0.00(13) 2_546 2_546
Si1 N8 Si4 116.8(16) . .
Si1 N8 Si2 120.3(15) . .
Si4 N8 Si2 121.7(15) . .
Si12 N9 Al9 112(2) . 2_545
Si12 N9 Si9 112(2) . 2_545
Al9 N9 Si9 0.0 2_545 2_545
Si12 N9 Al10 133(2) . 2_545
Al9 N9 Al10 48.4(12) 2_545 2_545
Si9 N9 Al10 48.4(12) 2_545 2_545
Si12 N9 Si10 133(2) . 2_545
Al9 N9 Si10 48.4(12) 2_545 2_545
Si9 N9 Si10 48.4(12) 2_545 2_545
Al10 N9 Si10 0.0 2_545 2_545
Si12 N9 Si1 108.4(19) . .
Al9 N9 Si1 115(2) 2_545 .
Si9 N9 Si1 115(2) 2_545 .
Al10 N9 Si1 119(2) 2_545 .
Si10 N9 Si1 119(2) 2_545 .
Si12 N9 Si11 46.2(12) . .
Al9 N9 Si11 131(2) 2_545 .
Si9 N9 Si11 131(2) 2_545 .
Al10 N9 Si11 109(2) 2_545 .
Si10 N9 Si11 109(2) 2_545 .
Si1 N9 Si11 113.1(19) . .
Si12 N9 Eu2 132.0(18) . 1_554
Al9 N9 Eu2 82.0(14) 2_545 1_554
Si9 N9 Eu2 82.0(14) 2_545 1_554
Al10 N9 Eu2 33.8(9) 2_545 1_554
Si10 N9 Eu2 33.8(9) 2_545 1_554
Si1 N9 Eu2 105.6(17) . 1_554
Si11 N9 Eu2 89.4(17) . 1_554
Si12 N9 Ba2 132.0(18) . 1_554
Al9 N9 Ba2 82.0(14) 2_545 1_554
Si9 N9 Ba2 82.0(14) 2_545 1_554
Al10 N9 Ba2 33.8(9) 2_545 1_554
Si10 N9 Ba2 33.8(9) 2_545 1_554
Si1 N9 Ba2 105.6(17) . 1_554
Si11 N9 Ba2 89.4(17) . 1_554
Eu2 N9 Ba2 0.0 1_554 1_554
Al8 N10 Si8 0.0 2_656 2_656
Al8 N10 Al16 113.1(18) 2_656 2_655
Si8 N10 Al16 113.1(18) 2_656 2_655
Al8 N10 Si16 113.1(18) 2_656 2_655
Si8 N10 Si16 113.1(18) 2_656 2_655
Al16 N10 Si16 0.0 2_655 2_655
Al8 N10 Al15 113.4(17) 2_656 2_655
Si8 N10 Al15 113.4(17) 2_656 2_655
Al16 N10 Al15 22.7(12) 2_655 2_655
Si16 N10 Al15 22.7(12) 2_655 2_655
Al8 N10 Si15 113.4(17) 2_656 2_655
Si8 N10 Si15 113.4(17) 2_656 2_655
Al16 N10 Si15 22.7(12) 2_655 2_655
Si16 N10 Si15 22.7(12) 2_655 2_655
Al15 N10 Si15 0.0 2_655 2_655
Al8 N10 Si3 120.5(16) 2_656 .
Si8 N10 Si3 120.5(16) 2_656 .
Al16 N10 Si3 119.1(16) 2_655 .
Si16 N10 Si3 119.1(16) 2_655 .
Al15 N10 Si3 125.9(15) 2_655 .
Si15 N10 Si3 125.9(15) 2_655 .
Al8 N10 Si7 23.5(12) 2_656 2_656
Si8 N10 Si7 23.5(12) 2_656 2_656
Al16 N10 Si7 116.7(17) 2_655 2_656
Si16 N10 Si7 116.7(17) 2_655 2_656
Al15 N10 Si7 107.3(16) 2_655 2_656
Si15 N10 Si7 107.3(16) 2_655 2_656
Si3 N10 Si7 124.0(14) . 2_656
Al8 N10 Al7 23.5(12) 2_656 2_656
Si8 N10 Al7 23.5(12) 2_656 2_656
Al16 N10 Al7 116.7(17) 2_655 2_656
Si16 N10 Al7 116.7(17) 2_655 2_656
Al15 N10 Al7 107.3(16) 2_655 2_656
Si15 N10 Al7 107.3(16) 2_655 2_656
Si3 N10 Al7 124.0(14) . 2_656
Si7 N10 Al7 0.0(16) 2_656 2_656
Al8 N10 Si13 80.3(15) 2_656 2_655
Si8 N10 Si13 80.3(15) 2_656 2_655
Al16 N10 Si13 81.4(15) 2_655 2_655
Si16 N10 Si13 81.4(15) 2_655 2_655
Al15 N10 Si13 103.9(15) 2_655 2_655
Si15 N10 Si13 103.9(15) 2_655 2_655
Si3 N10 Si13 81.3(12) . 2_655
Si7 N10 Si13 103.8(15) 2_656 2_655
Al7 N10 Si13 103.8(15) 2_656 2_655
Al8 N10 Al13 80.3(15) 2_656 2_655
Si8 N10 Al13 80.3(15) 2_656 2_655
Al16 N10 Al13 81.4(15) 2_655 2_655
Si16 N10 Al13 81.4(15) 2_655 2_655
Al15 N10 Al13 103.9(15) 2_655 2_655
Si15 N10 Al13 103.9(15) 2_655 2_655
Si3 N10 Al13 81.3(12) . 2_655
Si7 N10 Al13 103.8(15) 2_656 2_655
Al7 N10 Al13 103.8(15) 2_656 2_655
Si13 N10 Al13 0.0(11) 2_655 2_655
Al3 N11 Si3 0.0 2_645 2_645
Al3 N11 Al5 174(3) 2_645 2_546
Si3 N11 Al5 174(3) 2_645 2_546
Al3 N11 Si5 174(3) 2_645 2_546
Si3 N11 Si5 174(3) 2_645 2_546
Al5 N11 Si5 0.0 2_546 2_546
Al3 N11 Si13 86.0(19) 2_645 .
Si3 N11 Si13 86.0(19) 2_645 .
Al5 N11 Si13 88.4(16) 2_546 .
Si5 N11 Si13 88.4(16) 2_546 .
Al3 N11 Si14 99(2) 2_645 .
Si3 N11 Si14 99(2) 2_645 .
Al5 N11 Si14 75.1(13) 2_546 .
Si5 N11 Si14 75.1(13) 2_546 .
Si13 N11 Si14 13.3(7) . .
Al3 N11 Ba1 96.0(10) 2_645 2_545
Si3 N11 Ba1 96.0(10) 2_645 2_545
Al5 N11 Ba1 87.3(8) 2_546 2_545
Si5 N11 Ba1 87.3(8) 2_546 2_545
Si13 N11 Ba1 89.6(11) . 2_545
Si14 N11 Ba1 88.9(11) . 2_545
Al3 N11 Eu1 96.0(10) 2_645 2_545
Si3 N11 Eu1 96.0(10) 2_645 2_545
Al5 N11 Eu1 87.3(8) 2_546 2_545
Si5 N11 Eu1 87.3(8) 2_546 2_545
Si13 N11 Eu1 89.6(11) . 2_545
Si14 N11 Eu1 88.9(11) . 2_545
Ba1 N11 Eu1 0.00(6) 2_545 2_545
Al3 N11 Eu1 92.1(10) 2_645 2_646
Si3 N11 Eu1 92.1(10) 2_645 2_646
Al5 N11 Eu1 84.4(8) 2_546 2_646
Si5 N11 Eu1 84.4(8) 2_546 2_646
Si13 N11 Eu1 87.2(11) . 2_646
Si14 N11 Eu1 86.1(10) . 2_646
Ba1 N11 Eu1 171.2(10) 2_545 2_646
Eu1 N11 Eu1 171.2(10) 2_545 2_646
Al3 N11 Ba1 92.1(10) 2_645 2_646
Si3 N11 Ba1 92.1(10) 2_645 2_646
Al5 N11 Ba1 84.4(8) 2_546 2_646
Si5 N11 Ba1 84.4(8) 2_546 2_646
Si13 N11 Ba1 87.2(11) . 2_646
Si14 N11 Ba1 86.1(10) . 2_646
Ba1 N11 Ba1 171.2(10) 2_545 2_646
Eu1 N11 Ba1 171.2 2_545 2_646
Eu1 N11 Ba1 0.0 2_646 2_646
Si21 N12 Al10 118(10) . 2_546
Si21 N12 Si10 118(10) . 2_546
Al10 N12 Si10 0.0 2_546 2_546
Si21 N12 Si12 84(8) . .
Al10 N12 Si12 157(10) 2_546 .
Si10 N12 Si12 157(10) 2_546 .
Si21 N12 Ba3 97(7) . 1_455
Al10 N12 Ba3 99(8) 2_546 1_455
Si10 N12 Ba3 99(8) 2_546 1_455
Si12 N12 Ba3 84(6) . 1_455
Si21 N12 Eu3 97(7) . 1_455
Al10 N12 Eu3 99(8) 2_546 1_455
Si10 N12 Eu3 99(8) 2_546 1_455
Si12 N12 Eu3 84(6) . 1_455
Ba3 N12 Eu3 0.0(4) 1_455 1_455
Si21 N12 Eu3 91(7) . 1_556
Al10 N12 Eu3 92(7) 2_546 1_556
Si10 N12 Eu3 92(7) 2_546 1_556
Si12 N12 Eu3 81(5) . 1_556
Ba3 N12 Eu3 162(7) 1_455 1_556
Eu3 N12 Eu3 162(7) 1_455 1_556
Si21 N12 Ba3 91(7) . 1_556
Al10 N12 Ba3 92(7) 2_546 1_556
Si10 N12 Ba3 92(7) 2_546 1_556
Si12 N12 Ba3 81(5) . 1_556
Ba3 N12 Ba3 162(7) 1_455 1_556
Eu3 N12 Ba3 162.4 1_455 1_556
Eu3 N12 Ba3 0.0 1_556 1_556
Si22 N13 Al9 109(5) . 2_645
Si22 N13 Si9 109(5) . 2_645
Al9 N13 Si9 0.0 2_645 2_645
Si22 N13 Si23 18(2) . .
Al9 N13 Si23 91(4) 2_645 .
Si9 N13 Si23 91(4) 2_645 .
Si22 N13 Si11 91(4) . .
Al9 N13 Si11 155(4) 2_645 .
Si9 N13 Si11 155(4) 2_645 .
Si23 N13 Si11 109(4) . .
Si22 N13 Ba2 103(3) . 1_655
Al9 N13 Ba2 96(3) 2_645 1_655
Si9 N13 Ba2 96(3) 2_645 1_655
Si23 N13 Ba2 103(3) . 1_655
Si11 N13 Ba2 95(3) . 1_655
Si22 N13 Eu2 103(3) . 1_655
Al9 N13 Eu2 96(3) 2_645 1_655
Si9 N13 Eu2 96(3) 2_645 1_655
Si23 N13 Eu2 103(3) . 1_655
Si11 N13 Eu2 95(3) . 1_655
Ba2 N13 Eu2 0.0(7) 1_655 1_655
Si22 N13 Ba2 88(3) . 1_554
Al9 N13 Ba2 83(3) 2_645 1_554
Si9 N13 Ba2 83(3) 2_645 1_554
Si23 N13 Ba2 88(3) . 1_554
Si11 N13 Ba2 82(2) . 1_554
Ba2 N13 Ba2 168(3) 1_655 1_554
Eu2 N13 Ba2 168.5 1_655 1_554
Si22 N13 Eu2 88(3) . 1_554
Al9 N13 Eu2 83(3) 2_645 1_554
Si9 N13 Eu2 83(3) 2_645 1_554
Si23 N13 Eu2 88(3) . 1_554
Si11 N13 Eu2 82(2) . 1_554
Ba2 N13 Eu2 168(3) 1_655 1_554
Eu2 N13 Eu2 168(3) 1_655 1_554
Ba2 N13 Eu2 0.0(4) 1_554 1_554
Al17 N14 Si17 0.0 2 2
Al17 N14 Al20 117(3) 2 1_565
Si17 N14 Al20 117(3) 2 1_565
Al17 N14 Si20 117(3) 2 1_565
Si17 N14 Si20 117(3) 2 1_565
Al20 N14 Si20 0.0 1_565 1_565
Al17 N14 Al18 22.7(10) 2 2
Si17 N14 Al18 22.7(10) 2 2
Al20 N14 Al18 118(3) 1_565 2
Si20 N14 Al18 118(3) 1_565 2
Al17 N14 Si18 22.7(10) 2 2
Si17 N14 Si18 22.7(10) 2 2
Al20 N14 Si18 118(3) 1_565 2
Si20 N14 Si18 118(3) 1_565 2
Al18 N14 Si18 0.0 2 2
Al17 N14 Al19 116(3) 2 1_565
Si17 N14 Al19 116(3) 2 1_565
Al20 N14 Al19 22.1(10) 1_565 1_565
Si20 N14 Al19 22.1(10) 1_565 1_565
Al18 N14 Al19 108(3) 2 1_565
Si18 N14 Al19 108(3) 2 1_565
Al17 N14 Si19 116(3) 2 1_565
Si17 N14 Si19 116(3) 2 1_565
Al20 N14 Si19 22.1(10) 1_565 1_565
Si20 N14 Si19 22.1(10) 1_565 1_565
Al18 N14 Si19 108(3) 2 1_565
Si18 N14 Si19 108(3) 2 1_565
Al19 N14 Si19 0.0 1_565 1_565
Al17 N14 Si9 121(3) 2 .
Si17 N14 Si9 121(3) 2 .
Al20 N14 Si9 118(3) 1_565 .
Si20 N14 Si9 118(3) 1_565 .
Al18 N14 Si9 124(3) 2 .
Si18 N14 Si9 124(3) 2 .
Al19 N14 Si9 122(3) 1_565 .
Si19 N14 Si9 122(3) 1_565 .
Al17 N14 Al23 84(3) 2 2_655
Si17 N14 Al23 84(3) 2 2_655
Al20 N14 Al23 82(3) 1_565 2_655
Si20 N14 Al23 82(3) 1_565 2_655
Al18 N14 Al23 106(3) 2 2_655
Si18 N14 Al23 106(3) 2 2_655
Al19 N14 Al23 104(3) 1_565 2_655
Si19 N14 Al23 104(3) 1_565 2_655
Si9 N14 Al23 84(3) . 2_655
Al17 N14 Si23 84(3) 2 2_655
Si17 N14 Si23 84(3) 2 2_655
Al20 N14 Si23 82(3) 1_565 2_655
Si20 N14 Si23 82(3) 1_565 2_655
Al18 N14 Si23 106(3) 2 2_655
Si18 N14 Si23 106(3) 2 2_655
Al19 N14 Si23 104(3) 1_565 2_655
Si19 N14 Si23 104(3) 1_565 2_655
Si9 N14 Si23 84(3) . 2_655
Al23 N14 Si23 0.0 2_655 2_655
Si10 N15 Al19 120(4) . 1_565
Si10 N15 Si19 120(4) . 1_565
Al19 N15 Si19 0.0 1_565 1_565
Si10 N15 Al18 116(4) . 2
Al19 N15 Al18 111(4) 1_565 2
Si19 N15 Al18 111(4) 1_565 2
Si10 N15 Si18 116(4) . 2
Al19 N15 Si18 111(4) 1_565 2
Si19 N15 Si18 111(4) 1_565 2
Al18 N15 Si18 0.0 2 2
Si10 N15 Al20 128(4) . 1_565
Al19 N15 Al20 22.0(11) 1_565 1_565
Si19 N15 Al20 22.0(11) 1_565 1_565
Al18 N15 Al20 113(4) 2 1_565
Si18 N15 Al20 113(4) 2 1_565
Si10 N15 Si20 128(4) . 1_565
Al19 N15 Si20 22.0(11) 1_565 1_565
Si19 N15 Si20 22.0(11) 1_565 1_565
Al18 N15 Si20 113(4) 2 1_565
Si18 N15 Si20 113(4) 2 1_565
Al20 N15 Si20 0.0 1_565 1_565
Si10 N15 Al17 126(4) . 2
Al19 N15 Al17 112(4) 1_565 2
Si19 N15 Al17 112(4) 1_565 2
Al18 N15 Al17 21.9(11) 2 2
Si18 N15 Al17 21.9(11) 2 2
Al20 N15 Al17 105(3) 1_565 2
Si20 N15 Al17 105(3) 1_565 2
Si10 N15 Si17 126(4) . 2
Al19 N15 Si17 112(4) 1_565 2
Si19 N15 Si17 112(4) 1_565 2
Al18 N15 Si17 21.9(11) 2 2
Si18 N15 Si17 21.9(11) 2 2
Al20 N15 Si17 105(3) 1_565 2
Si20 N15 Si17 105(3) 1_565 2
Al17 N15 Si17 0.0 2 2
Si10 N15 Si9 47.6(19) . .
Al19 N15 Si9 125(4) 1_565 .
Si19 N15 Si9 125(4) 1_565 .
Al18 N15 Si9 122(3) 2 .
Si18 N15 Si9 122(3) 2 .
Al20 N15 Si9 113(4) 1_565 .
Si20 N15 Si9 113(4) 1_565 .
Al17 N15 Si9 112(3) 2 .
Si17 N15 Si9 112(3) 2 .
N17 N16 Si18 99(10) . .
N17 N16 Al19 84(9) . 2_656
Si18 N16 Al19 119(4) . 2_656
N17 N16 Si19 84(9) . 2_656
Si18 N16 Si19 119(4) . 2_656
Al19 N16 Si19 0.0 2_656 2_656
N17 N16 Si17 76(9) . .
Si18 N16 Si17 22.7(12) . .
Al19 N16 Si17 118(4) 2_656 .
Si19 N16 Si17 118(4) 2_656 .
N17 N16 Si11 104(10) . .
Si18 N16 Si11 122(4) . .
Al19 N16 Si11 116(4) 2_656 .
Si19 N16 Si11 116(4) 2_656 .
Si17 N16 Si11 125(4) . .
N17 N16 Al20 62(9) . 2_656
Si18 N16 Al20 117(4) . 2_656
Al19 N16 Al20 21.7(11) 2_656 2_656
Si19 N16 Al20 21.7(11) 2_656 2_656
Si17 N16 Al20 107(4) . 2_656
Si11 N16 Al20 121(4) . 2_656
N17 N16 Si20 62(9) . 2_656
Si18 N16 Si20 117(4) . 2_656
Al19 N16 Si20 21.7(11) 2_656 2_656
Si19 N16 Si20 21.7(11) 2_656 2_656
Si17 N16 Si20 107(4) . 2_656
Si11 N16 Si20 121(4) . 2_656
Al20 N16 Si20 0.0 2_656 2_656
N17 N16 Si22 169(10) . .
Si18 N16 Si22 88(3) . .
Al19 N16 Si22 85(3) 2_656 .
Si19 N16 Si22 85(3) 2_656 .
Si17 N16 Si22 111(4) . .
Si11 N16 Si22 80(3) . .
Al20 N16 Si22 107(3) 2_656 .
Si20 N16 Si22 107(3) 2_656 .
N16 N17 Al20 101(10) . 2_656
N16 N17 Si20 101(10) . 2_656
Al20 N17 Si20 0.0 2_656 2_656
N16 N17 Si17 86(9) . .
Al20 N17 Si17 118(3) 2_656 .
Si20 N17 Si17 118(3) 2_656 .
N16 N17 Al19 78(10) . 2_656
Al20 N17 Al19 22.5(11) 2_656 2_656
Si20 N17 Al19 22.5(11) 2_656 2_656
Si17 N17 Al19 119(3) . 2_656
N16 N17 Si19 78(10) . 2_656
Al20 N17 Si19 22.5(11) 2_656 2_656
Si20 N17 Si19 22.5(11) 2_656 2_656
Si17 N17 Si19 119(3) . 2_656
Al19 N17 Si19 0.0 2_656 2_656
N16 N17 Si18 63(9) . .
Al20 N17 Si18 118(3) 2_656 .
Si20 N17 Si18 118(3) 2_656 .
Si17 N17 Si18 22.5(10) . .
Al19 N17 Si18 109(3) 2_656 .
Si19 N17 Si18 109(3) 2_656 .
N16 N17 Si21 170(10) . .
Al20 N17 Si21 86(3) 2_656 .
Si20 N17 Si21 86(3) 2_656 .
Si17 N17 Si21 85(3) . .
Al19 N17 Si21 108(3) 2_656 .
Si19 N17 Si21 108(3) 2_656 .
Si18 N17 Si21 107(3) . .
N16 N17 Si12 100(10) . .
Al20 N17 Si12 121(3) 2_656 .
Si20 N17 Si12 121(3) 2_656 .
Si17 N17 Si12 118(3) . .
Al19 N17 Si12 123(3) 2_656 .
Si19 N17 Si12 123(3) 2_656 .
Si18 N17 Si12 121(3) . .
Si21 N17 Si12 83(3) . .
N19 N18 Al14 94(6) . 2
N19 N18 Si14 94(6) . 2
Al14 N18 Si14 0.0 2 2
N19 N18 Al13 77(6) . 2
Al14 N18 Al13 16.9(10) 2 2
Si14 N18 Al13 16.9(10) 2 2
N19 N18 Si13 77(6) . 2
Al14 N18 Si13 16.9(10) 2 2
Si14 N18 Si13 16.9(10) 2 2
Al13 N18 Si13 0.0 2 2
N19 N18 Al15 166(7) . 2_655
Al14 N18 Al15 99(3) 2 2_655
Si14 N18 Al15 99(3) 2 2_655
Al13 N18 Al15 116(3) 2 2_655
Si13 N18 Al15 116(3) 2 2_655
N19 N18 Si15 166(7) . 2_655
Al14 N18 Si15 99(3) 2 2_655
Si14 N18 Si15 99(3) 2 2_655
Al13 N18 Si15 116(3) 2 2_655
Si13 N18 Si15 116(3) 2 2_655
Al15 N18 Si15 0.0 2_655 2_655
N19 N18 Si18 82(5) . .
Al14 N18 Si18 120(3) 2 .
Si14 N18 Si18 120(3) 2 .
Al13 N18 Si18 118(3) 2 .
Si13 N18 Si18 118(3) 2 .
Al15 N18 Si18 92(3) 2_655 .
Si15 N18 Si18 92(3) 2_655 .
N19 N18 Si17 60(5) . .
Al14 N18 Si17 113(3) 2 .
Si14 N18 Si17 113(3) 2 .
Al13 N18 Si17 106(3) 2 .
Si13 N18 Si17 106(3) 2 .
Al15 N18 Si17 114(3) 2_655 .
Si15 N18 Si17 114(3) 2_655 .
Si18 N18 Si17 22.1(9) . .
N19 N18 Ba1 84(5) . .
Al14 N18 Ba1 93(2) 2 .
Si14 N18 Ba1 93(2) 2 .
Al13 N18 Ba1 89.1(18) 2 .
Si13 N18 Ba1 89.1(18) 2 .
Al15 N18 Ba1 94(2) 2_655 .
Si15 N18 Ba1 94(2) 2_655 .
Si18 N18 Ba1 145(2) . .
Si17 N18 Ba1 136(2) . .
N18 N19 Si17 93(6) . .
N18 N19 Al8 165(8) . 2_556
Si17 N19 Al8 97(4) . 2_556
N18 N19 Si8 165(8) . 2_556
Si17 N19 Si8 97(4) . 2_556
Al8 N19 Si8 0.0 2_556 2_556
N18 N19 Al13 74(6) . 2
Si17 N19 Al13 116(4) . 2
Al8 N19 Al13 91(3) 2_556 2
Si8 N19 Al13 91(3) 2_556 2
N18 N19 Si13 74(6) . 2
Si17 N19 Si13 116(4) . 2
Al8 N19 Si13 91(3) 2_556 2
Si8 N19 Si13 91(3) 2_556 2
Al13 N19 Si13 0.0 2 2
N18 N19 Al14 58(5) . 2
Si17 N19 Al14 112(4) . 2
Al8 N19 Al14 107(4) 2_556 2
Si8 N19 Al14 107(4) 2_556 2
Al13 N19 Al14 15.7(9) 2 2
Si13 N19 Al14 15.7(9) 2 2
N18 N19 Si14 58(5) . 2
Si17 N19 Si14 112(4) . 2
Al8 N19 Si14 107(4) 2_556 2
Si8 N19 Si14 107(4) 2_556 2
Al13 N19 Si14 15.7(9) 2 2
Si13 N19 Si14 15.7(9) 2 2
Al14 N19 Si14 0.0 2 2
N18 N19 Si18 71(5) . .
Si17 N19 Si18 22.3(12) . .
Al8 N19 Si18 120(4) 2_556 .
Si8 N19 Si18 120(4) 2_556 .
Al13 N19 Si18 113(3) 2 .
Si13 N19 Si18 113(3) 2 .
Al14 N19 Si18 103(3) 2 .
Si14 N19 Si18 103(3) 2 .
N18 N19 Al7 167(7) . 2_556
Si17 N19 Al7 97(3) . 2_556
Al8 N19 Al7 2.9(14) 2_556 2_556
Si8 N19 Al7 2.9(14) 2_556 2_556
Al13 N19 Al7 94(3) 2 2_556
Si13 N19 Al7 94(3) 2 2_556
Al14 N19 Al7 110(3) 2 2_556
Si14 N19 Al7 110(3) 2 2_556
Si18 N19 Al7 120(3) . 2_556
N21 N20 Si14 73(6) . .
N21 N20 Si7 161(7) . .
Si14 N20 Si7 95(3) . .
N21 N20 Si19 77(5) . .
Si14 N20 Si19 113(3) . .
Si7 N20 Si19 95(3) . .
N21 N20 Si13 59(5) . .
Si14 N20 Si13 15.6(9) . .
Si7 N20 Si13 110(3) . .
Si19 N20 Si13 111(2) . .
N21 N20 Si20 57(5) . .
Si14 N20 Si20 109(2) . .
Si7 N20 Si20 116(3) . .
Si19 N20 Si20 21.5(9) . .
Si13 N20 Si20 102(2) . .
N20 N21 Si13 96(6) . .
N20 N21 Si20 99(6) . .
Si13 N21 Si20 130(4) . .
N20 N21 Si14 79(6) . .
Si13 N21 Si14 17.8(10) . .
Si20 N21 Si14 127(4) . .
N20 N21 Si19 77(6) . .
Si13 N21 Si19 125(4) . .
Si20 N21 Si19 23.3(11) . .
Si14 N21 Si19 115(3) . .
N20 N21 Si16 154(7) . .
Si13 N21 Si16 93(3) . .
Si20 N21 Si16 93(3) . .
Si14 N21 Si16 111(3) . .
Si19 N21 Si16 116(3) . .
N20 N21 Ba1 69(5) . 2_646
Si13 N21 Ba1 87(2) . 2_646
Si20 N21 Ba1 143(3) . 2_646
Si14 N21 Ba1 86(2) . 2_646
Si19 N21 Ba1 136(3) . 2_646
Si16 N21 Ba1 88(2) . 2_646
N23 N22 Si16 94(7) . .
N23 N22 Al23 92(6) . 2_645
Si16 N22 Al23 125(3) . 2_645
N23 N22 Si23 92(6) . 2_645
Si16 N22 Si23 125(3) . 2_645
Al23 N22 Si23 0.0 2_645 2_645
N23 N22 Si15 69(6) . .
Si16 N22 Si15 25.3(15) . .
Al23 N22 Si15 119(3) 2_645 .
Si23 N22 Si15 119(3) 2_645 .
N23 N22 Al21 81(6) . 2_646
Si16 N22 Al21 119(3) . 2_646
Al23 N22 Al21 116(3) 2_645 2_646
Si23 N22 Al21 116(3) 2_645 2_646
Si15 N22 Al21 117(3) . 2_646
N23 N22 Si21 81(6) . 2_646
Si16 N22 Si21 119(3) . 2_646
Al23 N22 Si21 116(3) 2_645 2_646
Si23 N22 Si21 116(3) 2_645 2_646
Si15 N22 Si21 117(3) . 2_646
Al21 N22 Si21 0.0 2_646 2_646
N23 N22 Si20 166(7) . .
Si16 N22 Si20 97(3) . .
Al23 N22 Si20 88(3) 2_645 .
Si23 N22 Si20 88(3) 2_645 .
Si15 N22 Si20 122(3) . .
Al21 N22 Si20 86(2) 2_646 .
Si21 N22 Si20 86(2) 2_646 .
N23 N22 Al22 75(6) . 2_645
Si16 N22 Al22 127(3) . 2_645
Al23 N22 Al22 17.2(19) 2_645 2_645
Si23 N22 Al22 17.2(19) 2_645 2_645
Si15 N22 Al22 113(3) . 2_645
Al21 N22 Al22 110(3) 2_646 2_645
Si21 N22 Al22 110(3) 2_646 2_645
Si20 N22 Al22 104(3) . 2_645
N22 N23 Si15 86(7) . .
N22 N23 Si16 61(6) . .
Si15 N23 Si16 24.4(16) . .
N22 N23 Al18 173(8) . 2_645
Si15 N23 Al18 97(3) . 2_645
Si16 N23 Al18 121(3) . 2_645
N22 N23 Si18 173(8) . 2_645
Si15 N23 Si18 97(3) . 2_645
Si16 N23 Si18 121(3) . 2_645
Al18 N23 Si18 0.0 2_645 2_645
N22 N23 Al22 83(6) . 2_645
Si15 N23 Al22 121(4) . 2_645
Si16 N23 Al22 118(3) . 2_645
Al18 N23 Al22 91(3) 2_645 2_645
Si18 N23 Al22 91(3) 2_645 2_645
N22 N23 Si22 83(6) . 2_645
Si15 N23 Si22 121(4) . 2_645
Si16 N23 Si22 118(3) . 2_645
Al18 N23 Si22 91(3) 2_645 2_645
Si18 N23 Si22 91(3) 2_645 2_645
Al22 N23 Si22 0.0 2_645 2_645
N22 N23 Al23 65(6) . 2_645
Si15 N23 Al23 115(4) . 2_645
Si16 N23 Al23 105(3) . 2_645
Al18 N23 Al23 108(3) 2_645 2_645
Si18 N23 Al23 108(3) 2_645 2_645
Al22 N23 Al23 17.7(18) 2_645 2_645
Si22 N23 Al23 17.7(18) 2_645 2_645
N22 N23 Si23 65(6) . 2_645
Si15 N23 Si23 115(4) . 2_645
Si16 N23 Si23 105(3) . 2_645
Al18 N23 Si23 108(3) 2_645 2_645
Si18 N23 Si23 108(3) 2_645 2_645
Al22 N23 Si23 17.7(18) 2_645 2_645
Si22 N23 Si23 17.7(18) 2_645 2_645
Al23 N23 Si23 0.0 2_645 2_645
N22 N23 Si21 76(6) . 2_646
Si15 N23 Si21 121(3) . 2_646
Si16 N23 Si21 107(3) . 2_646
Al18 N23 Si21 108(3) 2_645 2_646
Si18 N23 Si21 108(3) 2_645 2_646
Al22 N23 Si21 111(3) 2_645 2_646
Si22 N23 Si21 111(3) 2_645 2_646
Al23 N23 Si21 107(3) 2_645 2_646
Si23 N23 Si21 107(3) 2_645 2_646
N25 N24 Si8 94(6) . .
N25 N24 Al21 99(6) . 2_546
Si8 N24 Al21 130(3) . 2_546
N25 N24 Si21 99(6) . 2_546
Si8 N24 Si21 130(3) . 2_546
Al21 N24 Si21 0.0 2_546 2_546
N25 N24 Si7 70(6) . .
Si8 N24 Si7 25.9(15) . .
Al21 N24 Si7 122(3) 2_546 .
Si21 N24 Si7 122(3) 2_546 .
N25 N24 Al23 77(6) . 2_646
Si8 N24 Al23 113(3) . 2_646
Al21 N24 Al23 117(3) 2_546 2_646
Si21 N24 Al23 117(3) 2_546 2_646
Si7 N24 Al23 115(3) . 2_646
N25 N24 Si23 77(6) . 2_646
Si8 N24 Si23 113(3) . 2_646
Al21 N24 Si23 117(3) 2_546 2_646
Si21 N24 Si23 117(3) 2_546 2_646
Si7 N24 Si23 115(3) . 2_646
Al23 N24 Si23 0.0 2_646 2_646
N25 N24 Si17 160(7) . 2_546
Si8 N24 Si17 94(3) . 2_546
Al21 N24 Si17 90(2) 2_546 2_546
Si21 N24 Si17 90(2) 2_546 2_546
Si7 N24 Si17 120(3) . 2_546
Al23 N24 Si17 83(3) 2_646 2_546
Si23 N24 Si17 83(3) 2_646 2_546
N25 N24 Al17 160(7) . 2_546
Si8 N24 Al17 94(3) . 2_546
Al21 N24 Al17 90(2) 2_546 2_546
Si21 N24 Al17 90(2) 2_546 2_546
Si7 N24 Al17 120(3) . 2_546
Al23 N24 Al17 83(3) 2_646 2_546
Si23 N24 Al17 83(3) 2_646 2_546
Si17 N24 Al17 0.0(15) 2_546 2_546
N25 N24 Si22 62(6) . 2_646
Si8 N24 Si22 118(3) . 2_646
Al21 N24 Si22 111(3) 2_546 2_646
Si21 N24 Si22 111(3) 2_546 2_646
Si7 N24 Si22 111(3) . 2_646
Al23 N24 Si22 16.8(17) 2_646 2_646
Si23 N24 Si22 16.8(17) 2_646 2_646
Si17 N24 Si22 98(3) 2_546 2_646
Al17 N24 Si22 98(3) 2_546 2_646
N24 N25 Si7 86(6) . .
N24 N25 Al22 97(6) . 2_646
Si7 N25 Al22 130(4) . 2_646
N24 N25 Si22 97(6) . 2_646
Si7 N25 Si22 130(4) . 2_646
Al22 N25 Si22 0.0 2_646 2_646
N24 N25 Si8 62(6) . .
Si7 N25 Si8 25.5(15) . .
Al22 N25 Si8 119(3) 2_646 .
Si22 N25 Si8 119(3) 2_646 .
N24 N25 Si19 162(7) . .
Si7 N25 Si19 97(3) . .
Al22 N25 Si19 95(3) 2_646 .
Si22 N25 Si19 95(3) 2_646 .
Si8 N25 Si19 122(3) . .
N24 N25 Al23 80(6) . 2_646
Si7 N25 Al23 121(4) . 2_646
Al22 N25 Al23 18.2(18) 2_646 2_646
Si22 N25 Al23 18.2(18) 2_646 2_646
Si8 N25 Al23 105(3) . 2_646
Si19 N25 Al23 113(3) . 2_646
N24 N25 Si23 80(6) . 2_646
Si7 N25 Si23 121(4) . 2_646
Al22 N25 Si23 18.2(18) 2_646 2_646
Si22 N25 Si23 18.2(18) 2_646 2_646
Si8 N25 Si23 105(3) . 2_646
Si19 N25 Si23 113(3) . 2_646
Al23 N25 Si23 0.0 2_646 2_646
N24 N25 Si21 59(5) . 2_546
Si7 N25 Si21 114(3) . 2_546
Al22 N25 Si21 110(3) 2_646 2_546
Si22 N25 Si21 110(3) 2_646 2_546
Si8 N25 Si21 105(3) . 2_546
Si19 N25 Si21 104(3) . 2_546
Al23 N25 Si21 106(3) 2_646 2_546
Si23 N25 Si21 106(3) 2_646 2_546
loop_
_geom_bond_atom_site_label_1
_geom_bond_atom_site_label_2
_geom_bond_distance
_geom_bond_site_symmetry_2
Ba1 N11 2.92(2) 2
Ba1 N7 2.95(2) 2_656
Ba1 N4 2.97(2) 2_655
Ba1 N11 3.04(2) 2_656
Ba1 N4 3.07(2) 2_656
Ba1 N7 3.08(2) 2_556
Ba1 N20 3.12(4) 2_656
Ba1 N18 3.17(5) .
Ba1 N6 3.18(3) .
Ba1 N19 3.21(6) .
Ba1 N10 3.22(3) .
Ba1 Si3 3.223(7) .
Ba2 Al10 1.79(2) 2_546
Ba2 Si10 1.79(2) 2_546
Ba2 Si12 1.81(2) .
Ba2 Si21 1.98(3) .
Ba2 N13 2.78(7) 1_455
Ba2 N17 2.87(7) .
Ba2 N15 2.92(7) 2_546
Ba2 N2 2.93(4) 1_455
Ba2 Eu3 2.957(11) 1_556
Ba2 Ba3 2.957(11) 1_556
Ba3 Al9 1.74(2) 2_645
Ba3 Si9 1.74(2) 2_645
Ba3 Si11 1.85(2) .
Ba3 Si22 1.92(4) .
Ba3 Si23 2.08(5) .
Ba3 N14 2.84(6) 2_645
Ba3 N16 2.91(7) .
Ba3 Eu2 2.957(11) 1_554
Ba3 Ba2 2.957(11) 1_554
Si1 N3 1.74(3) 2_545
Si1 N5 1.75(3) 1_554
Si1 N8 1.76(3) .
Si1 N9 1.82(3) .
Si2 N5 1.80(3) .
Si2 N7 1.81(2) .
Si2 N8 1.82(3) .
Si2 N1 1.83(3) 1_455
Si3 N11 1.59(2) 2_655
Si3 N4 1.83(2) 2_655
Si3 N7 1.84(2) 2_656
Si3 N10 1.84(3) .
Si3 Al13 2.54(2) 2_655
Si3 Si13 2.54(2) 2_655
Si3 Al14 2.89(2) 2_655
Si3 Ba1 3.471(6) 1_655
Si3 Eu1 3.471(6) 1_655
Si3 Eu1 3.480(6) 1_554
Si4 N1 1.73(3) .
Si4 N3 1.75(3) 2_646
Si4 N2 1.76(3) .
Si4 N8 1.76(3) .
Si4 Ba1 3.676(11) 2_646
Si4 Ba2 3.834(17) 1_655
Si4 Ba3 3.841(12) 1_556
Si5 N7 1.79(2) 2_556
Si5 N4 1.81(2) 2_656
Si5 N6 1.80(3) .
Si5 N11 2.02(2) 2_556
Si5 Al14 2.55(2) 2_556
Si5 Si14 2.55(2) 2_556
Si5 Al13 2.86(2) 2_556
Si5 Eu1 3.469(5) 1_556
Si5 Ba1 3.469(5) 1_556
Si5 Ba1 3.476(6) 1_455
Si6 N5 1.77(3) 1_554
Si6 N4 1.78(3) .
Si6 N1 1.81(3) .
Si6 N3 1.83(3) 2_645
Si7 Si8 0.75(4) .
Si7 N25 1.61(6) .
Si7 N24 1.71(5) .
Si7 N6 1.71(3) 2_546
Si7 N20 1.71(6) .
Si7 N10 1.88(3) 2_646
Si7 Si14 2.48(3) .
Si7 Si19 2.55(2) .
Si8 N24 1.54(5) .
Si8 N19 1.70(8) 2_546
Si8 N25 1.74(6) .
Si8 N10 1.74(3) 2_646
Si8 N6 1.87(3) 2_546
Si8 Si13 2.45(3) 1_556
Si8 Al13 2.45(3) 1_556
Si8 Si17 2.51(2) 2_546
Si8 Al17 2.51(2) 2_546
Si8 Si23 2.80(5) 2_646
Si9 Si10 1.47(3) .
Si9 Eu3 1.74(2) 2_655
Si9 Ba3 1.74(2) 2_655
Si9 N13 1.78(9) 2_655
Si9 N9 1.79(4) 2
Si9 N2 1.80(4) 2_656
Si9 N14 1.88(6) .
Si9 N15 1.91(7) .
Si9 Al23 2.54(5) 2_655
Si9 Si23 2.54(5) 2_655
Si9 Al22 2.76(4) 2_655
Si10 N15 1.72(7) .
Si10 N12 1.51(19) 2_556
Si10 Eu2 1.79(2) 2_556
Si10 Ba2 1.79(2) 2_556
Si10 N2 1.79(4) 2_656
Si10 N9 1.80(4) 2
Si10 N14 1.99(6) .
Si10 Al21 2.80(3) 2_556
Si10 Si21 2.80(3) 2_556
Si10 Ba3 3.207(17) 2_655
Si11 Si12 1.42(3) .
Si11 N2 1.82(4) .
Si11 N9 1.82(4) .
Si11 N16 1.88(7) .
Si11 N13 1.89(8) .
Si11 N17 2.09(6) .
Si11 Si22 2.51(5) .
Si12 N9 1.79(4) .
Si12 N2 1.83(4) .
Si12 N12 2.16(18) .
Si12 N17 2.04(6) .
Si12 N16 2.22(7) .
Si12 Si21 2.64(3) .
Si13 N21 1.57(6) .
Si13 N18 1.70(5) 2_545
Si13 N19 1.73(7) 2_545
Si13 N20 1.83(5) .
Si13 N10 2.05(4) 2_645
Si13 N11 2.09(5) .
Si13 Al8 2.45(3) 1_554
Si13 Si8 2.45(3) 1_554
Si13 Si16 2.51(3) .
Si13 Al3 2.54(2) 2_645
Si13 Si3 2.54(2) 2_645
Si14 N18 1.57(5) 2_545
Si14 N21 1.63(6) .
Si14 N20 1.67(5) .
Si14 N19 1.84(7) 2_545
Si14 N11 2.16(4) .
Si14 N6 2.17(3) 2_546
Si14 Al15 2.55(3) 1_455
Si14 Si15 2.55(3) 1_455
Si14 Al5 2.55(2) 2_546
Si14 Si5 2.55(2) 2_546
Si15 Si16 0.72(4) .
Si15 N23 1.58(6) .
Si15 N22 1.68(5) .
Si15 N18 1.77(6) 2_645
Si15 N6 1.81(3) 2_646
Si15 N10 1.84(3) 2_645
Si15 Si18 2.54(2) 2_645
Si15 Al18 2.54(2) 2_645
Si15 Al14 2.55(3) 1_655
Si15 Si14 2.55(3) 1_655
Si15 Al23 2.89(5) 2_645
Si16 N22 1.53(5) .
Si16 N23 1.73(6) .
Si16 N10 1.80(4) 2_645
Si16 N6 1.82(3) 2_646
Si16 N21 1.87(7) .
Si16 Si20 2.53(2) .
Si16 Al23 2.83(5) 2_645
Si17 Si18 0.71(2) .
Si17 N19 1.63(6) .
Si17 N14 1.70(6) 2_545
Si17 N17 1.78(6) .
Si17 N16 1.83(7) .
Si17 N24 1.87(5) 2_556
Si17 N18 1.88(5) .
Si17 N15 1.87(7) 2_545
Si17 Al23 2.43(5) 1_455
Si17 Si23 2.43(5) 1_455
Si17 Al8 2.51(2) 2_556
Si18 N16 1.65(7) .
Si18 N18 1.76(5) .
Si18 N23 1.81(7) 2_655
Si18 N14 1.83(6) 2_545
Si18 N17 1.83(6) .
Si18 N15 1.84(7) 2_545
Si18 N19 1.85(6) .
Si18 Al15 2.54(2) 2_655
Si18 Si15 2.54(2) 2_655
Si19 Si20 0.70(2) .
Si19 N15 1.76(7) 1_545
Si19 N20 1.76(5) .
Si19 N21 1.76(6) .
Si19 N25 1.80(6) .
Si19 N16 1.79(7) 2_646
Si19 N17 1.82(6) 2_646
Si19 N14 1.83(5) 1_545
Si19 Si22 2.59(4) 2_646
Si20 N21 1.62(6) .
Si20 N17 1.69(6) 2_646
Si20 N14 1.78(5) 1_545
Si20 N22 1.84(5) .
Si20 N15 1.85(7) 1_545
Si20 N16 1.87(7) 2_646
Si20 N20 1.90(5) .
Si20 Al23 2.44(5) 2_645
Si20 Si23 2.44(5) 2_645
Si20 Al21 2.49(3) 2_646
Si21 N24 1.69(4) 2_556
Si21 N12 1.75(19) .
Si21 N22 1.81(5) 2_656
Si21 N23 1.85(6) 2_656
Si21 N25 1.94(6) 2_556
Si21 N17 1.96(7) .
Si21 Al20 2.49(3) 2_656
Si21 Si20 2.49(3) 2_656
Si22 Si23 0.56(5) .
Si22 N13 1.62(8) .
Si22 N25 1.72(6) 2_656
Si22 N23 1.81(7) 2_655
Si22 N22 1.86(5) 2_655
Si22 N24 1.94(6) 2_656
Si22 N16 2.03(9) .
Si23 N22 1.67(6) 2_655
Si23 N13 1.79(8) .
Si23 N25 1.80(7) 2_656
Si23 N24 1.81(6) 2_656
Si23 N23 1.84(7) 2_655
Si23 N14 1.93(8) 2_645
Si23 N15 2.33(9) 2_645
Si23 Al17 2.43(5) 1_655
N1 Al2 1.83(3) 1_655
N1 Si2 1.83(3) 1_655
N2 Al10 1.79(4) 2_646
N2 Si10 1.79(4) 2_646
N2 Al9 1.80(4) 2_646
N2 Si9 1.80(4) 2_646
N2 Eu2 2.93(4) 1_655
N2 Ba2 2.93(4) 1_655
N3 Al1 1.74(3) 2
N3 Si1 1.74(3) 2
N3 Al4 1.75(3) 2_656
N3 Si4 1.75(3) 2_656
N3 Al6 1.83(3) 2_655
N3 Si6 1.83(3) 2_655
N4 Al5 1.81(2) 2_646
N4 Si5 1.81(2) 2_646
N4 Al3 1.83(2) 2_645
N4 Si3 1.83(2) 2_645
N4 Ba1 2.97(2) 2_645
N4 Eu1 2.97(2) 2_645
N4 Eu1 3.07(2) 2_646
N4 Ba1 3.07(2) 2_646
N5 Al1 1.75(3) 1_556
N5 Si1 1.75(3) 1_556
N5 Al6 1.77(3) 1_556
N5 Si6 1.77(3) 1_556
N6 Al7 1.71(3) 2_556
N6 Si7 1.71(3) 2_556
N6 Al15 1.81(3) 2_656
N6 Si15 1.81(3) 2_656
N6 Al16 1.82(3) 2_656
N6 Si16 1.82(3) 2_656
N6 Al8 1.87(3) 2_556
N6 Si8 1.87(3) 2_556
N6 Si14 2.17(3) 2_556
N6 Al14 2.17(3) 2_556
N7 Al5 1.79(2) 2_546
N7 Si5 1.79(2) 2_546
N7 Al3 1.84(2) 2_646
N7 Si3 1.84(2) 2_646
N7 Ba1 2.95(2) 2_646
N7 Eu1 2.95(2) 2_646
N7 Ba1 3.08(2) 2_546
N7 Eu1 3.08(2) 2_546
N9 Al9 1.79(4) 2_545
N9 Si9 1.79(4) 2_545
N9 Al10 1.80(4) 2_545
N9 Si10 1.80(4) 2_545
N9 Eu2 2.98(4) 1_554
N9 Ba2 2.98(4) 1_554
N10 Al8 1.74(3) 2_656
N10 Si8 1.74(3) 2_656
N10 Al16 1.80(4) 2_655
N10 Si16 1.80(4) 2_655
N10 Al15 1.84(3) 2_655
N10 Si15 1.84(3) 2_655
N10 Si7 1.88(3) 2_656
N10 Al7 1.88(3) 2_656
N10 Si13 2.05(4) 2_655
N10 Al13 2.05(4) 2_655
N11 Al3 1.59(2) 2_645
N11 Si3 1.59(2) 2_645
N11 Al5 2.02(2) 2_546
N11 Si5 2.02(2) 2_546
N11 Ba1 2.92(2) 2_545
N11 Eu1 2.92(2) 2_545
N11 Eu1 3.04(2) 2_646
N11 Ba1 3.04(2) 2_646
N12 Al10 1.51(19) 2_546
N12 Si10 1.51(19) 2_546
N12 Ba3 2.94(17) 1_455
N12 Eu3 2.94(17) 1_455
N12 Eu3 3.08(17) 1_556
N12 Ba3 3.08(17) 1_556
N13 Al9 1.78(9) 2_645
N13 Si9 1.78(9) 2_645
N13 Ba2 2.78(7) 1_655
N13 Eu2 2.78(7) 1_655
N13 Ba2 3.19(7) 1_554
N13 Eu2 3.19(7) 1_554
N14 Al17 1.70(5) 2
N14 Si17 1.70(5) 2
N14 Al20 1.78(5) 1_565
N14 Si20 1.78(5) 1_565
N14 Al18 1.83(6) 2
N14 Si18 1.83(6) 2
N14 Al19 1.83(5) 1_565
N14 Si19 1.83(5) 1_565
N14 Al23 1.93(8) 2_655
N14 Si23 1.93(8) 2_655
N15 Al19 1.76(7) 1_565
N15 Si19 1.76(7) 1_565
N15 Al18 1.84(7) 2
N15 Si18 1.84(7) 2
N15 Al20 1.85(7) 1_565
N15 Si20 1.85(7) 1_565
N15 Al17 1.87(7) 2
N15 Si17 1.87(7) 2
N16 N17 0.57(10) .
N16 Al19 1.79(7) 2_656
N16 Si19 1.79(7) 2_656
N16 Al20 1.87(7) 2_656
N16 Si20 1.87(7) 2_656
N17 Al20 1.69(6) 2_656
N17 Si20 1.69(6) 2_656
N17 Al19 1.82(6) 2_656
N17 Si19 1.82(6) 2_656
N18 N19 0.85(8) .
N18 Al14 1.57(5) 2
N18 Si14 1.57(5) 2
N18 Al13 1.70(5) 2
N18 Si13 1.70(5) 2
N18 Al15 1.77(6) 2_655
N18 Si15 1.77(6) 2_655
N19 Al8 1.70(8) 2_556
N19 Si8 1.70(8) 2_556
N19 Al13 1.73(7) 2
N19 Si13 1.73(7) 2
N19 Al14 1.84(7) 2
N19 Si14 1.84(7) 2
N19 Al7 2.44(7) 2_556
N20 N21 0.78(7) .
N21 Ba1 3.32(6) 2_646
N22 N23 0.71(6) .
N22 Al23 1.67(6) 2_645
N22 Si23 1.67(6) 2_645
N22 Al21 1.81(5) 2_646
N22 Si21 1.81(5) 2_646
N22 Al22 1.86(5) 2_645
N23 Al18 1.81(7) 2_645
N23 Si18 1.81(7) 2_645
N23 Al22 1.81(7) 2_645
N23 Si22 1.81(7) 2_645
N23 Al23 1.84(7) 2_645
N23 Si23 1.84(7) 2_645
N23 Si21 1.85(6) 2_646
N24 N25 0.71(6) .
N24 Al21 1.69(4) 2_546
N24 Si21 1.69(4) 2_546
N24 Al23 1.81(6) 2_646
N24 Si23 1.81(6) 2_646
N24 Si17 1.87(5) 2_546
N24 Al17 1.87(5) 2_546
N24 Si22 1.94(6) 2_646
N25 Al22 1.72(6) 2_646
N25 Si22 1.72(6) 2_646
N25 Al23 1.80(7) 2_646
N25 Si23 1.80(7) 2_646
N25 Si21 1.94(6) 2_546
