#------------------------------------------------------------------------------
#$Date: 2021-03-26 11:29:19 +0200 (Fri, 26 Mar 2021) $
#$Revision: 263352 $
#$URL: file:///home/coder/svn-repositories/cod/cif/1/56/12/1561282.cif $
#------------------------------------------------------------------------------
#
# This file is available in the Crystallography Open Database (COD),
# http://www.crystallography.net/
#
# All data on this site have been placed in the public domain by the
# contributors.
#
data_1561282
loop_
_publ_author_name
'Yoshimura, Fumitaka'
'Yamane, Hisanori'
'Nagasako, Makoto'
_publ_section_title
;
 Synthesis, crystal structure, and luminescence properties of a new
 nitride polymorph, \b-Sr0.98Eu0.02AlSi4N7
;
_journal_name_full               'Journal of Solid State Chemistry'
_journal_page_first              664
_journal_page_last               673
_journal_paper_doi               10.1016/j.jssc.2017.11.037
_journal_volume                  258
_journal_year                    2018
_chemical_absolute_configuration ad
_chemical_formula_sum            'Al Eu0.02 N7 Si4 Sr0.98'
_chemical_formula_weight         326.96
_chemical_name_common
;
strontium europium aluminum silicon nitride
;
_space_group_crystal_system      monoclinic
_space_group_IT_number           4
_space_group_name_Hall           'P 2yb'
_space_group_name_H-M_alt        'P 1 21 1'
_audit_creation_method           'APEX3 v2016.9-0'
_cell_angle_alpha                90
_cell_angle_beta                 111.6550(5)
_cell_angle_gamma                90
_cell_formula_units_Z            4
_cell_length_a                   8.10620(10)
_cell_length_b                   9.09530(10)
_cell_length_c                   8.98020(10)
_cell_measurement_reflns_used    9778
_cell_measurement_temperature    300.(2)
_cell_measurement_theta_max      38.8790
_cell_measurement_theta_min      2.7035
_cell_volume                     615.366(12)
_computing_cell_refinement       'APEX3 v2015.9-0 (Bruker AXS)'
_computing_data_collection       'APEX3 v2015.9-0 (Bruker AXS)'
_computing_data_reduction        'APEX3 v2015.9-0 (Bruker AXS)'
_computing_molecular_graphics    'VESTA v3.3.2 (Momma & Izumi, 2011)'
_computing_structure_refinement  'SHELXL-2014/7 (Sheldrick, 2014)'
_computing_structure_solution    'SIR2004 (Burla et "al.," 2005)'
_diffrn_ambient_temperature      300.(2)
_diffrn_detector_area_resol_mean 7.4074
_diffrn_measured_fraction_theta_full 0.998
_diffrn_measured_fraction_theta_max 0.998
_diffrn_measurement_device_type  'Bruker D8 goniometer'
_diffrn_measurement_method       '\w, \f scans'
_diffrn_radiation_type           MoK\a
_diffrn_radiation_wavelength     0.71073
_diffrn_reflns_av_R_equivalents  0.0556
_diffrn_reflns_av_unetI/netI     0.0265
_diffrn_reflns_limit_h_max       13
_diffrn_reflns_limit_h_min       -13
_diffrn_reflns_limit_k_max       15
_diffrn_reflns_limit_k_min       -15
_diffrn_reflns_limit_l_max       14
_diffrn_reflns_limit_l_min       -14
_diffrn_reflns_number            5928
_diffrn_reflns_theta_full        36.32
_diffrn_reflns_theta_max         36.32
_diffrn_reflns_theta_min         2.44
_diffrn_source                   'micro focus sealed tube'
_exptl_absorpt_coefficient_mu    9.667
_exptl_absorpt_correction_T_max  0.82
_exptl_absorpt_correction_T_min  0.61
_exptl_absorpt_correction_type   multi-scan
_exptl_absorpt_process_details
'TWINABS - Bruker AXS scaling for twinned crystals - Version 2012/1'
_exptl_crystal_colour            yellow
_exptl_crystal_density_diffrn    3.529
_exptl_crystal_density_method    'not measured'
_exptl_crystal_description       thick-platelet
_exptl_crystal_F_000             627
_exptl_crystal_size_max          0.115
_exptl_crystal_size_mid          0.082
_exptl_crystal_size_min          0.021
_refine_diff_density_max         0.911
_refine_diff_density_min         -0.740
_refine_ls_abs_structure_details
;

Flack x determined using 2540 quotients [(I+)-(I-)]/[(I+)+(I-)]
(Parsons, Flack and Wagner, Acta Cryst. B69 (2013) 249-259).
;
_refine_ls_abs_structure_Flack   0.065(8)
_refine_ls_extinction_coef       0.0065(11)
_refine_ls_extinction_method     'SHELXL-2014/7 (Sheldrick 2014'
_refine_ls_goodness_of_fit_ref   1.076
_refine_ls_hydrogen_treatment    undef
_refine_ls_matrix_type           full
_refine_ls_number_parameters     239
_refine_ls_number_reflns         5928
_refine_ls_number_restraints     1
_refine_ls_restrained_S_all      1.076
_refine_ls_R_factor_all          0.0297
_refine_ls_R_factor_gt           0.0277
_refine_ls_shift/su_max          0.000
_refine_ls_shift/su_mean         0.000
_refine_ls_structure_factor_coef Fsqd
_refine_ls_weighting_details
'w=1/[\s^2^(Fo^2^)+(0.0208P)^2^+2.2406P] where P=(Fo^2^+2Fc^2^)/3'
_refine_ls_weighting_scheme      calc
_refine_ls_wR_factor_gt          0.0685
_refine_ls_wR_factor_ref         0.0694
_reflns_number_gt                5647
_reflns_number_total             5928
_reflns_threshold_expression     'I > 2\s(I)'
_cod_data_source_file            mmc3.cif
_cod_data_source_block           Sr1147green
_cod_depositor_comments
;
The following automatic conversions were performed:

data item '_exptl_absorpt_correction_type' value 'Multi-Scan' was
changed to 'multi-scan' in accordance with the built-in table derived
from the CIF Core dictionary named 'cif_core.dic' version 2.4.5 last
updated on 2014-11-21.

Automatic conversion script
Id: cif_fix_values 8369 2020-08-20 11:38:08Z andrius 
;
_cod_database_code               1561282
_shelx_res_file
;


    Sr1147toPaper_0m_5.res created by SHELXL-2014/7


TITL Sr1147_green_c.res in Pc
REM Old TITL Sr1147_green in P2(1)

REM SHELXT solution in Pc
REM R1 0.123,  Rweak 0.017,  Alpha 0.045,  Orientation as input
REM Flack x =  0.490 ( 0.009 ) from Parsons' quotients
REM Formula found by SHELXT:  N5 Al4 Si9 Sr5 Eu2

CELL 0.71073   8.10620   9.09530   8.98020  90.0000 111.6550  90.0000
ZERR    4.00   0.00010   0.00010   0.00010   0.0000   0.0005   0.0000
LATT -1
SYMM -X,1/2+Y,-Z
SFAC N  Al SI  SR Eu
UNIT 28 4  16  3.93  0.07
LIST 6 ! automatically inserted. Change 6 to 4 for CHECKCIF!!
TEMP 27
SIZE 0.021 0.082 0.115
L.S.      30
acta
shel 30.0 0.60
rem    -6  -2  -9         47.77        471.46      12.50       0.105       0.64
rem     8 -10  -1        354.69        115.40       9.13       0.052       0.67
rem     6   2   9         42.15        465.81      13.02       0.104       0.64
rem    -5  -2  -9        353.80        839.29      10.04       0.140       0.68

omit -5 -2 -9
omit 5 2 9
omit 6 2 9
omit -6 -2 -9
omit 8 -10 -1

EXYZ  AL1 SI1
EADP  AL1 SI1
EXYZ  AL2 SI2
EADP  AL2 SI2
EXYZ  AL3 SI3
EADP  AL3 SI3
EXYZ  AL4 SI4
EADP  AL4 SI4
EXYZ  AL5 SI5
EADP  AL5 SI5
EXYZ  AL6 SI6
EADP  AL6 SI6
EXYZ  AL7 SI7
EADP  AL7 SI7
EXYZ  AL8 SI8
EADP  AL8 SI8
EXYZ  AL9 SI9
EADP  AL9 SI9
EXYZ  AL10 SI10
EADP  AL10 SI10
WGHT    0.020800    2.240600
EXTI    0.006467
BASF   0.63099
FVAR       0.48562   0.98593   0.97911
SR1   4    0.240678    0.796815    0.033842    21.00000    0.00671    0.00841 =
         0.00856   -0.00317    0.00349   -0.00135
EU1   5    0.240678    0.796815    0.033842   -21.00000    0.00671    0.00841 =
         0.00856   -0.00317    0.00349   -0.00135
SR2   4    0.768298    0.332566    0.465674    31.00000    0.00648    0.00737 =
         0.00766   -0.00202    0.00215   -0.00070

EU2   5    0.768298    0.332566    0.465674   -31.00000    0.00648    0.00737 =
         0.00766   -0.00202    0.00215   -0.00070
EXYZ SR1 Eu1
EADP SR1 Eu1

EXYZ SR2 Eu2
EADP SR2 Eu2

SI1   3    0.122093    0.165952    0.373741    10.80000    0.00422    0.00454 =
         0.00391    0.00005    0.00165   -0.00029
AL1   2    0.122093    0.165952    0.373741    10.20000    0.00422    0.00454 =
         0.00391    0.00005    0.00165   -0.00029
SI2   3    0.133425    0.159113    0.711435    10.80000    0.00439    0.00392 =
         0.00415    0.00034    0.00169    0.00022
AL2   2    0.133425    0.159113    0.711435    10.20000    0.00439    0.00392 =
         0.00415    0.00034    0.00169    0.00022
SI3   3    0.135329    0.452660    0.875634    10.80000    0.00445    0.00368 =
         0.00389    0.00027    0.00166   -0.00033
AL3   2    0.135329    0.452660    0.875634    10.20000    0.00445    0.00368 =
         0.00389    0.00027    0.00166   -0.00033
SI4   3    0.136174    0.152783    0.046601    10.80000    0.00421    0.00417 =
         0.00436    0.00022    0.00171    0.00017
AL4   2    0.136174    0.152783    0.046601    10.20000    0.00421    0.00417 =
         0.00436    0.00022    0.00171    0.00017
SI5   3    0.145361    0.456511    0.215026    10.80000    0.00536    0.00459 =
         0.00439    0.00025    0.00212    0.00050
AL5   2    0.145361    0.456511    0.215026    10.20000    0.00536    0.00459 =
         0.00439    0.00025    0.00212    0.00050
SI6   3    0.149556    0.464424    0.552511    10.80000    0.00417    0.00339 =
         0.00343   -0.00013    0.00135   -0.00003
AL6   2    0.149556    0.464424    0.552511    10.20000    0.00417    0.00339 =
         0.00343   -0.00013    0.00135   -0.00003
SI7   3    0.438817    0.000236    0.339016    10.80000    0.00383    0.00255 =
         0.00410   -0.00125    0.00171   -0.00045
AL7   2    0.438817    0.000236    0.339016    10.20000    0.00383    0.00255 =
         0.00410   -0.00125    0.00171   -0.00045
SI8   3    0.483677    0.156729    0.639316    10.80000    0.00449    0.00286 =
         0.00324   -0.00028    0.00066    0.00004
AL8   2    0.483677    0.156729    0.639316    10.20000    0.00449    0.00286 =
         0.00324   -0.00028    0.00066    0.00004
SI9   3    0.487133    0.479471    0.140650    10.80000    0.00341    0.00304 =
         0.00424   -0.00029    0.00124    0.00055
AL9   2    0.487133    0.479471    0.140650    10.20000    0.00341    0.00304 =
         0.00424   -0.00029    0.00124    0.00055
SI10  3    0.557976    0.133894    0.162930    10.80000    0.00343    0.00406 =
         0.00403    0.00071    0.00160    0.00011
AL10  2    0.557976    0.133894    0.162930    10.20000    0.00343    0.00406 =
         0.00403    0.00071    0.00160    0.00011
N1    1    0.017601    0.101135    0.171550    11.00000    0.00890    0.00925 =
         0.00803    0.00055    0.00447   -0.00053
N2    1    0.020196    0.099365    0.507430    11.00000    0.00741    0.00622 =
         0.00852    0.00052    0.00354   -0.00110
N3    1    0.036167    0.087074    0.845911    11.00000    0.01213    0.00788 =
         0.00985   -0.00224    0.00468   -0.00234
N4    1    0.104363    0.354139    0.698309    11.00000    0.00857    0.00626 =
         0.00748    0.00007    0.00243    0.00054
N5    1    0.115992    0.347610    0.035810    11.00000    0.00695    0.00900 =
         0.00773    0.00058    0.00247   -0.00069
N6    1    0.123940    0.359492    0.381071    11.00000    0.00866    0.00802 =
         0.00892    0.00051    0.00290    0.00137
N7    1    0.343281    0.096210    0.450838    11.00000    0.00602    0.00973 =
         0.00542   -0.00217    0.00331    0.00265
N8    1    0.346797    0.070759    0.139081    11.00000    0.00453    0.00845 =
         0.00555    0.00002    0.00176   -0.00053
N9    1    0.360843    0.119863    0.764969    11.00000    0.00657    0.00736 =
         0.00675    0.00259    0.00277    0.00331
N10   1    0.363521    0.522310    0.261251    11.00000    0.00703    0.00942 =
         0.00855   -0.00319    0.00550   -0.00130
N11   1    0.589222    0.318275    0.652620    11.00000    0.00925    0.00328 =
         0.00931    0.00000    0.00384   -0.00105
N12   1    0.588801    0.315481    0.155479    11.00000    0.00725    0.00446 =
         0.00990    0.00105    0.00336    0.00209
N13   1    0.649557    0.035328    0.048724    11.00000    0.00541    0.00499 =
         0.00446   -0.00101   -0.00007   -0.00029
N14   1    0.649847    0.063252    0.363363    11.00000    0.00457    0.00881 =
         0.00581    0.00124    0.00149   -0.00187
HKLF      5  1.0 -1 0 0 0 -1 0 0 0 -1

REM  Sr1147_green_c.res in Pc
REM R1 =  0.0277 for    5647 Fo > 4sig(Fo)  and  0.0297 for all    5928 data
REM    239 parameters refined using      1 restraints

END

WGHT      0.0211      2.2210

REM Highest difference peak  0.911,  deepest hole -0.740,  1-sigma level  0.166
Q1    1   0.7588  0.2950  0.5694  11.00000  0.05    0.91
Q2    1   0.7520  0.3330  0.3805  11.00000  0.05    0.89
Q3    1   0.2332  0.8264  0.1169  11.00000  0.05    0.88
Q4    1   0.1410  0.7569  0.0399  11.00000  0.05    0.79
Q5    1   0.3459  0.7816  0.0117  11.00000  0.05    0.76
Q6    1   0.8793  0.3675  0.4568  11.00000  0.05    0.76
Q7    1   0.7778  0.3351  0.2137  11.00000  0.05    0.73
Q8    1   0.2375  0.8307 -0.0616  11.00000  0.05    0.69
Q9    1   0.4367  0.0954  0.1351  11.00000  0.05    0.68
Q10   1   0.2607  0.1034  0.0786  11.00000  0.05    0.61
Q11   1   0.1605  0.4030  0.4757  11.00000  0.05    0.61
Q12   1  -0.0017  0.1367  0.1016  11.00000  0.05    0.60
Q13   1   0.4082  0.1183  0.5319  11.00000  0.05    0.60
Q14   1   0.7897  0.3910  0.5565  11.00000  0.05    0.60
Q15   1   0.1144  0.8188  0.0249  11.00000  0.05    0.60
Q16   1   0.6645  0.3491  0.4579  11.00000  0.05    0.58
Q17   1   0.3795  0.1166  0.3428  11.00000  0.05    0.57
Q18   1   0.3973  0.1686  0.7068  11.00000  0.05    0.57
Q19   1   0.3766  0.0493  0.3988  11.00000  0.05    0.56
Q20   1   0.0652  0.5326  0.5942  11.00000  0.05    0.56
;
_shelx_res_checksum              66386
_shelx_hkl_file
;
   1   0   0 24.8055 0.46670  -1
   1   0   0 24.8055 0.46670   2
   2   0   0 388.072 5.04295  -1
   2   0   0 388.072 5.04295   2
   3   0   0 2766.56 110.297  -1
   3   0   0 2766.56 110.297   2
   4   0   0 86.5417 1.76785  -1
   4   0   0 86.5417 1.76785   2
   5   0   0 13.8031 0.79783  -1
   5   0   0 13.8031 0.79783   2
   6   0   0 94.7490 2.59678  -1
   6   0   0 94.7490 2.59678   2
   7   0   0 126.686 3.17040  -1
   7   0   0 126.686 3.17040   2
   8   0   0 2656.88 53.7088  -1
   8   0   0 2656.88 53.7088   2
   9   0   0 967.424 22.7969  -1
   9   0   0 967.424 22.7969   2
  10   0   0 1132.67 22.5993  -1
  10   0   0 1132.67 22.5993   2
  11   0   0 922.206 16.4972  -1
  11   0   0 922.206 16.4972   2
  12   0   0 8.50022 2.51327  -1
  12   0   0 8.50022 2.51327   2
  13   0   0 42.0941 4.40525  -1
  13   0   0 42.0941 4.40525   2
   0  -1   0 0.13282 0.22953  -1
   0   1   0 0.13282 0.22953   2
   0   1   0 0.09303 0.21874  -1
   0  -1   0 0.09303 0.21874   2
  -1  -1   0 677.303 29.3121  -1
   1   1   0 677.303 29.3121   2
   1   1   0 688.389 19.0558  -1
  -1  -1   0 688.389 19.0558   2
  -2  -1   0 2540.16 97.7729  -1
   2   1   0 2540.16 97.7729   2
   2   1   0 2658.51 98.2125  -1
  -2  -1   0 2658.51 98.2125   2
  -3  -1   0 4689.52 245.763  -1
   3   1   0 4689.52 245.763   2
   3   1   0 4732.08 173.726  -1
  -3  -1   0 4732.08 173.726   2
  -4  -1   0 627.326 7.79773  -1
   4   1   0 627.326 7.79773   2
   4   1   0 564.266 7.71080  -1
  -4  -1   0 564.266 7.71080   2
  -5  -1   0 4747.97 89.9034  -1
   5   1   0 4747.97 89.9034   2
   5   1   0 4907.69 106.207  -1
  -5  -1   0 4907.69 106.207   2
  -6  -1   0 1766.38 31.4600  -1
   6   1   0 1766.38 31.4600   2
   6   1   0 1762.48 24.5096  -1
  -6  -1   0 1762.48 24.5096   2
  -7  -1   0 493.716 9.68786  -1
   7   1   0 493.716 9.68786   2
   7   1   0 530.913 10.9317  -1
  -7  -1   0 530.913 10.9317   2
  -8  -1   0 410.732 11.1823  -1
   8   1   0 410.732 11.1823   2
   8   1   0 422.593 11.2590  -1
  -8  -1   0 422.593 11.2590   2
  -9  -1   0 37.0228 2.21747  -1
   9   1   0 37.0228 2.21747   2
   9   1   0 40.4864 3.11984  -1
  -9  -1   0 40.4864 3.11984   2
 -10  -1   0 224.743 5.77116  -1
  10   1   0 224.743 5.77116   2
  10   1   0 320.332 10.3768  -1
 -10  -1   0 320.332 10.3768   2
 -11  -1   0 433.843 8.05123  -1
  11   1   0 433.843 8.05123   2
  11   1   0 396.715 10.9798  -1
 -11  -1   0 396.715 10.9798   2
 -12  -1   0 75.4230 6.44727  -1
  12   1   0 75.4230 6.44727   2
  12   1   0 47.1466 3.68807  -1
 -12  -1   0 47.1466 3.68807   2
 -13  -1   0 73.1659 4.56959  -1
  13   1   0 73.1659 4.56959   2
  13   1   0 81.7646 7.09509  -1
 -13  -1   0 81.7646 7.09509   2
   0  -2   0 52.3164 1.23216  -1
   0   2   0 52.3164 1.23216   2
  -1  -2   0 449.913 5.54640  -1
   1   2   0 449.913 5.54640   2
   1   2   0 451.445 5.31122  -1
  -1  -2   0 451.445 5.31122   2
  -2  -2   0 4736.22 171.340  -1
   2   2   0 4736.22 171.340   2
   2   2   0 4896.69 171.702  -1
  -2  -2   0 4896.69 171.702   2
  -3  -2   0 760.184 9.72204  -1
   3   2   0 760.184 9.72204   2
   3   2   0 808.810 10.3887  -1
  -3  -2   0 808.810 10.3887   2
  -4  -2   0 2070.21 24.5396  -1
   4   2   0 2070.21 24.5396   2
   4   2   0 1971.25 27.2796  -1
  -4  -2   0 1971.25 27.2796   2
  -5  -2   0 338.729 4.51525  -1
   5   2   0 338.729 4.51525   2
   5   2   0 355.562 4.96697  -1
  -5  -2   0 355.562 4.96697   2
  -6  -2   0 2738.15 33.9778  -1
   6   2   0 2738.15 33.9778   2
   6   2   0 2610.15 36.3805  -1
  -6  -2   0 2610.15 36.3805   2
  -7  -2   0 413.515 8.17002  -1
   7   2   0 413.515 8.17002   2
   7   2   0 378.298 7.88077  -1
  -7  -2   0 378.298 7.88077   2
  -8  -2   0 314.135 5.94178  -1
   8   2   0 314.135 5.94178   2
   8   2   0 285.100 5.74081  -1
  -8  -2   0 285.100 5.74081   2
  -9  -2   0 233.267 5.28537  -1
   9   2   0 233.267 5.28537   2
   9   2   0 215.078 42.4916  -1
  -9  -2   0 215.078 42.4916   2
 -10  -2   0 13.5753 1.33573  -1
  10   2   0 13.5753 1.33573   2
  10   2   0 39.4980 4.97873  -1
 -10  -2   0 39.4980 4.97873   2
 -11  -2   0 298.109 7.42092  -1
  11   2   0 298.109 7.42092   2
  11   2   0 307.611 8.98304  -1
 -11  -2   0 307.611 8.98304   2
 -12  -2   0 110.060 6.01030  -1
  12   2   0 110.060 6.01030   2
  12   2   0 134.784 5.05453  -1
 -12  -2   0 134.784 5.05453   2
 -13  -2   0 223.963 7.52779  -1
  13   2   0 223.963 7.52779   2
   0  -3   0 1.66403 0.24767  -1
   0   3   0 1.66403 0.24767   2
   0   3   0 0.01844 0.24658  -1
   0  -3   0 0.01844 0.24658   2
  -1  -3   0 9999.99 326.841  -1
   1   3   0 9999.99 326.841   2
   1   3   0 9091.13 324.768  -1
  -1  -3   0 9091.13 324.768   2
  -2  -3   0 1840.09 40.2096  -1
   2   3   0 1840.09 40.2096   2
   2   3   0 1714.83 29.4804  -1
  -2  -3   0 1714.83 29.4804   2
  -3  -3   0 605.010 9.83704  -1
   3   3   0 605.010 9.83704   2
   3   3   0 760.020 7.70387  -1
  -3  -3   0 760.020 7.70387   2
  -4  -3   0 313.900 5.46044  -1
   4   3   0 313.900 5.46044   2
   4   3   0 322.800 4.09867  -1
  -4  -3   0 322.800 4.09867   2
  -5  -3   0 54.9054 1.37029  -1
   5   3   0 54.9054 1.37029   2
   5   3   0 76.1382 3.28751  -1
  -5  -3   0 76.1382 3.28751   2
  -6  -3   0 26.6567 10.4761  -1
   6   3   0 26.6567 10.4761   2
   6   3   0 51.6093 1.48754  -1
  -6  -3   0 51.6093 1.48754   2
  -7  -3   0 752.827 11.5155  -1
   7   3   0 752.827 11.5155   2
   7   3   0 764.067 12.5094  -1
  -7  -3   0 764.067 12.5094   2
  -8  -3   0 138.332 39.3445  -1
   8   3   0 138.332 39.3445   2
   8   3   0 141.153 3.51105  -1
  -8  -3   0 141.153 3.51105   2
  -9  -3   0 2389.25 39.3286  -1
   9   3   0 2389.25 39.3286   2
   9   3   0 2397.24 39.7255  -1
  -9  -3   0 2397.24 39.7255   2
 -10  -3   0 448.883 9.31372  -1
  10   3   0 448.883 9.31372   2
  10   3   0 393.757 10.2116  -1
 -10  -3   0 393.757 10.2116   2
 -11  -3   0 16.0632 2.21774  -1
  11   3   0 16.0632 2.21774   2
  11   3   0 9.44913 2.45862  -1
 -11  -3   0 9.44913 2.45862   2
 -12  -3   0 1036.73 20.6821  -1
  12   3   0 1036.73 20.6821   2
  12   3   0 996.749 25.4598  -1
 -12  -3   0 996.749 25.4598   2
 -13  -3   0 29.1571 4.74956  -1
  13   3   0 29.1571 4.74956   2
   0  -4   0 1818.08 39.5734  -1
   0   4   0 1818.08 39.5734   2
  -1  -4   0 696.090 8.67091  -1
   1   4   0 696.090 8.67091   2
   1   4   0 721.666 9.13411  -1
  -1  -4   0 721.666 9.13411   2
  -2  -4   0 1992.25 27.9167  -1
   2   4   0 1992.25 27.9167   2
   2   4   0 1863.17 22.4069  -1
  -2  -4   0 1863.17 22.4069   2
  -3  -4   0 2107.34 28.8206  -1
   3   4   0 2107.34 28.8206   2
   3   4   0 2184.62 24.3422  -1
  -3  -4   0 2184.62 24.3422   2
  -4  -4   0 2451.48 30.1104  -1
   4   4   0 2451.48 30.1104   2
   4   4   0 2324.11 29.6256  -1
  -4  -4   0 2324.11 29.6256   2
  -5  -4   0 1485.98 21.0580  -1
   5   4   0 1485.98 21.0580   2
   5   4   0 1347.41 15.5508  -1
  -5  -4   0 1347.41 15.5508   2
  -6  -4   0 1698.43 25.0570  -1
   6   4   0 1698.43 25.0570   2
   6   4   0 1652.96 22.1268  -1
  -6  -4   0 1652.96 22.1268   2
  -7  -4   0 1424.06 23.1143  -1
   7   4   0 1424.06 23.1143   2
   7   4   0 1322.90 19.6519  -1
  -7  -4   0 1322.90 19.6519   2
  -8  -4   0 32.4780 27.5626  -1
   8   4   0 32.4780 27.5626   2
   8   4   0 97.8503 2.99245  -1
  -8  -4   0 97.8503 2.99245   2
  -9  -4   0 540.176 13.2193  -1
   9   4   0 540.176 13.2193   2
   9   4   0 658.568 10.7797  -1
  -9  -4   0 658.568 10.7797   2
 -10  -4   0 63.1533 3.69446  -1
  10   4   0 63.1533 3.69446   2
  10   4   0 42.0197 2.87922  -1
 -10  -4   0 42.0197 2.87922   2
  11   4   0 31.0353 2.60055  -1
 -11  -4   0 31.0353 2.60055   2
 -12  -4   0 257.446 9.19498  -1
  12   4   0 257.446 9.19498   2
  12   4   0 237.952 10.2709  -1
 -12  -4   0 237.952 10.2709   2
   0  -5   0 -0.2766 0.37664  -1
   0   5   0 -0.2766 0.37664   2
   0   5   0 0.27347 0.51634  -1
   0  -5   0 0.27347 0.51634   2
  -1  -5   0 1338.50 19.1851  -1
   1   5   0 1338.50 19.1851   2
   1   5   0 1272.47 18.9052  -1
  -1  -5   0 1272.47 18.9052   2
  -2  -5   0 27.4582 2.23170  -1
   2   5   0 27.4582 2.23170   2
   2   5   0 20.5880 0.74642  -1
  -2  -5   0 20.5880 0.74642   2
  -3  -5   0 810.607 11.5497  -1
   3   5   0 810.607 11.5497   2
   3   5   0 915.981 10.2554  -1
  -3  -5   0 915.981 10.2554   2
  -4  -5   0 1168.21 19.1082  -1
   4   5   0 1168.21 19.1082   2
   4   5   0 1162.66 16.4929  -1
  -4  -5   0 1162.66 16.4929   2
  -5  -5   0 1619.46 26.4007  -1
   5   5   0 1619.46 26.4007   2
   5   5   0 1668.60 24.3094  -1
  -5  -5   0 1668.60 24.3094   2
  -6  -5   0 114.736 3.09563  -1
   6   5   0 114.736 3.09563   2
   6   5   0 206.318 32.9442  -1
  -6  -5   0 206.318 32.9442   2
  -7  -5   0 796.599 11.9914  -1
   7   5   0 796.599 11.9914   2
   7   5   0 633.045 10.8674  -1
  -7  -5   0 633.045 10.8674   2
  -8  -5   0 164.593 36.9769  -1
   8   5   0 164.593 36.9769   2
   8   5   0 112.371 3.73358  -1
  -8  -5   0 112.371 3.73358   2
  -9  -5   0 29.8634 2.13689  -1
   9   5   0 29.8634 2.13689   2
   9   5   0 7.32083 1.55960  -1
  -9  -5   0 7.32083 1.55960   2
 -10  -5   0 343.462 8.89309  -1
  10   5   0 343.462 8.89309   2
  10   5   0 312.549 8.12931  -1
 -10  -5   0 312.549 8.12931   2
 -11  -5   0 267.837 7.36642  -1
  11   5   0 267.837 7.36642   2
  11   5   0 338.840 13.3641  -1
 -11  -5   0 338.840 13.3641   2
 -12  -5   0 149.579 6.52314  -1
  12   5   0 149.579 6.52314   2
  12   5   0 168.703 11.2475  -1
 -12  -5   0 168.703 11.2475   2
   0  -6   0 7829.19 280.061  -1
   0   6   0 7829.19 280.061   2
  -1  -6   0 86.7071 1.70030  -1
   1   6   0 86.7071 1.70030   2
   1   6   0 80.7266 1.66844  -1
  -1  -6   0 80.7266 1.66844   2
  -2  -6   0 179.717 2.94201  -1
   2   6   0 179.717 2.94201   2
   2   6   0 169.135 2.71598  -1
  -2  -6   0 169.135 2.71598   2
  -3  -6   0 3366.89 47.7431  -1
   3   6   0 3366.89 47.7431   2
   3   6   0 3301.71 38.3230  -1
  -3  -6   0 3301.71 38.3230   2
  -4  -6   0 188.368 3.68915  -1
   4   6   0 188.368 3.68915   2
   4   6   0 136.563 2.92519  -1
  -4  -6   0 136.563 2.92519   2
  -5  -6   0 83.6207 17.8105  -1
   5   6   0 83.6207 17.8105   2
   5   6   0 41.6860 1.79380  -1
  -5  -6   0 41.6860 1.79380   2
  -6  -6   0 304.917 6.75086  -1
   6   6   0 304.917 6.75086   2
   6   6   0 370.960 7.06795  -1
  -6  -6   0 370.960 7.06795   2
  -7  -6   0 199.192 7.03862  -1
   7   6   0 199.192 7.03862   2
   7   6   0 260.911 5.60246  -1
  -7  -6   0 260.911 5.60246   2
  -8  -6   0 788.111 14.5141  -1
   8   6   0 788.111 14.5141   2
   8   6   0 770.807 13.0402  -1
  -8  -6   0 770.807 13.0402   2
  -9  -6   0 256.508 6.79394  -1
   9   6   0 256.508 6.79394   2
   9   6   0 242.116 7.56818  -1
  -9  -6   0 242.116 7.56818   2
 -10  -6   0 306.204 7.28057  -1
  10   6   0 306.204 7.28057   2
  10   6   0 254.009 7.38172  -1
 -10  -6   0 254.009 7.38172   2
 -11  -6   0 613.083 15.1050  -1
  11   6   0 613.083 15.1050   2
  11   6   0 586.607 22.0374  -1
 -11  -6   0 586.607 22.0374   2
  12   6   0 15.5783 5.49403  -1
 -12  -6   0 15.5783 5.49403   2
   0  -7   0 1.37745 0.50168  -1
   0   7   0 1.37745 0.50168   2
   0   7   0 0.64274 0.76026  -1
   0  -7   0 0.64274 0.76026   2
  -1  -7   0 81.5113 1.98571  -1
   1   7   0 81.5113 1.98571   2
  -2  -7   0 1235.33 16.1284  -1
   2   7   0 1235.33 16.1284   2
   2   7   0 1257.56 17.0234  -1
  -2  -7   0 1257.56 17.0234   2
  -3  -7   0 1414.59 22.5948  -1
   3   7   0 1414.59 22.5948   2
   3   7   0 1378.46 17.5867  -1
  -3  -7   0 1378.46 17.5867   2
  -4  -7   0 147.562 5.53699  -1
   4   7   0 147.562 5.53699   2
   4   7   0 162.501 3.25295  -1
  -4  -7   0 162.501 3.25295   2
  -5  -7   0 1497.90 24.3944  -1
   5   7   0 1497.90 24.3944   2
   5   7   0 1463.85 26.6843  -1
  -5  -7   0 1463.85 26.6843   2
  -6  -7   0 2084.07 30.2684  -1
   6   7   0 2084.07 30.2684   2
   6   7   0 1943.67 32.4145  -1
  -6  -7   0 1943.67 32.4145   2
  -7  -7   0 168.377 4.33923  -1
   7   7   0 168.377 4.33923   2
   7   7   0 165.595 4.39779  -1
  -7  -7   0 165.595 4.39779   2
  -8  -7   0 357.381 6.98427  -1
   8   7   0 357.381 6.98427   2
   8   7   0 271.168 7.47848  -1
  -8  -7   0 271.168 7.47848   2
  -9  -7   0 39.1953 2.66590  -1
   9   7   0 39.1953 2.66590   2
   9   7   0 49.3516 2.92253  -1
  -9  -7   0 49.3516 2.92253   2
 -10  -7   0 52.4550 3.86012  -1
  10   7   0 52.4550 3.86012   2
  10   7   0 83.3131 4.99869  -1
 -10  -7   0 83.3131 4.99869   2
 -11  -7   0 56.6634 6.08885  -1
  11   7   0 56.6634 6.08885   2
  11   7   0 74.9547 7.37019  -1
 -11  -7   0 74.9547 7.37019   2
   0  -8   0 416.264 10.7390  -1
   0   8   0 416.264 10.7390   2
   0   8   0 505.991 11.7343  -1
   0  -8   0 505.991 11.7343   2
  -1  -8   0 407.850 6.41467  -1
   1   8   0 407.850 6.41467   2
   1   8   0 408.635 7.02721  -1
  -1  -8   0 408.635 7.02721   2
  -2  -8   0 1162.88 16.7681  -1
   2   8   0 1162.88 16.7681   2
   2   8   0 1152.97 16.2903  -1
  -2  -8   0 1152.97 16.2903   2
  -3  -8   0 26.1390 1.28623  -1
   3   8   0 26.1390 1.28623   2
   3   8   0 18.2435 1.05695  -1
  -3  -8   0 18.2435 1.05695   2
  -4  -8   0 20.4447 8.83483  -1
   4   8   0 20.4447 8.83483   2
   4   8   0 54.0078 1.76791  -1
  -4  -8   0 54.0078 1.76791   2
  -5  -8   0 113.263 3.32551  -1
   5   8   0 113.263 3.32551   2
   5   8   0 135.041 4.27656  -1
  -5  -8   0 135.041 4.27656   2
   6   8   0 83.1612 3.66962  -1
  -6  -8   0 83.1612 3.66962   2
  -7  -8   0 68.7061 2.26637  -1
   7   8   0 68.7061 2.26637   2
   7   8   0 50.0572 3.23484  -1
  -7  -8   0 50.0572 3.23484   2
  -8  -8   0 326.448 8.05586  -1
   8   8   0 326.448 8.05586   2
   8   8   0 319.607 7.66971  -1
  -8  -8   0 319.607 7.66971   2
  -9  -8   0 19.4512 2.53754  -1
   9   8   0 19.4512 2.53754   2
   9   8   0 10.3474 2.07081  -1
  -9  -8   0 10.3474 2.07081   2
 -10  -8   0 49.2394 4.08354  -1
  10   8   0 49.2394 4.08354   2
  10   8   0 50.3643 4.49305  -1
 -10  -8   0 50.3643 4.49305   2
 -11  -8   0 291.878 17.3264  -1
  11   8   0 291.878 17.3264   2
  11   8   0 241.177 17.5053  -1
 -11  -8   0 241.177 17.5053   2
   0  -9   0 -1.8075 1.09386  -1
   0   9   0 -1.8075 1.09386   2
   0   9   0 0.84089 0.96478  -1
   0  -9   0 0.84089 0.96478   2
  -1  -9   0 832.800 12.4700  -1
   1   9   0 832.800 12.4700   2
   1   9   0 749.023 15.9489  -1
  -1  -9   0 749.023 15.9489   2
  -2  -9   0 677.887 9.78905  -1
   2   9   0 677.887 9.78905   2
   2   9   0 628.250 9.68779  -1
  -2  -9   0 628.250 9.68779   2
  -3  -9   0 87.1993 3.27344  -1
   3   9   0 87.1993 3.27344   2
   3   9   0 100.997 2.29446  -1
  -3  -9   0 100.997 2.29446   2
  -4  -9   0 200.466 4.00123  -1
   4   9   0 200.466 4.00123   2
   4   9   0 171.240 4.31021  -1
  -4  -9   0 171.240 4.31021   2
  -5  -9   0 41.4847 2.08920  -1
   5   9   0 41.4847 2.08920   2
   5   9   0 96.9771 24.7993  -1
  -5  -9   0 96.9771 24.7993   2
  -6  -9   0 123.648 3.73230  -1
   6   9   0 123.648 3.73230   2
   6   9   0 164.069 5.09053  -1
  -6  -9   0 164.069 5.09053   2
  -7  -9   0 343.824 8.02479  -1
   7   9   0 343.824 8.02479   2
   7   9   0 331.900 8.25487  -1
  -7  -9   0 331.900 8.25487   2
  -8  -9   0 105.460 4.27773  -1
   8   9   0 105.460 4.27773   2
   8   9   0 127.800 4.42676  -1
  -8  -9   0 127.800 4.42676   2
  -9  -9   0 212.346 7.01023  -1
   9   9   0 212.346 7.01023   2
   9   9   0 197.927 6.02426  -1
  -9  -9   0 197.927 6.02426   2
 -10  -9   0 39.8582 4.17844  -1
  10   9   0 39.8582 4.17844   2
  10   9   0 33.2842 4.44530  -1
 -10  -9   0 33.2842 4.44530   2
 -11  -9   0 67.6365 6.37506  -1
  11   9   0 67.6365 6.37506   2
   0 -10   0 300.145 10.4458  -1
   0  10   0 300.145 10.4458   2
   0  10   0 382.392 9.70651  -1
   0 -10   0 382.392 9.70651   2
  -1 -10   0 341.991 7.83934  -1
   1  10   0 341.991 7.83934   2
   1  10   0 345.033 6.46326  -1
  -1 -10   0 345.033 6.46326   2
  -2 -10   0 93.4648 2.74996  -1
   2  10   0 93.4648 2.74996   2
   2  10   0 132.778 3.52919  -1
  -2 -10   0 132.778 3.52919   2
  -3 -10   0 855.216 15.0112  -1
   3  10   0 855.216 15.0112   2
   3  10   0 881.454 13.8763  -1
  -3 -10   0 881.454 13.8763   2
  -4 -10   0 1083.92 17.3550  -1
   4  10   0 1083.92 17.3550   2
   4  10   0 957.321 17.7174  -1
  -4 -10   0 957.321 17.7174   2
  -5 -10   0 833.789 15.7785  -1
   5  10   0 833.789 15.7785   2
   5  10   0 711.841 15.1888  -1
  -5 -10   0 711.841 15.1888   2
  -6 -10   0 599.451 11.7478  -1
   6  10   0 599.451 11.7478   2
   6  10   0 573.959 14.3635  -1
  -6 -10   0 573.959 14.3635   2
  -7 -10   0 252.655 5.79480  -1
   7  10   0 252.655 5.79480   2
   7  10   0 174.455 6.16881  -1
  -7 -10   0 174.455 6.16881   2
  -8 -10   0 203.481 6.08221  -1
   8  10   0 203.481 6.08221   2
   8  10   0 182.460 6.53773  -1
  -8 -10   0 182.460 6.53773   2
  -9 -10   0 79.0014 4.71064  -1
   9  10   0 79.0014 4.71064   2
   9  10   0 83.6057 5.40185  -1
  -9 -10   0 83.6057 5.40185   2
 -10 -10   0 5.46117 4.72338  -1
  10  10   0 5.46117 4.72338   2
  10  10   0 6.47132 4.85393  -1
 -10 -10   0 6.47132 4.85393   2
   0 -11   0 4.84208 1.63249  -1
   0  11   0 4.84208 1.63249   2
   0  11   0 2.18546 1.71325  -1
   0 -11   0 2.18546 1.71325   2
  -1 -11   0 869.441 16.3807  -1
   1  11   0 869.441 16.3807   2
   1  11   0 818.218 14.1199  -1
  -1 -11   0 818.218 14.1199   2
  -2 -11   0 165.568 3.93631  -1
   2  11   0 165.568 3.93631   2
   2  11   0 132.989 3.95781  -1
  -2 -11   0 132.989 3.95781   2
  -3 -11   0 212.335 5.25738  -1
   3  11   0 212.335 5.25738   2
   3  11   0 227.804 6.21224  -1
  -3 -11   0 227.804 6.21224   2
  -4 -11   0 190.687 5.34913  -1
   4  11   0 190.687 5.34913   2
   4  11   0 163.406 4.38458  -1
  -4 -11   0 163.406 4.38458   2
  -5 -11   0 22.5848 1.64348  -1
   5  11   0 22.5848 1.64348   2
   5  11   0 35.1152 4.19407  -1
  -5 -11   0 35.1152 4.19407   2
  -6 -11   0 190.995 4.92024  -1
   6  11   0 190.995 4.92024   2
   6  11   0 218.410 6.42207  -1
  -6 -11   0 218.410 6.42207   2
  -7 -11   0 101.659 4.20002  -1
   7  11   0 101.659 4.20002   2
   7  11   0 86.9337 4.42667  -1
  -7 -11   0 86.9337 4.42667   2
  -8 -11   0 4.39419 2.55801  -1
   8  11   0 4.39419 2.55801   2
   8  11   0 2.91800 2.19498  -1
  -8 -11   0 2.91800 2.19498   2
  -9 -11   0 117.526 6.76804  -1
   9  11   0 117.526 6.76804   2
   9  11   0 119.564 7.29118  -1
  -9 -11   0 119.564 7.29118   2
   0 -12   0 309.795 9.39893  -1
   0  12   0 309.795 9.39893   2
   0  12   0 272.487 8.60847  -1
   0 -12   0 272.487 8.60847   2
  -1 -12   0 147.247 4.60791  -1
   1  12   0 147.247 4.60791   2
   1  12   0 148.058 4.60811  -1
  -1 -12   0 148.058 4.60811   2
  -2 -12   0 92.1052 3.02118  -1
   2  12   0 92.1052 3.02118   2
   2  12   0 38.3856 2.42002  -1
  -2 -12   0 38.3856 2.42002   2
  -3 -12   0 249.136 5.99981  -1
   3  12   0 249.136 5.99981   2
   3  12   0 192.374 5.68221  -1
  -3 -12   0 192.374 5.68221   2
  -4 -12   0 91.8431 2.93870  -1
   4  12   0 91.8431 2.93870   2
   4  12   0 58.8637 3.01364  -1
  -4 -12   0 58.8637 3.01364   2
  -5 -12   0 48.5312 33.2812  -1
   5  12   0 48.5312 33.2812   2
  -6 -12   0 10.0936 2.51165  -1
   6  12   0 10.0936 2.51165   2
   6  12   0 16.8121 4.20359  -1
  -6 -12   0 16.8121 4.20359   2
  -7 -12   0 25.4839 3.65223  -1
   7  12   0 25.4839 3.65223   2
   7  12   0 30.2680 3.53453  -1
  -7 -12   0 30.2680 3.53453   2
  -8 -12   0 10.7276 2.80109  -1
   8  12   0 10.7276 2.80109   2
   8  12   0 8.83024 3.70591  -1
  -8 -12   0 8.83024 3.70591   2
  -1 -13   0 151.519 4.30231  -1
   1  13   0 151.519 4.30231   2
   1  13   0 156.087 4.57423  -1
  -1 -13   0 156.087 4.57423   2
  -2 -13   0 172.282 5.17142  -1
   2  13   0 172.282 5.17142   2
   2  13   0 178.780 5.39458  -1
  -2 -13   0 178.780 5.39458   2
  -3 -13   0 143.284 5.07761  -1
   3  13   0 143.284 5.07761   2
   3  13   0 139.935 4.29300  -1
  -3 -13   0 139.935 4.29300   2
  -4 -13   0 70.5962 4.81941  -1
   4  13   0 70.5962 4.81941   2
   4  13   0 83.3915 5.33974  -1
  -4 -13   0 83.3915 5.33974   2
  -5 -13   0 143.478 6.41552  -1
   5  13   0 143.478 6.41552   2
   5  13   0 134.941 7.07502  -1
  -5 -13   0 134.941 7.07502   2
  -6 -13   0 254.180 7.98919  -1
   6  13   0 254.180 7.98919   2
   6  13   0 221.384 7.84155  -1
  -6 -13   0 221.384 7.84155   2
  -7 -13   0 71.3087 5.20250  -1
   7  13   0 71.3087 5.20250   2
   7  13   0 83.4452 7.39554  -1
  -7 -13   0 83.4452 7.39554   2
   0 -14   0 165.287 6.55317  -1
   0  14   0 165.287 6.55317   2
   0  14   0 163.265 8.06162  -1
   0 -14   0 163.265 8.06162   2
  -1 -14   0 168.570 4.27905  -1
   1  14   0 168.570 4.27905   2
   1  14   0 158.988 5.44145  -1
  -1 -14   0 158.988 5.44145   2
  -2 -14   0 16.3297 2.59305  -1
   2  14   0 16.3297 2.59305   2
   2  14   0 16.8030 2.06629  -1
  -2 -14   0 16.8030 2.06629   2
  -3 -14   0 35.8882 3.57921  -1
   3  14   0 35.8882 3.57921   2
   3  14   0 29.8020 3.20311  -1
  -3 -14   0 29.8020 3.20311   2
  -4 -14   0 124.213 6.04314  -1
   4  14   0 124.213 6.04314   2
   4  14   0 109.794 5.16384  -1
  -4 -14   0 109.794 5.16384   2
  -5 -14   0 43.4126 3.59471  -1
   5  14   0 43.4126 3.59471   2
   5  14   0 39.4608 3.70364  -1
  -5 -14   0 39.4608 3.70364   2
  -6 -14   0 73.9430 5.81633  -1
   6  14   0 73.9430 5.81633   2
   0 -15   0 2.83212 3.68734  -1
   0  15   0 2.83212 3.68734   2
   0  15   0 3.13097 2.81505  -1
   0 -15   0 3.13097 2.81505   2
  -1 -15   0 5.75106 3.04583  -1
   1  15   0 5.75106 3.04583   2
   1  15   0 -1.8825 1.56991  -1
  -1 -15   0 -1.8825 1.56991   2
  -2 -15   0 15.2734 3.64544  -1
   2  15   0 15.2734 3.64544   2
   2  15   0 14.1963 2.37650  -1
  -2 -15   0 14.1963 2.37650   2
  -3 -15   0 58.8133 5.59673  -1
   3  15   0 58.8133 5.59673   2
   3  15   0 52.3829 4.72986  -1
  -3 -15   0 52.3829 4.72986   2
   4  15   0 3.39750 2.91595  -1
  -4 -15   0 3.39750 2.91595   2
 -13   0   1 0.69884 2.19692   2
 -12   0   1 12.9229 2.17881   2
 -11   0   1 3.68956 1.45963   2
 -10   0   1 38.3135 2.61165   2
  -9   0   1 18.6015 2.20873   2
  -8   0   1 43.3777 2.58825   2
  -7   0   1 8.36011 0.90334   2
  -6   0   1 10.4775 0.78635   2
  -5   0   1 47.2649 1.31813   2
  -4   0   1 0.67607 0.34650   2
  -3   0   1 1.23708 0.30474   2
  -2   0   1 3.47776 0.33636   2
  -1   0   1 4.48089 0.14881   2
   0   0   1 0.39283 0.10232   2
   1   0   1 0.91918 0.11458   2
   2   0   1 2.66778 0.26707   2
   3   0   1 22.0173 0.82018   2
   4   0   1 1.42565 0.39649   2
   5   0   1 17.1174 1.08730   2
   6   0   1 0.93149 0.85471   2
   7   0   1 30.8797 2.31509   2
   8   0   1 9.41496 1.27843   2
   9   0   1 11.8721 1.70049   2
  10   0   1 25.8237 2.37492   2
  11   0   1 1.76375 1.53296   2
  12   0   1 0.63459 1.83678   2
  13  -1  -1 29.6756 4.01759   2
 -13   1   1 32.9210 3.61883   2
  12  -1  -1 5.47606 2.23960   2
 -12   1   1 4.36044 1.65967   2
  11  -1  -1 97.6280 4.53996   2
 -11   1   1 100.136 4.09794   2
  10  -1  -1 24.8986 2.48379   2
 -10   1   1 20.1795 2.12063   2
   9  -1  -1 282.355 6.07289   2
  -9   1   1 316.518 6.05934   2
   8  -1  -1 438.597 8.30334   2
  -8   1   1 396.285 9.20493   2
   7  -1  -1 158.573 3.42799   2
  -7   1   1 129.464 4.28486   2
   6  -1  -1 258.472 4.28325   2
  -6   1   1 278.374 5.56440   2
   5  -1  -1 371.909 5.70040   2
  -5   1   1 393.354 6.02311   2
   4  -1  -1 231.794 3.53625   2
  -4   1   1 210.018 5.06921   2
   3  -1  -1 169.374 2.55411   2
  -3   1   1 158.801 2.38037   2
   2  -1  -1 101.973 1.64454   2
  -2   1   1 107.310 1.70354   2
   1  -1  -1 84.1021 1.30031   2
  -1   1   1 84.6244 1.27411   2
   0  -1  -1 7.55526 0.19298   2
   0   1   1 7.09062 0.23283   2
  -1  -1  -1 96.7552 1.30632   2
   1   1   1 97.1236 1.27305   2
  -2  -1  -1 69.6137 1.41358   2
   2   1   1 78.3903 1.30030   2
  -3  -1  -1 5.18746 0.42321   2
   3   1   1 5.30896 0.47345   2
  -4  -1  -1 10.1761 0.59329   2
   4   1   1 13.0745 0.74626   2
  -5  -1  -1 31.0576 1.07362   2
   5   1   1 31.8127 1.24217   2
  -6  -1  -1 44.0939 1.81350   2
   6   1   1 39.3100 1.88757   2
  -7  -1  -1 119.905 3.62889   2
   7   1   1 115.456 4.38914   2
  -8  -1  -1 22.3866 1.53779   2
   8   1   1 23.5292 2.20734   2
  -9  -1  -1 105.904 4.45875   2
   9   1   1 80.6026 2.70495   2
 -10  -1  -1 83.8792 3.86973   2
  10   1   1 66.6273 3.03039   2
 -11  -1  -1 13.8918 2.31117   2
  11   1   1 20.1993 2.29065   2
 -12  -1  -1 11.0128 3.29695   2
  12   1   1 17.2982 2.78164   2
  13  -2  -1 79.4120 6.78323   2
 -13   2   1 65.5318 5.42787   2
  12  -2  -1 17.0949 2.66807   2
 -12   2   1 27.9191 2.67178   2
  11  -2  -1 3.50827 2.02642   2
 -11   2   1 13.4423 2.13289   2
  10  -2  -1 32.3272 3.36036   2
 -10   2   1 45.0363 3.00579   2
   9  -2  -1 1.93715 0.91797   2
  -9   2   1 2.35805 1.02337   2
   8  -2  -1 37.9463 2.84591   2
  -8   2   1 24.9446 1.44484   2
   7  -2  -1 36.3520 1.43221   2
  -7   2   1 44.1483 1.70843   2
   6  -2  -1 30.1054 1.15234   2
  -6   2   1 24.3730 1.08930   2
   5  -2  -1 67.9650 1.55489   2
  -5   2   1 56.1383 1.55859   2
   4  -2  -1 252.244 3.45863   2
  -4   2   1 247.160 3.59508   2
   3  -2  -1 199.772 2.98702   2
  -3   2   1 190.981 2.76203   2
   2  -2  -1 5.43131 0.33040   2
  -2   2   1 7.40777 0.31838   2
   1  -2  -1 1.05325 0.16458   2
  -1   2   1 2.76166 0.20404   2
   0  -2  -1 28.1038 0.69501   2
   0   2   1 28.7350 0.70050   2
  -1  -2  -1 99.9449 1.55145   2
   1   2   1 97.4330 1.40154   2
  -2  -2  -1 731.990 8.83752   2
   2   2   1 737.080 9.06305   2
  -3  -2  -1 147.057 2.37363   2
   3   2   1 158.119 2.44513   2
  -4  -2  -1 88.4282 2.02705   2
   4   2   1 90.9636 1.68355   2
  -5  -2  -1 375.676 4.93102   2
   5   2   1 341.781 5.25210   2
  -6  -2  -1 282.877 4.78198   2
   6   2   1 286.060 5.01156   2
  -7  -2  -1 217.448 5.41041   2
   7   2   1 270.495 4.82657   2
  -8  -2  -1 56.2897 3.20867   2
   8   2   1 43.1901 1.66129   2
  -9  -2  -1 89.4810 3.25208   2
   9   2   1 68.7693 2.15754   2
 -10  -2  -1 143.986 5.91857   2
  10   2   1 162.063 5.27425   2
 -11  -2  -1 17.1131 2.58624   2
  11   2   1 19.2297 2.21000   2
 -12  -2  -1 24.0345 3.55608   2
  12   2   1 15.4969 2.22408   2
 -13   3   1 2.56225 2.12528   2
  12  -3  -1 63.7690 5.67742   2
 -12   3   1 47.2371 3.64289   2
  11  -3  -1 46.8086 3.56592   2
 -11   3   1 41.4265 3.23009   2
  10  -3  -1 77.1406 3.13323   2
 -10   3   1 92.3686 3.84678   2
   9  -3  -1 23.7195 2.10004   2
  -9   3   1 24.6578 1.67604   2
   8  -3  -1 35.2207 1.96993   2
  -8   3   1 38.7859 1.91469   2
   7  -3  -1 106.571 2.88510   2
  -7   3   1 117.597 2.45874   2
   6  -3  -1 13.3174 0.98086   2
  -6   3   1 20.9148 1.07350   2
   5  -3  -1 47.1387 1.25264   2
  -5   3   1 48.0576 1.57275   2
   4  -3  -1 31.8548 1.10242   2
  -4   3   1 28.6655 0.88994   2
   3  -3  -1 131.330 1.94982   2
  -3   3   1 125.376 2.01526   2
   2  -3  -1 99.6371 1.59117   2
  -2   3   1 100.871 1.61519   2
   1  -3  -1 457.433 6.02271   2
  -1   3   1 469.166 5.68715   2
   0  -3  -1 114.855 1.92750   2
   0   3   1 110.849 1.62089   2
  -1  -3  -1 54.7402 1.13358   2
   1   3   1 48.8251 0.95854   2
  -2  -3  -1 20.8792 0.66852   2
   2   3   1 19.0287 0.62792   2
  -3  -3  -1 148.125 2.37036   2
   3   3   1 154.890 2.51665   2
  -4  -3  -1 30.4233 0.90597   2
   4   3   1 34.1897 1.05169   2
  -5  -3  -1 77.4128 1.66348   2
   5   3   1 85.2115 1.97969   2
  -6  -3  -1 36.1101 1.32381   2
   6   3   1 31.2015 1.58201   2
  -7  -3  -1 88.1123 2.53033   2
   7   3   1 78.2776 2.66271   2
  -8  -3  -1 57.6592 2.02204   2
   8   3   1 55.4862 2.71932   2
  -9  -3  -1 92.7208 4.59614   2
   9   3   1 108.106 3.51833   2
 -10  -3  -1 -0.1060 1.27675   2
  10   3   1 1.21180 1.46537   2
 -11  -3  -1 9.49250 2.78506   2
  11   3   1 1.35290 1.70423   2
 -12  -3  -1 7.96607 2.96183   2
  12   3   1 10.2975 2.85588   2
 -13   4   1 12.2173 4.87188   2
  12  -4  -1 29.9370 4.38647   2
 -12   4   1 37.3855 3.19128   2
  11  -4  -1 89.8435 3.78585   2
 -11   4   1 91.7124 4.57622   2
  10  -4  -1 19.6970 2.09454   2
 -10   4   1 5.46442 1.86008   2
   9  -4  -1 68.2132 2.96020   2
  -9   4   1 52.4584 3.17996   2
   8  -4  -1 86.8510 2.69841   2
  -8   4   1 92.6786 3.52865   2
   7  -4  -1 151.690 3.64355   2
  -7   4   1 144.073 3.33333   2
   6  -4  -1 121.867 2.63077   2
  -6   4   1 124.046 2.99082   2
   5  -4  -1 116.923 2.62562   2
  -5   4   1 124.401 2.51713   2
   4  -4  -1 34.3381 1.21435   2
  -4   4   1 39.0627 1.05997   2
   3  -4  -1 74.0882 1.34080   2
  -3   4   1 86.3376 1.53696   2
   2  -4  -1 690.670 8.48989   2
  -2   4   1 682.719 9.61931   2
   1  -4  -1 116.072 1.73311   2
  -1   4   1 107.815 1.99439   2
   0  -4  -1 357.660 5.30007   2
   0   4   1 349.778 5.47749   2
  -1  -4  -1 180.854 2.68802   2
   1   4   1 177.010 2.77871   2
  -2  -4  -1 7.61688 0.46457   2
   2   4   1 27.6187 8.05132   2
  -3  -4  -1 131.591 2.19043   2
   3   4   1 116.051 2.47616   2
  -4  -4  -1 892.649 11.7619   2
   4   4   1 880.571 11.3268   2
  -5  -4  -1 187.585 3.12327   2
   5   4   1 220.624 4.33218   2
  -6  -4  -1 4.79998 0.65929   2
   6   4   1 7.47383 1.01849   2
  -7  -4  -1 398.846 6.16710   2
   7   4   1 368.176 7.84227   2
  -8  -4  -1 360.532 6.51188   2
   8   4   1 385.774 7.90796   2
  -9  -4  -1 21.3318 1.84293   2
   9   4   1 47.3885 2.63323   2
 -10  -4  -1 21.0196 3.00162   2
  10   4   1 5.40508 1.71479   2
 -11  -4  -1 29.2795 3.02861   2
  11   4   1 27.2593 2.59604   2
 -12  -4  -1 27.0681 5.88506   2
  12   4   1 26.7789 3.93554   2
  12  -5  -1 8.68361 3.90485   2
 -12   5   1 10.7727 2.52354   2
  11  -5  -1 97.4051 4.84113   2
 -11   5   1 105.750 4.71558   2
  10  -5  -1 107.011 3.93837   2
 -10   5   1 125.042 4.33573   2
   9  -5  -1 28.0074 2.35555   2
  -9   5   1 25.7390 4.53304   2
   8  -5  -1 27.6383 1.84184   2
  -8   5   1 59.5530 6.58947   2
   7  -5  -1 356.897 6.40587   2
  -7   5   1 394.479 8.24994   2
   6  -5  -1 722.217 10.0520   2
  -6   5   1 692.616 12.2306   2
   5  -5  -1 11.7878 1.15177   2
  -5   5   1 13.2772 7.73330   2
   4  -5  -1 18.2768 0.80983   2
  -4   5   1 37.5315 10.5030   2
   3  -5  -1 670.914 8.09920   2
  -3   5   1 653.245 8.60104   2
   2  -5  -1 170.418 2.51892   2
  -2   5   1 165.735 2.69039   2
   1  -5  -1 79.2806 1.69202   2
  -1   5   1 89.6200 1.65766   2
   0  -5  -1 12.1288 0.76267   2
   0   5   1 14.1016 0.66361   2
  -1  -5  -1 627.971 8.89316   2
   1   5   1 619.578 7.38896   2
  -2  -5  -1 10.3257 0.52615   2
   2   5   1 10.1472 0.62054   2
  -3  -5  -1 461.654 6.38022   2
   3   5   1 441.664 6.38630   2
  -4  -5  -1 23.8971 1.26202   2
   4   5   1 24.2885 1.58942   2
  -5  -5  -1 199.714 4.03663   2
   5   5   1 195.314 3.89718   2
  -6  -5  -1 21.8318 1.39663   2
   6   5   1 37.7104 2.39401   2
  -7  -5  -1 8.68260 1.21125   2
   7   5   1 8.22798 1.40330   2
  -8  -5  -1 29.4330 1.65467   2
   8   5   1 21.2358 1.77610   2
  -9  -5  -1 124.317 4.29379   2
   9   5   1 138.726 5.26135   2
 -10  -5  -1 13.7302 3.68543   2
  10   5   1 23.7341 2.25582   2
 -11  -5  -1 73.0522 6.40511   2
  11   5   1 68.5927 4.78439   2
 -12  -5  -1 78.6267 9.55281   2
  12   5   1 88.7067 10.0100   2
  12  -6  -1 31.0953 7.27352   2
 -12   6   1 12.7023 3.06689   2
  11  -6  -1 70.4742 4.48832   2
 -11   6   1 59.5214 3.80087   2
  10  -6  -1 44.3796 3.03604   2
 -10   6   1 89.3285 3.45306   2
   9  -6  -1 132.505 4.55828   2
  -9   6   1 148.109 4.28467   2
   8  -6  -1 118.441 3.29025   2
  -8   6   1 110.329 3.61265   2
   7  -6  -1 18.7576 1.64088   2
  -7   6   1 31.5765 1.98722   2
   6  -6  -1 151.098 3.72395   2
  -6   6   1 176.327 3.81602   2
   5  -6  -1 22.9736 1.36293   2
  -5   6   1 30.5825 1.45950   2
   4  -6  -1 348.541 4.69331   2
  -4   6   1 335.897 6.40405   2
   3  -6  -1 553.142 7.41493   2
  -3   6   1 533.876 7.64388   2
   2  -6  -1 75.0277 1.55615   2
  -2   6   1 88.8198 1.99111   2
   1  -6  -1 5.83363 0.62512   2
  -1   6   1 8.37147 1.18106   2
   0  -6  -1 687.352 9.90634   2
   0   6   1 678.908 8.85413   2
  -1  -6  -1 1.25075 0.36726   2
   1   6   1 0.55130 0.29337   2
  -2  -6  -1 375.786 5.07419   2
   2   6   1 365.035 5.79283   2
  -3  -6  -1 6.04299 0.57343   2
   3   6   1 1.71140 0.75675   2
  -4  -6  -1 152.256 3.40952   2
   4   6   1 170.968 3.37450   2
  -5  -6  -1 23.5943 1.86742   2
   5   6   1 29.7526 1.29171   2
  -6  -6  -1 380.984 7.46982   2
   6   6   1 382.176 6.82752   2
  -7  -6  -1 8.73611 1.31250   2
   7   6   1 13.9062 1.63372   2
  -8  -6  -1 118.898 4.01178   2
   8   6   1 114.733 3.51436   2
  -9  -6  -1 62.8745 2.99684   2
   9   6   1 48.6708 2.72796   2
 -10  -6  -1 31.4538 5.30068   2
  10   6   1 25.7719 2.90923   2
 -11  -6  -1 58.4249 5.10136   2
  11   6   1 48.7764 4.67612   2
  11  -7  -1 16.8044 4.16801   2
 -11   7   1 4.23582 2.60664   2
  10  -7  -1 29.7475 2.86569   2
 -10   7   1 43.3134 3.56201   2
   9  -7  -1 148.370 5.30262   2
  -9   7   1 156.372 4.52724   2
   8  -7  -1 700.473 13.3519   2
  -8   7   1 681.389 13.1183   2
   7  -7  -1 31.0440 2.29346   2
  -7   7   1 21.2678 1.73409   2
   6  -7  -1 6.20161 13.9124   2
  -6   7   1 49.3280 1.96028   2
   5  -7  -1 895.673 16.8825   2
  -5   7   1 896.747 13.8716   2
   4  -7  -1 190.515 3.39213   2
  -4   7   1 190.210 3.68145   2
   3  -7  -1 187.328 3.29928   2
  -3   7   1 193.763 3.48758   2
   2  -7  -1 2.50353 0.49498   2
  -2   7   1 7.93444 0.87348   2
   1  -7  -1 466.644 8.68146   2
  -1   7   1 466.112 7.39311   2
   0  -7  -1 39.5891 1.47024   2
   0   7   1 33.1893 1.16480   2
  -1  -7  -1 410.271 6.14908   2
   1   7   1 396.716 5.47199   2
  -2  -7  -1 185.675 3.97007   2
   2   7   1 193.035 3.24663   2
  -3  -7  -1 192.653 3.60221   2
   3   7   1 204.424 6.79223   2
  -4  -7  -1 30.0774 1.64154   2
   4   7   1 29.0852 1.68103   2
  -5  -7  -1 375.368 8.26486   2
   5   7   1 372.324 7.56632   2
  -6  -7  -1 180.931 4.46508   2
   6   7   1 175.285 5.06049   2
  -7  -7  -1 333.415 7.26396   2
   7   7   1 367.535 7.22850   2
  -8  -7  -1 5.03932 2.16258   2
   8   7   1 21.1375 1.53144   2
  -9  -7  -1 19.0837 2.12895   2
   9   7   1 13.1788 1.98881   2
 -10  -7  -1 64.4283 5.41470   2
  10   7   1 61.6489 4.99564   2
 -11  -7  -1 91.6634 7.91259   2
  11   7   1 91.3634 7.34959   2
  11  -8  -1 60.2632 7.25360   2
 -11   8   1 51.9821 5.98189   2
  10  -8  -1 102.388 4.83831   2
 -10   8   1 109.887 4.66532   2
   9  -8  -1 53.5083 3.81436   2
  -9   8   1 66.2569 3.68290   2
   8  -8  -1 45.1175 2.67644   2
  -8   8   1 74.7205 2.56182   2
   7  -8  -1 144.517 4.52030   2
  -7   8   1 151.142 4.25220   2
   6  -8  -1 68.2415 3.24631   2
  -6   8   1 68.5829 1.96394   2
   5  -8  -1 205.373 4.21877   2
  -5   8   1 226.429 4.24791   2
   4  -8  -1 222.119 4.94155   2
  -4   8   1 232.293 4.47750   2
   3  -8  -1 37.9688 1.43503   2
  -3   8   1 43.5551 1.57690   2
   2  -8  -1 586.466 9.55937   2
  -2   8   1 583.915 8.75816   2
   1  -8  -1 86.1010 2.60530   2
  -1   8   1 89.3188 2.54017   2
   0  -8  -1 399.355 6.34072   2
   0   8   1 399.250 5.84501   2
  -1  -8  -1 6.90123 0.75466   2
   1   8   1 8.23330 0.91116   2
  -2  -8  -1 885.409 12.5735   2
   2   8   1 880.169 10.4786   2
  -3  -8  -1 46.6335 1.73018   2
   3   8   1 51.9822 1.64635   2
  -4  -8  -1 37.6686 2.51245   2
   4   8   1 58.8108 2.25536   2
  -5  -8  -1 158.159 4.91813   2
   5   8   1 177.065 4.82980   2
  -6  -8  -1 369.191 8.62172   2
   6   8   1 375.307 8.78771   2
  -7  -8  -1 35.2044 2.63082   2
   7   8   1 45.5485 2.44673   2
  -8  -8  -1 54.7312 2.38218   2
   8   8   1 45.0282 2.73172   2
  -9  -8  -1 110.331 5.26195   2
   9   8   1 100.265 5.00949   2
 -10  -8  -1 217.291 11.4443   2
  10   8   1 235.620 8.95356   2
  11   8   1 14.6570 4.04716   2
  11  -9  -1 11.9251 5.60609   2
 -11   9   1 1.85354 3.78347   2
  10  -9  -1 135.173 8.54515   2
 -10   9   1 129.819 6.99714   2
   9  -9  -1 64.0899 4.05796   2
  -9   9   1 65.1327 3.73424   2
   8  -9  -1 38.8502 2.96428   2
  -8   9   1 65.8127 3.17350   2
   7  -9  -1 452.341 9.50372   2
  -7   9   1 455.830 9.76152   2
   6  -9  -1 116.601 4.03222   2
  -6   9   1 106.237 2.97599   2
   5  -9  -1 115.015 2.92389   2
  -5   9   1 120.537 3.23643   2
   4  -9  -1 202.002 3.73861   2
  -4   9   1 200.412 4.74066   2
   3  -9  -1 120.676 2.94896   2
  -3   9   1 137.857 3.09454   2
   2  -9  -1 56.8438 2.38641   2
  -2   9   1 76.2681 2.06901   2
   1  -9  -1 582.992 9.75308   2
  -1   9   1 604.776 9.50002   2
   0  -9  -1 76.2149 2.34638   2
   0   9   1 82.9688 2.09698   2
  -1  -9  -1 218.372 4.63166   2
   1   9   1 249.605 4.60282   2
  -2  -9  -1 152.418 3.33806   2
   2   9   1 162.998 3.20876   2
  -3  -9  -1 733.617 12.8265   2
   3   9   1 681.260 11.2826   2
  -4  -9  -1 55.3304 2.90077   2
   4   9   1 63.9598 1.95380   2
  -5  -9  -1 261.448 6.54702   2
   5   9   1 258.947 5.27482   2
  -6  -9  -1 -0.5233 1.45094   2
   6   9   1 25.2033 1.20395   2
  -7  -9  -1 119.001 5.02154   2
   7   9   1 127.079 4.57650   2
  -8  -9  -1 120.152 5.53549   2
   8   9   1 112.911 5.24163   2
  -9  -9  -1 113.372 5.32910   2
   9   9   1 150.062 6.79870   2
 -10  -9  -1 28.2450 5.23747   2
  10   9   1 25.5446 3.28329   2
  10 -10  -1 1.07660 2.63608   2
 -10  10   1 -0.1729 3.85271   2
   9 -10  -1 42.0177 3.13161   2
  -9  10   1 43.9645 3.92898   2
   8 -10  -1 40.5026 3.08649   2
  -8  10   1 83.7187 2.62150   2
   7 -10  -1 229.173 5.96057   2
  -7  10   1 238.731 5.86663   2
   6 -10  -1 316.762 7.56408   2
  -6  10   1 281.711 8.83478   2
   5 -10  -1 192.040 4.11002   2
  -5  10   1 190.252 5.53903   2
   4 -10  -1 308.662 5.39939   2
  -4  10   1 343.677 6.00024   2
   3 -10  -1 4.08140 1.08480   2
  -3  10   1 -0.7561 0.76171   2
   2 -10  -1 448.985 11.4546   2
  -2  10   1 441.183 7.49517   2
   1 -10  -1 59.1227 2.61334   2
  -1  10   1 57.2785 2.03585   2
   0 -10  -1 182.509 4.05469   2
   0  10   1 163.856 3.80243   2
  -1 -10  -1 76.5035 3.05657   2
   1  10   1 91.6931 2.48209   2
  -2 -10  -1 175.166 3.65496   2
   2  10   1 195.997 3.90615   2
  -3 -10  -1 50.9105 2.30934   2
   3  10   1 67.6423 2.07944   2
  -4 -10  -1 931.599 21.5792   2
   4  10   1 927.332 12.6928   2
  -5 -10  -1 24.8955 2.29865   2
   5  10   1 41.0251 2.12234   2
  -6 -10  -1 68.7057 3.54265   2
   6  10   1 74.1380 3.47368   2
  -7 -10  -1 189.179 6.05733   2
   7  10   1 178.709 5.54950   2
  -8 -10  -1 245.309 7.33992   2
   8  10   1 231.974 6.76072   2
  -9 -10  -1 1.09123 2.03006   2
   9  10   1 8.51301 2.61823   2
  10 -11  -1 125.953 14.6421   2
   9 -11  -1 27.0321 4.01854   2
  -9  11   1 25.2301 3.21510   2
   8 -11  -1 32.2168 3.10535   2
  -8  11   1 34.3803 3.42860   2
   7 -11  -1 84.3812 4.33394   2
  -7  11   1 82.0355 3.94898   2
   6 -11  -1 188.727 5.93871   2
   5 -11  -1 13.9727 1.36114   2
  -5  11   1 28.1767 2.19880   2
  -4  11   1 27.5428 15.7943   2
   3 -11  -1 546.706 11.7286   2
  -3  11   1 526.465 9.05642   2
   2 -11  -1 245.010 6.69637   2
  -2  11   1 267.068 5.64459   2
   1 -11  -1 364.410 8.00758   2
  -1  11   1 419.984 7.06502   2
   0 -11  -1 -0.0624 1.06856   2
   0  11   1 13.9984 1.21912   2
  -1 -11  -1 680.010 11.8033   2
   1  11   1 697.150 11.1926   2
  -2 -11  -1 47.3686 1.89611   2
   2  11   1 67.8093 2.27605   2
  -3 -11  -1 84.5445 3.02734   2
   3  11   1 95.2591 2.87673   2
  -4 -11  -1 69.2799 3.40495   2
   4  11   1 52.6106 4.28544   2
  -5 -11  -1 183.607 5.35397   2
  -5 -11  -1 569.543 96.2519  -1
  -6  11   1 569.543 96.2519   2
   5  11   1 169.343 4.82748   2
  -6 -11  -1 13.4896 2.00242   2
   6  11   1 7.09023 2.14404   2
  -7 -11  -1 158.349 5.52360   2
   7  11   1 169.194 6.46634   2
  -8 -11  -1 13.7513 2.59912   2
   8  11   1 13.2097 2.88515   2
  -9 -11  -1 159.648 13.1522   2
   9  11   1 153.592 9.04032   2
  -9  12   1 178.537 13.9853   2
   8 -12  -1 90.6716 5.11078   2
  -8  12   1 96.7826 5.32963   2
   7 -12  -1 80.2003 5.30323   2
  -7  12   1 69.8467 4.93825   2
   6 -12  -1 81.2652 5.17713   2
  -6  12   1 94.9632 5.26817   2
   4 -12  -1 288.945 8.36778   2
  -4  12   1 266.879 7.16464   2
   3 -12  -1 200.693 6.13614   2
  -3  12   1 200.613 5.57965   2
   2 -12  -1 54.0104 2.97624   2
  -2  12   1 88.1868 3.02390   2
  -1  12   1 53.7299 36.5394   2
   0 -12  -1 554.554 11.0405   2
   0  12   1 533.559 10.5181   2
  -1 -12  -1 17.6976 1.80085   2
   1  12   1 22.4843 1.87914   2
  -2 -12  -1 320.255 7.30046   2
   2  12   1 348.176 6.86941   2
  -3 -12  -1 7.62597 1.37810   2
   3  12   1 26.2515 1.18222   2
  -4 -12  -1 152.504 5.97927   2
   4  12   1 168.971 5.67109   2
  -5 -12  -1 12.7723 2.13892   2
   5  12   1 13.2634 2.48063   2
  -6 -12  -1 249.729 6.79931   2
   6  12   1 249.541 8.57726   2
  -7 -12  -1 24.6336 4.05592   2
   7  12   1 27.8684 3.32164   2
  -8 -12  -1 55.0758 9.12062   2
   8  12   1 57.9993 4.87930   2
  -8  13   1 135.286 13.2242   2
   7 -13  -1 26.8167 3.60350   2
  -7  13   1 22.7171 3.73403   2
   6 -13  -1 32.0576 3.75467   2
  -6  13   1 50.4386 3.70900   2
   5 -13  -1 446.052 13.0432   2
  -5  13   1 447.790 12.7173   2
   4 -13  -1 225.688 8.35584   2
  -4  13   1 202.273 6.32762   2
   3 -13  -1 127.086 4.67156   2
  -3  13   1 141.595 4.77524   2
  -2  13   1 -17.887 28.3670   2
   1 -13  -1 90.6238 3.61902   2
  -1  13   1 86.1108 3.20444   2
   0 -13  -1 3.67167 1.71371   2
   0  13   1 0.86375 1.34119   2
  -1 -13  -1 243.789 5.70173   2
   1  13   1 231.601 5.25014   2
  -2 -13  -1 6.46842 1.52218   2
   2  13   1 26.5457 2.28073   2
  -3 -13  -1 289.066 8.11892   2
   3  13   1 291.542 8.23292   2
  -4 -13  -1 2.20720 1.75153   2
   4  13   1 2.78222 3.21397   2
  -5 -13  -1 246.249 9.55385   2
   5  13   1 253.161 7.91118   2
  -6 -13  -1 28.0558 4.03874   2
   6  13   1 23.9273 3.29852   2
   7  13   1 116.604 7.43681   2
   6 -14  -1 61.2468 7.78235   2
  -6  14   1 48.1189 4.22042   2
   5 -14  -1 70.5821 4.56318   2
  -5  14   1 60.8620 7.63477   2
   4 -14  -1 56.5042 3.63347   2
  -4  14   1 47.5694 3.70354   2
   3 -14  -1 33.3428 2.63524   2
  -3  14   1 53.0137 3.67798   2
   2 -14  -1 375.360 8.37342   2
  -2  14   1 382.081 8.19349   2
   1 -14  -1 121.410 4.33718   2
  -1  14   1 118.612 4.87851   2
   0 -14  -1 135.115 4.57714   2
   0  14   1 167.725 5.28385   2
  -1 -14  -1 12.0399 1.77422   2
   1  14   1 10.8619 1.80206   2
  -2 -14  -1 215.058 6.27061   2
   2  14   1 215.269 6.87890   2
  -3 -14  -1 2.54769 1.80535   2
   3  14   1 3.37693 2.01003   2
  -4 -14  -1 64.2911 4.06144   2
   4  14   1 70.9442 4.50314   2
  -5 -14  -1 40.6743 6.83215   2
   5  14   1 45.9402 3.73482   2
   6  14   1 124.807 9.78734   2
  -5  15   1 35.3221 6.62487   2
   4 -15  -1 10.8777 3.65744   2
  -4  15   1 15.8200 6.80777   2
   3 -15  -1 51.4671 3.78883   2
  -3  15   1 63.9993 4.60507   2
   2 -15  -1 3.09029 1.86385   2
  -2  15   1 6.54222 2.15429   2
   1 -15  -1 355.981 7.83166   2
  -1  15   1 324.611 8.80695   2
   0 -15  -1 68.3073 3.44624   2
   0  15   1 67.7601 4.76609   2
  -1 -15  -1 56.9537 4.21662   2
   1  15   1 88.9397 5.14767   2
  -2 -15  -1 8.74430 4.01048   2
   2  15   1 11.1990 3.93126   2
  -3 -15  -1 194.097 9.85796   2
   3  15   1 185.419 15.0558   2
  -4 -15  -1 10.5859 4.98145   2
   1 -16  -1 -1.8979 2.60546   2
   0 -16  -1 59.2045 5.98235   2
 -13   0   2 427.432 10.1274   2
 -12   0   2 39.2624 2.87522   2
 -11   0   2 208.619 5.40053   2
 -10   0   2 272.566 6.47226   2
  -9   0   2 854.946 19.8107   2
  -8   0   2 62.9392 2.20094   2
  -7   0   2 331.001 6.55992   2
  -6   0   2 119.463 2.54256   2
  -5   0   2 241.943 3.69134   2
  -4   0   2 1503.91 20.7247   2
  -3   0   2 1688.17 26.2052   2
  -1   0   2 1178.31 21.4117   2
   0   0   2 773.132 7.26025   2
   1   0   2 23.2013 0.42120   2
   2   0   2 3402.57 125.946   2
   3   0   2 598.265 6.98063   2
   4   0   2 822.224 9.98042   2
   5   0   2 57.9799 1.51452   2
   6   0   2 685.093 12.1334   2
   7   0   2 169.222 4.60203   2
   8   0   2 601.716 10.4879   2
   9   0   2 2.62321 2.70144   2
  10   0   2 16.8367 2.52061   2
  11   0   2 144.795 6.18001   2
  12   0   2 350.742 10.7481   2
  13  -1  -2 5.03736 2.49181   2
 -13   1   2 2.68746 1.81613   2
  12  -1  -2 109.685 4.33523   2
 -12   1   2 130.071 5.51231   2
  11  -1  -2 18.4053 2.04023   2
 -11   1   2 22.1662 2.02531   2
  10  -1  -2 329.634 6.41094   2
 -10   1   2 304.192 6.14760   2
   9  -1  -2 38.9998 2.05708   2
  -9   1   2 48.2567 2.71557   2
   8  -1  -2 709.004 12.4607   2
  -8   1   2 685.123 11.4183   2
   7  -1  -2 185.325 3.71752   2
  -7   1   2 166.665 3.51024   2
   6  -1  -2 678.178 9.81179   2
  -6   1   2 723.121 9.77963   2
   5  -1  -2 489.429 7.05444   2
  -5   1   2 495.493 7.00050   2
   4  -1  -2 320.555 4.44498   2
  -4   1   2 323.274 4.55153   2
   3  -1  -2 2027.61 57.2924   2
  -3   1   2 2095.26 39.2256   2
   2  -1  -2 2026.31 108.211   2
  -2   1   2 2048.32 108.360   2
   1  -1  -2 385.944 4.25963   2
  -1   1   2 392.674 4.12012   2
   0  -1  -2 8.60923 0.29916   2
   0   1   2 12.3924 0.32856   2
  -1  -1  -2 3647.93 126.436   2
   1   1   2 3652.81 127.079   2
  -2  -1  -2 456.324 5.25685   2
   2   1   2 450.763 5.25542   2
  -3  -1  -2 966.239 10.7710   2
   3   1   2 962.532 10.8376   2
  -4  -1  -2 1.27770 0.36270   2
   4   1   2 0.74852 0.41332   2
  -5  -1  -2 688.425 9.66309   2
   5   1   2 686.492 9.14936   2
  -6  -1  -2 5.56048 1.40236   2
   6   1   2 1.79765 1.22604   2
  -7  -1  -2 637.157 11.0217   2
   7   1   2 674.907 11.0277   2
  -8  -1  -2 19.8654 2.25255   2
   8   1   2 39.7459 2.01630   2
  -9  -1  -2 477.841 10.5656   2
   9   1   2 483.153 10.0677   2
 -10  -1  -2 22.7354 2.87609   2
  10   1   2 26.1678 1.96048   2
 -11  -1  -2 87.9615 4.41650   2
  11   1   2 92.5594 4.55995   2
 -12  -1  -2 141.651 12.2715   2
  12   1   2 117.549 5.58003   2
  13  -2  -2 61.5462 3.85794   2
 -13   2   2 44.4681 3.27038   2
  12  -2  -2 25.1619 2.88650   2
 -12   2   2 19.3034 3.07611   2
  11  -2  -2 279.913 9.45729   2
 -11   2   2 330.108 8.22061   2
  10  -2  -2 54.6586 18.8699   2
 -10   2   2 11.7906 21.4601   2
   9  -2  -2 302.566 6.23022   2
  -9   2   2 302.656 5.49683   2
   8  -2  -2 68.1486 2.18567   2
  -8   2   2 77.3160 2.31557   2
   7  -2  -2 473.266 7.51236   2
  -7   2   2 471.156 7.57230   2
   6  -2  -2 424.100 6.48485   2
  -6   2   2 444.676 7.50570   2
   5  -2  -2 1050.19 14.1321   2
  -5   2   2 1029.83 16.1715   2
   4  -2  -2 724.946 9.79038   2
  -4   2   2 694.147 9.54460   2
   3  -2  -2 804.273 9.99295   2
  -3   2   2 780.628 9.82056   2
   2  -2  -2 835.097 10.2747   2
  -2   2   2 837.199 10.3075   2
   1  -2  -2 157.419 1.96806   2
  -1   2   2 164.010 2.00553   2
   0  -2  -2 1945.42 73.2191   2
   0   2   2 2034.10 60.9594   2
  -1  -2  -2 218.584 2.44718   2
   1   2   2 213.924 2.59132   2
  -2  -2  -2 1380.99 16.1473   2
   2   2   2 1373.22 14.3824   2
  -3  -2  -2 5.04889 0.34181   2
   3   2   2 6.32867 0.41821   2
  -4  -2  -2 1075.64 12.6195   2
   4   2   2 1060.57 11.6543   2
  -5  -2  -2 44.4767 1.46225   2
   5   2   2 41.3820 1.43629   2
  -6  -2  -2 599.324 8.64579   2
   6   2   2 590.184 8.82109   2
  -7  -2  -2 27.8239 1.72217   2
   7   2   2 16.1213 1.97007   2
  -8  -2  -2 472.556 8.46949   2
   8   2   2 435.698 8.38039   2
  -9  -2  -2 135.604 6.03741   2
   9   2   2 125.637 4.82836   2
 -10  -2  -2 319.651 9.04843   2
  10   2   2 330.655 7.39694   2
 -11  -2  -2 6.59968 2.22405   2
  11   2   2 12.0977 2.19357   2
 -12  -2  -2 5.04160 3.56885   2
  12   2   2 17.7331 3.24983   2
  13  -3  -2 20.6078 5.08950   2
 -13   3   2 14.9629 2.65058   2
  12  -3  -2 153.396 7.66389   2
 -12   3   2 165.261 6.52230   2
  11  -3  -2 57.2261 2.88429   2
 -11   3   2 103.356 3.81737   2
  10  -3  -2 573.325 16.7864   2
 -10   3   2 592.346 13.2933   2
   9  -3  -2 43.7080 2.82795   2
  -9   3   2 65.9483 2.81420   2
   8  -3  -2 325.574 6.80235   2
  -8   3   2 331.006 6.11591   2
   7  -3  -2 115.444 3.23645   2
  -7   3   2 115.596 3.27404   2
   6  -3  -2 101.605 2.34142   2
  -6   3   2 87.6874 2.47605   2
   5  -3  -2 983.022 12.3380   2
  -5   3   2 927.997 12.7570   2
   4  -3  -2 1929.22 24.3079   2
  -4   3   2 1856.64 23.9873   2
   3  -3  -2 54.7158 1.33892   2
  -3   3   2 77.3523 1.43613   2
   2  -3  -2 23.8234 0.58670   2
  -2   3   2 19.8830 0.62750   2
   1  -3  -2 2503.11 92.1502   2
  -1   3   2 2414.56 73.5085   2
   0  -3  -2 1237.20 15.7742   2
   0   3   2 1203.29 13.7056   2
  -1  -3  -2 315.038 3.79683   2
   1   3   2 326.412 4.18805   2
  -2  -3  -2 54.2596 1.12208   2
   2   3   2 62.3656 1.20501   2
  -3  -3  -2 2684.05 32.6170   2
   3   3   2 2714.51 44.6903   2
  -4  -3  -2 194.722 2.64517   2
   4   3   2 187.561 3.03156   2
  -5  -3  -2 682.251 10.8175   2
   5   3   2 692.548 9.83101   2
  -6  -3  -2 88.1154 2.00042   2
   6   3   2 99.0083 3.33666   2
  -7  -3  -2 264.142 4.82162   2
   7   3   2 252.017 5.06491   2
  -8  -3  -2 45.2171 1.79146   2
   8   3   2 50.9517 2.85468   2
  -9  -3  -2 133.897 3.95682   2
   9   3   2 138.999 5.02486   2
 -10  -3  -2 12.2720 2.39396   2
  10   3   2 17.7102 2.03802   2
 -11  -3  -2 214.488 9.44495   2
  11   3   2 193.953 7.07889   2
  12   3   2 5.89535 7.57189   2
 -13   4   2 32.2724 3.70564   2
  12  -4  -2 64.2841 5.44483   2
 -12   4   2 45.5116 3.91240   2
  11  -4  -2 218.909 7.31360   2
 -11   4   2 214.620 6.91717   2
  10  -4  -2 10.6706 1.69836   2
 -10   4   2 22.9221 2.39914   2
   9  -4  -2 342.572 6.95312   2
  -9   4   2 337.069 6.94679   2
   8  -4  -2 47.1281 2.26022   2
  -8   4   2 54.9635 2.23579   2
   7  -4  -2 606.055 14.9738   2
  -7   4   2 623.125 11.0246   2
   6  -4  -2 171.414 4.34040   2
  -6   4   2 162.883 3.65014   2
   5  -4  -2 171.179 3.06026   2
  -5   4   2 146.146 3.17968   2
   4  -4  -2 887.358 10.4243   2
  -4   4   2 850.829 12.2629   2
   3  -4  -2 677.325 8.15024   2
  -3   4   2 687.833 7.87864   2
   2  -4  -2 597.791 7.44258   2
  -2   4   2 588.610 7.51653   2
   1  -4  -2 357.341 4.75128   2
  -1   4   2 357.467 4.41943   2
   0  -4  -2 1286.81 16.5890   2
   0   4   2 1261.36 15.6453   2
  -1  -4  -2 93.9829 1.65960   2
   1   4   2 97.3750 1.67695   2
  -2  -4  -2 1180.92 13.5160   2
   2   4   2 1198.79 15.2856   2
  -3  -4  -2 15.6028 0.80607   2
   3   4   2 15.2451 0.79196   2
  -4  -4  -2 407.466 5.53701   2
   4   4   2 395.317 6.31156   2
  -5  -4  -2 5.01882 0.46507   2
   5   4   2 6.23482 0.72799   2
  -6  -4  -2 358.765 6.43188   2
   6   4   2 389.013 6.92850   2
  -7  -4  -2 8.25287 0.69358   2
   7   4   2 3.17647 0.99390   2
  -8  -4  -2 495.178 8.35000   2
   8   4   2 481.118 9.94138   2
  -9  -4  -2 67.8497 4.24572   2
   9   4   2 69.6626 3.82931   2
 -10  -4  -2 300.419 9.61795   2
  10   4   2 290.370 8.31780   2
 -11  -4  -2 54.9039 3.89507   2
  11   4   2 54.1048 7.21675   2
 -13   5   2 -4.6383 4.03926   2
  12  -5  -2 132.281 6.30036   2
 -12   5   2 130.139 5.40769   2
  10  -5  -2 80.0114 3.77077   2
 -10   5   2 109.709 4.30911   2
   9  -5  -2 119.224 4.20805   2
  -9   5   2 114.616 4.42323   2
   8  -5  -2 411.925 9.18950   2
  -8   5   2 440.371 8.20379   2
   7  -5  -2 7.14733 1.44811   2
  -7   5   2 20.6413 2.12176   2
   6  -5  -2 380.868 6.39942   2
  -6   5   2 380.221 7.18967   2
   5  -5  -2 203.206 3.85108   2
  -5   5   2 208.004 4.30490   2
   4  -5  -2 155.416 2.35683   2
  -4   5   2 161.320 2.58228   2
   3  -5  -2 1482.52 16.8011   2
  -3   5   2 1459.82 17.8761   2
   2  -5  -2 977.284 11.9426   2
  -2   5   2 948.210 13.3450   2
   1  -5  -2 129.352 2.30698   2
  -1   5   2 136.620 2.10087   2
   0  -5  -2 66.1950 1.39728   2
   0   5   2 71.8707 1.35030   2
  -1  -5  -2 1294.57 14.7380   2
   1   5   2 1249.27 14.6214   2
  -2  -5  -2 378.544 5.33666   2
   2   5   2 361.267 5.35583   2
  -3  -5  -2 407.243 6.17366   2
   3   5   2 407.106 6.42830   2
  -4  -5  -2 36.5332 1.76638   2
   4   5   2 36.8921 1.56749   2
  -5  -5  -2 367.507 7.07958   2
   5   5   2 371.997 7.52810   2
  -6  -5  -2 109.925 3.11623   2
   6   5   2 129.383 3.27447   2
  -7  -5  -2 682.394 10.6442   2
   7   5   2 716.108 12.0173   2
  -8  -5  -2 20.4403 3.05834   2
   8   5   2 22.5406 1.91900   2
  -9  -5  -2 106.752 5.20171   2
   9   5   2 119.052 4.08084   2
 -10  -5  -2 14.8807 3.18315   2
  10   5   2 7.48465 2.74435   2
 -11  -5  -2 30.4020 4.05991   2
  11   5   2 30.0139 5.04311   2
  12  -6  -2 91.5865 6.45034   2
 -12   6   2 111.429 7.26925   2
  11  -6  -2 38.3082 2.89746   2
 -11   6   2 39.5086 3.49863   2
  10  -6  -2 117.912 4.47662   2
 -10   6   2 129.005 4.60504   2
   9  -6  -2 377.627 8.82682   2
  -9   6   2 404.563 8.27221   2
   8  -6  -2 75.1704 2.97542   2
  -8   6   2 91.6380 3.01513   2
   7  -6  -2 115.285 3.53948   2
  -7   6   2 120.194 3.69379   2
   6  -6  -2 123.815 3.13004   2
  -6   6   2 141.318 3.79145   2
   5  -6  -2 149.444 2.71758   2
  -5   6   2 157.299 3.53076   2
   4  -6  -2 324.676 4.58762   2
  -4   6   2 315.234 4.80091   2
   3  -6  -2 470.119 6.16515   2
  -3   6   2 446.050 7.63536   2
   2  -6  -2 192.053 3.09218   2
  -2   6   2 181.978 3.26882   2
   1  -6  -2 310.719 5.10837   2
  -1   6   2 310.597 4.54109   2
   0  -6  -2 237.408 3.55205   2
   0   6   2 243.167 3.71685   2
  -1  -6  -2 15.6880 0.92350   2
   1   6   2 22.6918 0.79903   2
  -2  -6  -2 1624.80 22.6758   2
   2   6   2 1593.83 20.1655   2
  -3  -6  -2 124.881 2.90050   2
   3   6   2 124.585 3.38939   2
  -4  -6  -2 325.548 6.36258   2
   4   6   2 341.763 6.10410   2
  -5  -6  -2 17.7391 1.53590   2
   5   6   2 26.9668 1.55816   2
  -6  -6  -2 202.664 4.15748   2
   6   6   2 220.797 4.31299   2
  -7  -6  -2 68.7619 2.33794   2
   7   6   2 83.2068 2.49724   2
  -8  -6  -2 208.350 7.73227   2
   8   6   2 198.436 4.60388   2
  -9  -6  -2 32.6425 2.96100   2
   9   6   2 18.5391 2.67657   2
 -10  -6  -2 8.65934 3.26538   2
  10   6   2 14.2055 3.53345   2
 -11  -6  -2 111.958 11.3341   2
  11   6   2 121.810 8.21407   2
  12  -7  -2 14.7803 6.01470   2
 -12   7   2 24.7475 5.63565   2
  11  -7  -2 44.5154 4.19015   2
 -11   7   2 33.9933 3.03008   2
  10  -7  -2 165.198 5.40125   2
 -10   7   2 150.429 5.52920   2
   9  -7  -2 35.1926 2.22015   2
  -9   7   2 40.9692 2.23808   2
   8  -7  -2 154.750 4.50403   2
  -8   7   2 149.585 5.00773   2
   7  -7  -2 113.124 3.64064   2
  -7   7   2 125.528 3.65097   2
   6  -7  -2 280.925 5.40276   2
  -6   7   2 317.309 6.17927   2
   5  -7  -2 119.674 2.63379   2
  -5   7   2 114.980 2.59732   2
   4  -7  -2 102.400 2.07576   2
  -4   7   2 101.578 2.38129   2
   3  -7  -2 402.830 5.75130   2
  -3   7   2 397.560 6.46250   2
   2  -7  -2 307.439 6.15484   2
  -2   7   2 306.647 5.30670   2
   1  -7  -2 94.9226 2.54415   2
  -1   7   2 119.613 2.21435   2
   0  -7  -2 1.57199 0.47419   2
   0   7   2 2.10649 0.53067   2
  -1  -7  -2 896.821 13.6482   2
   1   7   2 878.321 12.9250   2
  -2  -7  -2 49.6279 1.58564   2
   2   7   2 50.5917 1.52073   2
  -3  -7  -2 168.927 3.99622   2
   3   7   2 187.990 4.27248   2
  -4  -7  -2 10.1791 1.04335   2
   4   7   2 7.16295 1.52754   2
  -5  -7  -2 309.812 7.06519   2
   5   7   2 294.428 7.45924   2
  -6  -7  -2 70.6373 2.67336   2
   6   7   2 71.8990 2.63191   2
  -7  -7  -2 64.4906 2.23131   2
   7   7   2 72.0647 3.18575   2
  -8  -7  -2 57.1094 3.57163   2
   8   7   2 60.3950 4.00502   2
  -9  -7  -2 327.321 9.39250   2
   9   7   2 319.486 9.38689   2
 -10  -7  -2 31.0184 4.90616   2
  10   7   2 44.9830 4.63702   2
  11   7   2 14.1314 5.60598   2
  11  -8  -2 108.563 5.23663   2
 -11   8   2 110.232 5.19194   2
  10  -8  -2 16.4469 2.62564   2
 -10   8   2 12.2452 1.72796   2
   9  -8  -2 122.087 5.08104   2
  -9   8   2 127.523 3.87295   2
   8  -8  -2 3.78793 2.86801   2
  -8   8   2 31.6865 1.86869   2
   7  -8  -2 47.5175 2.65290   2
  -7   8   2 46.2029 2.37720   2
   6  -8  -2 107.964 3.44414   2
  -6   8   2 131.270 3.57485   2
   5  -8  -2 268.522 4.56628   2
  -5   8   2 285.072 5.00742   2
   4  -8  -2 76.1475 2.05599   2
  -4   8   2 88.4898 2.20775   2
   3  -8  -2 44.6284 2.04246   2
  -3   8   2 52.9636 2.06162   2
   2  -8  -2 393.920 7.61753   2
  -2   8   2 400.690 6.67023   2
   1  -8  -2 16.9753 1.64937   2
  -1   8   2 13.4124 0.85133   2
   0  -8  -2 340.474 6.30585   2
   0   8   2 319.050 5.29181   2
  -1  -8  -2 160.030 3.47610   2
   1   8   2 155.529 3.07968   2
  -2  -8  -2 21.2022 1.34007   2
   2   8   2 15.1563 0.79131   2
  -3  -8  -2 8.84606 0.85162   2
   3   8   2 14.8491 1.29367   2
  -4  -8  -2 386.078 8.62584   2
   4   8   2 387.254 8.97468   2
  -5  -8  -2 12.6544 1.71935   2
   5   8   2 11.2436 1.76726   2
  -6  -8  -2 166.154 4.25779   2
   6   8   2 182.697 5.47628   2
  -7  -8  -2 77.4332 2.81389   2
   7   8   2 114.893 4.94013   2
  -8  -8  -2 117.233 4.87552   2
   8   8   2 103.334 5.09327   2
  -9  -8  -2 56.6870 3.86777   2
   9   8   2 59.6994 4.83563   2
 -10  -8  -2 54.9585 6.45732   2
  10   8   2 49.5353 5.42503   2
  11  -9  -2 16.8288 6.82417   2
  10  -9  -2 107.925 5.06582   2
 -10   9   2 116.609 7.05786   2
   9  -9  -2 28.2902 3.32159   2
  -9   9   2 27.9728 2.23603   2
   8  -9  -2 76.4143 3.48493   2
  -8   9   2 88.1830 2.79861   2
   7  -9  -2 13.9466 1.86861   2
  -7   9   2 32.0312 1.81428   2
   6  -9  -2 9.03353 1.46451   2
  -6   9   2 9.32071 1.34753   2
   5  -9  -2 240.720 4.65295   2
  -5   9   2 247.546 6.12238   2
   4  -9  -2 290.012 5.96909   2
  -4   9   2 276.311 5.13649   2
   3  -9  -2 9.21352 1.53568   2
  -3   9   2 24.0487 1.42848   2
   2  -9  -2 -0.0591 1.07963   2
  -2   9   2 5.25693 0.87693   2
   1  -9  -2 467.504 9.83700   2
  -1   9   2 443.347 7.02383   2
   0  -9  -2 378.307 6.74166   2
   0   9   2 376.437 6.14516   2
  -1  -9  -2 27.6856 4.64455   2
   1   9   2 58.3396 1.73296   2
  -2  -9  -2 59.8933 2.17501   2
   2   9   2 71.8732 1.80741   2
  -3  -9  -2 498.230 8.12667   2
   3   9   2 475.595 10.5794   2
  -4  -9  -2 9.48623 1.38697   2
   4   9   2 -1.4391 1.14575   2
  -5  -9  -2 16.9830 1.87959   2
   5   9   2 22.2804 2.04294   2
  -6  -9  -2 65.0497 3.22743   2
   6   9   2 67.4324 3.97033   2
  -7  -9  -2 92.5684 3.34327   2
   7   9   2 88.9442 4.57851   2
  -8  -9  -2 13.9669 2.41903   2
   8   9   2 4.16953 2.19675   2
  -9  -9  -2 20.5246 3.05146   2
   9   9   2 30.2345 3.44960   2
  10   9   2 12.0817 4.48932   2
 -11  10   2 -1.1980 4.68025   2
  10 -10  -2 22.7099 3.71261   2
 -10  10   2 30.1300 3.89317   2
   9 -10  -2 11.6022 2.34563   2
  -9  10   2 14.3340 2.10497   2
   8 -10  -2 40.7349 2.99732   2
  -8  10   2 33.8160 2.62104   2
   7 -10  -2 172.080 5.88127   2
  -7  10   2 189.205 5.64059   2
   6 -10  -2 37.3608 14.2957   2
  -6  10   2 -24.923 34.0182   2
   5 -10  -2 9.56489 1.07867   2
  -5  10   2 0.46438 0.83025   2
   4 -10  -2 247.369 6.38967   2
  -4  10   2 244.067 4.46511   2
   3 -10  -2 171.499 5.24709   2
  -3  10   2 178.814 4.68308   2
   2 -10  -2 5.04160 3.57849   2
  -2  10   2 27.3419 1.29974   2
   1 -10  -2 5.60829 1.02367   2
  -1  10   2 14.0248 0.90680   2
   0 -10  -2 53.8809 2.16675   2
   0  10   2 62.1373 2.13720   2
  -1 -10  -2 36.4628 1.54328   2
   1  10   2 44.8614 1.62882   2
  -2 -10  -2 303.353 6.11146   2
   2  10   2 302.227 7.40505   2
  -3 -10  -2 31.1621 1.75830   2
   3  10   2 35.4255 2.42524   2
  -4 -10  -2 10.2580 1.68541   2
   4  10   2 8.15749 1.98734   2
  -5 -10  -2 6.06436 1.69168   2
   5  10   2 3.39218 1.30348   2
  -6 -10  -2 57.7285 4.06433   2
   6  10   2 52.2536 3.02132   2
  -7 -10  -2 13.3989 2.26073   2
   7  10   2 5.27468 1.83437   2
  -8 -10  -2 30.2743 3.51493   2
   8  10   2 30.7826 5.14904   2
  -9 -10  -2 34.2586 5.30640   2
   9  10   2 43.3844 7.98897   2
  10 -11  -2 -2.9700 4.58653   2
   9 -11  -2 50.7538 4.75587   2
  -9  11   2 39.6718 4.23845   2
   8 -11  -2 63.0070 4.11714   2
  -8  11   2 62.7527 3.43043   2
   7 -11  -2 22.2378 2.35003   2
  -7  11   2 37.8790 3.28292   2
   6 -11  -2 32.9090 1.99106   2
  -6  11   2 29.1710 2.45607   2
   5 -11  -2 7.05803 1.11258   2
  -5  11   2 14.0609 1.32663   2
   4 -11  -2 13.9120 2.22028   2
  -4  11   2 11.7841 1.71400   2
   3 -11  -2 206.820 6.01255   2
  -3  11   2 196.955 4.67949   2
   2 -11  -2 85.2867 3.74869   2
  -2  11   2 93.8631 3.34037   2
   1 -11  -2 7.39599 1.47292   2
  -1  11   2 13.6103 1.24750   2
   0 -11  -2 118.952 3.39889   2
   0  11   2 132.668 3.72411   2
  -1 -11  -2 121.952 2.98333   2
   1  11   2 122.460 2.96936   2
  -2 -11  -2 83.9260 2.92854   2
   2  11   2 87.2801 3.11181   2
  -3 -11  -2 30.4086 1.77508   2
   3  11   2 27.8877 3.10671   2
  -4 -11  -2 60.8952 3.17968   2
   4  11   2 42.5637 3.14634   2
  -5 -11  -2 10.8455 1.88394   2
   5  11   2 10.4525 2.24159   2
  -6 -11  -2 99.5815 4.65966   2
   6  11   2 105.731 5.77093   2
  -7 -11  -2 86.8205 5.82362   2
   7  11   2 88.4762 6.75980   2
  -8 -11  -2 11.1461 2.84275   2
   8  11   2 12.6839 3.77163   2
   8 -12  -2 19.2683 3.79660   2
  -8  12   2 23.2167 2.99678   2
   7 -12  -2 7.51146 2.38653   2
  -7  12   2 4.56096 2.32728   2
   6 -12  -2 25.7777 3.12810   2
  -6  12   2 25.9377 2.48996   2
   5 -12  -2 20.5783 2.49904   2
  -5  12   2 18.6446 2.11855   2
  -4  12   2 9.11931 27.0901   2
   3 -12  -2 9.40751 1.99733   2
  -3  12   2 18.4027 1.78441   2
   2 -12  -2 12.0174 8.72421   2
  -2  12   2 14.8609 16.4979   2
   1 -12  -2 74.2196 3.34467   2
  -1  12   2 93.0443 2.96356   2
   0 -12  -2 10.3048 1.57545   2
   0  12   2 25.2229 1.66689   2
   1  12   2 -5.2945 15.8262   2
  -2 -12  -2 81.0373 3.11653   2
   2  12   2 99.1706 3.48413   2
  -3 -12  -2 1.66982 1.48559   2
   3  12   2 4.46384 1.79864   2
  -4 -12  -2 4.51535 1.53204   2
   4  12   2 1.14435 1.86286   2
  -5 -12  -2 45.9535 3.30589   2
   5  12   2 58.8465 4.36007   2
  -6 -12  -2 3.25135 2.53794   2
   6  12   2 2.84251 2.48280   2
  -7 -12  -2 23.7640 3.90384   2
   7  12   2 25.0133 4.18440   2
  -8 -12  -2 39.9010 9.01079   2
   8 -13  -2 22.3793 4.42216   2
  -8  13   2 6.42980 5.14509   2
   7 -13  -2 6.21260 2.49813   2
  -7  13   2 2.06864 2.01370   2
   6 -13  -2 17.1524 4.11285   2
  -6  13   2 24.8601 3.63051   2
   5 -13  -2 8.23295 2.59432   2
  -5  13   2 8.23951 1.82898   2
   4 -13  -2 3.46669 2.29345   2
  -4  13   2 2.97158 1.61107   2
   3 -13  -2 28.3323 2.42148   2
  -3  13   2 19.1182 2.02940   2
   2 -13  -2 11.2628 1.94339   2
  -2  13   2 12.8103 1.68119   2
   1 -13  -2 5.07085 1.52484   2
  -1  13   2 19.7648 1.35047   2
   0 -13  -2 13.5194 1.71387   2
   0  13   2 15.6652 1.57719   2
  -1 -13  -2 10.2121 1.61806   2
   1  13   2 35.8164 1.72585   2
  -2 -13  -2 2.15959 1.25255   2
   2  13   2 1.46398 1.64608   2
  -3 -13  -2 15.4014 2.12561   2
   3  13   2 14.0874 2.85490   2
  -4 -13  -2 19.5268 2.34749   2
   4  13   2 22.6519 2.71551   2
  -5 -13  -2 43.9419 6.19850   2
   5  13   2 39.2699 4.81102   2
  -6 -13  -2 65.9867 9.88518   2
   6  13   2 52.1605 4.54945   2
   7 -14  -2 14.6527 9.37866   2
  -7  14   2 7.82749 3.61697   2
   6 -14  -2 8.14116 4.75875   2
  -6  14   2 2.60930 2.41408   2
   5 -14  -2 40.2226 5.63560   2
  -5  14   2 47.2588 3.84055   2
   4 -14  -2 11.6457 2.55034   2
  -4  14   2 14.5548 3.26656   2
   3 -14  -2 4.72115 1.82526   2
  -3  14   2 3.77948 1.76994   2
   2 -14  -2 2.91411 1.58242   2
  -2  14   2 3.84424 1.79880   2
   1 -14  -2 35.7635 2.71656   2
  -1  14   2 32.0459 2.56815   2
   0 -14  -2 6.80937 1.68029   2
   0  14   2 6.09383 1.97711   2
  -1 -14  -2 1.15605 1.50086   2
   1  14   2 1.42949 1.86099   2
  -2 -14  -2 8.50116 2.63435   2
   2  14   2 9.17423 3.43710   2
  -3 -14  -2 16.1912 2.81683   2
   3  14   2 12.2680 3.21244   2
  -4 -14  -2 38.8492 3.74417   2
   4  14   2 41.1473 4.61352   2
   5 -15  -2 2.79126 4.22510   2
   4 -15  -2 8.08711 3.44818   2
  -4  15   2 11.0622 2.87071   2
   3 -15  -2 63.1169 5.01640   2
  -3  15   2 66.7517 4.87110   2
   2 -15  -2 12.0812 2.43905   2
  -2  15   2 7.80734 2.34151   2
   1 -15  -2 9.05115 2.27075   2
  -1  15   2 9.39556 2.20045   2
   0 -15  -2 17.9950 2.66718   2
   0  15   2 19.4972 2.50394   2
  -1 -15  -2 10.4248 3.02626   2
   1  15   2 6.51809 3.08510   2
  -2 -15  -2 13.1562 3.77024   2
   2  15   2 12.2738 5.89907   2
   3  15   2 19.1619 7.72095   2
 -14   0   3 71.1327 9.89591  -1
  12   0   3 71.1327 9.89591   2
 -13   0   3 8.32829 3.66782  -1
  11   0   3 8.32829 3.66782   2
 -12   0   3 19.1082 2.42432  -1
  10   0   3 19.1082 2.42432   2
 -11   0   3 22.3748 2.19569  -1
   9   0   3 22.3748 2.19569   2
 -10   0   3 84.7025 2.84229  -1
   8   0   3 84.7025 2.84229   2
  -9   0   3 106.972 3.44116  -1
   7   0   3 106.972 3.44116   2
  -8   0   3 13.9160 1.26333  -1
   6   0   3 13.9160 1.26333   2
  -7   0   3 200.838 4.18770  -1
   5   0   3 200.838 4.18770   2
  -6   0   3 523.437 7.46729  -1
   4   0   3 523.437 7.46729   2
  -5   0   3 234.070 3.20911  -1
   3   0   3 234.070 3.20911   2
  -4   0   3 101.865 1.40394  -1
   2   0   3 101.865 1.40394   2
  -3   0   3 42.4428 0.73926  -1
   1   0   3 42.4428 0.73926   2
  -2   0   3 11.3032 0.39995  -1
   0   0   3 11.3032 0.39995   2
  -1   0   3 0.82018 0.27461  -1
  -1   0   3 0.82018 0.27461   2
   0   0   3 13.0465 0.38975  -1
  -2   0   3 13.0465 0.38975   2
   1   0   3 31.9145 0.72119  -1
  -3   0   3 31.9145 0.72119   2
   2   0   3 84.9629 1.67584  -1
  -4   0   3 84.9629 1.67584   2
   3   0   3 265.352 4.27207  -1
  -5   0   3 265.352 4.27207   2
   4   0   3 607.100 7.70583  -1
  -6   0   3 607.100 7.70583   2
   5   0   3 167.361 3.35939  -1
  -7   0   3 167.361 3.35939   2
   6   0   3 14.5983 1.09363  -1
  -8   0   3 14.5983 1.09363   2
   7   0   3 95.3178 2.55790  -1
  -9   0   3 95.3178 2.55790   2
   8   0   3 68.7477 2.50440  -1
 -10   0   3 68.7477 2.50440   2
   9   0   3 46.3993 2.72465  -1
 -11   0   3 46.3993 2.72465   2
  11   0   3 16.7975 2.56986  -1
 -13   0   3 16.7975 2.56986   2
  13  -1  -3 63.8959 4.02406  -1
  11   1   3 63.8959 4.02406   2
 -13   1   3 48.0936 4.35196  -1
 -11  -1  -3 48.0936 4.35196   2
  12  -1  -3 155.169 6.58786  -1
  10   1   3 155.169 6.58786   2
 -12   1   3 187.169 6.86826  -1
 -10  -1  -3 187.169 6.86826   2
  11  -1  -3 135.856 4.76554  -1
   9   1   3 135.856 4.76554   2
 -11   1   3 124.437 5.11389  -1
  -9  -1  -3 124.437 5.11389   2
  10  -1  -3 270.424 5.73724  -1
   8   1   3 270.424 5.73724   2
 -10   1   3 281.395 6.27468  -1
  -8  -1  -3 281.395 6.27468   2
   9  -1  -3 306.614 6.10394  -1
   7   1   3 306.614 6.10394   2
  -9   1   3 302.436 6.46739  -1
  -7  -1  -3 302.436 6.46739   2
   8  -1  -3 407.669 7.99301  -1
   6   1   3 407.669 7.99301   2
  -8   1   3 444.148 9.43807  -1
  -6  -1  -3 444.148 9.43807   2
   7  -1  -3 110.629 3.22906  -1
   5   1   3 110.629 3.22906   2
  -7   1   3 125.010 2.87289  -1
  -5  -1  -3 125.010 2.87289   2
   6  -1  -3 4100.98 53.1171  -1
   4   1   3 4100.98 53.1171   2
  -6   1   3 4030.05 47.3603  -1
  -4  -1  -3 4030.05 47.3603   2
   5  -1  -3 221.792 3.63222  -1
   3   1   3 221.792 3.63222   2
  -5   1   3 230.725 3.27876  -1
  -3  -1  -3 230.725 3.27876   2
   4  -1  -3 161.266 2.33876  -1
   2   1   3 161.266 2.33876   2
  -4   1   3 172.748 2.32327  -1
  -2  -1  -3 172.748 2.32327   2
   3  -1  -3 711.145 6.83172  -1
   1   1   3 711.145 6.83172   2
  -3   1   3 688.111 7.45054  -1
  -1  -1  -3 688.111 7.45054   2
   2  -1  -3 1693.52 27.0102  -1
   0   1   3 1693.52 27.0102   2
  -2   1   3 1729.09 28.4654  -1
   0  -1  -3 1729.09 28.4654   2
   1  -1  -3 15.9124 0.46923  -1
  -1   1   3 15.9124 0.46923   2
  -1   1   3 15.9186 0.45457  -1
   1  -1  -3 15.9186 0.45457   2
   0  -1  -3 1704.55 28.1362  -1
  -2   1   3 1704.55 28.1362   2
   0   1   3 1644.53 25.5999  -1
   2  -1  -3 1644.53 25.5999   2
  -1  -1  -3 841.067 9.52295  -1
  -3   1   3 841.067 9.52295   2
   1   1   3 827.557 10.0527  -1
   3  -1  -3 827.557 10.0527   2
  -2  -1  -3 161.336 2.74404  -1
  -4   1   3 161.336 2.74404   2
   2   1   3 185.518 3.50847  -1
   4  -1  -3 185.518 3.50847   2
  -3  -1  -3 129.442 2.61736  -1
  -5   1   3 129.442 2.61736   2
   3   1   3 129.235 2.89352  -1
   5  -1  -3 129.235 2.89352   2
  -4  -1  -3 3792.65 46.5887  -1
  -6   1   3 3792.65 46.5887   2
   4   1   3 3684.64 54.6414  -1
   6  -1  -3 3684.64 54.6414   2
  -5  -1  -3 155.899 3.53321  -1
  -7   1   3 155.899 3.53321   2
   5   1   3 191.489 3.79137  -1
   7  -1  -3 191.489 3.79137   2
  -6  -1  -3 336.283 5.50051  -1
  -8   1   3 336.283 5.50051   2
   6   1   3 339.438 5.72177  -1
   8  -1  -3 339.438 5.72177   2
  -7  -1  -3 288.807 5.53281  -1
  -9   1   3 288.807 5.53281   2
   7   1   3 283.110 6.93910  -1
   9  -1  -3 283.110 6.93910   2
  -8  -1  -3 337.027 6.48705  -1
 -10   1   3 337.027 6.48705   2
   8   1   3 337.342 7.57122  -1
  10  -1  -3 337.342 7.57122   2
  -9  -1  -3 170.092 5.47071  -1
 -11   1   3 170.092 5.47071   2
   9   1   3 143.177 5.35715  -1
  11  -1  -3 143.177 5.35715   2
 -10  -1  -3 122.996 4.97650  -1
 -12   1   3 122.996 4.97650   2
  10   1   3 126.564 4.99321  -1
  12  -1  -3 126.564 4.99321   2
 -11  -1  -3 71.4564 4.53413  -1
 -13   1   3 71.4564 4.53413   2
  11   1   3 52.6959 4.09894  -1
  13  -1  -3 52.6959 4.09894   2
  13  -2  -3 73.0053 4.60097  -1
  11   2   3 73.0053 4.60097   2
 -13   2   3 111.142 6.40729  -1
 -11  -2  -3 111.142 6.40729   2
  12  -2  -3 141.219 5.19469  -1
  10   2   3 141.219 5.19469   2
 -12   2   3 148.257 5.85239  -1
 -10  -2  -3 148.257 5.85239   2
  11  -2  -3 670.151 15.4358  -1
   9   2   3 670.151 15.4358   2
 -11   2   3 608.938 14.5877  -1
  -9  -2  -3 608.938 14.5877   2
  10  -2  -3 249.444 7.00481  -1
   8   2   3 249.444 7.00481   2
 -10   2   3 237.806 6.94996  -1
  -8  -2  -3 237.806 6.94996   2
   9  -2  -3 136.459 3.36169  -1
   7   2   3 136.459 3.36169   2
  -9   2   3 125.149 4.70291  -1
  -7  -2  -3 125.149 4.70291   2
   8  -2  -3 1183.31 18.2501  -1
   6   2   3 1183.31 18.2501   2
  -8   2   3 1099.11 19.8111  -1
  -6  -2  -3 1099.11 19.8111   2
   7  -2  -3 74.3304 2.22621  -1
   5   2   3 74.3304 2.22621   2
  -7   2   3 85.9123 2.16811  -1
  -5  -2  -3 85.9123 2.16811   2
   6  -2  -3 4.55647 0.66584  -1
   4   2   3 4.55647 0.66584   2
  -6   2   3 11.6584 1.07552  -1
  -4  -2  -3 11.6584 1.07552   2
   5  -2  -3 2085.28 24.6436  -1
   3   2   3 2085.28 24.6436   2
  -5   2   3 2065.67 21.5095  -1
  -3  -2  -3 2065.67 21.5095   2
   4  -2  -3 1153.40 12.7348  -1
   2   2   3 1153.40 12.7348   2
  -4   2   3 1158.72 12.8831  -1
  -2  -2  -3 1158.72 12.8831   2
   3  -2  -3 854.075 8.92111  -1
   1   2   3 854.075 8.92111   2
  -3   2   3 832.513 8.03619  -1
  -1  -2  -3 832.513 8.03619   2
   2  -2  -3 943.898 10.5325  -1
   0   2   3 943.898 10.5325   2
  -2   2   3 983.721 10.0678  -1
   0  -2  -3 983.721 10.0678   2
   1  -2  -3 3404.24 121.320  -1
  -1   2   3 3404.24 121.320   2
  -1   2   3 3352.29 120.641  -1
   1  -2  -3 3352.29 120.641   2
   0  -2  -3 750.665 8.40963  -1
  -2   2   3 750.665 8.40963   2
   0   2   3 764.988 8.56320  -1
   2  -2  -3 764.988 8.56320   2
  -1  -2  -3 1027.72 11.5136  -1
  -3   2   3 1027.72 11.5136   2
   1   2   3 987.949 14.1186  -1
   3  -2  -3 987.949 14.1186   2
  -2  -2  -3 773.005 10.7923  -1
  -4   2   3 773.005 10.7923   2
   2   2   3 808.622 11.0789  -1
   4  -2  -3 808.622 11.0789   2
  -3  -2  -3 2249.94 29.1938  -1
  -5   2   3 2249.94 29.1938   2
   3   2   3 2294.21 29.4675  -1
   5  -2  -3 2294.21 29.4675   2
  -4  -2  -3 7.67919 0.96352  -1
  -6   2   3 7.67919 0.96352   2
   4   2   3 15.7252 1.42330  -1
   6  -2  -3 15.7252 1.42330   2
  -5  -2  -3 101.011 2.85440  -1
  -7   2   3 101.011 2.85440   2
   5   2   3 103.426 2.75525  -1
   7  -2  -3 103.426 2.75525   2
  -6  -2  -3 1504.78 22.6325  -1
  -8   2   3 1504.78 22.6325   2
   6   2   3 1414.47 24.6938  -1
   8  -2  -3 1414.47 24.6938   2
  -7  -2  -3 140.424 3.73507  -1
  -9   2   3 140.424 3.73507   2
   7   2   3 113.451 4.17862  -1
   9  -2  -3 113.451 4.17862   2
  -8  -2  -3 213.545 5.22419  -1
 -10   2   3 213.545 5.22419   2
   8   2   3 256.407 6.09709  -1
  10  -2  -3 256.407 6.09709   2
  -9  -2  -3 720.650 15.6376  -1
 -11   2   3 720.650 15.6376   2
   9   2   3 686.155 15.1368  -1
  11  -2  -3 686.155 15.1368   2
 -10  -2  -3 130.376 5.41605  -1
 -12   2   3 130.376 5.41605   2
  10   2   3 151.015 6.03995  -1
  12  -2  -3 151.015 6.03995   2
 -11  -2  -3 68.3126 5.37017  -1
 -13   2   3 68.3126 5.37017   2
  11   2   3 83.9755 4.49450  -1
  13  -2  -3 83.9755 4.49450   2
  13  -3  -3 20.5536 3.82892  -1
  11   3   3 20.5536 3.82892   2
 -13   3   3 18.9200 2.85657  -1
 -11  -3  -3 18.9200 2.85657   2
  12  -3  -3 26.2892 3.10239  -1
  10   3   3 26.2892 3.10239   2
 -12   3   3 21.3807 2.97473  -1
 -10  -3  -3 21.3807 2.97473   2
  11  -3  -3 31.4046 2.59685  -1
   9   3   3 31.4046 2.59685   2
 -11   3   3 31.4831 3.01719  -1
  -9  -3  -3 31.4831 3.01719   2
  10  -3  -3 22.0367 2.65435  -1
   8   3   3 22.0367 2.65435   2
 -10   3   3 26.0489 2.72151  -1
  -8  -3  -3 26.0489 2.72151   2
   9  -3  -3 418.227 10.3864  -1
   7   3   3 418.227 10.3864   2
  -9   3   3 435.014 10.4359  -1
  -7  -3  -3 435.014 10.4359   2
   8  -3  -3 183.690 4.40241  -1
   6   3   3 183.690 4.40241   2
  -8   3   3 174.711 3.81423  -1
  -6  -3  -3 174.711 3.81423   2
   7  -3  -3 340.932 5.96197  -1
   5   3   3 340.932 5.96197   2
  -7   3   3 342.022 5.48466  -1
  -5  -3  -3 342.022 5.48466   2
   6  -3  -3 26.3045 1.33528  -1
   4   3   3 26.3045 1.33528   2
  -6   3   3 29.9536 1.37151  -1
  -4  -3  -3 29.9536 1.37151   2
   5  -3  -3 183.663 2.84942  -1
   3   3   3 183.663 2.84942   2
  -5   3   3 162.121 2.64148  -1
  -3  -3  -3 162.121 2.64148   2
   4  -3  -3 209.012 3.16499  -1
   2   3   3 209.012 3.16499   2
  -4   3   3 219.501 2.86775  -1
  -2  -3  -3 219.501 2.86775   2
   3  -3  -3 550.028 6.84634  -1
   1   3   3 550.028 6.84634   2
  -3   3   3 536.802 6.17904  -1
  -1  -3  -3 536.802 6.17904   2
   2  -3  -3 319.635 4.26592  -1
   0   3   3 319.635 4.26592   2
  -2   3   3 297.452 3.36302  -1
   0  -3  -3 297.452 3.36302   2
   1  -3  -3 190.439 2.53399  -1
  -1   3   3 190.439 2.53399   2
  -1   3   3 189.534 2.45960  -1
   1  -3  -3 189.534 2.45960   2
   0  -3  -3 300.811 3.75818  -1
  -2   3   3 300.811 3.75818   2
   0   3   3 286.167 3.70039  -1
   2  -3  -3 286.167 3.70039   2
  -1  -3  -3 759.244 9.61766  -1
  -3   3   3 759.244 9.61766   2
   1   3   3 737.928 9.57494  -1
   3  -3  -3 737.928 9.57494   2
  -2  -3  -3 280.559 4.68178  -1
  -4   3   3 280.559 4.68178   2
   2   3   3 288.390 4.56974  -1
   4  -3  -3 288.390 4.56974   2
  -3  -3  -3 288.784 4.76379  -1
  -5   3   3 288.784 4.76379   2
   3   3   3 272.851 5.92468  -1
   5  -3  -3 272.851 5.92468   2
  -4  -3  -3 36.6130 1.49330  -1
  -6   3   3 36.6130 1.49330   2
   4   3   3 36.4335 1.40131  -1
   6  -3  -3 36.4335 1.40131   2
  -5  -3  -3 217.971 5.84765  -1
  -7   3   3 217.971 5.84765   2
   5   3   3 248.332 4.93173  -1
   7  -3  -3 248.332 4.93173   2
  -6  -3  -3 172.661 4.11954  -1
  -8   3   3 172.661 4.11954   2
   6   3   3 194.937 4.57117  -1
   8  -3  -3 194.937 4.57117   2
  -7  -3  -3 302.849 6.46831  -1
  -9   3   3 302.849 6.46831   2
   7   3   3 369.418 8.21258  -1
   9  -3  -3 369.418 8.21258   2
  -8  -3  -3 36.0354 2.75150  -1
 -10   3   3 36.0354 2.75150   2
   8   3   3 37.6436 2.16667  -1
  10  -3  -3 37.6436 2.16667   2
  -9  -3  -3 55.8711 3.38095  -1
 -11   3   3 55.8711 3.38095   2
   9   3   3 18.3137 2.53465  -1
  11  -3  -3 18.3137 2.53465   2
 -10  -3  -3 36.7177 3.16209  -1
 -12   3   3 36.7177 3.16209   2
  10   3   3 35.3139 3.62075  -1
  12  -3  -3 35.3139 3.62075   2
 -11  -3  -3 34.0459 4.22954  -1
 -13   3   3 34.0459 4.22954   2
  11   3   3 25.2820 3.45796  -1
  13  -3  -3 25.2820 3.45796   2
  13  -4  -3 163.775 8.19750  -1
  11   4   3 163.775 8.19750   2
 -13   4   3 165.606 10.8093  -1
 -11  -4  -3 165.606 10.8093   2
  12  -4  -3 35.0311 5.38276  -1
  10   4   3 35.0311 5.38276   2
 -12   4   3 48.6366 3.85395  -1
 -10  -4  -3 48.6366 3.85395   2
  11  -4  -3 273.913 8.09578  -1
   9   4   3 273.913 8.09578   2
 -11   4   3 313.002 8.84368  -1
  -9  -4  -3 313.002 8.84368   2
  10  -4  -3 203.007 5.66007  -1
   8   4   3 203.007 5.66007   2
 -10   4   3 160.963 6.94781  -1
  -8  -4  -3 160.963 6.94781   2
   9  -4  -3 60.8738 2.49536  -1
   7   4   3 60.8738 2.49536   2
  -9   4   3 57.4078 1.96156  -1
  -7  -4  -3 57.4078 1.96156   2
   8  -4  -3 924.585 14.9922  -1
   6   4   3 924.585 14.9922   2
  -8   4   3 901.178 18.3178  -1
  -6  -4  -3 901.178 18.3178   2
   7  -4  -3 47.6437 2.77519  -1
   5   4   3 47.6437 2.77519   2
  -7   4   3 28.3420 1.53358  -1
  -5  -4  -3 28.3420 1.53358   2
   6  -4  -3 481.007 6.87045  -1
   4   4   3 481.007 6.87045   2
  -6   4   3 484.872 7.64955  -1
  -4  -4  -3 484.872 7.64955   2
   5  -4  -3 2877.12 40.6267  -1
   3   4   3 2877.12 40.6267   2
  -5   4   3 2854.67 40.3297  -1
  -3  -4  -3 2854.67 40.3297   2
   4  -4  -3 301.463 5.05910  -1
   2   4   3 301.463 5.05910   2
  -4   4   3 322.284 3.83492  -1
  -2  -4  -3 322.284 3.83492   2
   3  -4  -3 68.8031 11.3308  -1
   1   4   3 68.8031 11.3308   2
  -3   4   3 90.8736 1.68097  -1
  -1  -4  -3 90.8736 1.68097   2
   2  -4  -3 252.716 3.94206  -1
   0   4   3 252.716 3.94206   2
  -2   4   3 258.427 4.09640  -1
   0  -4  -3 258.427 4.09640   2
   1  -4  -3 769.387 9.27818  -1
  -1   4   3 769.387 9.27818   2
  -1   4   3 780.547 9.45419  -1
   1  -4  -3 780.547 9.45419   2
   0  -4  -3 396.874 5.03259  -1
  -2   4   3 396.874 5.03259   2
   0   4   3 391.034 5.34222  -1
   2  -4  -3 391.034 5.34222   2
  -1  -4  -3 46.7966 1.13204  -1
  -3   4   3 46.7966 1.13204   2
   1   4   3 71.0311 11.7487  -1
   3  -4  -3 71.0311 11.7487   2
  -2  -4  -3 407.499 5.41350  -1
  -4   4   3 407.499 5.41350   2
   2   4   3 378.201 4.91056  -1
   4  -4  -3 378.201 4.91056   2
  -3  -4  -3 3540.11 50.9730  -1
  -5   4   3 3540.11 50.9730   2
   3   4   3 3501.08 47.6412  -1
   5  -4  -3 3501.08 47.6412   2
  -4  -4  -3 350.585 6.64308  -1
  -6   4   3 350.585 6.64308   2
   4   4   3 336.230 7.37572  -1
   6  -4  -3 336.230 7.37572   2
  -5  -4  -3 69.5956 2.20765  -1
  -7   4   3 69.5956 2.20765   2
   5   4   3 35.8667 18.5846  -1
   7  -4  -3 35.8667 18.5846   2
  -6  -4  -3 863.316 17.0476  -1
  -8   4   3 863.316 17.0476   2
   6   4   3 852.864 17.5510  -1
   8  -4  -3 852.864 17.5510   2
  -7  -4  -3 96.1535 3.89266  -1
  -9   4   3 96.1535 3.89266   2
   7   4   3 89.1887 3.69355  -1
   9  -4  -3 89.1887 3.69355   2
  -8  -4  -3 304.194 8.10425  -1
 -10   4   3 304.194 8.10425   2
   8   4   3 295.594 17.1151  -1
  10  -4  -3 295.594 17.1151   2
  -9  -4  -3 192.053 6.57684  -1
 -11   4   3 192.053 6.57684   2
   9   4   3 213.113 6.89728  -1
  11  -4  -3 213.113 6.89728   2
 -10  -4  -3 30.9963 3.13390  -1
 -12   4   3 30.9963 3.13390   2
  10   4   3 27.5360 3.92351  -1
  12  -4  -3 27.5360 3.92351   2
 -11  -4  -3 188.387 9.84405  -1
 -13   4   3 188.387 9.84405   2
  11   4   3 158.942 15.1298  -1
  13  -4  -3 158.942 15.1298   2
  13  -5  -3 196.288 16.1656  -1
  11   5   3 196.288 16.1656   2
  12  -5  -3 13.4184 3.38623  -1
  10   5   3 13.4184 3.38623   2
 -12   5   3 8.10644 3.84166  -1
 -10  -5  -3 8.10644 3.84166   2
  11  -5  -3 722.783 19.6504  -1
   9   5   3 722.783 19.6504   2
 -11   5   3 707.846 19.3235  -1
  -9  -5  -3 707.846 19.3235   2
  10  -5  -3 413.435 9.08158  -1
   8   5   3 413.435 9.08158   2
 -10   5   3 409.798 10.2567  -1
  -8  -5  -3 409.798 10.2567   2
   9  -5  -3 300.499 6.83080  -1
   7   5   3 300.499 6.83080   2
  -9   5   3 307.216 8.01663  -1
  -7  -5  -3 307.216 8.01663   2
   8  -5  -3 665.308 14.1123  -1
   6   5   3 665.308 14.1123   2
  -8   5   3 626.855 13.6357  -1
  -6  -5  -3 626.855 13.6357   2
   7  -5  -3 422.153 9.81704  -1
   5   5   3 422.153 9.81704   2
  -7   5   3 440.861 7.71252  -1
  -5  -5  -3 440.861 7.71252   2
   6  -5  -3 867.271 17.1294  -1
   4   5   3 867.271 17.1294   2
  -6   5   3 908.755 12.8217  -1
  -4  -5  -3 908.755 12.8217   2
   5  -5  -3 176.409 4.48369  -1
   3   5   3 176.409 4.48369   2
  -5   5   3 160.218 4.30579  -1
  -3  -5  -3 160.218 4.30579   2
   4  -5  -3 29.6482 2.20774  -1
   2   5   3 29.6482 2.20774   2
  -4   5   3 45.7307 1.18148  -1
  -2  -5  -3 45.7307 1.18148   2
   3  -5  -3 5365.56 192.443  -1
   1   5   3 5365.56 192.443   2
  -3   5   3 5070.05 150.651  -1
  -1  -5  -3 5070.05 150.651   2
   2  -5  -3 1931.25 23.0416  -1
   0   5   3 1931.25 23.0416   2
  -2   5   3 1895.79 26.6907  -1
   0  -5  -3 1895.79 26.6907   2
   1  -5  -3 266.141 3.96938  -1
  -1   5   3 266.141 3.96938   2
  -1   5   3 272.816 4.50457  -1
   1  -5  -3 272.816 4.50457   2
   0  -5  -3 2084.91 24.9911  -1
  -2   5   3 2084.91 24.9911   2
   0   5   3 2057.41 25.9069  -1
   2  -5  -3 2057.41 25.9069   2
  -1  -5  -3 3814.33 50.9268  -1
  -3   5   3 3814.33 50.9268   2
   1   5   3 3912.80 64.0208  -1
   3  -5  -3 3912.80 64.0208   2
  -2  -5  -3 28.4910 1.18812  -1
  -4   5   3 28.4910 1.18812   2
   2   5   3 38.8285 1.05984  -1
   4  -5  -3 38.8285 1.05984   2
  -3  -5  -3 117.871 2.77306  -1
  -5   5   3 117.871 2.77306   2
   3   5   3 122.654 2.50471  -1
   5  -5  -3 122.654 2.50471   2
  -4  -5  -3 592.153 11.1087  -1
  -6   5   3 592.153 11.1087   2
   4   5   3 669.669 10.6921  -1
   6  -5  -3 669.669 10.6921   2
  -5  -5  -3 685.966 14.4097  -1
  -7   5   3 685.966 14.4097   2
   5   5   3 627.655 13.1855  -1
   7  -5  -3 627.655 13.1855   2
  -6  -5  -3 735.505 13.1188  -1
  -8   5   3 735.505 13.1188   2
   6   5   3 725.791 17.8892  -1
   8  -5  -3 725.791 17.8892   2
  -7  -5  -3 401.544 8.86203  -1
  -9   5   3 401.544 8.86203   2
   7   5   3 333.972 10.5812  -1
   9  -5  -3 333.972 10.5812   2
  -8  -5  -3 666.017 14.7442  -1
 -10   5   3 666.017 14.7442   2
   8   5   3 662.615 14.5955  -1
  10  -5  -3 662.615 14.5955   2
  -9  -5  -3 547.336 12.7443  -1
 -11   5   3 547.336 12.7443   2
   9   5   3 543.651 11.6378  -1
  11  -5  -3 543.651 11.6378   2
 -10  -5  -3 15.7532 2.90729  -1
 -12   5   3 15.7532 2.90729   2
  10   5   3 7.66091 3.06849  -1
  12  -5  -3 7.66091 3.06849   2
 -11  -5  -3 171.193 7.55523  -1
 -13   5   3 171.193 7.55523   2
  12  -6  -3 41.6009 5.40612  -1
  10   6   3 41.6009 5.40612   2
 -12   6   3 51.7481 4.80056  -1
 -10  -6  -3 51.7481 4.80056   2
  11  -6  -3 48.4761 4.87405  -1
   9   6   3 48.4761 4.87405   2
 -11   6   3 34.1331 4.50565  -1
  -9  -6  -3 34.1331 4.50565   2
  10  -6  -3 162.179 7.52115  -1
   8   6   3 162.179 7.52115   2
 -10   6   3 179.336 5.39179  -1
  -8  -6  -3 179.336 5.39179   2
   9  -6  -3 215.124 8.01706  -1
   7   6   3 215.124 8.01706   2
  -9   6   3 251.770 8.41681  -1
  -7  -6  -3 251.770 8.41681   2
   8  -6  -3 943.139 18.9695  -1
   6   6   3 943.139 18.9695   2
  -8   6   3 907.596 18.3145  -1
  -6  -6  -3 907.596 18.3145   2
   7  -6  -3 305.095 7.87971  -1
   5   6   3 305.095 7.87971   2
  -7   6   3 308.165 5.89526  -1
  -5  -6  -3 308.165 5.89526   2
   6  -6  -3 463.124 9.87412  -1
   4   6   3 463.124 9.87412   2
  -6   6   3 425.075 7.04456  -1
  -4  -6  -3 425.075 7.04456   2
   5  -6  -3 992.138 18.5290  -1
   3   6   3 992.138 18.5290   2
  -5   6   3 971.127 16.2835  -1
  -3  -6  -3 971.127 16.2835   2
   4  -6  -3 405.280 6.84603  -1
   2   6   3 405.280 6.84603   2
  -4   6   3 403.580 6.44104  -1
  -2  -6  -3 403.580 6.44104   2
   3  -6  -3 209.668 4.00200  -1
   1   6   3 209.668 4.00200   2
  -3   6   3 188.380 3.55765  -1
  -1  -6  -3 188.380 3.55765   2
   2  -6  -3 1460.82 18.4755  -1
   0   6   3 1460.82 18.4755   2
  -2   6   3 1522.94 17.3584  -1
   0  -6  -3 1522.94 17.3584   2
   1  -6  -3 83.9963 1.77905  -1
  -1   6   3 83.9963 1.77905   2
   0  -6  -3 2255.64 28.2562  -1
  -2   6   3 2255.64 28.2562   2
   0   6   3 2246.34 30.9023  -1
   2  -6  -3 2246.34 30.9023   2
  -1  -6  -3 291.311 4.54816  -1
  -3   6   3 291.311 4.54816   2
   1   6   3 245.497 4.11610  -1
   3  -6  -3 245.497 4.11610   2
  -2  -6  -3 703.850 11.1401  -1
  -4   6   3 703.850 11.1401   2
   2   6   3 668.597 10.6720  -1
   4  -6  -3 668.597 10.6720   2
  -3  -6  -3 1045.52 15.9472  -1
  -5   6   3 1045.52 15.9472   2
   3   6   3 1003.54 14.5698  -1
   5  -6  -3 1003.54 14.5698   2
  -4  -6  -3 299.933 5.68284  -1
  -6   6   3 299.933 5.68284   2
   4   6   3 310.089 5.87755  -1
   6  -6  -3 310.089 5.87755   2
  -5  -6  -3 471.762 8.09800  -1
  -7   6   3 471.762 8.09800   2
   5   6   3 462.182 8.61156  -1
   7  -6  -3 462.182 8.61156   2
  -6  -6  -3 588.457 11.2587  -1
  -8   6   3 588.457 11.2587   2
   6   6   3 634.436 12.1866  -1
   8  -6  -3 634.436 12.1866   2
  -7  -6  -3 136.188 4.24987  -1
  -9   6   3 136.188 4.24987   2
   7   6   3 193.657 5.20937  -1
   9  -6  -3 193.657 5.20937   2
  -8  -6  -3 140.583 4.52006  -1
 -10   6   3 140.583 4.52006   2
   8   6   3 136.221 4.58651  -1
  10  -6  -3 136.221 4.58651   2
  -9  -6  -3 77.9587 4.31990  -1
 -11   6   3 77.9587 4.31990   2
   9   6   3 71.0587 4.64145  -1
  11  -6  -3 71.0587 4.64145   2
 -10  -6  -3 65.4775 5.87106  -1
 -12   6   3 65.4775 5.87106   2
  10   6   3 59.8243 4.64990  -1
  12  -6  -3 59.8243 4.64990   2
 -11  -6  -3 209.945 15.4790  -1
 -13   6   3 209.945 15.4790   2
  12  -7  -3 183.500 10.2662  -1
  10   7   3 183.500 10.2662   2
 -12   7   3 184.456 10.5885  -1
 -10  -7  -3 184.456 10.5885   2
  11  -7  -3 93.3342 5.10959  -1
   9   7   3 93.3342 5.10959   2
 -11   7   3 67.5343 5.71953  -1
  -9  -7  -3 67.5343 5.71953   2
  10  -7  -3 37.5333 3.64153  -1
   8   7   3 37.5333 3.64153   2
 -10   7   3 27.3971 2.70228  -1
  -8  -7  -3 27.3971 2.70228   2
   9  -7  -3 679.423 17.5399  -1
   7   7   3 679.423 17.5399   2
  -9   7   3 666.687 15.6665  -1
  -7  -7  -3 666.687 15.6665   2
   8  -7  -3 139.410 4.93014  -1
   6   7   3 139.410 4.93014   2
  -8   7   3 114.986 3.25735  -1
  -6  -7  -3 114.986 3.25735   2
   7  -7  -3 110.218 5.28348  -1
   5   7   3 110.218 5.28348   2
  -7   7   3 90.0042 2.84315  -1
  -5  -7  -3 90.0042 2.84315   2
   6  -7  -3 785.754 15.6046  -1
   4   7   3 785.754 15.6046   2
  -6   7   3 718.574 12.0468  -1
  -4  -7  -3 718.574 12.0468   2
   5  -7  -3 771.682 15.0161  -1
   3   7   3 771.682 15.0161   2
  -5   7   3 748.397 12.1059  -1
  -3  -7  -3 748.397 12.1059   2
   4  -7  -3 60.6655 2.13153  -1
   2   7   3 60.6655 2.13153   2
  -4   7   3 83.9322 1.99917  -1
  -2  -7  -3 83.9322 1.99917   2
   3  -7  -3 355.525 6.27285  -1
   1   7   3 355.525 6.27285   2
  -3   7   3 367.557 6.43025  -1
  -1  -7  -3 367.557 6.43025   2
   2  -7  -3 374.855 5.77368  -1
   0   7   3 374.855 5.77368   2
  -2   7   3 419.296 6.73280  -1
   0  -7  -3 419.296 6.73280   2
   1  -7  -3 206.985 3.65605  -1
  -1   7   3 206.985 3.65605   2
  -1   7   3 209.026 4.79034  -1
   1  -7  -3 209.026 4.79034   2
   0  -7  -3 463.767 7.92882  -1
  -2   7   3 463.767 7.92882   2
   0   7   3 507.253 8.96819  -1
   2  -7  -3 507.253 8.96819   2
  -1  -7  -3 625.836 10.0230  -1
  -3   7   3 625.836 10.0230   2
   1   7   3 594.782 8.97950  -1
   3  -7  -3 594.782 8.97950   2
  -2  -7  -3 115.375 2.93109  -1
  -4   7   3 115.375 2.93109   2
   2   7   3 123.365 2.74501  -1
   4  -7  -3 123.365 2.74501   2
  -3  -7  -3 469.419 8.09188  -1
  -5   7   3 469.419 8.09188   2
   3   7   3 469.563 6.63736  -1
   5  -7  -3 469.563 6.63736   2
  -4  -7  -3 869.448 14.2836  -1
  -6   7   3 869.448 14.2836   2
   4   7   3 783.015 11.4195  -1
   6  -7  -3 783.015 11.4195   2
  -5  -7  -3 134.821 3.69758  -1
  -7   7   3 134.821 3.69758   2
   5   7   3 120.143 3.15426  -1
   7  -7  -3 120.143 3.15426   2
  -6  -7  -3 193.500 4.53996  -1
  -8   7   3 193.500 4.53996   2
   6   7   3 158.517 5.04397  -1
   8  -7  -3 158.517 5.04397   2
  -7  -7  -3 418.806 7.90178  -1
  -9   7   3 418.806 7.90178   2
   7   7   3 410.594 10.4224  -1
   9  -7  -3 410.594 10.4224   2
  -8  -7  -3 50.9414 2.80103  -1
 -10   7   3 50.9414 2.80103   2
   8   7   3 37.5465 2.90245  -1
  10  -7  -3 37.5465 2.90245   2
  -9  -7  -3 88.0773 4.78895  -1
 -11   7   3 88.0773 4.78895   2
   9   7   3 78.0671 4.22524  -1
  11  -7  -3 78.0671 4.22524   2
 -10  -7  -3 223.874 11.6612  -1
 -12   7   3 223.874 11.6612   2
  10   7   3 249.310 9.09620  -1
  12  -7  -3 249.310 9.09620   2
  12  -8  -3 344.890 20.1729  -1
  10   8   3 344.890 20.1729   2
  11  -8  -3 277.311 9.82641  -1
   9   8   3 277.311 9.82641   2
 -11   8   3 260.896 11.6644  -1
  -9  -8  -3 260.896 11.6644   2
  10  -8  -3 155.637 6.29893  -1
   8   8   3 155.637 6.29893   2
 -10   8   3 164.662 5.73157  -1
  -8  -8  -3 164.662 5.73157   2
   9  -8  -3 211.443 6.95745  -1
   7   8   3 211.443 6.95745   2
  -9   8   3 191.519 6.98098  -1
  -7  -8  -3 191.519 6.98098   2
   8  -8  -3 568.805 13.4556  -1
   6   8   3 568.805 13.4556   2
  -8   8   3 576.597 11.8413  -1
  -6  -8  -3 576.597 11.8413   2
   7  -8  -3 186.417 5.84113  -1
   5   8   3 186.417 5.84113   2
  -7   8   3 213.476 4.66711  -1
  -5  -8  -3 213.476 4.66711   2
   6  -8  -3 338.452 8.16714  -1
   4   8   3 338.452 8.16714   2
  -6   8   3 347.870 6.58296  -1
  -4  -8  -3 347.870 6.58296   2
   5  -8  -3 148.501 5.91369  -1
   3   8   3 148.501 5.91369   2
  -5   8   3 172.464 4.15928  -1
  -3  -8  -3 172.464 4.15928   2
   4  -8  -3 1075.14 16.8856  -1
   2   8   3 1075.14 16.8856   2
  -4   8   3 988.235 15.1590  -1
  -2  -8  -3 988.235 15.1590   2
   3  -8  -3 549.813 8.57512  -1
   1   8   3 549.813 8.57512   2
  -3   8   3 533.284 8.38164  -1
  -1  -8  -3 533.284 8.38164   2
   2  -8  -3 1823.61 25.3462  -1
   0   8   3 1823.61 25.3462   2
  -2   8   3 1827.75 27.4533  -1
   0  -8  -3 1827.75 27.4533   2
   1  -8  -3 1444.54 18.9074  -1
  -1   8   3 1444.54 18.9074   2
  -1   8   3 1353.94 26.7010  -1
   1  -8  -3 1353.94 26.7010   2
   0  -8  -3 1186.40 16.3309  -1
  -2   8   3 1186.40 16.3309   2
   0   8   3 1182.67 22.4706  -1
   2  -8  -3 1182.67 22.4706   2
  -1  -8  -3 650.755 10.7119  -1
  -3   8   3 650.755 10.7119   2
   1   8   3 672.840 13.5094  -1
   3  -8  -3 672.840 13.5094   2
  -2  -8  -3 654.787 9.32529  -1
  -4   8   3 654.787 9.32529   2
   2   8   3 687.952 11.6896  -1
   4  -8  -3 687.952 11.6896   2
  -3  -8  -3 118.728 23.7914  -1
  -5   8   3 118.728 23.7914   2
   3   8   3 165.859 3.28785  -1
   5  -8  -3 165.859 3.28785   2
  -4  -8  -3 192.816 6.47591  -1
  -6   8   3 192.816 6.47591   2
   4   8   3 224.469 3.94423  -1
   6  -8  -3 224.469 3.94423   2
  -5  -8  -3 301.098 6.56481  -1
  -7   8   3 301.098 6.56481   2
   5   8   3 306.412 5.69303  -1
   7  -8  -3 306.412 5.69303   2
  -6  -8  -3 914.511 15.8595  -1
  -8   8   3 914.511 15.8595   2
   6   8   3 891.620 15.1460  -1
   8  -8  -3 891.620 15.1460   2
  -7  -8  -3 326.371 6.46938  -1
  -9   8   3 326.371 6.46938   2
   7   8   3 274.604 8.09906  -1
   9  -8  -3 274.604 8.09906   2
  -8  -8  -3 96.7718 4.76422  -1
 -10   8   3 96.7718 4.76422   2
   8   8   3 105.861 4.72894  -1
  10  -8  -3 105.861 4.72894   2
  -9  -8  -3 455.475 14.0786  -1
 -11   8   3 455.475 14.0786   2
   9   8   3 410.642 12.6374  -1
  11  -8  -3 410.642 12.6374   2
  10   8   3 226.099 16.1905  -1
  12  -8  -3 226.099 16.1905   2
  11  -9  -3 102.587 12.9278  -1
   9   9   3 102.587 12.9278   2
 -11   9   3 151.380 9.64034  -1
  -9  -9  -3 151.380 9.64034   2
  10  -9  -3 148.612 6.96525  -1
   8   9   3 148.612 6.96525   2
 -10   9   3 183.364 9.33091  -1
  -8  -9  -3 183.364 9.33091   2
   9  -9  -3 412.883 10.9025  -1
   7   9   3 412.883 10.9025   2
  -9   9   3 413.495 11.3854  -1
  -7  -9  -3 413.495 11.3854   2
   8  -9  -3 167.685 6.05610  -1
   6   9   3 167.685 6.05610   2
  -8   9   3 196.067 4.57006  -1
  -6  -9  -3 196.067 4.57006   2
   7  -9  -3 807.502 19.9040  -1
   5   9   3 807.502 19.9040   2
  -7   9   3 815.533 15.5633  -1
  -5  -9  -3 815.533 15.5633   2
   6  -9  -3 614.704 12.5158  -1
   4   9   3 614.704 12.5158   2
  -6   9   3 548.477 11.1839  -1
  -4  -9  -3 548.477 11.1839   2
   5  -9  -3 265.504 6.60123  -1
   3   9   3 265.504 6.60123   2
  -5   9   3 233.980 5.18422  -1
  -3  -9  -3 233.980 5.18422   2
   4  -9  -3 938.990 15.2116  -1
   2   9   3 938.990 15.2116   2
  -4   9   3 877.274 14.9366  -1
  -2  -9  -3 877.274 14.9366   2
   3  -9  -3 389.409 7.74442  -1
   1   9   3 389.409 7.74442   2
  -3   9   3 434.130 7.40652  -1
  -1  -9  -3 434.130 7.40652   2
   2  -9  -3 70.5750 2.01707  -1
   0   9   3 70.5750 2.01707   2
   1  -9  -3 666.238 9.22421  -1
  -1   9   3 666.238 9.22421   2
  -1   9   3 673.164 11.9273  -1
   1  -9  -3 673.164 11.9273   2
   0  -9  -3 65.6818 2.11440  -1
  -2   9   3 65.6818 2.11440   2
  -1  -9  -3 616.287 10.0431  -1
  -3   9   3 616.287 10.0431   2
   1   9   3 584.905 12.7666  -1
   3  -9  -3 584.905 12.7666   2
  -2  -9  -3 1128.78 15.7388  -1
  -4   9   3 1128.78 15.7388   2
   2   9   3 1008.72 18.4063  -1
   4  -9  -3 1008.72 18.4063   2
  -3  -9  -3 371.194 7.91393  -1
  -5   9   3 371.194 7.91393   2
   3   9   3 356.098 7.38025  -1
   5  -9  -3 356.098 7.38025   2
  -4  -9  -3 812.616 13.8233  -1
  -6   9   3 812.616 13.8233   2
   4   9   3 745.589 12.7337  -1
   6  -9  -3 745.589 12.7337   2
  -5  -9  -3 558.397 11.0113  -1
  -7   9   3 558.397 11.0113   2
   5   9   3 601.415 11.3096  -1
   7  -9  -3 601.415 11.3096   2
  -6  -9  -3 285.260 6.32620  -1
  -8   9   3 285.260 6.32620   2
   6   9   3 284.972 8.09109  -1
   8  -9  -3 284.972 8.09109   2
  -7  -9  -3 288.876 6.26768  -1
  -9   9   3 288.876 6.26768   2
   7   9   3 279.738 8.18373  -1
   9  -9  -3 279.738 8.18373   2
  -8  -9  -3 119.026 5.89925  -1
 -10   9   3 119.026 5.89925   2
   8   9   3 170.319 6.07382  -1
  10  -9  -3 170.319 6.07382   2
  -9  -9  -3 133.899 11.0765  -1
 -11   9   3 133.899 11.0765   2
   9   9   3 139.246 6.93917  -1
  11  -9  -3 139.246 6.93917   2
 -10  10   3 115.585 5.84472  -1
  -8 -10  -3 115.585 5.84472   2
   9 -10  -3 221.139 9.56072  -1
   7  10   3 221.139 9.56072   2
  -9  10   3 204.168 8.76865  -1
  -7 -10  -3 204.168 8.76865   2
   8 -10  -3 434.391 10.9380  -1
   6  10   3 434.391 10.9380   2
  -8  10   3 451.719 10.1123  -1
  -6 -10  -3 451.719 10.1123   2
   7 -10  -3 57.0730 5.25107  -1
   5  10   3 57.0730 5.25107   2
  -7  10   3 28.4368 2.36856  -1
  -5 -10  -3 28.4368 2.36856   2
   6 -10  -3 338.826 9.06233  -1
   4  10   3 338.826 9.06233   2
  -6  10   3 342.155 8.66368  -1
  -4 -10  -3 342.155 8.66368   2
   5 -10  -3 254.914 6.62815  -1
   3  10   3 254.914 6.62815   2
  -5  10   3 243.015 5.64308  -1
  -3 -10  -3 243.015 5.64308   2
   4 -10  -3 258.419 5.76895  -1
   2  10   3 258.419 5.76895   2
  -4  10   3 235.906 4.28718  -1
  -2 -10  -3 235.906 4.28718   2
   3 -10  -3 435.172 8.60188  -1
   1  10   3 435.172 8.60188   2
  -3  10   3 462.625 9.15805  -1
  -1 -10  -3 462.625 9.15805   2
   2 -10  -3 398.314 6.71368  -1
   0  10   3 398.314 6.71368   2
  -2  10   3 360.738 6.79304  -1
   0 -10  -3 360.738 6.79304   2
   1 -10  -3 236.424 4.46686  -1
  -1  10   3 236.424 4.46686   2
  -1  10   3 196.416 4.51115  -1
   1 -10  -3 196.416 4.51115   2
   0 -10  -3 436.014 7.44916  -1
  -2  10   3 436.014 7.44916   2
   0  10   3 461.799 10.1585  -1
   2 -10  -3 461.799 10.1585   2
  -1 -10  -3 456.173 8.97143  -1
  -3  10   3 456.173 8.97143   2
   1  10   3 471.644 12.3388  -1
   3 -10  -3 471.644 12.3388   2
  -2 -10  -3 170.007 3.21302  -1
  -4  10   3 170.007 3.21302   2
   2  10   3 149.348 4.97386  -1
   4 -10  -3 149.348 4.97386   2
  -3 -10  -3 397.641 8.59100  -1
  -5  10   3 397.641 8.59100   2
   3  10   3 402.631 8.20880  -1
   5 -10  -3 402.631 8.20880   2
  -4 -10  -3 358.853 9.34558  -1
  -6  10   3 358.853 9.34558   2
   4  10   3 291.383 6.88971  -1
   6 -10  -3 291.383 6.88971   2
  -5 -10  -3 91.0746 4.11267  -1
  -7  10   3 91.0746 4.11267   2
   5  10   3 64.3233 27.5076  -1
   7 -10  -3 64.3233 27.5076   2
  -6 -10  -3 300.237 7.99520  -1
  -8  10   3 300.237 7.99520   2
   6  10   3 306.357 7.61204  -1
   8 -10  -3 306.357 7.61204   2
  -7 -10  -3 368.794 8.63956  -1
  -9  10   3 368.794 8.63956   2
   7  10   3 315.053 9.25354  -1
   9 -10  -3 315.053 9.25354   2
  -8 -10  -3 185.973 8.36693  -1
 -10  10   3 185.973 8.36693   2
   8  10   3 147.015 6.63351  -1
  10 -10  -3 147.015 6.63351   2
   9  10   3 109.801 11.1916  -1
  11 -10  -3 109.801 11.1916   2
  10 -11  -3 177.949 10.2317  -1
   8  11   3 177.949 10.2317   2
 -10  11   3 176.893 13.3344  -1
  -8 -11  -3 176.893 13.3344   2
   9 -11  -3 69.6049 4.95594  -1
   7  11   3 69.6049 4.95594   2
  -9  11   3 113.116 9.20930  -1
  -7 -11  -3 113.116 9.20930   2
   8 -11  -3 239.263 9.40519  -1
   6  11   3 239.263 9.40519   2
  -8  11   3 268.552 7.34604  -1
  -6 -11  -3 268.552 7.34604   2
   7 -11  -3 213.424 8.79745  -1
   5  11   3 213.424 8.79745   2
  -7  11   3 209.804 5.45726  -1
  -5 -11  -3 209.804 5.45726   2
   6 -11  -3 84.5577 4.57501  -1
   4  11   3 84.5577 4.57501   2
  -6  11   3 108.577 4.07314  -1
  -4 -11  -3 108.577 4.07314   2
   5 -11  -3 294.008 7.85118  -1
   3  11   3 294.008 7.85118   2
  -5  11   3 264.611 5.91900  -1
  -3 -11  -3 264.611 5.91900   2
   4 -11  -3 49.4423 2.63152  -1
   2  11   3 49.4423 2.63152   2
  -4  11   3 51.7291 2.11150  -1
  -2 -11  -3 51.7291 2.11150   2
   3 -11  -3 1176.64 19.0086  -1
   1  11   3 1176.64 19.0086   2
  -3  11   3 1124.02 18.7120  -1
  -1 -11  -3 1124.02 18.7120   2
   2 -11  -3 820.959 12.7667  -1
   0  11   3 820.959 12.7667   2
  -2  11   3 770.401 13.0260  -1
   0 -11  -3 770.401 13.0260   2
   1 -11  -3 146.429 3.39212  -1
  -1  11   3 146.429 3.39212   2
  -1  11   3 119.290 3.39256  -1
   1 -11  -3 119.290 3.39256   2
   0 -11  -3 1034.51 17.3592  -1
  -2  11   3 1034.51 17.3592   2
   0  11   3 934.118 23.3560  -1
   2 -11  -3 934.118 23.3560   2
  -1 -11  -3 667.499 10.5237  -1
  -3  11   3 667.499 10.5237   2
   1  11   3 686.225 14.3354  -1
   3 -11  -3 686.225 14.3354   2
  -2 -11  -3 51.1655 2.37379  -1
  -4  11   3 51.1655 2.37379   2
   2  11   3 64.1411 3.67649  -1
   4 -11  -3 64.1411 3.67649   2
  -3 -11  -3 210.477 6.79919  -1
  -5  11   3 210.477 6.79919   2
   3  11   3 187.097 6.02656  -1
   5 -11  -3 187.097 6.02656   2
  -4 -11  -3 64.1845 3.76319  -1
  -6  11   3 64.1845 3.76319   2
   4  11   3 102.315 6.54055  -1
   6 -11  -3 102.315 6.54055   2
  -5 -11  -3 268.662 7.50789  -1
  -7  11   3 268.662 7.50789   2
   5  11   3 250.780 8.27841  -1
   7 -11  -3 250.780 8.27841   2
  -6 -11  -3 299.591 9.58695  -1
  -8  11   3 299.591 9.58695   2
   6  11   3 315.045 9.53309  -1
   8 -11  -3 315.045 9.53309   2
  -7 -11  -3 119.038 6.57599  -1
  -9  11   3 119.038 6.57599   2
   7  11   3 114.821 8.10523  -1
   9 -11  -3 114.821 8.10523   2
   8  11   3 244.229 17.3695  -1
  10 -11  -3 244.229 17.3695   2
   9 -12  -3 112.886 8.19142  -1
   7  12   3 112.886 8.19142   2
  -9  12   3 109.690 12.4449  -1
  -7 -12  -3 109.690 12.4449   2
   8 -12  -3 446.401 14.6512  -1
   6  12   3 446.401 14.6512   2
  -8  12   3 371.200 10.8820  -1
  -6 -12  -3 371.200 10.8820   2
   7 -12  -3 336.954 9.48555  -1
   5  12   3 336.954 9.48555   2
  -7  12   3 317.269 8.58057  -1
  -5 -12  -3 317.269 8.58057   2
   6 -12  -3 349.901 9.71862  -1
   4  12   3 349.901 9.71862   2
  -6  12   3 318.623 7.14599  -1
  -4 -12  -3 318.623 7.14599   2
   5 -12  -3 1072.83 21.8696  -1
   3  12   3 1072.83 21.8696   2
  -5  12   3 1034.08 19.3833  -1
  -3 -12  -3 1034.08 19.3833   2
   4 -12  -3 278.883 7.42811  -1
   2  12   3 278.883 7.42811   2
  -4  12   3 303.065 6.29692  -1
  -2 -12  -3 303.065 6.29692   2
   3 -12  -3 44.9321 2.57092  -1
   1  12   3 44.9321 2.57092   2
  -3  12   3 18.8560 1.79056  -1
  -1 -12  -3 18.8560 1.79056   2
   2 -12  -3 402.100 8.19975  -1
   0  12   3 402.100 8.19975   2
  -2  12   3 411.771 8.41714  -1
   0 -12  -3 411.771 8.41714   2
   1 -12  -3 192.845 51.3083  -1
  -1  12   3 192.845 51.3083   2
  -1  12   3 185.269 5.85093  -1
   1 -12  -3 185.269 5.85093   2
   0 -12  -3 738.494 13.5278  -1
  -2  12   3 738.494 13.5278   2
   0  12   3 683.187 17.3626  -1
   2 -12  -3 683.187 17.3626   2
  -1 -12  -3 60.2808 2.58848  -1
  -3  12   3 60.2808 2.58848   2
   1  12   3 27.0468 6.13524  -1
   3 -12  -3 27.0468 6.13524   2
  -2 -12  -3 402.403 7.56541  -1
  -4  12   3 402.403 7.56541   2
   2  12   3 395.213 9.90459  -1
   4 -12  -3 395.213 9.90459   2
  -3 -12  -3 1161.17 22.4678  -1
  -5  12   3 1161.17 22.4678   2
   3  12   3 1092.82 20.8270  -1
   5 -12  -3 1092.82 20.8270   2
  -4 -12  -3 179.414 6.12698  -1
  -6  12   3 179.414 6.12698   2
   4  12   3 192.780 7.92437  -1
   6 -12  -3 192.780 7.92437   2
  -5 -12  -3 508.035 11.7749  -1
  -7  12   3 508.035 11.7749   2
   5  12   3 447.777 12.2540  -1
   7 -12  -3 447.777 12.2540   2
  -6 -12  -3 251.803 8.72205  -1
  -8  12   3 251.803 8.72205   2
   6  12   3 263.502 8.53903  -1
   8 -12  -3 263.502 8.53903   2
   7  12   3 95.2695 7.25191  -1
   9 -12  -3 95.2695 7.25191   2
   7 -13  -3 52.6191 4.13948  -1
   5  13   3 52.6191 4.13948   2
  -7  13   3 63.4408 4.77862  -1
  -5 -13  -3 63.4408 4.77862   2
   6 -13  -3 75.7125 5.17969  -1
   4  13   3 75.7125 5.17969   2
  -6  13   3 88.8832 5.56416  -1
  -4 -13  -3 88.8832 5.56416   2
   5 -13  -3 363.162 9.57331  -1
   3  13   3 363.162 9.57331   2
  -5  13   3 344.193 9.78199  -1
  -3 -13  -3 344.193 9.78199   2
   4 -13  -3 33.3762 2.98224  -1
   2  13   3 33.3762 2.98224   2
  -4  13   3 25.8265 3.83372  -1
  -2 -13  -3 25.8265 3.83372   2
   3 -13  -3 237.180 7.86728  -1
   1  13   3 237.180 7.86728   2
  -3  13   3 233.182 5.72588  -1
  -1 -13  -3 233.182 5.72588   2
   2 -13  -3 377.559 12.1564  -1
   0  13   3 377.559 12.1564   2
  -2  13   3 385.207 7.92502  -1
   0 -13  -3 385.207 7.92502   2
   1 -13  -3 215.777 7.06501  -1
  -1  13   3 215.777 7.06501   2
  -1  13   3 237.400 5.72677  -1
   1 -13  -3 237.400 5.72677   2
   0 -13  -3 399.723 8.42451  -1
  -2  13   3 399.723 8.42451   2
   0  13   3 414.579 10.1923  -1
   2 -13  -3 414.579 10.1923   2
  -1 -13  -3 188.235 4.87902  -1
  -3  13   3 188.235 4.87902   2
   1  13   3 183.008 5.58979  -1
   3 -13  -3 183.008 5.58979   2
  -2 -13  -3 60.1997 3.31585  -1
  -4  13   3 60.1997 3.31585   2
   2  13   3 43.8254 3.67465  -1
   4 -13  -3 43.8254 3.67465   2
  -3 -13  -3 191.211 6.01868  -1
  -5  13   3 191.211 6.01868   2
   3  13   3 221.451 8.63671  -1
   5 -13  -3 221.451 8.63671   2
  -4 -13  -3 95.6577 5.05409  -1
  -6  13   3 95.6577 5.05409   2
   4  13   3 108.201 5.85913  -1
   6 -13  -3 108.201 5.85913   2
  -5 -13  -3 72.3563 5.54176  -1
  -7  13   3 72.3563 5.54176   2
   5  13   3 70.9226 4.91483  -1
   7 -13  -3 70.9226 4.91483   2
   6  13   3 160.764 8.66689  -1
   8 -13  -3 160.764 8.66689   2
   6 -14  -3 168.866 15.1993  -1
   4  14   3 168.866 15.1993   2
  -6  14   3 162.655 21.0068  -1
  -4 -14  -3 162.655 21.0068   2
   5 -14  -3 37.2534 5.43911  -1
   3  14   3 37.2534 5.43911   2
  -5  14   3 53.9604 4.12619  -1
  -3 -14  -3 53.9604 4.12619   2
   4 -14  -3 230.769 9.38321  -1
   2  14   3 230.769 9.38321   2
  -4  14   3 203.182 8.56231  -1
  -2 -14  -3 203.182 8.56231   2
   3 -14  -3 355.306 13.4481  -1
   1  14   3 355.306 13.4481   2
  -3  14   3 387.818 12.0697  -1
  -1 -14  -3 387.818 12.0697   2
   2 -14  -3 412.648 10.6795  -1
   0  14   3 412.648 10.6795   2
  -2  14   3 369.958 10.2807  -1
   0 -14  -3 369.958 10.2807   2
   1 -14  -3 323.139 7.72291  -1
  -1  14   3 323.139 7.72291   2
  -1  14   3 226.102 8.27316  -1
   1 -14  -3 226.102 8.27316   2
   0 -14  -3 222.642 6.22250  -1
  -2  14   3 222.642 6.22250   2
   0  14   3 242.993 6.19035  -1
   2 -14  -3 242.993 6.19035   2
  -1 -14  -3 400.788 11.2301  -1
  -3  14   3 400.788 11.2301   2
   1  14   3 437.748 9.69910  -1
   3 -14  -3 437.748 9.69910   2
  -2 -14  -3 157.916 6.01633  -1
  -4  14   3 157.916 6.01633   2
   2  14   3 160.718 6.05506  -1
   4 -14  -3 160.718 6.05506   2
  -3 -14  -3 28.8334 3.46116  -1
  -5  14   3 28.8334 3.46116   2
   3  14   3 49.3258 3.88503  -1
   5 -14  -3 49.3258 3.88503   2
  -4 -14  -3 115.906 6.60108  -1
  -6  14   3 115.906 6.60108   2
   4  14   3 117.983 7.42443  -1
   6 -14  -3 117.983 7.42443   2
   4 -15  -3 326.236 20.7674  -1
   2  15   3 326.236 20.7674   2
   3 -15  -3 150.646 13.7578  -1
   1  15   3 150.646 13.7578   2
  -3  15   3 191.781 9.95525  -1
  -1 -15  -3 191.781 9.95525   2
   2 -15  -3 47.8259 11.8360  -1
   0  15   3 47.8259 11.8360   2
  -2  15   3 87.2569 6.01292  -1
   0 -15  -3 87.2569 6.01292   2
   1 -15  -3 175.876 8.68212  -1
  -1  15   3 175.876 8.68212   2
  -1  15   3 183.539 7.28020  -1
   1 -15  -3 183.539 7.28020   2
   0  15   3 80.2526 4.40827  -1
   2 -15  -3 80.2526 4.40827   2
  -1 -15  -3 244.686 15.7207  -1
  -3  15   3 244.686 15.7207   2
   1  15   3 244.834 10.0435  -1
   3 -15  -3 244.834 10.0435   2
  -2 -15  -3 440.371 13.6249  -1
  -4  15   3 440.371 13.6249   2
   2  15   3 399.004 21.9804  -1
   4 -15  -3 399.004 21.9804   2
 -13   0   4 153.826 8.53192   2
 -12   0   4 9.34430 1.83007   2
 -11   0   4 370.365 7.85612   2
 -10   0   4 21.7024 1.73686   2
  -9   0   4 185.274 4.30089   2
  -8   0   4 55.0205 1.99835   2
  -7   0   4 708.659 11.7341   2
  -6   0   4 98.9386 2.66668   2
  -5   0   4 2724.19 34.5763   2
  -4   0   4 161.662 2.71703   2
  -3   0   4 84.4024 1.37142   2
  -2   0   4 2104.94 29.0971   2
  -1   0   4 3048.00 115.725   2
   0   0   4 10.8003 0.43461   2
   1   0   4 92.9402 1.33163   2
   2   0   4 1850.47 19.6585   2
   3   0   4 503.401 5.80317   2
   4   0   4 854.035 12.4323   2
   5   0   4 93.7172 2.71331   2
   6   0   4 294.062 7.51591   2
   7   0   4 29.3386 2.48282   2
   8   0   4 119.863 4.97346   2
   9   0   4 0.94458 1.34641   2
  10   0   4 388.756 11.4319   2
  11   0   4 25.0792 4.39422   2
  13  -1  -4 5.36010 4.00163   2
 -13   1   4 4.01321 2.80276   2
  12  -1  -4 317.090 7.77818   2
 -12   1   4 309.046 8.53437   2
  11  -1  -4 131.903 4.12246   2
 -11   1   4 132.588 4.83562   2
  10  -1  -4 309.720 7.57698   2
 -10   1   4 284.225 7.24972   2
   9  -1  -4 3.48772 1.18194   2
  -9   1   4 5.58427 1.35686   2
   8  -1  -4 781.930 12.0619   2
  -8   1   4 790.271 11.0275   2
   7  -1  -4 15.8812 1.19910   2
  -7   1   4 21.2813 1.02793   2
   6  -1  -4 844.475 13.5828   2
  -6   1   4 842.880 10.8050   2
   5  -1  -4 70.8142 1.69922   2
  -5   1   4 78.7575 1.37634   2
   4  -1  -4 885.094 11.5855   2
  -4   1   4 902.354 10.7772   2
   3  -1  -4 368.290 4.48713   2
  -3   1   4 372.160 4.73111   2
   2  -1  -4 1248.26 11.9110   2
  -2   1   4 1228.43 12.2872   2
   1  -1  -4 908.450 9.37438   2
  -1   1   4 902.412 8.47209   2
   0  -1  -4 1763.28 16.9779   2
   0   1   4 1728.94 15.3904   2
  -1  -1  -4 221.189 2.67289   2
   1   1   4 223.929 2.56325   2
  -2  -1  -4 65.4955 1.12813   2
   2   1   4 78.3081 1.28036   2
  -3  -1  -4 962.327 11.3300   2
   3   1   4 939.421 10.8354   2
  -4  -1  -4 314.019 5.02055   2
   4   1   4 332.029 5.52037   2
  -5  -1  -4 532.339 10.3545   2
   5   1   4 570.255 9.93023   2
  -6  -1  -4 190.732 5.52977   2
   6   1   4 180.784 3.99791   2
  -7  -1  -4 350.051 10.1881   2
   7   1   4 328.821 6.56118   2
  -8  -1  -4 7.46445 1.98633   2
   8   1   4 6.44135 1.71347   2
  -9  -1  -4 453.331 11.3185   2
   9   1   4 443.135 11.6415   2
 -10  -1  -4 3.79757 2.76498   2
  10   1   4 5.37281 2.82876   2
 -11  -1  -4 72.1776 6.66785   2
  11   1   4 48.9324 5.66715   2
  13  -2  -4 173.013 6.50597   2
 -13   2   4 166.207 7.88811   2
  12  -2  -4 54.4680 3.97671   2
 -12   2   4 41.7714 3.15696   2
  11  -2  -4 167.253 4.90606   2
 -11   2   4 182.782 6.45085   2
  10  -2  -4 -1.1772 1.50519   2
 -10   2   4 12.6791 1.02296   2
   9  -2  -4 676.202 13.9697   2
  -9   2   4 655.122 12.1447   2
   8  -2  -4 19.4650 1.28415   2
  -8   2   4 16.2174 1.43651   2
   7  -2  -4 932.506 15.0289   2
  -7   2   4 925.938 16.6539   2
   6  -2  -4 5.47463 0.68239   2
  -6   2   4 3.37562 0.70052   2
   5  -2  -4 242.811 4.03410   2
  -5   2   4 247.858 3.82219   2
   4  -2  -4 777.109 9.25652   2
  -4   2   4 766.235 8.86100   2
   3  -2  -4 1762.32 18.9985   2
  -3   2   4 1764.15 19.0126   2
   2  -2  -4 351.071 3.74417   2
  -2   2   4 349.396 3.84870   2
   1  -2  -4 780.951 7.99102   2
  -1   2   4 789.732 7.44204   2
   0  -2  -4 890.398 9.01090   2
   0   2   4 899.613 8.43130   2
  -1  -2  -4 1053.29 9.95939   2
   1   2   4 1050.54 10.4850   2
  -2  -2  -4 192.128 2.41617   2
   2   2   4 200.703 2.65772   2
  -3  -2  -4 219.195 3.33355   2
   3   2   4 210.497 3.06525   2
  -4  -2  -4 675.151 9.93631   2
   4   2   4 642.565 9.68064   2
  -5  -2  -4 109.647 3.06324   2
   5   2   4 113.810 2.69496   2
  -6  -2  -4 593.258 12.6636   2
   6   2   4 563.637 10.0291   2
  -7  -2  -4 9.71730 2.33568   2
   7   2   4 29.3541 1.98828   2
  -8  -2  -4 293.376 8.74399   2
   8   2   4 332.607 9.70045   2
  -9  -2  -4 1.64418 1.90596   2
   9   2   4 3.13897 2.17920   2
 -10  -2  -4 172.298 7.00337   2
  10   2   4 175.812 5.95938   2
 -11  -2  -4 1.99281 4.49864   2
  11   2   4 3.72414 4.28309   2
  13  -3  -4 247.059 8.50904   2
 -13   3   4 249.971 15.8729   2
  12  -3  -4 73.4233 4.38862   2
 -12   3   4 63.4239 3.80539   2
  11  -3  -4 32.3100 2.05794   2
 -11   3   4 26.2669 2.42468   2
  10  -3  -4 350.749 7.76918   2
 -10   3   4 341.965 8.14436   2
   9  -3  -4 25.4004 1.98049   2
  -9   3   4 20.2325 1.65709   2
   8  -3  -4 429.003 11.6654   2
  -8   3   4 412.592 9.39901   2
   7  -3  -4 1.81121 0.87495   2
  -7   3   4 7.34619 0.87601   2
   6  -3  -4 936.780 16.5101   2
  -6   3   4 931.892 17.7261   2
   5  -3  -4 1.91715 0.74475   2
  -5   3   4 7.82683 0.46892   2
   4  -3  -4 579.681 8.12404   2
  -4   3   4 588.750 7.33012   2
   3  -3  -4 415.980 5.30751   2
  -3   3   4 419.620 5.32705   2
   2  -3  -4 1313.28 13.6634   2
  -2   3   4 1300.89 14.7281   2
   1  -3  -4 133.557 1.73946   2
  -1   3   4 140.899 2.02406   2
   0  -3  -4 262.669 3.04609   2
   0   3   4 267.376 3.80301   2
  -1  -3  -4 1493.68 14.9233   2
   1   3   4 1482.98 18.2463   2
  -2  -3  -4 1048.04 10.8223   2
   2   3   4 1050.00 11.7320   2
  -3  -3  -4 387.988 5.83316   2
   3   3   4 399.310 6.75282   2
  -4  -3  -4 17.6449 1.05193   2
   4   3   4 20.9084 1.16188   2
  -5  -3  -4 440.676 7.36571   2
   5   3   4 449.114 7.27494   2
  -6  -3  -4 13.9443 1.29775   2
   6   3   4 20.1743 1.94854   2
  -7  -3  -4 281.290 7.97140   2
   7   3   4 281.002 7.87696   2
  -8  -3  -4 84.4916 4.60542   2
   8   3   4 75.1933 4.62993   2
  -9  -3  -4 94.1246 4.92282   2
   9   3   4 76.0880 3.82432   2
 -10  -3  -4 26.6629 3.64230   2
  10   3   4 29.0391 3.60605   2
 -11  -3  -4 389.012 21.4250   2
  13  -4  -4 76.6858 5.18949   2
 -13   4   4 100.613 5.98573   2
  12  -4  -4 104.972 4.65159   2
 -12   4   4 107.298 6.07315   2
  11  -4  -4 121.616 5.80156   2
 -11   4   4 105.392 6.08768   2
  10  -4  -4 75.3705 4.24288   2
 -10   4   4 56.5636 3.27152   2
   9  -4  -4 377.412 10.7076   2
  -9   4   4 373.535 8.37595   2
   8  -4  -4 113.065 4.81478   2
  -8   4   4 83.8501 3.27650   2
   7  -4  -4 811.156 18.8809   2
  -7   4   4 799.555 13.8529   2
   6  -4  -4 16.7505 1.69631   2
  -6   4   4 27.5622 1.43252   2
   5  -4  -4 387.418 7.70301   2
  -5   4   4 375.112 5.41641   2
   4  -4  -4 177.251 3.12876   2
  -4   4   4 173.118 2.68641   2
   3  -4  -4 1165.82 13.8313   2
  -3   4   4 1161.17 12.4407   2
   2  -4  -4 60.3153 1.24738   2
  -2   4   4 60.8063 1.21561   2
   1  -4  -4 432.172 5.50521   2
  -1   4   4 446.110 5.32340   2
   0  -4  -4 621.123 6.26727   2
   0   4   4 611.251 7.98449   2
  -1  -4  -4 419.935 5.20897   2
   1   4   4 420.377 5.60790   2
  -2  -4  -4 247.795 4.08145   2
   2   4   4 252.240 4.37476   2
  -3  -4  -4 21.7266 1.33368   2
   3   4   4 30.6974 2.07275   2
  -4  -4  -4 766.956 10.6029   2
   4   4   4 763.557 10.2562   2
  -5  -4  -4 414.454 6.58423   2
   5   4   4 421.300 6.77992   2
  -6  -4  -4 234.974 5.28359   2
   6   4   4 240.682 4.56048   2
  -7  -4  -4 6.04691 1.04158   2
   7   4   4 10.1331 1.44235   2
  -8  -4  -4 343.836 9.54702   2
   8   4   4 323.387 8.45759   2
  -9  -4  -4 1.23289 2.44273   2
   9   4   4 2.22265 3.37234   2
 -10  -4  -4 65.5397 5.28821   2
  10   4   4 71.1681 6.18024   2
  13  -5  -4 5.82494 3.27736   2
 -13   5   4 1.76583 2.78878   2
  12  -5  -4 304.164 7.61117   2
 -12   5   4 301.541 14.3585   2
  11  -5  -4 33.7629 2.74255   2
 -11   5   4 25.4848 2.67656   2
  10  -5  -4 126.239 6.54254   2
 -10   5   4 152.446 5.07503   2
   9  -5  -4 59.3555 4.10422   2
  -9   5   4 66.0933 2.86136   2
   8  -5  -4 214.814 5.66890   2
  -8   5   4 206.488 4.97345   2
   7  -5  -4 18.9421 1.60925   2
  -7   5   4 15.5559 1.15914   2
   6  -5  -4 727.528 14.3516   2
  -6   5   4 732.772 11.6024   2
   5  -5  -4 24.0017 1.09281   2
  -5   5   4 22.6921 1.07792   2
   4  -5  -4 413.418 5.89694   2
  -4   5   4 410.682 5.51626   2
   3  -5  -4 507.433 7.01305   2
  -3   5   4 507.616 6.11841   2
   2  -5  -4 470.115 5.57605   2
  -2   5   4 476.729 6.65875   2
   1  -5  -4 412.347 4.79902   2
  -1   5   4 430.247 5.54365   2
   0  -5  -4 995.813 10.8493   2
   0   5   4 966.585 12.3237   2
  -1  -5  -4 12.4026 0.82820   2
   1   5   4 8.09005 0.64660   2
  -2  -5  -4 5.17262 0.64536   2
   2   5   4 20.2695 7.52262   2
  -3  -5  -4 784.796 12.3909   2
   3   5   4 780.641 15.2677   2
  -4  -5  -4 263.475 5.94717   2
   4   5   4 260.540 6.75525   2
  -5  -5  -4 432.617 8.03956   2
   5   5   4 452.074 10.2659   2
  -6  -5  -4 51.7353 2.65934   2
   6   5   4 36.3451 3.15942   2
  -7  -5  -4 129.250 5.90515   2
   7   5   4 120.917 5.46305   2
  -8  -5  -4 21.8306 3.80746   2
   8   5   4 26.8225 3.57727   2
  -9  -5  -4 259.408 10.0380   2
   9   5   4 267.090 10.2180   2
 -10  -5  -4 17.6477 3.46337   2
  10   5   4 13.2796 4.15575   2
 -13   6   4 46.7697 7.67136   2
  12  -6  -4 12.7924 2.28366   2
 -12   6   4 9.48145 2.51256   2
  11  -6  -4 248.425 7.14748   2
 -11   6   4 235.330 6.75403   2
  10  -6  -4 14.5113 2.18183   2
 -10   6   4 37.4030 1.98153   2
   9  -6  -4 172.590 5.90121   2
  -9   6   4 171.945 5.65375   2
   8  -6  -4 20.0311 1.48714   2
  -8   6   4 8.67633 1.05182   2
   7  -6  -4 265.648 5.79006   2
  -7   6   4 268.114 5.01127   2
   6  -6  -4 27.4921 1.39201   2
  -6   6   4 25.5619 1.43464   2
   5  -6  -4 631.373 9.82513   2
  -5   6   4 616.790 9.33865   2
   4  -6  -4 99.8703 2.64786   2
  -4   6   4 119.530 2.46669   2
   3  -6  -4 5.86936 0.68570   2
  -3   6   4 10.6487 1.02323   2
   2  -6  -4 1156.94 16.8435   2
  -2   6   4 1128.99 14.3410   2
   1  -6  -4 1681.71 22.3519   2
  -1   6   4 1711.41 20.4268   2
   0  -6  -4 20.0115 1.22684   2
   0   6   4 29.6898 2.72574   2
  -1  -6  -4 57.2552 1.88328   2
   1   6   4 65.8666 1.79794   2
  -2  -6  -4 674.565 9.41346   2
   2   6   4 674.166 11.8480   2
  -3  -6  -4 207.125 3.74956   2
   3   6   4 184.915 5.28492   2
  -4  -6  -4 178.919 4.18801   2
   4   6   4 184.172 5.39246   2
  -5  -6  -4 1.95650 0.97965   2
   5   6   4 6.18483 1.89857   2
  -6  -6  -4 120.120 4.87222   2
   6   6   4 117.862 4.83108   2
  -7  -6  -4 16.2787 2.67218   2
   7   6   4 13.3661 2.48211   2
  -8  -6  -4 99.2614 5.09519   2
   8   6   4 102.533 5.40199   2
  -9  -6  -4 10.4749 3.77745   2
   9   6   4 7.31540 3.01063   2
 -10  -6  -4 289.391 18.5711   2
  10   6   4 316.903 15.3904   2
  12  -7  -4 34.0660 4.04279   2
 -12   7   4 24.3646 3.17628   2
  11  -7  -4 113.238 4.86037   2
 -11   7   4 132.410 5.73125   2
  10  -7  -4 32.4633 3.14483   2
 -10   7   4 46.1479 2.88781   2
   9  -7  -4 101.407 3.83650   2
  -9   7   4 70.4229 2.78141   2
   8  -7  -4 564.197 10.4392   2
  -8   7   4 602.920 10.8565   2
   7  -7  -4 22.2634 1.52500   2
  -7   7   4 32.0113 1.98493   2
   6  -7  -4 206.371 4.30507   2
  -6   7   4 212.519 4.54181   2
   5  -7  -4 64.4765 2.19690   2
  -5   7   4 55.0582 2.10088   2
   4  -7  -4 323.654 5.70520   2
  -4   7   4 329.198 6.05509   2
   3  -7  -4 5.76944 0.88356   2
  -3   7   4 9.76547 0.88668   2
   2  -7  -4 134.121 3.40711   2
  -2   7   4 129.735 2.87721   2
   1  -7  -4 269.344 5.62668   2
  -1   7   4 248.451 4.24829   2
   0  -7  -4 176.071 4.34476   2
   0   7   4 179.923 4.07415   2
  -1  -7  -4 193.312 4.16180   2
   1   7   4 188.449 5.10045   2
  -2  -7  -4 89.3460 2.09997   2
   2   7   4 93.0192 2.72971   2
  -3  -7  -4 187.382 3.72327   2
   3   7   4 194.091 5.23210   2
  -4  -7  -4 98.3853 3.06363   2
   4   7   4 100.603 4.09510   2
  -5  -7  -4 166.718 4.86190   2
   5   7   4 203.943 6.97959   2
  -6  -7  -4 78.4745 4.34060   2
   6   7   4 72.4211 4.74031   2
  -7  -7  -4 128.258 5.64666   2
   7   7   4 136.081 5.70950   2
  -8  -7  -4 13.3477 2.66581   2
   8   7   4 23.2212 3.47366   2
  -9  -7  -4 125.173 7.34178   2
   9   7   4 106.230 7.20050   2
  10   7   4 7.60856 5.17917   2
  12  -8  -4 25.7387 6.32748   2
 -12   8   4 36.1468 8.36316   2
  11  -8  -4 4.93111 2.07196   2
 -11   8   4 17.5960 3.05145   2
  10  -8  -4 19.0314 2.58207   2
 -10   8   4 15.1783 2.07367   2
   9  -8  -4 102.821 4.39888   2
  -9   8   4 90.3650 3.10140   2
   8  -8  -4 33.4308 2.16593   2
  -8   8   4 28.8067 2.33347   2
   7  -8  -4 163.137 4.55274   2
  -7   8   4 159.949 4.27142   2
   6  -8  -4 3.87542 1.12823   2
  -6   8   4 17.2573 1.26900   2
   5  -8  -4 120.189 3.17389   2
  -5   8   4 138.474 3.10377   2
   4  -8  -4 424.507 6.88475   2
  -4   8   4 416.662 7.54237   2
   3  -8  -4 644.563 13.1463   2
  -3   8   4 626.819 10.2317   2
  -2   8   4 20.5998 1.40531   2
   1  -8  -4 16.5277 1.50417   2
  -1   8   4 7.30867 0.80374   2
   0  -8  -4 80.7749 2.38216   2
   0   8   4 78.0122 2.49542   2
  -1  -8  -4 125.177 2.82800   2
   1   8   4 117.817 2.98259   2
  -2  -8  -4 96.5753 2.40860   2
   2   8   4 100.874 3.79410   2
  -3  -8  -4 34.0365 1.64574   2
   3   8   4 35.5699 2.09615   2
  -4  -8  -4 233.240 4.52007   2
   4   8   4 243.707 6.32482   2
  -5  -8  -4 14.0700 1.96642   2
   5   8   4 23.6524 2.04375   2
  -6  -8  -4 258.567 6.75723   2
   6   8   4 253.085 7.72560   2
  -7  -8  -4 46.2184 3.71536   2
   7   8   4 34.2937 3.27813   2
  -8  -8  -4 9.33225 2.70791   2
   8   8   4 16.6844 3.10361   2
  -9  -8  -4 9.56019 4.05669   2
   9   8   4 13.1579 3.42139   2
  11  -9  -4 11.2909 2.41713   2
 -11   9   4 0.69882 2.87737   2
  10  -9  -4 147.911 6.20148   2
 -10   9   4 134.683 6.35197   2
   9  -9  -4 19.5452 2.59370   2
  -9   9   4 21.7652 2.18055   2
   8  -9  -4 57.8773 3.73117   2
  -8   9   4 68.4457 2.67761   2
   7  -9  -4 25.5226 2.13306   2
  -7   9   4 13.7806 1.64937   2
   6  -9  -4 49.8725 2.66533   2
  -6   9   4 39.6649 2.43374   2
   5  -9  -4 10.1986 1.13700   2
  -5   9   4 13.3259 1.37154   2
   4  -9  -4 28.9550 2.54919   2
  -4   9   4 25.0237 1.58667   2
   3  -9  -4 137.949 4.37547   2
  -3   9   4 129.166 3.24799   2
   2  -9  -4 426.839 9.58506   2
  -2   9   4 437.026 8.34489   2
   1  -9  -4 11.7298 1.05809   2
  -1   9   4 7.94222 1.97446   2
   0  -9  -4 58.4158 1.97721   2
   0   9   4 74.0226 2.40179   2
  -1  -9  -4 194.420 3.80905   2
   1   9   4 205.527 4.70233   2
  -2  -9  -4 76.6017 1.78420   2
   2   9   4 67.6609 2.95562   2
  -3  -9  -4 40.9897 1.87968   2
   3   9   4 36.3145 3.57732   2
  -4  -9  -4 6.22147 1.26867   2
   4   9   4 11.3589 1.52992   2
  -5  -9  -4 106.222 4.34298   2
   5   9   4 106.810 4.44598   2
  -6  -9  -4 0.94293 1.51094   2
   6   9   4 5.28445 1.93262   2
  -7  -9  -4 66.2365 4.45283   2
   7   9   4 50.0953 3.97126   2
  -8  -9  -4 37.8121 4.38904   2
   8   9   4 22.2929 3.91318   2
  -9  -9  -4 17.2238 4.88111   2
  11 -10  -4 6.87946 4.75321   2
  10 -10  -4 15.7989 3.19852   2
 -10  10   4 25.4284 3.33897   2
   9 -10  -4 35.4891 3.21157   2
  -9  10   4 32.4524 2.82349   2
   8 -10  -4 48.7612 3.44531   2
  -8  10   4 37.3236 2.53988   2
   7 -10  -4 293.021 7.02042   2
  -7  10   4 277.720 7.45514   2
   6 -10  -4 13.2194 1.31309   2
  -6  10   4 16.5185 2.12162   2
   5 -10  -4 17.1100 2.07616   2
  -5  10   4 20.1510 1.77931   2
   4 -10  -4 12.1872 2.17339   2
  -4  10   4 19.5925 1.29791   2
   3 -10  -4 11.6878 1.81239   2
  -3  10   4 3.70384 1.31401   2
   2 -10  -4 46.3984 2.21603   2
  -2  10   4 56.2810 2.22755   2
   1 -10  -4 38.8529 1.75550   2
  -1  10   4 47.0236 2.02531   2
   0 -10  -4 179.490 3.98051   2
   0  10   4 182.732 4.33644   2
  -1 -10  -4 97.5410 2.52358   2
   1  10   4 98.9667 3.25504   2
  -2 -10  -4 2.35384 4.36269   2
   2  10   4 25.3052 2.89126   2
  -3 -10  -4 4.28831 1.03886   2
   3  10   4 22.3898 2.06546   2
  -4 -10  -4 122.475 3.86199   2
   4  10   4 136.047 5.12789   2
  -5 -10  -4 129.855 5.49189   2
   5  10   4 132.079 6.88601   2
  -6 -10  -4 6.38349 2.43546   2
   6  10   4 5.87837 2.94640   2
  -7 -10  -4 44.9466 4.07273   2
   7  10   4 51.1499 5.48736   2
  -8 -10  -4 171.170 9.88173   2
   8  10   4 193.667 14.2611   2
  10 -11  -4 1.51417 2.54341   2
 -10  11   4 -6.6079 4.27500   2
   9 -11  -4 7.88952 4.51608   2
  -9  11   4 8.88467 2.81237   2
   8 -11  -4 0.61751 2.44621   2
  -8  11   4 5.35481 1.67674   2
   7 -11  -4 17.9350 3.06985   2
  -7  11   4 13.1636 1.93455   2
   6 -11  -4 228.691 6.42736   2
  -6  11   4 256.557 6.07504   2
   5 -11  -4 13.0186 2.04861   2
  -5  11   4 21.3749 1.92059   2
   4 -11  -4 20.0145 2.54338   2
  -4  11   4 36.9968 2.11253   2
   3 -11  -4 74.8179 3.83632   2
  -3  11   4 99.3517 3.41859   2
   2 -11  -4 6.97425 1.55226   2
  -2  11   4 12.9517 1.67933   2
   1 -11  -4 37.2867 1.53618   2
  -1  11   4 43.5471 2.03761   2
   0 -11  -4 57.1830 2.87680   2
   0  11   4 54.7212 2.43837   2
  -1 -11  -4 31.0708 1.97035   2
   1  11   4 50.9232 2.14977   2
  -2 -11  -4 12.6312 1.13229   2
   2  11   4 13.8496 1.80684   2
  -3 -11  -4 227.438 4.91404   2
   3  11   4 228.499 6.88191   2
  -4 -11  -4 70.1554 3.12995   2
   4  11   4 67.0231 4.08307   2
  -5 -11  -4 44.9903 3.47451   2
   5  11   4 43.2903 3.86938   2
  -6 -11  -4 6.37773 2.47161   2
   6  11   4 4.78550 3.08719   2
  -7 -11  -4 6.16869 3.79564   2
   7  11   4 10.6209 4.74195   2
   9 -12  -4 8.32114 3.28907   2
  -9  12   4 9.16751 4.98479   2
   8 -12  -4 9.87569 3.95887   2
  -8  12   4 12.9359 3.10144   2
   7 -12  -4 11.1152 2.76035   2
  -7  12   4 11.5461 2.08220   2
   6 -12  -4 38.5858 2.95001   2
  -6  12   4 26.9856 2.55003   2
   5 -12  -4 16.1430 2.34389   2
  -5  12   4 12.4346 1.84126   2
   4 -12  -4 18.6104 2.37096   2
  -4  12   4 43.4081 2.24733   2
  -3  12   4 41.3676 29.9110   2
   2 -12  -4 73.0955 3.63463   2
  -2  12   4 104.420 4.44242   2
   1 -12  -4 271.457 5.96366   2
  -1  12   4 288.739 7.69156   2
   0 -12  -4 33.5303 2.26132   2
   0  12   4 50.6367 3.25060   2
  -1 -12  -4 34.5450 2.59825   2
   1  12   4 36.3437 2.47932   2
  -2 -12  -4 115.323 5.14143   2
   2  12   4 101.751 4.39993   2
  -3 -12  -4 10.3836 2.08319   2
   3  12   4 13.6510 2.65860   2
  -4 -12  -4 5.00279 1.92742   2
   4  12   4 1.82658 1.97437   2
  -5 -12  -4 0.62814 1.83661   2
   5  12   4 5.01619 2.52079   2
  -6 -12  -4 20.2517 4.35889   2
   6  12   4 22.7927 4.00104   2
   8 -13  -4 105.026 8.60280   2
   7 -13  -4 46.5515 4.34413   2
  -7  13   4 57.9996 3.64338   2
   6 -13  -4 10.1809 2.59228   2
  -6  13   4 11.8164 2.21719   2
   5 -13  -4 48.3416 3.35740   2
  -5  13   4 38.1154 2.79501   2
   4 -13  -4 12.5454 2.89681   2
  -4  13   4 7.12438 1.75280   2
   3 -13  -4 0.84666 1.62840   2
  -3  13   4 1.04229 1.76421   2
   2 -13  -4 1.03088 1.66993   2
  -2  13   4 -1.7586 2.08797   2
   1 -13  -4 17.2895 2.88429   2
  -1  13   4 18.7097 3.33969   2
   0 -13  -4 1.88409 1.74025   2
   0  13   4 -1.5788 1.97267   2
  -1 -13  -4 7.04004 3.29619   2
   1  13   4 1.01796 1.93295   2
  -2 -13  -4 11.3796 2.32448   2
   2  13   4 7.83056 3.07801   2
  -3 -13  -4 11.9620 3.03000   2
   3  13   4 9.19182 4.71554   2
  -4 -13  -4 3.65254 2.60549   2
   4  13   4 3.16260 2.88226   2
   6 -14  -4 30.2820 8.30069   2
  -6  14   4 27.5390 4.00631   2
   5 -14  -4 2.50759 3.21160   2
  -5  14   4 4.12864 1.84216   2
   4 -14  -4 20.9582 3.21727   2
  -4  14   4 20.2944 2.45063   2
   3 -14  -4 2.49590 2.02468   2
  -3  14   4 1.73924 1.85973   2
   2 -14  -4 7.77306 2.72763   2
  -2  14   4 11.3894 2.83530   2
   1 -14  -4 46.1013 3.69903   2
  -1  14   4 46.5471 4.23936   2
   0 -14  -4 17.0193 2.73307   2
   0  14   4 14.7277 2.80026   2
  -1 -14  -4 3.73598 2.49037   2
   1  14   4 2.21821 2.76018   2
  -2 -14  -4 5.21989 2.96680   2
   2  14   4 1.12699 2.70664   2
  -3 -14  -4 15.2479 6.98721   2
   3  14   4 -1.3483 4.48434   2
  -4 -14  -4 -6.2815 4.87967   2
   3 -15  -4 0.74330 2.70500   2
  -3  15   4 6.86861 3.66127   2
   2 -15  -4 20.9885 2.90088   2
  -2  15   4 24.2984 4.17908   2
   1 -15  -4 9.61509 3.00316   2
  -1  15   4 10.9961 5.01493   2
   0 -15  -4 6.51198 3.76941   2
   0  15   4 5.48750 4.14407   2
   1  15   4 -7.9410 6.69570   2
   2  15   4 47.2227 13.0047   2
 -13   0   5 3.93366 5.19242   2
 -12   0   5 2.77783 1.53554   2
 -11   0   5 45.1636 18.5360   2
 -10   0   5 35.6059 1.91639   2
  -9   0   5 23.9777 1.47116   2
  -8   0   5 26.5167 1.41359   2
  -7   0   5 4.03855 0.74367   2
  -6   0   5 38.3433 1.48071   2
  -5   0   5 0.71309 0.51022   2
  -4   0   5 10.7662 0.80352   2
  -3   0   5 0.47903 0.24851   2
  -2   0   5 1.20180 0.28976   2
  -1   0   5 0.71880 0.28444   2
   0   0   5 3.85857 0.38847   2
   1   0   5 4.49240 0.42446   2
   2   0   5 0.22322 0.36605   2
   3   0   5 2.56524 0.54012   2
   4   0   5 7.49405 1.10277   2
   5   0   5 5.20487 1.50668   2
   6   0   5 23.9067 2.10880   2
   7   0   5 10.1375 1.74697   2
   8   0   5 4.49674 1.61490   2
   9   0   5 30.9866 3.55735   2
  10   0   5 0.52454 2.36317   2
  13  -1  -5 30.6332 6.86875   2
 -13   1   5 20.9159 3.49647   2
  12  -1  -5 44.3573 2.54857   2
 -12   1   5 30.8079 4.89691   2
  11  -1  -5 206.443 5.48648   2
 -11   1   5 250.483 6.21466   2
  10  -1  -5 135.257 4.25573   2
 -10   1   5 162.211 4.14152   2
   9  -1  -5 297.244 6.42850   2
  -9   1   5 252.999 5.33007   2
   8  -1  -5 85.4383 2.74338   2
  -8   1   5 88.1602 2.52730   2
   7  -1  -5 75.6884 2.80940   2
  -7   1   5 95.6222 2.43543   2
   6  -1  -5 209.198 3.97012   2
  -6   1   5 216.356 4.18163   2
   5  -1  -5 146.487 2.53070   2
  -5   1   5 127.529 2.31206   2
   4  -1  -5 16.0082 0.69889   2
  -4   1   5 15.7893 0.70562   2
   3  -1  -5 68.6806 1.13167   2
  -3   1   5 79.9914 1.30818   2
   2  -1  -5 30.7948 0.83544   2
  -2   1   5 31.4034 0.71939   2
   1  -1  -5 44.5529 0.96143   2
  -1   1   5 47.8991 0.96311   2
   0  -1  -5 80.6551 1.36385   2
   0   1   5 82.5550 1.32949   2
  -1  -1  -5 19.4428 0.71623   2
   1   1   5 21.3716 0.64452   2
  -2  -1  -5 18.0942 0.72633   2
   2   1   5 17.1154 0.84116   2
  -3  -1  -5 53.9652 1.54196   2
   3   1   5 58.2444 1.78026   2
  -4  -1  -5 134.117 2.69905   2
   4   1   5 127.438 3.68360   2
  -5  -1  -5 89.6758 3.69588   2
   5   1   5 77.3999 2.71838   2
  -6  -1  -5 167.981 6.63747   2
   6   1   5 184.689 4.94458   2
  -7  -1  -5 63.9757 3.88500   2
   7   1   5 78.3108 3.33005   2
  -8  -1  -5 12.1684 2.18964   2
   8   1   5 8.14903 1.38878   2
  -9  -1  -5 143.233 5.19405   2
   9   1   5 145.827 7.66193   2
 -10  -1  -5 7.54925 3.42162   2
  10   1   5 15.8259 2.91101   2
  13  -2  -5 20.3357 3.97020   2
 -13   2   5 12.3650 3.39099   2
  12  -2  -5 55.2944 4.39806   2
 -12   2   5 46.2202 4.23188   2
  11  -2  -5 38.0962 2.29708   2
 -11   2   5 36.2986 2.64714   2
  10  -2  -5 17.2080 1.90088   2
 -10   2   5 26.6885 1.67870   2
   9  -2  -5 126.229 3.12307   2
  -9   2   5 109.414 3.36954   2
   8  -2  -5 64.6011 2.12886   2
  -8   2   5 59.4923 1.53893   2
   7  -2  -5 20.8135 1.46682   2
  -7   2   5 10.8731 1.73885   2
   6  -2  -5 123.338 2.61655   2
  -6   2   5 160.626 2.97689   2
   5  -2  -5 239.301 3.65284   2
  -5   2   5 244.057 3.97708   2
   4  -2  -5 94.0173 1.59637   2
  -4   2   5 80.9320 1.50981   2
   3  -2  -5 5.32799 0.32777   2
  -3   2   5 6.40955 0.50922   2
   2  -2  -5 18.6534 0.65160   2
  -2   2   5 19.5266 0.63193   2
   1  -2  -5 5.00440 0.41212   2
  -1   2   5 3.38612 0.27202   2
   0  -2  -5 66.5469 1.25340   2
   0   2   5 65.5696 1.08978   2
  -1  -2  -5 262.907 3.14160   2
   1   2   5 269.047 2.92339   2
  -2  -2  -5 106.967 1.83702   2
   2   2   5 112.707 2.13720   2
  -3  -2  -5 3.39019 0.56468   2
   3   2   5 1.36198 0.59854   2
  -4  -2  -5 336.760 5.34221   2
   4   2   5 332.338 5.27437   2
  -5  -2  -5 217.634 4.88460   2
   5   2   5 241.773 4.23268   2
  -6  -2  -5 1.19614 1.77576   2
   6   2   5 10.8027 1.24954   2
  -7  -2  -5 127.498 5.78043   2
   7   2   5 105.313 5.19545   2
  -8  -2  -5 29.4968 3.05125   2
   8   2   5 26.1112 2.97634   2
  -9  -2  -5 6.39373 2.27621   2
   9   2   5 7.08588 2.63210   2
 -10  -2  -5 3.25973 2.80276   2
  10   2   5 6.29093 2.44869   2
  13  -3  -5 30.4017 4.09200   2
 -13   3   5 29.7251 4.08363   2
  12  -3  -5 21.6929 3.34413   2
 -12   3   5 24.7124 3.41597   2
  11  -3  -5 68.9488 4.42884   2
 -11   3   5 64.1655 2.46957   2
  10  -3  -5 15.5399 2.48771   2
 -10   3   5 22.7963 0.96191   2
   9  -3  -5 16.2090 2.27471   2
  -9   3   5 13.4180 1.03977   2
   8  -3  -5 54.7928 2.68902   2
  -8   3   5 56.0669 1.70249   2
   7  -3  -5 32.3928 2.60940   2
  -7   3   5 53.0815 2.23900   2
   6  -3  -5 137.708 3.79285   2
  -6   3   5 114.171 3.49477   2
   5  -3  -5 15.2652 0.90473   2
  -5   3   5 19.0906 0.66554   2
   4  -3  -5 86.3674 1.58606   2
  -4   3   5 88.0198 1.73139   2
   3  -3  -5 10.8973 0.48864   2
  -3   3   5 11.2020 0.70644   2
   2  -3  -5 245.788 2.89986   2
  -2   3   5 244.725 3.23788   2
   1  -3  -5 33.2299 0.83783   2
  -1   3   5 27.1453 0.89284   2
   0  -3  -5 39.9122 0.91799   2
   0   3   5 47.5928 1.07504   2
  -1  -3  -5 154.189 2.23069   2
   1   3   5 155.681 2.15766   2
  -2  -3  -5 91.1439 1.72648   2
   2   3   5 89.8140 2.08111   2
  -3  -3  -5 78.3491 1.96463   2
   3   3   5 73.0939 1.97373   2
  -4  -3  -5 12.9919 1.11531   2
   4   3   5 16.5979 1.05050   2
  -5  -3  -5 2.61168 0.84946   2
   5   3   5 8.06912 0.96818   2
  -6  -3  -5 17.8809 1.78133   2
   6   3   5 24.2516 1.83950   2
  -7  -3  -5 31.2498 3.20266   2
   7   3   5 34.6576 3.12778   2
  -8  -3  -5 26.3824 3.06907   2
   8   3   5 34.5200 3.27929   2
  -9  -3  -5 21.1706 3.17874   2
   9   3   5 33.7866 3.71146   2
 -10  -3  -5 27.5368 4.88375   2
  10   3   5 29.1337 3.34642   2
  13  -4  -5 52.4685 5.01243   2
 -13   4   5 60.2469 4.50067   2
  12  -4  -5 13.3858 2.65709   2
 -12   4   5 20.6836 3.12762   2
  11  -4  -5 30.4145 3.28682   2
 -11   4   5 46.0136 1.55755   2
  10  -4  -5 55.6673 3.00901   2
 -10   4   5 32.9454 1.94044   2
   9  -4  -5 19.6688 2.59611   2
  -9   4   5 24.9987 1.34755   2
   8  -4  -5 34.7570 2.77627   2
  -8   4   5 41.1010 2.43021   2
   7  -4  -5 399.788 9.59890   2
  -7   4   5 421.164 7.77027   2
   6  -4  -5 216.036 4.73028   2
  -6   4   5 211.241 4.02005   2
   5  -4  -5 9.49484 0.80764   2
  -5   4   5 14.4170 0.85420   2
   4  -4  -5 181.895 3.48500   2
  -4   4   5 191.662 3.16250   2
   3  -4  -5 468.482 5.53964   2
  -3   4   5 466.584 6.25237   2
   2  -4  -5 17.5737 0.76875   2
  -2   4   5 20.7202 0.88769   2
   1  -4  -5 256.264 3.22707   2
  -1   4   5 252.150 3.45268   2
   0  -4  -5 0.69918 0.35757   2
   0   4   5 4.03676 0.51076   2
  -1  -4  -5 9.53436 0.81466   2
   1   4   5 6.60440 0.65285   2
  -2  -4  -5 289.267 4.74544   2
   2   4   5 277.328 5.82135   2
  -3  -4  -5 389.499 6.33051   2
   3   4   5 376.146 7.67209   2
  -4  -4  -5 43.0617 1.35491   2
   4   4   5 39.4695 6.28007   2
  -5  -4  -5 16.8245 1.37688   2
   5   4   5 5.33167 1.63142   2
  -6  -4  -5 230.806 4.75249   2
   6   4   5 230.913 4.41750   2
  -7  -4  -5 161.554 5.26635   2
   7   4   5 167.576 4.70570   2
  -8  -4  -5 19.5627 3.24802   2
   8   4   5 18.3924 3.46128   2
  -9  -4  -5 6.78392 2.60657   2
   9   4   5 8.50063 3.17212   2
 -10  -4  -5 22.0931 5.49168   2
 -13   5   5 15.5061 3.87646   2
  12  -5  -5 125.263 6.06760   2
 -12   5   5 133.807 6.08405   2
  11  -5  -5 128.032 5.74295   2
 -11   5   5 115.187 4.30504   2
  10  -5  -5 43.6961 3.57836   2
 -10   5   5 38.0406 1.90208   2
   9  -5  -5 77.5692 5.15868   2
  -9   5   5 117.969 3.34505   2
   8  -5  -5 511.115 11.1523   2
  -8   5   5 521.673 9.73922   2
   7  -5  -5 121.589 3.73345   2
  -7   5   5 117.982 2.59237   2
   6  -5  -5 6.69644 10.5720   2
  -6   5   5 22.8751 1.20464   2
   5  -5  -5 54.9232 2.22610   2
  -5   5   5 60.2204 1.69618   2
   4  -5  -5 382.907 6.42728   2
  -4   5   5 374.390 6.18612   2
   3  -5  -5 10.8976 0.78280   2
  -3   5   5 7.81091 0.61866   2
   2  -5  -5 94.7813 1.92511   2
  -2   5   5 99.1221 2.17515   2
   1  -5  -5 142.900 2.52144   2
  -1   5   5 150.510 2.82543   2
   0  -5  -5 354.075 5.38397   2
   0   5   5 338.323 5.29282   2
  -1  -5  -5 1.04053 0.68924   2
   1   5   5 3.73305 0.63781   2
  -2  -5  -5 101.550 2.63809   2
   2   5   5 107.277 3.10355   2
  -3  -5  -5 204.401 4.30624   2
   3   5   5 207.441 5.61156   2
  -4  -5  -5 349.400 7.31113   2
   4   5   5 362.266 8.71046   2
  -5  -5  -5 20.5416 1.77158   2
   5   5   5 21.6732 2.51892   2
  -6  -5  -5 21.1931 2.40126   2
   6   5   5 16.7362 2.54599   2
  -7  -5  -5 244.248 7.55765   2
   7   5   5 233.660 7.83473   2
  -8  -5  -5 49.3015 5.00898   2
   8   5   5 33.4580 5.24800   2
  -9  -5  -5 3.97233 3.11993   2
   9   5   5 8.51498 3.28001   2
 -10  -5  -5 4.10222 4.97174   2
  10   5   5 6.87841 8.57706   2
  13  -6  -5 8.90400 4.32998   2
 -13   6   5 15.7034 3.73686   2
  12  -6  -5 3.49668 1.95718   2
 -12   6   5 14.0346 2.95289   2
  11  -6  -5 80.0778 4.37812   2
 -11   6   5 92.6358 4.08754   2
  10  -6  -5 133.986 35.2700   2
   9  -6  -5 100.947 4.80309   2
  -9   6   5 106.481 3.67674   2
   8  -6  -5 42.3864 2.08374   2
  -8   6   5 36.1800 1.98551   2
   7  -6  -5 167.071 4.33010   2
  -7   6   5 170.413 3.72832   2
   6  -6  -5 70.6323 3.05300   2
  -6   6   5 88.7160 2.20055   2
   5  -6  -5 413.328 7.35078   2
  -5   6   5 389.848 6.07122   2
   4  -6  -5 15.0903 0.88417   2
  -4   6   5 5.35774 0.84103   2
   3  -6  -5 119.319 2.31554   2
  -3   6   5 122.076 3.04282   2
   2  -6  -5 17.6579 0.86452   2
  -2   6   5 20.3503 1.16048   2
   1  -6  -5 322.015 5.25729   2
  -1   6   5 339.496 5.20793   2
   0  -6  -5 90.8396 2.70700   2
   0   6   5 90.8755 2.61903   2
  -1  -6  -5 430.616 7.80593   2
   1   6   5 426.994 7.01718   2
  -2  -6  -5 91.3711 2.65612   2
   2   6   5 104.541 2.99075   2
  -3  -6  -5 40.4052 1.71321   2
   3   6   5 34.0984 2.43926   2
  -4  -6  -5 144.572 3.53478   2
   4   6   5 148.986 4.81267   2
  -5  -6  -5 57.2841 2.16127   2
   5   6   5 64.8025 3.69347   2
  -6  -6  -5 19.9772 2.63210   2
   6   6   5 35.9605 3.94633   2
  -7  -6  -5 39.5319 3.43767   2
   7   6   5 32.1402 3.31595   2
  -8  -6  -5 38.3144 4.55142   2
   8   6   5 40.7565 3.80055   2
  -9  -6  -5 17.3253 3.71636   2
   9   6   5 14.6119 3.41192   2
  12  -7  -5 24.7613 2.88669   2
 -12   7   5 18.3195 3.17542   2
  11  -7  -5 19.0717 5.35281   2
 -11   7   5 39.4196 3.04106   2
  10  -7  -5 297.082 7.94469   2
 -10   7   5 300.516 8.54473   2
   9  -7  -5 185.961 6.11617   2
  -9   7   5 157.263 4.62966   2
   8  -7  -5 -4.6514 12.4720   2
  -8   7   5 18.9256 1.47721   2
   7  -7  -5 45.6965 2.91356   2
  -7   7   5 51.4658 2.10288   2
   6  -7  -5 600.783 11.7324   2
  -6   7   5 599.411 9.22087   2
   5  -7  -5 49.8878 2.10458   2
  -5   7   5 44.3007 1.61227   2
   4  -7  -5 393.931 6.24884   2
  -4   7   5 409.295 6.80596   2
   3  -7  -5 43.2705 1.70600   2
  -3   7   5 48.3032 1.79811   2
   2  -7  -5 298.813 5.82354   2
  -2   7   5 296.781 5.83166   2
   1  -7  -5 103.220 3.03202   2
  -1   7   5 103.169 3.00995   2
   0  -7  -5 242.561 5.18523   2
   0   7   5 240.496 5.88935   2
  -1  -7  -5 58.9580 2.12871   2
   1   7   5 57.8609 2.27203   2
  -2  -7  -5 111.608 2.99874   2
   2   7   5 101.573 3.13228   2
  -3  -7  -5 14.8839 1.65848   2
   3   7   5 22.4209 1.81739   2
  -4  -7  -5 26.0701 1.66596   2
   4   7   5 29.2032 2.56996   2
  -5  -7  -5 321.391 8.32313   2
   5   7   5 324.263 9.30592   2
  -6  -7  -5 410.817 10.6740   2
   6   7   5 401.878 10.7089   2
  -7  -7  -5 22.5917 3.92419   2
   7   7   5 18.3493 3.03017   2
  -8  -7  -5 4.55624 2.68863   2
   8   7   5 3.42159 2.47693   2
  -9  -7  -5 175.082 14.4143   2
   9   7   5 149.661 12.8666   2
  12  -8  -5 80.1565 6.51161   2
 -12   8   5 74.5477 9.40708   2
  11  -8  -5 47.1479 3.85382   2
 -11   8   5 51.8577 4.45360   2
  10  -8  -5 8.24475 2.18899   2
 -10   8   5 9.72439 2.20322   2
   9  -8  -5 306.185 8.08578   2
  -9   8   5 312.540 7.97940   2
   8  -8  -5 23.9688 2.22782   2
  -8   8   5 24.3558 1.63518   2
   7  -8  -5 145.373 4.08280   2
  -7   8   5 157.922 3.78545   2
   6  -8  -5 20.0807 1.35229   2
  -6   8   5 30.9488 1.52038   2
   5  -8  -5 341.930 5.30869   2
  -5   8   5 343.573 6.03479   2
   4  -8  -5 4.60442 0.98025   2
  -4   8   5 1.99609 1.06802   2
   3  -8  -5 252.038 5.98768   2
  -3   8   5 254.937 5.51510   2
   2  -8  -5 15.6149 1.56381   2
  -2   8   5 14.3738 1.18439   2
   1  -8  -5 219.351 4.67817   2
  -1   8   5 215.656 5.68969   2
   0  -8  -5 83.0224 2.64456   2
   0   8   5 84.1548 2.37386   2
  -1  -8  -5 402.777 7.13042   2
   1   8   5 383.794 7.55027   2
  -2  -8  -5 13.3083 1.14219   2
   2   8   5 20.7422 2.00972   2
  -3  -8  -5 110.111 4.10687   2
   3   8   5 134.844 4.03786   2
  -4  -8  -5 435.771 8.40750   2
   4   8   5 442.871 10.5879   2
  -5  -8  -5 188.629 6.10313   2
   5   8   5 200.758 6.53124   2
  -6  -8  -5 69.9985 4.50723   2
   6   8   5 73.9319 4.37162   2
  -7  -8  -5 8.70605 2.60222   2
   7   8   5 9.14594 2.74484   2
  -8  -8  -5 78.4035 5.35720   2
   8   8   5 77.8580 6.20283   2
  11  -9  -5 40.4287 5.68562   2
 -11   9   5 39.4460 4.01238   2
  10  -9  -5 47.5925 3.89137   2
 -10   9   5 57.1152 4.17099   2
   9  -9  -5 8.55183 1.96241   2
  -9   9   5 10.3803 2.11332   2
   8  -9  -5 311.947 7.67400   2
  -8   9   5 328.959 6.46649   2
   7  -9  -5 31.8877 1.82988   2
  -7   9   5 28.4450 1.64286   2
   6  -9  -5 324.833 6.21337   2
  -6   9   5 320.424 5.97278   2
   5  -9  -5 -1.3218 1.47528   2
  -5   9   5 -0.2080 1.00751   2
   4  -9  -5 86.5822 3.52973   2
  -4   9   5 88.4905 3.45853   2
   3  -9  -5 78.7945 3.21889   2
  -3   9   5 83.9292 2.70415   2
   2  -9  -5 654.258 11.0898   2
  -2   9   5 647.336 11.4759   2
   1  -9  -5 3.35517 0.92749   2
  -1   9   5 1.13229 1.53689   2
   0  -9  -5 153.598 5.02388   2
   0   9   5 181.030 4.13539   2
  -1  -9  -5 375.034 7.50594   2
   1   9   5 369.293 7.38331   2
  -2  -9  -5 385.645 6.25872   2
   2   9   5 380.537 8.99045   2
  -3  -9  -5 114.721 4.83916   2
   3   9   5 126.923 6.59886   2
  -4  -9  -5 37.8038 3.17441   2
   4   9   5 36.8499 2.17334   2
  -5  -9  -5 9.76137 1.97786   2
   5   9   5 10.3747 1.98282   2
  -6  -9  -5 16.9101 3.01787   2
   6   9   5 15.9264 2.56335   2
  -7  -9  -5 102.479 6.04693   2
   7   9   5 106.665 7.36999   2
  -8  -9  -5 119.714 8.97346   2
   8   9   5 101.384 11.9714   2
  11 -10  -5 87.5010 10.3245   2
 -11  10   5 135.337 11.6814   2
  10 -10  -5 11.1233 3.24245   2
 -10  10   5 10.7414 2.52646   2
   9 -10  -5 71.5466 5.86176   2
  -9  10   5 68.9826 4.24551   2
   8 -10  -5 2.88684 1.71374   2
  -8  10   5 4.69696 1.37647   2
   7 -10  -5 291.522 6.74196   2
  -7  10   5 290.589 6.26027   2
   6 -10  -5 131.249 4.56757   2
  -6  10   5 128.914 3.82256   2
   5 -10  -5 155.105 5.20390   2
  -5  10   5 191.675 4.53355   2
   4 -10  -5 74.0654 3.47689   2
  -4  10   5 97.8095 3.84160   2
   3 -10  -5 603.428 11.9314   2
  -3  10   5 577.676 10.9034   2
   2 -10  -5 92.5012 3.51489   2
  -2  10   5 107.607 3.10905   2
   1 -10  -5 262.141 6.87376   2
  -1  10   5 267.183 6.93581   2
   0 -10  -5 24.2143 2.37880   2
   0  10   5 41.8064 1.66784   2
  -1 -10  -5 42.4753 2.55545   2
   1  10   5 49.7183 2.19364   2
  -2 -10  -5 133.396 3.51663   2
   2  10   5 113.115 4.10150   2
  -3 -10  -5 402.781 8.06859   2
   3  10   5 391.517 10.7810   2
  -4 -10  -5 3.11706 1.83367   2
   4  10   5 8.22987 2.83779   2
  -5 -10  -5 31.5640 2.75459   2
   5  10   5 48.3931 5.82915   2
  -6 -10  -5 339.208 11.9378   2
   6  10   5 377.336 14.3944   2
  -7 -10  -5 46.1067 4.91755   2
   7  10   5 49.7244 6.71039   2
  10 -11  -5 62.9529 5.67812   2
 -10  11   5 50.6761 8.00574   2
   9 -11  -5 6.00003 3.83573   2
  -9  11   5 15.7739 4.17603   2
   8 -11  -5 329.120 11.3422   2
  -8  11   5 338.188 10.8893   2
   7 -11  -5 8.67361 2.07458   2
  -7  11   5 5.53356 1.66092   2
   6 -11  -5 78.9278 3.93928   2
  -6  11   5 111.154 4.40303   2
   5 -11  -5 66.3434 3.62277   2
  -5  11   5 76.6361 3.03788   2
   4 -11  -5 456.090 10.1237   2
  -4  11   5 429.817 9.42665   2
   3 -11  -5 26.5766 2.33459   2
  -3  11   5 24.5760 2.30202   2
   2 -11  -5 73.0836 2.98492   2
  -2  11   5 96.6609 4.75537   2
   1 -11  -5 77.9415 4.24796   2
  -1  11   5 65.6140 3.75229   2
   0 -11  -5 571.704 12.0434   2
   0  11   5 550.349 12.5981   2
  -1 -11  -5 9.58331 2.06051   2
   1  11   5 11.6062 1.62330   2
  -2 -11  -5 53.2598 2.94106   2
   2  11   5 76.6658 6.48521   2
  -3 -11  -5 323.447 7.16133   2
   3  11   5 328.475 8.77847   2
  -4 -11  -5 171.267 6.56327   2
   4  11   5 173.269 6.27148   2
  -5 -11  -5 108.851 7.05482   2
   5  11   5 122.597 6.32273   2
  -6 -11  -5 10.2166 2.95124   2
   6  11   5 9.27356 2.61904   2
   7  11   5 63.5108 9.15706   2
   9 -12  -5 47.0455 9.11156   2
  -9  12   5 63.8779 6.80407   2
   8 -12  -5 15.8210 3.12664   2
  -8  12   5 12.3289 4.44594   2
   7 -12  -5 136.436 7.29642   2
  -7  12   5 140.165 4.81344   2
   6 -12  -5 20.6898 2.59624   2
  -6  12   5 24.1988 2.39620   2
   5 -12  -5 454.384 10.8454   2
  -5  12   5 409.611 9.57541   2
   4 -12  -5 18.7717 2.91863   2
  -4  12   5 19.0673 2.31478   2
   3 -12  -5 121.244 3.68632   2
  -3  12   5 142.519 4.39710   2
   2 -12  -5 26.9920 1.99699   2
  -2  12   5 27.7069 2.65026   2
   1 -12  -5 206.822 6.55045   2
  -1  12   5 215.681 6.77108   2
   0 -12  -5 106.795 4.69346   2
   0  12   5 99.1088 4.82527   2
  -1 -12  -5 213.341 5.60196   2
   1  12   5 209.400 7.96554   2
  -2 -12  -5 68.7713 4.53577   2
   2  12   5 74.2657 5.86798   2
  -3 -12  -5 34.2363 3.01280   2
   3  12   5 36.0946 4.29235   2
  -4 -12  -5 148.363 6.27243   2
   4  12   5 147.812 8.02207   2
  -5 -12  -5 80.2618 6.98082   2
   5  12   5 91.2840 7.05115   2
  -6 -12  -5 26.2812 6.22060   2
   7 -13  -5 7.99758 5.41718   2
  -7  13   5 7.10277 2.64848   2
   6 -13  -5 241.198 10.2118   2
  -6  13   5 219.785 7.64709   2
   5 -13  -5 14.7768 3.11906   2
  -5  13   5 9.50742 2.09847   2
   4 -13  -5 156.380 5.64971   2
  -4  13   5 182.829 5.77898   2
   3 -13  -5 46.1494 3.61333   2
  -3  13   5 44.8637 3.16169   2
   2 -13  -5 192.182 6.67868   2
  -2  13   5 191.979 6.39046   2
   1 -13  -5 115.110 5.31432   2
  -1  13   5 122.061 5.19798   2
   0 -13  -5 131.986 4.93671   2
   0  13   5 115.173 5.66827   2
  -1 -13  -5 27.1151 3.83253   2
   1  13   5 20.2303 2.94595   2
  -2 -13  -5 170.229 10.2881   2
   2  13   5 140.597 9.18477   2
  -3 -13  -5 16.1441 3.03183   2
   3  13   5 6.30090 3.17913   2
  -4 -13  -5 27.5665 7.94117   2
  -6  14   5 0.02156 3.37150   2
   5 -14  -5 66.6433 5.98977   2
  -5  14   5 76.6162 5.41910   2
   4 -14  -5 20.1108 3.07516   2
  -4  14   5 22.9548 2.65926   2
   3 -14  -5 144.273 5.90587   2
  -3  14   5 126.206 5.34311   2
   2 -14  -5 12.3639 2.51664   2
  -2  14   5 3.81297 2.64665   2
   1 -14  -5 162.815 5.60996   2
  -1  14   5 174.538 7.54600   2
   0 -14  -5 24.9389 2.93537   2
   0  14   5 17.3174 2.74335   2
  -1 -14  -5 200.715 7.31449   2
   1  14   5 207.821 8.50613   2
  -2 -14  -5 47.5771 9.64779   2
   2  14   5 80.7272 11.8491   2
  -3 -14  -5 25.5290 6.82459   2
  -4  15   5 65.6258 9.46267   2
   3 -15  -5 17.5135 5.17439   2
  -3  15   5 24.4071 5.92494   2
   2 -15  -5 207.949 11.6065   2
  -2  15   5 207.447 15.2824   2
  -1  15   5 25.9681 5.57314   2
 -14   0   6 472.809 23.4566  -1
  10   0   6 472.809 23.4566   2
 -13   0   6 109.284 8.69288  -1
   9   0   6 109.284 8.69288   2
 -12   0   6 188.961 7.15042  -1
   8   0   6 188.961 7.15042   2
 -11   0   6 669.095 15.7020  -1
   7   0   6 669.095 15.7020   2
 -10   0   6 702.950 14.0654  -1
   6   0   6 702.950 14.0654   2
  -9   0   6 819.529 16.8747  -1
   5   0   6 819.529 16.8747   2
  -8   0   6 1103.75 21.6371  -1
   4   0   6 1103.75 21.6371   2
  -7   0   6 730.515 10.9316  -1
   3   0   6 730.515 10.9316   2
  -6   0   6 1492.26 21.6407  -1
   2   0   6 1492.26 21.6407   2
  -5   0   6 3683.64 50.6806  -1
   1   0   6 3683.64 50.6806   2
  -4   0   6 725.974 9.14810  -1
   0   0   6 725.974 9.14810   2
  -3   0   6 1656.17 19.4360  -1
  -1   0   6 1656.17 19.4360   2
  -1   0   6 1188.10 11.5914  -1
  -3   0   6 1188.10 11.5914   2
   0   0   6 442.568 5.45442  -1
  -4   0   6 442.568 5.45442   2
   1   0   6 2435.03 34.6643  -1
  -5   0   6 2435.03 34.6643   2
   2   0   6 1389.68 27.8770  -1
  -6   0   6 1389.68 27.8770   2
   3   0   6 1247.33 23.6130  -1
  -7   0   6 1247.33 23.6130   2
   4   0   6 702.408 11.6712  -1
  -8   0   6 702.408 11.6712   2
   5   0   6 1328.00 19.5932  -1
  -9   0   6 1328.00 19.5932   2
   6   0   6 1167.40 18.5981  -1
 -10   0   6 1167.40 18.5981   2
   7   0   6 525.294 11.3852  -1
 -11   0   6 525.294 11.3852   2
   8   0   6 230.043 9.36119  -1
 -12   0   6 230.043 9.36119   2
   9   0   6 112.617 8.50130  -1
 -13   0   6 112.617 8.50130   2
  10   0   6 308.421 17.5628  -1
 -14   0   6 308.421 17.5628   2
  14  -1  -6 80.5566 8.61390  -1
  10   1   6 80.5566 8.61390   2
 -14   1   6 68.1219 11.1487  -1
 -10  -1  -6 68.1219 11.1487   2
 -13   1   6 200.960 10.4940  -1
  -9  -1  -6 200.960 10.4940   2
  12  -1  -6 236.737 9.03436  -1
   8   1   6 236.737 9.03436   2
 -12   1   6 241.023 8.38059  -1
  -8  -1  -6 241.023 8.38059   2
  11  -1  -6 695.999 13.7507  -1
   7   1   6 695.999 13.7507   2
 -11   1   6 656.518 15.3274  -1
  -7  -1  -6 656.518 15.3274   2
  10  -1  -6 382.009 8.55367  -1
   6   1   6 382.009 8.55367   2
 -10   1   6 369.880 9.64261  -1
  -6  -1  -6 369.880 9.64261   2
   9  -1  -6 410.532 8.43074  -1
   5   1   6 410.532 8.43074   2
  -9   1   6 372.909 9.48842  -1
  -5  -1  -6 372.909 9.48842   2
   8  -1  -6 1026.23 16.4075  -1
   4   1   6 1026.23 16.4075   2
  -8   1   6 1031.91 14.8721  -1
  -4  -1  -6 1031.91 14.8721   2
   7  -1  -6 430.185 7.64596  -1
   3   1   6 430.185 7.64596   2
  -7   1   6 408.772 7.21683  -1
  -3  -1  -6 408.772 7.21683   2
   6  -1  -6 978.332 13.7815  -1
   2   1   6 978.332 13.7815   2
  -6   1   6 945.082 11.9856  -1
  -2  -1  -6 945.082 11.9856   2
   5  -1  -6 164.201 2.53516  -1
   1   1   6 164.201 2.53516   2
  -5   1   6 178.933 2.87594  -1
  -1  -1  -6 178.933 2.87594   2
   4  -1  -6 2597.06 25.5060  -1
   0   1   6 2597.06 25.5060   2
  -4   1   6 2582.10 26.2837  -1
   0  -1  -6 2582.10 26.2837   2
   3  -1  -6 1440.49 14.8013  -1
  -1   1   6 1440.49 14.8013   2
  -3   1   6 1434.30 20.3992  -1
   1  -1  -6 1434.30 20.3992   2
   2  -1  -6 637.002 7.04297  -1
  -2   1   6 637.002 7.04297   2
  -2   1   6 609.777 6.83090  -1
   2  -1  -6 609.777 6.83090   2
   1  -1  -6 935.631 9.66275  -1
  -3   1   6 935.631 9.66275   2
  -1   1   6 934.119 10.0339  -1
   3  -1  -6 934.119 10.0339   2
   0  -1  -6 3884.80 61.7900  -1
  -4   1   6 3884.80 61.7900   2
   0   1   6 3991.66 54.0154  -1
   4  -1  -6 3991.66 54.0154   2
  -1  -1  -6 221.035 5.41356  -1
  -5   1   6 221.035 5.41356   2
   1   1   6 220.081 3.86586  -1
   5  -1  -6 220.081 3.86586   2
  -2  -1  -6 1080.19 20.3192  -1
  -6   1   6 1080.19 20.3192   2
   2   1   6 1125.74 18.3299  -1
   6  -1  -6 1125.74 18.3299   2
  -3  -1  -6 671.978 16.3406  -1
  -7   1   6 671.978 16.3406   2
   3   1   6 669.550 11.9778  -1
   7  -1  -6 669.550 11.9778   2
  -4  -1  -6 676.315 13.7098  -1
  -8   1   6 676.315 13.7098   2
   4   1   6 652.237 10.9798  -1
   8  -1  -6 652.237 10.9798   2
  -5  -1  -6 286.774 7.40670  -1
  -9   1   6 286.774 7.40670   2
   5   1   6 282.640 6.19979  -1
   9  -1  -6 282.640 6.19979   2
  -6  -1  -6 366.220 7.74296  -1
 -10   1   6 366.220 7.74296   2
   6   1   6 362.060 8.63580  -1
  10  -1  -6 362.060 8.63580   2
  -7  -1  -6 384.633 10.2849  -1
 -11   1   6 384.633 10.2849   2
   7   1   6 444.337 8.72231  -1
  11  -1  -6 444.337 8.72231   2
  -8  -1  -6 338.515 10.1899  -1
 -12   1   6 338.515 10.1899   2
   8   1   6 326.060 9.83364  -1
  12  -1  -6 326.060 9.83364   2
  -9  -1  -6 218.076 10.9776  -1
 -13   1   6 218.076 10.9776   2
  10   1   6 103.242 10.0206  -1
  14  -1  -6 103.242 10.0206   2
  14  -2  -6 78.3980 8.33653  -1
  10   2   6 78.3980 8.33653   2
  13  -2  -6 178.072 9.43582  -1
   9   2   6 178.072 9.43582   2
 -13   2   6 183.030 8.47834  -1
  -9  -2  -6 183.030 8.47834   2
  12  -2  -6 554.091 18.5472  -1
   8   2   6 554.091 18.5472   2
 -12   2   6 531.668 15.0312  -1
  -8  -2  -6 531.668 15.0312   2
  11  -2  -6 233.362 7.51390  -1
   7   2   6 233.362 7.51390   2
 -11   2   6 225.713 8.67622  -1
  -7  -2  -6 225.713 8.67622   2
  10  -2  -6 396.674 9.43115  -1
   6   2   6 396.674 9.43115   2
 -10   2   6 390.861 10.1567  -1
  -6  -2  -6 390.861 10.1567   2
   9  -2  -6 326.937 6.25510  -1
   5   2   6 326.937 6.25510   2
  -9   2   6 309.127 6.32795  -1
  -5  -2  -6 309.127 6.32795   2
   8  -2  -6 165.658 3.75503  -1
   4   2   6 165.658 3.75503   2
  -8   2   6 187.215 3.49558  -1
  -4  -2  -6 187.215 3.49558   2
   7  -2  -6 899.065 13.1302  -1
   3   2   6 899.065 13.1302   2
  -7   2   6 906.830 12.3519  -1
  -3  -2  -6 906.830 12.3519   2
   6  -2  -6 159.742 3.26152  -1
   2   2   6 159.742 3.26152   2
  -6   2   6 166.833 2.87279  -1
  -2  -2  -6 166.833 2.87279   2
   5  -2  -6 1131.99 13.4771  -1
   1   2   6 1131.99 13.4771   2
  -5   2   6 1181.42 14.9790  -1
  -1  -2  -6 1181.42 14.9790   2
   4  -2  -6 82.5037 1.43375  -1
   0   2   6 82.5037 1.43375   2
  -4   2   6 67.5142 1.43050  -1
   0  -2  -6 67.5142 1.43050   2
   3  -2  -6 1687.07 16.1192  -1
  -1   2   6 1687.07 16.1192   2
  -3   2   6 1693.24 18.9343  -1
   1  -2  -6 1693.24 18.9343   2
   2  -2  -6 1448.65 13.9588  -1
  -2   2   6 1448.65 13.9588   2
  -2   2   6 1462.23 17.1973  -1
   2  -2  -6 1462.23 17.1973   2
   1  -2  -6 1440.35 14.1481  -1
  -3   2   6 1440.35 14.1481   2
  -1   2   6 1469.93 14.2693  -1
   3  -2  -6 1469.93 14.2693   2
   0  -2  -6 110.903 1.97139  -1
  -4   2   6 110.903 1.97139   2
   0   2   6 105.405 2.27883  -1
   4  -2  -6 105.405 2.27883   2
  -1  -2  -6 1245.15 18.2605  -1
  -5   2   6 1245.15 18.2605   2
   1   2   6 1170.54 16.8116  -1
   5  -2  -6 1170.54 16.8116   2
  -2  -2  -6 169.955 3.68283  -1
  -6   2   6 169.955 3.68283   2
   2   2   6 164.034 3.65259  -1
   6  -2  -6 164.034 3.65259   2
  -3  -2  -6 1012.17 17.1094  -1
  -7   2   6 1012.17 17.1094   2
   3   2   6 975.229 14.3827  -1
   7  -2  -6 975.229 14.3827   2
  -4  -2  -6 284.372 7.13635  -1
  -8   2   6 284.372 7.13635   2
   4   2   6 271.119 4.97924  -1
   8  -2  -6 271.119 4.97924   2
  -5  -2  -6 301.324 7.76974  -1
  -9   2   6 301.324 7.76974   2
   5   2   6 309.608 6.89941  -1
   9  -2  -6 309.608 6.89941   2
  -6  -2  -6 315.845 8.06114  -1
 -10   2   6 315.845 8.06114   2
   6   2   6 317.984 8.30616  -1
  10  -2  -6 317.984 8.30616   2
  -7  -2  -6 262.803 8.18606  -1
 -11   2   6 262.803 8.18606   2
   7   2   6 330.147 8.63737  -1
  11  -2  -6 330.147 8.63737   2
  -8  -2  -6 358.165 10.9346  -1
 -12   2   6 358.165 10.9346   2
   8   2   6 361.138 18.4981  -1
  12  -2  -6 361.138 18.4981   2
  -9  -2  -6 218.926 8.54007  -1
 -13   2   6 218.926 8.54007   2
   9   2   6 218.661 11.6573  -1
  13  -2  -6 218.661 11.6573   2
  10   2   6 71.0917 8.58600  -1
  14  -2  -6 71.0917 8.58600   2
  13  -3  -6 149.244 7.16775  -1
   9   3   6 149.244 7.16775   2
 -13   3   6 135.175 7.59057  -1
  -9  -3  -6 135.175 7.59057   2
  12  -3  -6 268.801 12.8271  -1
   8   3   6 268.801 12.8271   2
 -12   3   6 259.028 8.58864  -1
  -8  -3  -6 259.028 8.58864   2
  11  -3  -6 676.629 15.8786  -1
   7   3   6 676.629 15.8786   2
 -11   3   6 687.589 15.8986  -1
  -7  -3  -6 687.589 15.8986   2
  10  -3  -6 355.232 12.4899  -1
   6   3   6 355.232 12.4899   2
 -10   3   6 352.800 8.85531  -1
  -6  -3  -6 352.800 8.85531   2
   9  -3  -6 323.260 7.28407  -1
   5   3   6 323.260 7.28407   2
  -9   3   6 280.916 6.11456  -1
  -5  -3  -6 280.916 6.11456   2
   8  -3  -6 500.846 8.76913  -1
   4   3   6 500.846 8.76913   2
  -8   3   6 482.231 7.52702  -1
  -4  -3  -6 482.231 7.52702   2
   7  -3  -6 1289.39 20.8057  -1
   3   3   6 1289.39 20.8057   2
  -7   3   6 1257.36 15.8911  -1
  -3  -3  -6 1257.36 15.8911   2
   6  -3  -6 1558.23 22.4649  -1
   2   3   6 1558.23 22.4649   2
  -6   3   6 1523.52 20.0230  -1
  -2  -3  -6 1523.52 20.0230   2
   5  -3  -6 909.985 17.9587  -1
   1   3   6 909.985 17.9587   2
  -5   3   6 879.939 14.3882  -1
  -1  -3  -6 879.939 14.3882   2
   4  -3  -6 1816.46 22.6766  -1
   0   3   6 1816.46 22.6766   2
  -4   3   6 1816.39 24.1057  -1
   0  -3  -6 1816.39 24.1057   2
   3  -3  -6 989.997 13.1199  -1
  -1   3   6 989.997 13.1199   2
  -3   3   6 977.513 12.6359  -1
   1  -3  -6 977.513 12.6359   2
   2  -3  -6 2958.62 35.2499  -1
  -2   3   6 2958.62 35.2499   2
  -2   3   6 2927.66 33.3299  -1
   2  -3  -6 2927.66 33.3299   2
   1  -3  -6 633.728 8.79276  -1
  -3   3   6 633.728 8.79276   2
  -1   3   6 660.973 8.54452  -1
   3  -3  -6 660.973 8.54452   2
   0  -3  -6 1099.03 15.7268  -1
  -4   3   6 1099.03 15.7268   2
   0   3   6 1195.85 16.3043  -1
   4  -3  -6 1195.85 16.3043   2
  -1  -3  -6 555.602 10.4059  -1
  -5   3   6 555.602 10.4059   2
   1   3   6 551.656 8.90125  -1
   5  -3  -6 551.656 8.90125   2
  -2  -3  -6 1482.37 23.6721  -1
  -6   3   6 1482.37 23.6721   2
   2   3   6 1490.68 22.6585  -1
   6  -3  -6 1490.68 22.6585   2
  -3  -3  -6 1087.49 21.1955  -1
  -7   3   6 1087.49 21.1955   2
   3   3   6 1154.65 17.9677  -1
   7  -3  -6 1154.65 17.9677   2
  -4  -3  -6 877.120 16.3210  -1
  -8   3   6 877.120 16.3210   2
   4   3   6 830.228 13.8442  -1
   8  -3  -6 830.228 13.8442   2
  -5  -3  -6 302.971 8.86102  -1
  -9   3   6 302.971 8.86102   2
   5   3   6 281.056 7.95161  -1
   9  -3  -6 281.056 7.95161   2
  -6  -3  -6 587.418 14.5587  -1
 -10   3   6 587.418 14.5587   2
   6   3   6 595.536 22.8507  -1
  10  -3  -6 595.536 22.8507   2
  -7  -3  -6 1097.59 21.8778  -1
 -11   3   6 1097.59 21.8778   2
   7   3   6 1059.20 22.4465  -1
  11  -3  -6 1059.20 22.4465   2
  -8  -3  -6 187.949 9.81536  -1
 -12   3   6 187.949 9.81536   2
   8   3   6 218.018 7.79681  -1
  12  -3  -6 218.018 7.79681   2
  -9  -3  -6 89.4384 6.13148  -1
 -13   3   6 89.4384 6.13148   2
   9   3   6 104.832 8.58234  -1
  13  -3  -6 104.832 8.58234   2
  13  -4  -6 184.851 11.0271  -1
   9   4   6 184.851 11.0271   2
 -13   4   6 215.296 14.7062  -1
  -9  -4  -6 215.296 14.7062   2
  12  -4  -6 259.920 10.2929  -1
   8   4   6 259.920 10.2929   2
 -12   4   6 252.095 9.77822  -1
  -8  -4  -6 252.095 9.77822   2
  11  -4  -6 233.112 9.29369  -1
   7   4   6 233.112 9.29369   2
 -11   4   6 225.658 7.67730  -1
  -7  -4  -6 225.658 7.67730   2
  10  -4  -6 512.721 11.9459  -1
   6   4   6 512.721 11.9459   2
 -10   4   6 459.330 10.3022  -1
  -6  -4  -6 459.330 10.3022   2
   9  -4  -6 894.451 16.3441  -1
   5   4   6 894.451 16.3441   2
  -9   4   6 818.901 14.6470  -1
  -5  -4  -6 818.901 14.6470   2
   8  -4  -6 173.047 4.75756  -1
   4   4   6 173.047 4.75756   2
  -8   4   6 162.862 3.50003  -1
  -4  -4  -6 162.862 3.50003   2
   7  -4  -6 869.960 17.4890  -1
   3   4   6 869.960 17.4890   2
  -7   4   6 842.873 13.5859  -1
  -3  -4  -6 842.873 13.5859   2
   6  -4  -6 231.246 5.99968  -1
   2   4   6 231.246 5.99968   2
  -6   4   6 242.709 4.68028  -1
  -2  -4  -6 242.709 4.68028   2
   5  -4  -6 1902.61 28.2149  -1
   1   4   6 1902.61 28.2149   2
  -5   4   6 2018.52 33.0567  -1
  -1  -4  -6 2018.52 33.0567   2
   4  -4  -6 197.558 4.02990  -1
   0   4   6 197.558 4.02990   2
  -4   4   6 213.986 3.50949  -1
   0  -4  -6 213.986 3.50949   2
   3  -4  -6 872.582 11.2180  -1
  -1   4   6 872.582 11.2180   2
  -3   4   6 941.887 12.5666  -1
   1  -4  -6 941.887 12.5666   2
   2  -4  -6 1027.24 13.3594  -1
  -2   4   6 1027.24 13.3594   2
  -2   4   6 994.883 12.5518  -1
   2  -4  -6 994.883 12.5518   2
   1  -4  -6 1323.47 16.4612  -1
  -3   4   6 1323.47 16.4612   2
  -1   4   6 1247.23 17.9338  -1
   3  -4  -6 1247.23 17.9338   2
   0  -4  -6 128.053 3.53248  -1
  -4   4   6 128.053 3.53248   2
   0   4   6 139.820 3.44662  -1
   4  -4  -6 139.820 3.44662   2
  -1  -4  -6 3269.39 52.4264  -1
  -5   4   6 3269.39 52.4264   2
   1   4   6 3071.19 55.7815  -1
   5  -4  -6 3071.19 55.7815   2
  -2  -4  -6 331.819 6.50904  -1
  -6   4   6 331.819 6.50904   2
   2   4   6 332.896 6.05275  -1
   6  -4  -6 332.896 6.05275   2
  -3  -4  -6 571.834 12.0928  -1
  -7   4   6 571.834 12.0928   2
   3   4   6 602.040 10.0414  -1
   7  -4  -6 602.040 10.0414   2
  -4  -4  -6 247.983 6.18949  -1
  -8   4   6 247.983 6.18949   2
   4   4   6 238.323 5.65114  -1
   8  -4  -6 238.323 5.65114   2
  -5  -4  -6 530.480 11.7183  -1
  -9   4   6 530.480 11.7183   2
   5   4   6 585.084 10.9658  -1
   9  -4  -6 585.084 10.9658   2
  -6  -4  -6 358.889 9.90900  -1
 -10   4   6 358.889 9.90900   2
   6   4   6 361.242 9.49105  -1
  10  -4  -6 361.242 9.49105   2
  -7  -4  -6 231.954 8.70957  -1
 -11   4   6 231.954 8.70957   2
   7   4   6 230.813 7.02727  -1
  11  -4  -6 230.813 7.02727   2
  -8  -4  -6 166.175 7.43503  -1
 -12   4   6 166.175 7.43503   2
   8   4   6 175.784 6.75850  -1
  12  -4  -6 175.784 6.75850   2
  -9  -4  -6 349.989 12.1967  -1
 -13   4   6 349.989 12.1967   2
   9   4   6 324.713 13.8262  -1
  13  -4  -6 324.713 13.8262   2
  13  -5  -6 208.520 15.1276  -1
   9   5   6 208.520 15.1276   2
 -13   5   6 172.648 11.9296  -1
  -9  -5  -6 172.648 11.9296   2
  12  -5  -6 84.2572 7.63416  -1
   8   5   6 84.2572 7.63416   2
 -12   5   6 70.5538 6.58846  -1
  -8  -5  -6 70.5538 6.58846   2
  11  -5  -6 207.174 7.48589  -1
   7   5   6 207.174 7.48589   2
 -11   5   6 194.925 6.69755  -1
  -7  -5  -6 194.925 6.69755   2
  10  -5  -6 356.047 9.86316  -1
   6   5   6 356.047 9.86316   2
 -10   5   6 323.397 8.98450  -1
  -6  -5  -6 323.397 8.98450   2
   9  -5  -6 355.413 9.85085  -1
   5   5   6 355.413 9.85085   2
  -9   5   6 382.003 8.18911  -1
  -5  -5  -6 382.003 8.18911   2
   8  -5  -6 273.913 7.76006  -1
   4   5   6 273.913 7.76006   2
  -8   5   6 299.061 5.74896  -1
  -4  -5  -6 299.061 5.74896   2
   7  -5  -6 53.3933 3.17480  -1
   3   5   6 53.3933 3.17480   2
  -7   5   6 47.7805 2.43803  -1
  -3  -5  -6 47.7805 2.43803   2
   6  -5  -6 794.314 15.7386  -1
   2   5   6 794.314 15.7386   2
  -6   5   6 816.835 14.7707  -1
  -2  -5  -6 816.835 14.7707   2
   5  -5  -6 87.4675 2.17380  -1
   1   5   6 87.4675 2.17380   2
  -5   5   6 70.3136 2.68068  -1
  -1  -5  -6 70.3136 2.68068   2
   4  -5  -6 1448.60 18.4561  -1
   0   5   6 1448.60 18.4561   2
  -4   5   6 1436.28 25.0991  -1
   0  -5  -6 1436.28 25.0991   2
   3  -5  -6 498.746 8.02878  -1
  -1   5   6 498.746 8.02878   2
  -3   5   6 464.047 8.12995  -1
   1  -5  -6 464.047 8.12995   2
   2  -5  -6 171.108 3.36248  -1
  -2   5   6 171.108 3.36248   2
  -2   5   6 152.451 3.37722  -1
   2  -5  -6 152.451 3.37722   2
   1  -5  -6 331.330 5.73798  -1
  -3   5   6 331.330 5.73798   2
  -1   5   6 315.431 5.84040  -1
   3  -5  -6 315.431 5.84040   2
   0  -5  -6 1527.24 21.1124  -1
  -4   5   6 1527.24 21.1124   2
   0   5   6 1536.47 21.6044  -1
   4  -5  -6 1536.47 21.6044   2
  -1  -5  -6 79.5812 2.81434  -1
  -5   5   6 79.5812 2.81434   2
   1   5   6 92.9936 3.30199  -1
   5  -5  -6 92.9936 3.30199   2
  -2  -5  -6 597.108 9.08860  -1
  -6   5   6 597.108 9.08860   2
   2   5   6 591.342 11.3436  -1
   6  -5  -6 591.342 11.3436   2
  -3  -5  -6 78.5771 3.44556  -1
  -7   5   6 78.5771 3.44556   2
   3   5   6 84.1880 3.70302  -1
   7  -5  -6 84.1880 3.70302   2
  -4  -5  -6 459.286 9.38802  -1
  -8   5   6 459.286 9.38802   2
   4   5   6 406.978 7.25621  -1
   8  -5  -6 406.978 7.25621   2
  -5  -5  -6 397.382 8.23934  -1
  -9   5   6 397.382 8.23934   2
   5   5   6 347.388 6.41215  -1
   9  -5  -6 347.388 6.41215   2
  -6  -5  -6 390.164 9.47571  -1
 -10   5   6 390.164 9.47571   2
   6   5   6 437.967 10.6294  -1
  10  -5  -6 437.967 10.6294   2
  -7  -5  -6 114.772 5.65879  -1
 -11   5   6 114.772 5.65879   2
   7   5   6 131.101 6.02441  -1
  11  -5  -6 131.101 6.02441   2
  -8  -5  -6 73.4807 5.68536  -1
 -12   5   6 73.4807 5.68536   2
   8   5   6 75.1902 4.37847  -1
  12  -5  -6 75.1902 4.37847   2
  -9  -5  -6 231.449 11.7754  -1
 -13   5   6 231.449 11.7754   2
   9   5   6 256.895 11.5060  -1
  13  -5  -6 256.895 11.5060   2
  13  -6  -6 92.3822 10.5552  -1
   9   6   6 92.3822 10.5552   2
 -13   6   6 79.7983 10.0951  -1
  -9  -6  -6 79.7983 10.0951   2
  12  -6  -6 49.1880 5.42763  -1
   8   6   6 49.1880 5.42763   2
 -12   6   6 69.7675 5.71789  -1
  -8  -6  -6 69.7675 5.71789   2
  11  -6  -6 299.464 10.7925  -1
   7   6   6 299.464 10.7925   2
 -11   6   6 312.343 11.0477  -1
  -7  -6  -6 312.343 11.0477   2
  10  -6  -6 337.555 9.79056  -1
   6   6   6 337.555 9.79056   2
 -10   6   6 344.735 9.38875  -1
  -6  -6  -6 344.735 9.38875   2
   9  -6  -6 396.995 14.6659  -1
   5   6   6 396.995 14.6659   2
  -9   6   6 413.198 14.2979  -1
  -5  -6  -6 413.198 14.2979   2
   8  -6  -6 417.463 10.0386  -1
   4   6   6 417.463 10.0386   2
  -8   6   6 375.249 7.24890  -1
  -4  -6  -6 375.249 7.24890   2
   7  -6  -6 359.599 8.67436  -1
   3   6   6 359.599 8.67436   2
  -7   6   6 338.347 7.45631  -1
  -3  -6  -6 338.347 7.45631   2
   6  -6  -6 302.463 7.24695  -1
   2   6   6 302.463 7.24695   2
  -6   6   6 323.590 6.21964  -1
  -2  -6  -6 323.590 6.21964   2
   5  -6  -6 2496.60 34.1357  -1
   1   6   6 2496.60 34.1357   2
  -5   6   6 2440.05 38.0212  -1
  -1  -6  -6 2440.05 38.0212   2
   4  -6  -6 226.961 4.28289  -1
   0   6   6 226.961 4.28289   2
  -4   6   6 232.354 6.13592  -1
   0  -6  -6 232.354 6.13592   2
   3  -6  -6 682.116 10.7912  -1
  -1   6   6 682.116 10.7912   2
  -3   6   6 627.641 10.1865  -1
   1  -6  -6 627.641 10.1865   2
   2  -6  -6 1044.63 15.1934  -1
  -2   6   6 1044.63 15.1934   2
  -2   6   6 1063.42 18.6232  -1
   2  -6  -6 1063.42 18.6232   2
   1  -6  -6 535.744 8.92905  -1
  -3   6   6 535.744 8.92905   2
  -1   6   6 570.428 8.82174  -1
   3  -6  -6 570.428 8.82174   2
   0  -6  -6 135.627 4.14817  -1
  -4   6   6 135.627 4.14817   2
   0   6   6 138.098 2.69334  -1
   4  -6  -6 138.098 2.69334   2
  -1  -6  -6 1388.47 23.2182  -1
  -5   6   6 1388.47 23.2182   2
   1   6   6 1425.25 19.8572  -1
   5  -6  -6 1425.25 19.8572   2
  -2  -6  -6 319.159 6.75646  -1
  -6   6   6 319.159 6.75646   2
   2   6   6 339.479 6.60007  -1
   6  -6  -6 339.479 6.60007   2
  -3  -6  -6 532.414 11.1540  -1
  -7   6   6 532.414 11.1540   2
   3   6   6 535.893 10.7258  -1
   7  -6  -6 535.893 10.7258   2
  -4  -6  -6 279.688 7.72973  -1
  -8   6   6 279.688 7.72973   2
   4   6   6 304.300 7.46753  -1
   8  -6  -6 304.300 7.46753   2
  -5  -6  -6 679.877 13.8625  -1
  -9   6   6 679.877 13.8625   2
   5   6   6 638.298 12.2300  -1
   9  -6  -6 638.298 12.2300   2
  -6  -6  -6 540.262 12.3289  -1
 -10   6   6 540.262 12.3289   2
   6   6   6 509.830 10.4009  -1
  10  -6  -6 509.830 10.4009   2
  -7  -6  -6 354.741 11.4461  -1
 -11   6   6 354.741 11.4461   2
   7   6   6 319.061 7.74784  -1
  11  -6  -6 319.061 7.74784   2
  -8  -6  -6 87.3458 5.20181  -1
 -12   6   6 87.3458 5.20181   2
   8   6   6 62.1460 3.63526  -1
  12  -6  -6 62.1460 3.63526   2
  -9  -6  -6 69.7137 9.16745  -1
 -13   6   6 69.7137 9.16745   2
   9   6   6 77.7179 10.3590  -1
  13  -6  -6 77.7179 10.3590   2
  12  -7  -6 105.293 11.5636  -1
   8   7   6 105.293 11.5636   2
 -12   7   6 132.677 7.51330  -1
  -8  -7  -6 132.677 7.51330   2
  11  -7  -6 402.874 11.2068  -1
   7   7   6 402.874 11.2068   2
 -11   7   6 386.710 10.8013  -1
  -7  -7  -6 386.710 10.8013   2
  10  -7  -6 145.130 6.00684  -1
   6   7   6 145.130 6.00684   2
 -10   7   6 130.118 5.73784  -1
  -6  -7  -6 130.118 5.73784   2
   9  -7  -6 148.676 5.68508  -1
   5   7   6 148.676 5.68508   2
  -9   7   6 136.039 4.21333  -1
  -5  -7  -6 136.039 4.21333   2
   8  -7  -6 1105.14 31.5863  -1
   4   7   6 1105.14 31.5863   2
  -8   7   6 1031.68 21.6144  -1
  -4  -7  -6 1031.68 21.6144   2
   7  -7  -6 245.710 6.90401  -1
   3   7   6 245.710 6.90401   2
  -7   7   6 279.644 6.63235  -1
  -3  -7  -6 279.644 6.63235   2
   6  -7  -6 336.479 7.94719  -1
   2   7   6 336.479 7.94719   2
  -6   7   6 348.782 6.80632  -1
  -2  -7  -6 348.782 6.80632   2
   5  -7  -6 92.8475 3.14021  -1
   1   7   6 92.8475 3.14021   2
  -5   7   6 107.082 3.78060  -1
  -1  -7  -6 107.082 3.78060   2
   4  -7  -6 1074.48 16.0313  -1
   0   7   6 1074.48 16.0313   2
  -4   7   6 1196.94 18.4230  -1
   0  -7  -6 1196.94 18.4230   2
   3  -7  -6 620.620 10.9921  -1
  -1   7   6 620.620 10.9921   2
  -3   7   6 626.020 13.7293  -1
   1  -7  -6 626.020 13.7293   2
   2  -7  -6 255.004 6.08402  -1
  -2   7   6 255.004 6.08402   2
  -2   7   6 248.311 6.38238  -1
   2  -7  -6 248.311 6.38238   2
   1  -7  -6 463.830 7.78525  -1
  -3   7   6 463.830 7.78525   2
  -1   7   6 473.594 8.42670  -1
   3  -7  -6 473.594 8.42670   2
   0  -7  -6 1980.96 30.7676  -1
  -4   7   6 1980.96 30.7676   2
   0   7   6 1871.52 26.8989  -1
   4  -7  -6 1871.52 26.8989   2
  -1  -7  -6 128.036 3.65273  -1
  -5   7   6 128.036 3.65273   2
   1   7   6 103.951 2.56105  -1
   5  -7  -6 103.951 2.56105   2
  -2  -7  -6 616.434 10.0821  -1
  -6   7   6 616.434 10.0821   2
   2   7   6 571.846 10.4145  -1
   6  -7  -6 571.846 10.4145   2
  -3  -7  -6 418.840 8.12264  -1
  -7   7   6 418.840 8.12264   2
   3   7   6 418.952 8.73707  -1
   7  -7  -6 418.952 8.73707   2
  -4  -7  -6 649.936 16.4855  -1
  -8   7   6 649.936 16.4855   2
   4   7   6 707.823 14.9148  -1
   8  -7  -6 707.823 14.9148   2
  -5  -7  -6 85.2236 4.61320  -1
  -9   7   6 85.2236 4.61320   2
   5   7   6 96.4968 4.62604  -1
   9  -7  -6 96.4968 4.62604   2
  -6  -7  -6 88.3575 4.43151  -1
 -10   7   6 88.3575 4.43151   2
   6   7   6 86.5483 4.43648  -1
  10  -7  -6 86.5483 4.43648   2
  -7  -7  -6 262.852 11.5796  -1
 -11   7   6 262.852 11.5796   2
   7   7   6 276.364 7.76304  -1
  11  -7  -6 276.364 7.76304   2
  -8  -7  -6 199.643 7.74747  -1
 -12   7   6 199.643 7.74747   2
   8   7   6 191.557 6.61846  -1
  12  -7  -6 191.557 6.61846   2
  11  -8  -6 55.6672 7.70079  -1
   7   8   6 55.6672 7.70079   2
 -11   8   6 49.9880 5.67133  -1
  -7  -8  -6 49.9880 5.67133   2
  10  -8  -6 61.0754 4.75947  -1
   6   8   6 61.0754 4.75947   2
 -10   8   6 62.4447 5.21512  -1
  -6  -8  -6 62.4447 5.21512   2
   9  -8  -6 53.5682 3.63933  -1
   5   8   6 53.5682 3.63933   2
  -9   8   6 42.0831 2.92866  -1
  -5  -8  -6 42.0831 2.92866   2
   8  -8  -6 85.5949 4.00553  -1
   4   8   6 85.5949 4.00553   2
  -8   8   6 104.770 5.54871  -1
  -4  -8  -6 104.770 5.54871   2
   7  -8  -6 392.858 10.9035  -1
   3   8   6 392.858 10.9035   2
  -7   8   6 421.086 10.0886  -1
  -3  -8  -6 421.086 10.0886   2
   6  -8  -6 355.698 8.78055  -1
   2   8   6 355.698 8.78055   2
  -6   8   6 350.206 8.18169  -1
  -2  -8  -6 350.206 8.18169   2
   5  -8  -6 208.138 5.72490  -1
   1   8   6 208.138 5.72490   2
  -5   8   6 191.339 5.47687  -1
  -1  -8  -6 191.339 5.47687   2
   4  -8  -6 47.0252 1.51315  -1
   0   8   6 47.0252 1.51315   2
  -4   8   6 46.2337 2.86567  -1
   0  -8  -6 46.2337 2.86567   2
   3  -8  -6 495.637 10.4919  -1
  -1   8   6 495.637 10.4919   2
  -3   8   6 498.954 10.2776  -1
   1  -8  -6 498.954 10.2776   2
   2  -8  -6 33.1288 2.07968  -1
  -2   8   6 33.1288 2.07968   2
  -2   8   6 27.7695 1.89424  -1
   2  -8  -6 27.7695 1.89424   2
   1  -8  -6 335.849 7.25805  -1
  -3   8   6 335.849 7.25805   2
  -1   8   6 318.714 7.15693  -1
   3  -8  -6 318.714 7.15693   2
   0  -8  -6 76.1686 3.15381  -1
  -4   8   6 76.1686 3.15381   2
   0   8   6 60.2863 2.09968  -1
   4  -8  -6 60.2863 2.09968   2
  -1  -8  -6 188.650 4.82652  -1
  -5   8   6 188.650 4.82652   2
   1   8   6 181.010 3.41287  -1
   5  -8  -6 181.010 3.41287   2
  -2  -8  -6 209.526 5.07427  -1
  -6   8   6 209.526 5.07427   2
   2   8   6 244.246 5.09969  -1
   6  -8  -6 244.246 5.09969   2
  -3  -8  -6 510.811 10.8691  -1
  -7   8   6 510.811 10.8691   2
   3   8   6 513.442 10.4377  -1
   7  -8  -6 513.442 10.4377   2
  -4  -8  -6 78.1339 3.15350  -1
  -8   8   6 78.1339 3.15350   2
   4   8   6 98.3044 3.92177  -1
   8  -8  -6 98.3044 3.92177   2
  -5  -8  -6 63.9430 4.78638  -1
  -9   8   6 63.9430 4.78638   2
   5   8   6 70.3080 3.81160  -1
   9  -8  -6 70.3080 3.81160   2
  -6  -8  -6 91.2555 4.56106  -1
 -10   8   6 91.2555 4.56106   2
   6   8   6 73.9631 4.80770  -1
  10  -8  -6 73.9631 4.80770   2
  -7  -8  -6 67.8052 6.10290  -1
 -11   8   6 67.8052 6.10290   2
   7   8   6 59.9581 3.62606  -1
  11  -8  -6 59.9581 3.62606   2
  -8  -8  -6 108.743 11.0158  -1
 -12   8   6 108.743 11.0158   2
   8   8   6 105.177 5.44670  -1
  12  -8  -6 105.177 5.44670   2
  11  -9  -6 82.5586 10.5445  -1
   7   9   6 82.5586 10.5445   2
 -11   9   6 79.1050 7.90353  -1
  -7  -9  -6 79.1050 7.90353   2
  10  -9  -6 66.8296 9.37957  -1
   6   9   6 66.8296 9.37957   2
 -10   9   6 67.6991 6.24351  -1
  -6  -9  -6 67.6991 6.24351   2
   9  -9  -6 103.653 10.1486  -1
   5   9   6 103.653 10.1486   2
  -9   9   6 78.7013 5.44708  -1
  -5  -9  -6 78.7013 5.44708   2
   8  -9  -6 258.188 9.78940  -1
   4   9   6 258.188 9.78940   2
  -8   9   6 247.043 6.77560  -1
  -4  -9  -6 247.043 6.77560   2
   7  -9  -6 230.014 10.2808  -1
   3   9   6 230.014 10.2808   2
  -7   9   6 200.299 6.78425  -1
  -3  -9  -6 200.299 6.78425   2
   6  -9  -6 436.992 12.8664  -1
   2   9   6 436.992 12.8664   2
  -6   9   6 443.645 10.0394  -1
  -2  -9  -6 443.645 10.0394   2
   5  -9  -6 235.889 5.58460  -1
   1   9   6 235.889 5.58460   2
  -5   9   6 232.675 6.36024  -1
  -1  -9  -6 232.675 6.36024   2
   4  -9  -6 478.937 10.3908  -1
   0   9   6 478.937 10.3908   2
  -4   9   6 437.260 8.82178  -1
   0  -9  -6 437.260 8.82178   2
   3  -9  -6 130.631 4.48728  -1
  -1   9   6 130.631 4.48728   2
  -3   9   6 129.031 4.46492  -1
   1  -9  -6 129.031 4.46492   2
   2  -9  -6 443.984 9.35080  -1
  -2   9   6 443.984 9.35080   2
  -2   9   6 420.618 8.82565  -1
   2  -9  -6 420.618 8.82565   2
   1  -9  -6 100.017 3.58759  -1
  -3   9   6 100.017 3.58759   2
  -1   9   6 101.045 3.63398  -1
   3  -9  -6 101.045 3.63398   2
   0  -9  -6 347.368 8.73904  -1
  -4   9   6 347.368 8.73904   2
   0   9   6 364.785 7.06629  -1
   4  -9  -6 364.785 7.06629   2
  -1  -9  -6 169.674 4.96346  -1
  -5   9   6 169.674 4.96346   2
   1   9   6 169.000 4.74529  -1
   5  -9  -6 169.000 4.74529   2
  -2  -9  -6 339.580 7.50374  -1
  -6   9   6 339.580 7.50374   2
   2   9   6 357.544 7.09727  -1
   6  -9  -6 357.544 7.09727   2
  -3  -9  -6 242.946 7.23253  -1
  -7   9   6 242.946 7.23253   2
   3   9   6 260.475 5.77394  -1
   7  -9  -6 260.475 5.77394   2
  -4  -9  -6 341.606 7.53764  -1
  -8   9   6 341.606 7.53764   2
   4   9   6 318.522 7.98727  -1
   8  -9  -6 318.522 7.98727   2
  -5  -9  -6 131.473 6.17530  -1
  -9   9   6 131.473 6.17530   2
   5   9   6 118.314 4.80498  -1
   9  -9  -6 118.314 4.80498   2
  -6  -9  -6 99.3062 6.27829  -1
 -10   9   6 99.3062 6.27829   2
   6   9   6 85.4956 4.59197  -1
  10  -9  -6 85.4956 4.59197   2
  -7  -9  -6 94.6922 7.77738  -1
 -11   9   6 94.6922 7.77738   2
   7   9   6 86.0623 6.37530  -1
  11  -9  -6 86.0623 6.37530   2
  10 -10  -6 358.018 12.7755  -1
   6  10   6 358.018 12.7755   2
 -10  10   6 336.951 12.4578  -1
  -6 -10  -6 336.951 12.4578   2
   9 -10  -6 214.711 9.76559  -1
   5  10   6 214.711 9.76559   2
  -9  10   6 193.649 10.8488  -1
  -5 -10  -6 193.649 10.8488   2
   8 -10  -6 106.923 7.67706  -1
   4  10   6 106.923 7.67706   2
  -8  10   6 124.818 4.90076  -1
  -4 -10  -6 124.818 4.90076   2
   7 -10  -6 226.963 6.88437  -1
   3  10   6 226.963 6.88437   2
  -7  10   6 200.074 6.24683  -1
  -3 -10  -6 200.074 6.24683   2
   6 -10  -6 427.497 13.4347  -1
   2  10   6 427.497 13.4347   2
  -6  10   6 460.677 10.2467  -1
  -2 -10  -6 460.677 10.2467   2
   5 -10  -6 702.281 14.3397  -1
   1  10   6 702.281 14.3397   2
  -5  10   6 715.737 14.2099  -1
  -1 -10  -6 715.737 14.2099   2
   4 -10  -6 83.6047 4.00503  -1
   0  10   6 83.6047 4.00503   2
  -4  10   6 69.0671 4.22619  -1
   0 -10  -6 69.0671 4.22619   2
   3 -10  -6 223.156 6.64713  -1
  -1  10   6 223.156 6.64713   2
  -3  10   6 245.863 6.84407  -1
   1 -10  -6 245.863 6.84407   2
   2 -10  -6 832.371 16.5940  -1
  -2  10   6 832.371 16.5940   2
  -2  10   6 813.971 12.7693  -1
   2 -10  -6 813.971 12.7693   2
   1 -10  -6 404.680 8.55741  -1
  -3  10   6 404.680 8.55741   2
  -1  10   6 342.392 9.05461  -1
   3 -10  -6 342.392 9.05461   2
   0 -10  -6 76.0159 4.60022  -1
  -4  10   6 76.0159 4.60022   2
   0  10   6 53.0646 2.39984  -1
   4 -10  -6 53.0646 2.39984   2
  -1 -10  -6 1107.30 20.6159  -1
  -5  10   6 1107.30 20.6159   2
   1  10   6 1005.15 17.7495  -1
   5 -10  -6 1005.15 17.7495   2
  -2 -10  -6 369.004 9.06701  -1
  -6  10   6 369.004 9.06701   2
   2  10   6 355.720 9.29340  -1
   6 -10  -6 355.720 9.29340   2
  -3 -10  -6 228.203 6.24316  -1
  -7  10   6 228.203 6.24316   2
   3  10   6 214.816 6.82434  -1
   7 -10  -6 214.816 6.82434   2
  -4 -10  -6 210.406 6.90844  -1
  -8  10   6 210.406 6.90844   2
   4  10   6 186.017 8.02132  -1
   8 -10  -6 186.017 8.02132   2
  -5 -10  -6 127.162 5.75153  -1
  -9  10   6 127.162 5.75153   2
   5  10   6 136.740 6.77675  -1
   9 -10  -6 136.740 6.77675   2
  -6 -10  -6 263.176 11.7714  -1
 -10  10   6 263.176 11.7714   2
   6  10   6 275.367 8.63534  -1
  10 -10  -6 275.367 8.63534   2
  -7 -10  -6 50.4368 10.6790  -1
 -11  10   6 50.4368 10.6790   2
   7  10   6 40.1358 6.82956  -1
  11 -10  -6 40.1358 6.82956   2
   9 -11  -6 110.999 5.65604  -1
   5  11   6 110.999 5.65604   2
  -9  11   6 110.718 5.87766  -1
  -5 -11  -6 110.718 5.87766   2
   8 -11  -6 167.469 7.29799  -1
   4  11   6 167.469 7.29799   2
  -8  11   6 151.928 6.54707  -1
  -4 -11  -6 151.928 6.54707   2
   7 -11  -6 101.719 4.57124  -1
   3  11   6 101.719 4.57124   2
  -7  11   6 92.0707 5.91169  -1
  -3 -11  -6 92.0707 5.91169   2
   6 -11  -6 58.2045 5.05094  -1
   2  11   6 58.2045 5.05094   2
  -6  11   6 63.1975 3.77947  -1
  -2 -11  -6 63.1975 3.77947   2
   5 -11  -6 259.632 7.95450  -1
   1  11   6 259.632 7.95450   2
  -5  11   6 261.981 7.03379  -1
  -1 -11  -6 261.981 7.03379   2
   4 -11  -6 357.689 9.54345  -1
   0  11   6 357.689 9.54345   2
  -4  11   6 362.327 8.79246  -1
   0 -11  -6 362.327 8.79246   2
   3 -11  -6 195.433 6.49132  -1
  -1  11   6 195.433 6.49132   2
  -3  11   6 205.121 6.27690  -1
   1 -11  -6 205.121 6.27690   2
   2 -11  -6 39.0733 2.28049  -1
  -2  11   6 39.0733 2.28049   2
  -2  11   6 15.8400 2.39016  -1
   2 -11  -6 15.8400 2.39016   2
   1 -11  -6 301.474 7.83590  -1
  -3  11   6 301.474 7.83590   2
  -1  11   6 296.009 7.60251  -1
   3 -11  -6 296.009 7.60251   2
   0 -11  -6 227.637 7.45705  -1
  -4  11   6 227.637 7.45705   2
   0  11   6 241.049 6.46834  -1
   4 -11  -6 241.049 6.46834   2
  -1 -11  -6 259.711 6.92459  -1
  -5  11   6 259.711 6.92459   2
   1  11   6 269.127 6.13778  -1
   5 -11  -6 269.127 6.13778   2
  -2 -11  -6 38.7300 2.83251  -1
  -6  11   6 38.7300 2.83251   2
   2  11   6 41.2576 2.81076  -1
   6 -11  -6 41.2576 2.81076   2
  -3 -11  -6 106.029 4.75918  -1
  -7  11   6 106.029 4.75918   2
   3  11   6 109.622 5.41368  -1
   7 -11  -6 109.622 5.41368   2
  -4 -11  -6 191.595 8.74649  -1
  -8  11   6 191.595 8.74649   2
   4  11   6 182.567 8.23766  -1
   8 -11  -6 182.567 8.23766   2
  -5 -11  -6 88.8424 5.76855  -1
  -9  11   6 88.8424 5.76855   2
   5  11   6 78.3631 4.83679  -1
   9 -11  -6 78.3631 4.83679   2
  -6 -11  -6 83.5706 7.02835  -1
 -10  11   6 83.5706 7.02835   2
   6  11   6 78.9097 8.80224  -1
  10 -11  -6 78.9097 8.80224   2
  -9  12   6 11.7653 4.63222  -1
  -5 -12  -6 11.7653 4.63222   2
   8 -12  -6 26.6881 5.32738  -1
   4  12   6 26.6881 5.32738   2
  -8  12   6 23.8135 4.57184  -1
  -4 -12  -6 23.8135 4.57184   2
   7 -12  -6 37.2738 4.54373  -1
   3  12   6 37.2738 4.54373   2
  -7  12   6 44.8205 3.89542  -1
  -3 -12  -6 44.8205 3.89542   2
   6 -12  -6 17.1796 3.53220  -1
   2  12   6 17.1796 3.53220   2
  -6  12   6 17.4976 3.27096  -1
  -2 -12  -6 17.4976 3.27096   2
   5 -12  -6 163.597 6.34791  -1
   1  12   6 163.597 6.34791   2
  -5  12   6 162.366 5.61860  -1
  -1 -12  -6 162.366 5.61860   2
   4 -12  -6 78.0286 5.58235  -1
   0  12   6 78.0286 5.58235   2
  -4  12   6 96.8031 5.39692  -1
   0 -12  -6 96.8031 5.39692   2
   3 -12  -6 42.1931 3.41103  -1
  -1  12   6 42.1931 3.41103   2
  -3  12   6 38.7653 3.21142  -1
   1 -12  -6 38.7653 3.21142   2
   2 -12  -6 11.2312 2.14564  -1
  -2  12   6 11.2312 2.14564   2
  -2  12   6 9.60551 2.21288  -1
   2 -12  -6 9.60551 2.21288   2
   1 -12  -6 45.9398 4.29583  -1
  -3  12   6 45.9398 4.29583   2
  -1  12   6 42.9107 3.40815  -1
   3 -12  -6 42.9107 3.40815   2
   0 -12  -6 47.2401 3.18088  -1
  -4  12   6 47.2401 3.18088   2
   0  12   6 47.9362 3.52667  -1
   4 -12  -6 47.9362 3.52667   2
  -1 -12  -6 100.764 5.22299  -1
  -5  12   6 100.764 5.22299   2
   1  12   6 104.845 4.55411  -1
   5 -12  -6 104.845 4.55411   2
  -2 -12  -6 32.5891 2.87825  -1
  -6  12   6 32.5891 2.87825   2
   2  12   6 25.9186 3.09430  -1
   6 -12  -6 25.9186 3.09430   2
  -3 -12  -6 64.8890 4.30414  -1
  -7  12   6 64.8890 4.30414   2
   3  12   6 70.1635 6.58746  -1
   7 -12  -6 70.1635 6.58746   2
  -4 -12  -6 41.1876 5.20750  -1
  -8  12   6 41.1876 5.20750   2
   4  12   6 35.3131 4.72734  -1
   8 -12  -6 35.3131 4.72734   2
  -5 -12  -6 12.9814 3.82976  -1
  -9  12   6 12.9814 3.82976   2
   7 -13  -6 79.8104 10.8054  -1
   3  13   6 79.8104 10.8054   2
  -7  13   6 79.9389 10.3813  -1
  -3 -13  -6 79.9389 10.3813   2
   6 -13  -6 64.2073 5.37556  -1
   2  13   6 64.2073 5.37556   2
  -6  13   6 70.5445 5.11890  -1
  -2 -13  -6 70.5445 5.11890   2
   5 -13  -6 65.0532 4.26677  -1
   1  13   6 65.0532 4.26677   2
  -5  13   6 55.5527 4.48369  -1
  -1 -13  -6 55.5527 4.48369   2
   4 -13  -6 117.914 5.75175  -1
   0  13   6 117.914 5.75175   2
  -4  13   6 116.492 6.12344  -1
   0 -13  -6 116.492 6.12344   2
   3 -13  -6 195.081 6.87565  -1
  -1  13   6 195.081 6.87565   2
  -3  13   6 191.723 6.66739  -1
   1 -13  -6 191.723 6.66739   2
   2 -13  -6 2.01944 2.65490  -1
  -2  13   6 2.01944 2.65490   2
  -2  13   6 5.46199 2.18997  -1
   2 -13  -6 5.46199 2.18997   2
   1 -13  -6 193.551 7.33642  -1
  -3  13   6 193.551 7.33642   2
  -1  13   6 171.166 6.66319  -1
   3 -13  -6 171.166 6.66319   2
   0 -13  -6 147.712 5.74611  -1
  -4  13   6 147.712 5.74611   2
   0  13   6 124.983 6.51613  -1
   4 -13  -6 124.983 6.51613   2
  -1 -13  -6 53.4062 4.62341  -1
  -5  13   6 53.4062 4.62341   2
   1  13   6 45.3853 4.20363  -1
   5 -13  -6 45.3853 4.20363   2
  -2 -13  -6 61.2612 4.06095  -1
  -6  13   6 61.2612 4.06095   2
   2  13   6 54.5276 4.92603  -1
   6 -13  -6 54.5276 4.92603   2
  -3 -13  -6 81.8012 7.52983  -1
  -7  13   6 81.8012 7.52983   2
   3  13   6 62.1193 8.03560  -1
   7 -13  -6 62.1193 8.03560   2
  -4 -13  -6 72.6312 10.0902  -1
  -8  13   6 72.6312 10.0902   2
   6 -14  -6 88.7708 12.4358  -1
   2  14   6 88.7708 12.4358   2
   5 -14  -6 36.0394 9.52169  -1
   1  14   6 36.0394 9.52169   2
  -5  14   6 29.3509 7.82454  -1
  -1 -14  -6 29.3509 7.82454   2
   4 -14  -6 16.1589 4.98499  -1
   0  14   6 16.1589 4.98499   2
  -4  14   6 12.9148 4.86800  -1
   0 -14  -6 12.9148 4.86800   2
   3 -14  -6 123.367 10.4379  -1
  -1  14   6 123.367 10.4379   2
  -3  14   6 133.803 6.45173  -1
   1 -14  -6 133.803 6.45173   2
   2 -14  -6 98.0066 6.95397  -1
  -2  14   6 98.0066 6.95397   2
  -2  14   6 100.847 5.64005  -1
   2 -14  -6 100.847 5.64005   2
   1 -14  -6 116.213 5.76028  -1
  -3  14   6 116.213 5.76028   2
  -1  14   6 124.536 8.55380  -1
   3 -14  -6 124.536 8.55380   2
   0 -14  -6 12.4468 3.03891  -1
  -4  14   6 12.4468 3.03891   2
   0  14   6 11.1014 4.31326  -1
   4 -14  -6 11.1014 4.31326   2
  -1 -14  -6 40.0945 4.84081  -1
  -5  14   6 40.0945 4.84081   2
  -2 -14  -6 92.5262 12.1961  -1
  -6  14   6 92.5262 12.1961   2
 -14   0   7 8.00915 5.36936   2
 -13   0   7 15.2516 3.57443   2
 -12   0   7 3.34117 1.92821   2
 -11   0   7 123.911 32.6925   2
 -10   0   7 6.93063 1.51964   2
  -9   0   7 8.51273 2.08656   2
  -8   0   7 27.8523 2.28723   2
  -7   0   7 6.15258 1.52690   2
  -6   0   7 10.8586 1.23469   2
  -5   0   7 3.21378 0.70230   2
  -4   0   7 11.6951 0.71393   2
  -3   0   7 7.19429 0.58746   2
  -2   0   7 6.20133 0.66253   2
  -1   0   7 1.55516 0.47373   2
   0   0   7 2.53141 0.58973   2
   1   0   7 3.14642 0.59330   2
   2   0   7 2.74067 0.79842   2
   3   0   7 -1.6252 0.83056   2
   4   0   7 8.53316 1.50357   2
   5   0   7 1.82083 1.44697   2
   6   0   7 16.1390 2.18252   2
   7   0   7 2.31401 1.92276   2
   8   0   7 11.8799 2.77219   2
  14  -1  -7 38.5424 7.14477   2
  13  -1  -7 2.90846 2.37705   2
 -13   1   7 8.11018 3.30727   2
  12  -1  -7 26.8972 3.71308   2
 -12   1   7 21.6867 3.01945   2
  11  -1  -7 126.915 3.97482   2
 -11   1   7 100.492 4.28580   2
  10  -1  -7 101.538 3.39577   2
 -10   1   7 71.9994 3.48674   2
   9  -1  -7 35.5984 1.79257   2
  -9   1   7 48.3051 3.33661   2
   8  -1  -7 80.4389 3.03440   2
  -8   1   7 96.0903 4.00555   2
   7  -1  -7 82.3256 2.68591   2
  -7   1   7 54.6746 3.17237   2
   6  -1  -7 54.8511 2.11461   2
  -6   1   7 49.8925 2.60462   2
   5  -1  -7 185.414 4.45178   2
  -5   1   7 215.457 3.38283   2
   4  -1  -7 307.728 4.71700   2
  -4   1   7 307.298 4.41746   2
   3  -1  -7 85.7476 1.67301   2
  -3   1   7 76.5809 1.52989   2
   2  -1  -7 47.7799 1.30161   2
  -2   1   7 49.0228 1.24375   2
   1  -1  -7 68.6951 1.35416   2
  -1   1   7 67.8983 1.48163   2
   0  -1  -7 108.091 2.61887   2
   0   1   7 110.271 1.97950   2
  -1  -1  -7 119.405 2.58576   2
   1   1   7 120.242 2.64716   2
  -2  -1  -7 64.5701 1.87582   2
   2   1   7 62.0086 2.27552   2
  -3  -1  -7 63.6635 2.16767   2
   3   1   7 73.2328 2.54806   2
  -4  -1  -7 23.4025 1.89816   2
   4   1   7 27.6198 2.50965   2
  -5  -1  -7 41.7480 3.17457   2
   5   1   7 36.9001 2.66709   2
  -6  -1  -7 139.622 5.65356   2
   6   1   7 148.897 4.88352   2
  -7  -1  -7 6.07675 1.89452   2
   7   1   7 5.38185 1.66442   2
  -8  -1  -7 1.54228 2.48340   2
   8   1   7 3.56105 2.33119   2
  -9  -1  -7 3.39319 3.74486   2
   9   1   7 10.9006 4.47418   2
  14  -2  -7 2.52527 5.29626   2
  13  -2  -7 39.6495 3.66389   2
 -13   2   7 56.4845 5.31538   2
  12  -2  -7 66.9206 5.87017   2
 -12   2   7 59.7798 4.34803   2
  11  -2  -7 7.54811 2.25078   2
 -11   2   7 2.43356 1.84293   2
  10  -2  -7 92.0837 5.36191   2
 -10   2   7 115.366 7.05078   2
   9  -2  -7 219.195 5.24687   2
  -9   2   7 210.522 6.57863   2
   8  -2  -7 200.281 3.61806   2
  -8   2   7 178.254 5.63630   2
   7  -2  -7 46.1558 2.07916   2
  -7   2   7 36.2850 2.61729   2
   6  -2  -7 21.5586 1.12614   2
  -6   2   7 24.8082 1.38936   2
   5  -2  -7 72.4910 1.90851   2
  -5   2   7 69.6464 1.67995   2
   4  -2  -7 17.0303 0.96322   2
  -4   2   7 14.3201 0.98683   2
   3  -2  -7 9.42158 0.60549   2
  -3   2   7 9.72406 0.66473   2
   2  -2  -7 10.8908 0.86591   2
  -2   2   7 15.4285 0.83253   2
   1  -2  -7 92.4222 1.92808   2
  -1   2   7 92.6540 1.83595   2
   0  -2  -7 49.4304 1.57307   2
   0   2   7 51.5681 1.29232   2
  -1  -2  -7 23.4116 1.13380   2
   1   2   7 25.2246 1.26507   2
  -2  -2  -7 62.3126 1.83895   2
   2   2   7 65.0548 2.37001   2
  -3  -2  -7 238.711 4.62581   2
   3   2   7 240.760 4.77133   2
  -4  -2  -7 24.7417 1.56841   2
   4   2   7 37.8716 1.95965   2
  -5  -2  -7 98.5406 3.68820   2
   5   2   7 97.2676 3.64193   2
  -6  -2  -7 149.117 5.92663   2
   6   2   7 133.419 5.96672   2
  -7  -2  -7 56.8769 4.17310   2
   7   2   7 61.6007 4.19577   2
  -8  -2  -7 36.1820 3.76680   2
   8   2   7 61.7904 5.23601   2
  -9  -2  -7 0.72066 4.00306   2
   9   2   7 6.36712 3.83148   2
  13  -3  -7 5.94861 2.44260   2
 -13   3   7 0.87786 2.18731   2
  12  -3  -7 20.4584 2.77655   2
 -12   3   7 16.5634 3.95732   2
  11  -3  -7 19.9352 2.74384   2
 -11   3   7 27.7750 3.07368   2
  10  -3  -7 94.1230 4.21367   2
 -10   3   7 97.6649 5.38356   2
   9  -3  -7 46.6303 2.36756   2
  -9   3   7 57.2690 3.69761   2
   8  -3  -7 106.493 3.33489   2
  -8   3   7 111.728 5.03758   2
   7  -3  -7 36.1878 1.85880   2
  -7   3   7 40.3440 2.22393   2
   6  -3  -7 65.9962 2.32030   2
  -6   3   7 78.0644 2.10197   2
   5  -3  -7 86.1233 2.04983   2
  -5   3   7 75.9715 2.02140   2
   4  -3  -7 13.9488 0.90342   2
  -4   3   7 2.40557 5.67741   2
   3  -3  -7 8.75274 0.67501   2
  -3   3   7 8.97491 0.73010   2
   2  -3  -7 60.6278 1.84177   2
  -2   3   7 58.8717 1.69601   2
   1  -3  -7 29.6273 1.19640   2
  -1   3   7 33.4910 1.29092   2
   0  -3  -7 216.157 3.81348   2
   0   3   7 209.419 3.77688   2
  -1  -3  -7 1.13237 0.54058   2
   1   3   7 0.28732 0.80892   2
  -2  -3  -7 57.1032 1.83156   2
   2   3   7 62.8371 2.08855   2
  -3  -3  -7 0.76751 0.64619   2
   3   3   7 -0.9023 1.01359   2
  -4  -3  -7 62.7052 2.18992   2
   4   3   7 66.3201 2.47450   2
  -5  -3  -7 14.6471 1.86053   2
   5   3   7 26.1086 2.58052   2
  -6  -3  -7 9.79630 2.51504   2
   6   3   7 14.5689 2.59123   2
  -7  -3  -7 15.3089 3.26004   2
   7   3   7 15.6489 3.39976   2
  -8  -3  -7 23.7532 3.21467   2
   8   3   7 14.8944 2.77523   2
  13  -4  -7 29.7771 8.25819   2
 -13   4   7 15.4624 2.97148   2
  12  -4  -7 8.64087 2.36718   2
 -12   4   7 17.9995 2.88565   2
  11  -4  -7 92.2776 4.22731   2
 -11   4   7 103.869 6.28209   2
  10  -4  -7 284.236 7.01819   2
 -10   4   7 246.325 9.42308   2
   9  -4  -7 94.8812 3.36029   2
  -9   4   7 77.5343 3.08545   2
   8  -4  -7 24.7456 1.78812   2
  -8   4   7 39.8858 2.33462   2
   7  -4  -7 278.698 5.90082   2
  -7   4   7 279.959 6.70155   2
   6  -4  -7 90.8537 2.40460   2
  -6   4   7 89.5342 2.53423   2
   5  -4  -7 202.337 4.51371   2
  -5   4   7 207.178 3.81932   2
   4  -4  -7 35.9636 1.57497   2
  -4   4   7 34.9113 1.31726   2
   3  -4  -7 144.319 2.69742   2
  -3   4   7 150.037 3.02347   2
   2  -4  -7 8.52606 0.83174   2
  -2   4   7 6.34340 0.77255   2
   1  -4  -7 80.0931 1.70024   2
  -1   4   7 80.2958 2.17562   2
   0  -4  -7 6.26602 0.63292   2
   0   4   7 7.15282 0.77713   2
  -1  -4  -7 103.112 3.30547   2
   1   4   7 99.9251 2.75445   2
  -2  -4  -7 11.4080 1.24191   2
   2   4   7 18.0636 1.91306   2
  -3  -4  -7 5.74147 1.26415   2
   3   4   7 -1.3440 1.54543   2
  -4  -4  -7 131.280 5.90133   2
   4   4   7 134.408 5.23560   2
  -5  -4  -7 443.754 10.6606   2
   5   4   7 430.653 9.77918   2
  -6  -4  -7 61.7232 3.68981   2
   6   4   7 62.7167 5.59137   2
  -7  -4  -7 2.29262 2.54773   2
   7   4   7 4.14328 2.87070   2
  -8  -4  -7 129.661 7.88303   2
   8   4   7 109.847 7.24552   2
  13  -5  -7 79.3850 6.66322   2
 -13   5   7 85.3939 10.8026   2
  12  -5  -7 30.3920 4.42671   2
 -12   5   7 35.6373 3.60623   2
  11  -5  -7 24.4694 2.50728   2
 -11   5   7 22.8156 3.58207   2
  10  -5  -7 153.435 4.89721   2
 -10   5   7 143.735 4.77159   2
   9  -5  -7 162.157 4.46205   2
  -9   5   7 159.116 5.02423   2
   8  -5  -7 22.1449 2.52514   2
  -8   5   7 3.20283 1.69538   2
   7  -5  -7 12.8213 2.56096   2
  -7   5   7 28.0292 2.31092   2
   6  -5  -7 266.584 6.23375   2
  -6   5   7 255.730 4.11349   2
   5  -5  -7 106.533 3.11808   2
  -5   5   7 100.818 2.48543   2
   4  -5  -7 141.691 3.10005   2
  -4   5   7 146.358 2.86995   2
   3  -5  -7 7.69518 0.84588   2
  -3   5   7 14.8188 1.17970   2
   2  -5  -7 233.777 4.34415   2
  -2   5   7 243.618 3.99196   2
   1  -5  -7 12.4106 0.85451   2
  -1   5   7 12.5419 1.12401   2
   0  -5  -7 276.536 5.51079   2
   0   5   7 283.562 5.05900   2
  -1  -5  -7 78.9441 2.71715   2
   1   5   7 86.9719 2.52940   2
  -2  -5  -7 33.8524 1.78663   2
   2   5   7 39.7591 2.34776   2
  -3  -5  -7 164.221 4.49984   2
   3   5   7 147.323 5.43529   2
  -4  -5  -7 205.448 5.29562   2
   4   5   7 212.444 6.88826   2
  -5  -5  -7 27.6531 2.73880   2
   5   5   7 29.2968 3.14008   2
  -6  -5  -7 12.7398 2.25641   2
   6   5   7 8.56460 2.60294   2
  -7  -5  -7 35.9448 4.30576   2
   7   5   7 29.3632 4.15431   2
  -8  -5  -7 54.9951 5.36138   2
   8   5   7 57.1994 5.58040   2
  13  -6  -7 0.98174 4.88305   2
 -13   6   7 3.64341 5.45578   2
  12  -6  -7 39.8840 3.92095   2
 -12   6   7 44.8187 4.08222   2
  11  -6  -7 24.9225 3.08594   2
 -11   6   7 23.6512 4.50022   2
  10  -6  -7 39.3723 3.54212   2
 -10   6   7 42.3299 3.04594   2
   9  -6  -7 306.595 7.62890   2
  -9   6   7 263.868 8.98302   2
   8  -6  -7 161.909 5.04879   2
  -8   6   7 171.644 5.47019   2
   7  -6  -7 166.558 4.52423   2
  -7   6   7 175.044 4.27386   2
   6  -6  -7 81.9976 2.84357   2
  -6   6   7 64.0243 2.10003   2
   5  -6  -7 8.31968 0.95679   2
  -5   6   7 12.7483 1.18978   2
   4  -6  -7 6.38025 0.90457   2
  -4   6   7 21.0468 1.70074   2
   3  -6  -7 317.639 6.10679   2
  -3   6   7 319.483 6.30466   2
   2  -6  -7 64.9168 1.82810   2
  -2   6   7 63.7735 2.78092   2
   1  -6  -7 196.092 3.92903   2
  -1   6   7 218.293 4.40961   2
   0  -6  -7 45.6387 2.20978   2
   0   6   7 51.8294 1.75824   2
  -1  -6  -7 450.450 8.33591   2
   1   6   7 435.200 7.44261   2
  -2  -6  -7 0.30667 0.88450   2
   2   6   7 0.78375 1.29599   2
  -3  -6  -7 73.8965 3.34079   2
   3   6   7 90.2025 4.08006   2
  -4  -6  -7 3.54538 1.28507   2
   4   6   7 11.1188 2.50312   2
  -5  -6  -7 25.5621 2.89879   2
   5   6   7 29.5380 3.09343   2
  -6  -6  -7 43.2352 3.65015   2
   6   6   7 47.7236 4.78753   2
  -7  -6  -7 114.684 6.33977   2
   7   6   7 122.680 6.44773   2
  -8  -6  -7 36.2308 7.53201   2
  12  -7  -7 28.5905 3.35330   2
 -12   7   7 16.8474 3.54220   2
  11  -7  -7 48.6236 4.06384   2
 -11   7   7 48.2786 6.22319   2
  10  -7  -7 4.43717 2.13793   2
 -10   7   7 2.49429 1.91486   2
   9  -7  -7 1.33412 1.87163   2
  -9   7   7 14.2729 2.34768   2
   8  -7  -7 310.501 8.42801   2
  -8   7   7 322.208 8.17904   2
   7  -7  -7 403.177 7.77762   2
  -7   7   7 365.152 7.64780   2
   6  -7  -7 60.8813 2.33518   2
  -6   7   7 59.8365 2.16024   2
   5  -7  -7 12.1065 1.13504   2
  -5   7   7 26.6906 2.24738   2
   4  -7  -7 508.059 8.42596   2
  -4   7   7 517.441 8.82989   2
   3  -7  -7 50.4700 2.01134   2
  -3   7   7 43.4805 2.21801   2
   2  -7  -7 183.561 5.29984   2
  -2   7   7 190.999 5.10593   2
   1  -7  -7 2.03669 1.34421   2
  -1   7   7 3.98083 0.97555   2
   0  -7  -7 24.8561 2.13417   2
   0   7   7 38.3322 1.84248   2
  -1  -7  -7 112.674 4.05661   2
   1   7   7 111.806 2.82559   2
  -2  -7  -7 581.678 10.3409   2
   2   7   7 554.602 12.1760   2
  -3  -7  -7 64.2820 3.39021   2
   3   7   7 68.2323 4.16528   2
  -4  -7  -7 108.974 3.98715   2
   4   7   7 97.6638 4.67007   2
  -5  -7  -7 59.9775 4.04750   2
   5   7   7 42.9954 3.61271   2
  -6  -7  -7 111.940 5.72735   2
   6   7   7 126.786 5.94362   2
  -7  -7  -7 29.5144 3.79442   2
   7   7   7 24.7395 3.29097   2
  12  -8  -7 170.492 8.21258   2
 -12   8   7 176.107 13.5056   2
  11  -8  -7 20.3005 2.59412   2
 -11   8   7 15.4309 4.15368   2
  10  -8  -7 15.8337 2.85104   2
 -10   8   7 27.3326 3.14916   2
   9  -8  -7 140.429 5.42474   2
  -9   8   7 135.549 5.49575   2
   8  -8  -7 91.1984 4.27788   2
  -8   8   7 73.8372 4.88973   2
   7  -8  -7 24.3969 21.1211   2
  -7   8   7 7.77624 21.8288   2
   6  -8  -7 14.3724 1.54458   2
  -6   8   7 20.0806 2.15596   2
   5  -8  -7 527.894 9.64609   2
  -5   8   7 534.844 10.2615   2
   4  -8  -7 132.498 3.63070   2
  -4   8   7 128.584 3.57350   2
   3  -8  -7 131.563 4.66036   2
  -3   8   7 152.278 4.26600   2
   2  -8  -7 4.97420 1.21995   2
  -2   8   7 8.47884 1.50171   2
   1  -8  -7 404.367 10.1953   2
  -1   8   7 415.583 8.92633   2
   0  -8  -7 81.8763 3.67799   2
   0   8   7 74.6037 1.92114   2
  -1  -8  -7 93.2827 3.98763   2
   1   8   7 115.002 3.53506   2
  -2  -8  -7 147.919 5.40837   2
   2   8   7 150.617 7.03405   2
  -3  -8  -7 407.722 9.20269   2
   3   8   7 387.076 10.0374   2
  -4  -8  -7 12.8105 2.75181   2
   4   8   7 17.0840 3.47695   2
  -5  -8  -7 19.8369 3.27627   2
   5   8   7 27.4731 3.03018   2
  -6  -8  -7 73.0671 5.46597   2
   6   8   7 65.5860 7.01263   2
  -7  -8  -7 129.500 15.7289   2
  11  -9  -7 121.452 6.82380   2
 -11   9   7 121.411 9.86422   2
  10  -9  -7 88.4647 4.94223   2
 -10   9   7 84.1018 5.15647   2
   9  -9  -7 194.790 5.75788   2
  -9   9   7 194.482 6.90586   2
   8  -9  -7 111.199 4.03226   2
  -8   9   7 125.165 5.20711   2
   7  -9  -7 15.7098 1.69922   2
  -7   9   7 20.6556 1.84679   2
   6  -9  -7 193.425 4.05411   2
  -6   9   7 179.625 4.93316   2
   5  -9  -7 50.3427 3.05003   2
  -5   9   7 46.1822 2.94554   2
   4  -9  -7 116.747 4.65628   2
  -4   9   7 124.834 4.61904   2
   3  -9  -7 6.45016 1.62845   2
  -3   9   7 17.3640 1.63007   2
   2  -9  -7 372.591 8.06891   2
  -2   9   7 398.320 8.76108   2
   1  -9  -7 3.43893 2.03929   2
  -1   9   7 11.6182 1.79448   2
   0  -9  -7 578.286 14.0471   2
   0   9   7 559.222 12.7251   2
  -1  -9  -7 15.8421 2.22075   2
   1   9   7 22.7525 1.66217   2
  -2  -9  -7 41.4901 3.18829   2
   2   9   7 54.1303 4.68006   2
  -3  -9  -7 30.5454 2.73059   2
   3   9   7 29.7372 3.98072   2
  -4  -9  -7 98.4291 4.48703   2
   4   9   7 103.755 6.99370   2
  -5  -9  -7 21.0338 3.68313   2
   5   9   7 24.1444 5.08398   2
  -6  -9  -7 153.692 6.68918   2
   6   9   7 135.138 8.47464   2
  10 -10  -7 92.9390 5.99469   2
 -10  10   7 79.7518 5.81264   2
   9 -10  -7 4.19119 2.63570   2
  -9  10   7 2.98624 2.29312   2
   8 -10  -7 38.5123 3.56561   2
  -8  10   7 46.4535 3.63790   2
   7 -10  -7 228.262 6.38854   2
  -7  10   7 230.929 6.08469   2
   6 -10  -7 203.151 5.67493   2
  -6  10   7 209.972 5.80014   2
   5 -10  -7 225.875 7.28354   2
  -5  10   7 265.904 7.47678   2
   4 -10  -7 16.8141 2.29921   2
  -4  10   7 15.8711 2.60077   2
   3 -10  -7 197.016 7.04536   2
  -3  10   7 218.449 5.84627   2
   2 -10  -7 21.9345 2.86064   2
  -2  10   7 32.1968 2.49850   2
   1 -10  -7 202.366 7.23660   2
  -1  10   7 206.031 6.26783   2
   0 -10  -7 4.90732 2.21673   2
   0  10   7 7.12528 2.06729   2
  -1 -10  -7 299.462 8.08228   2
   1  10   7 265.009 6.47654   2
  -2 -10  -7 28.0164 2.70398   2
   2  10   7 25.1821 2.59965   2
  -3 -10  -7 121.903 4.98234   2
   3  10   7 132.125 7.16324   2
  -4 -10  -7 63.6098 5.22422   2
   4  10   7 61.6405 7.23136   2
  -5 -10  -7 251.582 8.83132   2
   5  10   7 253.081 10.4936   2
  -6 -10  -7 10.4378 4.12074   2
   9 -11  -7 40.8492 4.89929   2
  -9  11   7 46.0606 5.33029   2
   8 -11  -7 65.9340 6.34830   2
  -8  11   7 72.6433 6.51143   2
   7 -11  -7 5.87120 2.35247   2
  -7  11   7 9.19921 2.26408   2
   6 -11  -7 234.110 7.77060   2
  -6  11   7 222.642 6.38118   2
   5 -11  -7 51.8354 3.72206   2
  -5  11   7 45.8130 3.05749   2
   4 -11  -7 138.786 5.30776   2
  -4  11   7 134.779 5.68672   2
   3 -11  -7 75.4448 3.20310   2
  -3  11   7 72.4077 3.47990   2
   2 -11  -7 192.556 7.15268   2
  -2  11   7 192.293 6.16850   2
   1 -11  -7 5.57905 2.26239   2
  -1  11   7 8.34197 2.11646   2
   0 -11  -7 219.729 7.85584   2
   0  11   7 242.298 7.49680   2
  -1 -11  -7 25.1919 3.92123   2
   1  11   7 26.1968 3.50819   2
  -2 -11  -7 215.720 6.71293   2
   2  11   7 211.738 8.92952   2
  -3 -11  -7 72.9569 4.48094   2
   3  11   7 76.7261 6.50571   2
  -4 -11  -7 200.027 8.74244   2
   4  11   7 177.573 9.03025   2
  -8  12   7 62.7665 6.23024   2
   7 -12  -7 105.145 5.47885   2
  -7  12   7 117.552 6.77551   2
   6 -12  -7 42.8643 4.15170   2
  -6  12   7 33.1577 3.07616   2
   5 -12  -7 71.6632 4.43980   2
  -5  12   7 80.6827 4.18598   2
   4 -12  -7 10.3706 3.40485   2
  -4  12   7 17.0867 3.25665   2
   3 -12  -7 462.684 12.4162   2
  -3  12   7 451.470 12.7051   2
   2 -12  -7 104.360 5.86109   2
  -2  12   7 86.1659 4.99459   2
   1 -12  -7 76.6196 5.16555   2
  -1  12   7 74.7695 4.69947   2
   0 -12  -7 23.3691 3.29032   2
   0  12   7 28.2177 3.24849   2
  -1 -12  -7 196.212 10.0583   2
   1  12   7 206.402 9.03989   2
  -2 -12  -7 3.61504 2.47587   2
   2  12   7 0.91104 3.44259   2
  -3 -12  -7 66.5677 5.76908   2
   3  12   7 82.0613 11.3691   2
  -4 -12  -7 -0.9879 4.65511   2
  -7  13   7 165.158 16.1900   2
  -6  13   7 44.4587 4.89700   2
   5 -13  -7 7.25319 3.22003   2
  -5  13   7 14.6846 2.54611   2
   4 -13  -7 263.712 9.05530   2
  -4  13   7 280.392 7.90075   2
   3 -13  -7 0.45493 2.28413   2
  -3  13   7 3.09350 2.73710   2
   2 -13  -7 165.152 7.42725   2
  -2  13   7 168.826 9.79570   2
   1 -13  -7 2.05032 2.72823   2
  -1  13   7 0.27187 3.21312   2
   0 -13  -7 115.322 6.77046   2
   0  13   7 103.211 5.33742   2
  -1 -13  -7 -8.3800 6.37715   2
  -2 -13  -7 201.178 15.9788   2
   2  13   7 172.069 15.0247   2
   5 -14  -7 172.892 13.3523   2
  -5  14   7 167.309 14.3798   2
   4 -14  -7 103.638 11.0633   2
  -4  14   7 88.7507 8.99313   2
   3 -14  -7 18.4524 6.15563   2
 -14   0   8 37.2750 7.22448   2
 -13   0   8 25.7468 4.16734   2
 -12   0   8 391.778 10.8422   2
 -11   0   8 4.17030 1.52760   2
 -10   0   8 160.698 4.60637   2
  -9   0   8 303.415 7.04765   2
  -8   0   8 162.207 4.38459   2
  -7   0   8 662.198 12.3049   2
  -6   0   8 666.829 11.8611   2
  -5   0   8 63.3351 1.84190   2
  -4   0   8 8.69145 0.73813   2
  -3   0   8 1351.71 18.0955   2
  -2   0   8 344.809 5.95889   2
  -1   0   8 243.521 4.19619   2
   0   0   8 9.32116 0.94466   2
   1   0   8 639.828 10.8526   2
   2   0   8 5.09778 0.75478   2
   3   0   8 746.413 13.1394   2
   4   0   8 0.51209 1.47949   2
   5   0   8 330.461 8.24437   2
   6   0   8 45.1558 3.21781   2
   7   0   8 38.5233 3.72397   2
   8   0   8 258.168 9.17653   2
  14  -1  -8 17.3592 8.13152   2
  13  -1  -8 171.746 6.85804   2
 -13   1   8 169.610 8.21389   2
  12  -1  -8 13.3945 2.68195   2
 -12   1   8 21.5238 2.61574   2
  11  -1  -8 85.0225 4.96070   2
 -11   1   8 105.039 4.78599   2
  10  -1  -8 119.710 3.97732   2
 -10   1   8 120.361 5.25457   2
   9  -1  -8 300.515 6.96918   2
  -9   1   8 318.710 8.19081   2
   8  -1  -8 163.328 4.92003   2
  -8   1   8 146.474 5.06473   2
   7  -1  -8 265.444 5.89156   2
  -7   1   8 265.534 7.07112   2
   6  -1  -8 412.707 9.05527   2
  -6   1   8 430.916 11.0396   2
   5  -1  -8 231.281 5.04996   2
  -5   1   8 230.383 3.81050   2
   4  -1  -8 385.411 5.69826   2
  -4   1   8 378.171 5.65357   2
   3  -1  -8 22.8407 1.11694   2
  -3   1   8 21.5256 1.13043   2
   2  -1  -8 1202.09 19.1303   2
  -2   1   8 1194.90 15.3469   2
   1  -1  -8 278.621 4.64982   2
  -1   1   8 276.597 5.08543   2
   0  -1  -8 286.018 5.22417   2
   0   1   8 286.309 5.01007   2
  -1  -1  -8 55.6899 1.81276   2
   1   1   8 54.9514 1.97035   2
  -2  -1  -8 764.325 13.2186   2
   2   1   8 787.585 13.3681   2
  -3  -1  -8 5.38752 0.91637   2
   3   1   8 3.71480 1.73572   2
  -4  -1  -8 311.210 6.73986   2
   4   1   8 305.680 7.62943   2
  -5  -1  -8 17.3329 2.42736   2
   5   1   8 9.31513 1.85408   2
  -6  -1  -8 122.409 5.28314   2
   6   1   8 135.946 5.82449   2
  -7  -1  -8 48.4753 3.47688   2
   7   1   8 54.1410 4.14610   2
  -8  -1  -8 170.251 7.55679   2
   8   1   8 167.246 7.97549   2
  13  -2  -8 -0.5260 2.09435   2
 -13   2   8 1.98140 3.29954   2
  12  -2  -8 82.4832 5.05679   2
 -12   2   8 74.5493 4.56835   2
  11  -2  -8 155.371 6.09778   2
 -11   2   8 146.837 5.81957   2
  10  -2  -8 253.599 7.34249   2
 -10   2   8 261.242 8.82524   2
   9  -2  -8 136.025 5.14711   2
  -9   2   8 148.277 5.50939   2
   8  -2  -8 415.378 9.40260   2
  -8   2   8 396.350 9.59965   2
   7  -2  -8 45.0785 1.70173   2
  -7   2   8 66.2139 3.19010   2
   6  -2  -8 39.6181 1.87281   2
  -6   2   8 38.6742 2.08557   2
   5  -2  -8 782.381 12.3743   2
  -5   2   8 785.173 10.6944   2
   4  -2  -8 271.802 4.79329   2
  -4   2   8 287.486 4.84583   2
   3  -2  -8 529.658 7.74569   2
  -3   2   8 519.511 7.02278   2
   2  -2  -8 53.4776 1.97973   2
  -2   2   8 52.3605 1.27330   2
   1  -2  -8 776.100 11.8040   2
  -1   2   8 772.954 9.50580   2
   0  -2  -8 32.0625 1.67489   2
   0   2   8 30.8183 1.12184   2
  -1  -2  -8 481.068 8.67083   2
   1   2   8 479.054 7.93609   2
  -2  -2  -8 20.6518 1.35764   2
   2   2   8 23.4520 1.45880   2
  -3  -2  -8 275.826 5.36655   2
   3   2   8 276.254 5.45044   2
  -4  -2  -8 17.1893 1.72095   2
   4   2   8 22.9132 2.08738   2
  -5  -2  -8 283.936 8.48067   2
   5   2   8 278.578 8.57934   2
  -6  -2  -8 14.3136 2.73542   2
   6   2   8 16.3324 2.60057   2
  -7  -2  -8 240.024 8.36660   2
   7   2   8 224.399 10.0920   2
  -8  -2  -8 24.4912 4.83723   2
   8   2   8 13.2845 6.84567   2
  13  -3  -8 69.4996 5.99117   2
 -13   3   8 94.6581 6.62577   2
  12  -3  -8 14.3880 2.63826   2
 -12   3   8 13.6975 3.04668   2
  11  -3  -8 213.255 7.02713   2
 -11   3   8 210.693 8.64486   2
  10  -3  -8 94.9440 4.62513   2
 -10   3   8 111.568 6.08279   2
   9  -3  -8 223.471 5.54856   2
  -9   3   8 276.656 8.02201   2
   8  -3  -8 321.012 6.70637   2
  -8   3   8 308.544 9.00673   2
   7  -3  -8 278.139 5.75814   2
  -7   3   8 273.361 6.45988   2
   6  -3  -8 134.731 2.85264   2
  -6   3   8 137.669 3.06808   2
   5  -3  -8 10.8939 0.98633   2
  -5   3   8 11.5030 0.89587   2
   4  -3  -8 1163.18 19.3518   2
  -4   3   8 1165.53 16.0758   2
   3  -3  -8 493.220 7.44783   2
  -3   3   8 484.054 6.89509   2
   2  -3  -8 54.9822 2.67717   2
  -2   3   8 65.2889 1.89479   2
   1  -3  -8 102.294 2.60538   2
  -1   3   8 103.692 2.60179   2
   0  -3  -8 1035.14 16.5714   2
   0   3   8 993.908 15.1509   2
  -1  -3  -8 180.104 3.69102   2
   1   3   8 175.626 4.46278   2
  -2  -3  -8 204.201 3.77407   2
   2   3   8 198.513 4.37504   2
  -3  -3  -8 7.10121 1.07183   2
   3   3   8 7.39246 1.12911   2
  -4  -3  -8 582.598 13.1820   2
   4   3   8 610.207 14.3709   2
  -5  -3  -8 77.1142 3.38202   2
   5   3   8 70.2126 4.05762   2
  -6  -3  -8 212.703 9.21056   2
   6   3   8 233.326 8.14625   2
  -7  -3  -8 60.7035 4.65646   2
   7   3   8 62.0699 5.08476   2
  -8  -3  -8 7.03022 4.70470   2
   8   3   8 18.8903 6.73630   2
  13  -4  -8 -1.8131 4.59460   2
 -13   4   8 10.4940 3.04194   2
  12  -4  -8 47.8816 5.27450   2
 -12   4   8 55.4277 4.09837   2
  11  -4  -8 39.9307 3.26842   2
 -11   4   8 44.6066 4.42681   2
  10  -4  -8 108.652 4.56477   2
 -10   4   8 114.366 6.18424   2
   9  -4  -8 144.659 4.59187   2
  -9   4   8 151.529 6.48380   2
   8  -4  -8 290.416 6.34721   2
  -8   4   8 305.884 7.19848   2
   7  -4  -8 190.003 4.30928   2
  -7   4   8 188.766 5.16395   2
   6  -4  -8 127.206 3.73882   2
  -6   4   8 108.750 2.97146   2
   5  -4  -8 400.099 8.94437   2
  -5   4   8 389.334 6.35937   2
   4  -4  -8 137.404 2.56147   2
  -4   4   8 146.352 3.08296   2
   3  -4  -8 256.684 4.87433   2
  -3   4   8 267.621 5.35952   2
   2  -4  -8 48.3931 1.76279   2
  -2   4   8 52.0167 1.81375   2
   1  -4  -8 646.888 9.33045   2
  -1   4   8 613.402 12.1159   2
   0  -4  -8 29.1917 1.61129   2
   0   4   8 27.2520 1.31658   2
  -1  -4  -8 416.624 7.96707   2
   1   4   8 427.257 9.73555   2
  -2  -4  -8 89.1067 2.86055   2
   2   4   8 98.1148 4.19008   2
  -3  -4  -8 468.221 9.65865   2
   3   4   8 476.361 11.0318   2
  -4  -4  -8 2.96837 1.62609   2
   4   4   8 1.93693 2.07300   2
  -5  -4  -8 22.9195 2.85289   2
   5   4   8 40.6452 3.77687   2
  -6  -4  -8 14.3739 3.27872   2
   6   4   8 13.8182 3.49945   2
  -7  -4  -8 160.925 7.84662   2
   7   4   8 157.411 8.36427   2
   8   4   8 8.40072 5.90534   2
  13  -5  -8 86.4504 10.4665   2
 -13   5   8 79.2433 9.71621   2
  12  -5  -8 35.2486 4.61307   2
 -12   5   8 18.4683 4.60253   2
  11  -5  -8 121.244 8.95079   2
 -11   5   8 100.652 11.3542   2
  10  -5  -8 77.8548 3.46023   2
 -10   5   8 86.2988 5.69257   2
   9  -5  -8 89.2779 6.77307   2
  -9   5   8 74.8364 3.58190   2
   8  -5  -8 158.153 6.78118   2
  -8   5   8 154.686 4.92507   2
   7  -5  -8 256.945 7.42508   2
  -7   5   8 287.555 6.80164   2
   6  -5  -8 116.471 3.96642   2
  -6   5   8 113.712 2.65685   2
   5  -5  -8 142.840 4.84205   2
  -5   5   8 142.770 3.42494   2
   4  -5  -8 262.137 5.02127   2
  -4   5   8 274.785 5.38518   2
   3  -5  -8 1.29420 0.70580   2
  -3   5   8 4.48738 1.10362   2
   2  -5  -8 1043.73 15.6799   2
  -2   5   8 1041.61 14.4176   2
   1  -5  -8 139.279 2.89440   2
  -1   5   8 144.554 3.40698   2
   0  -5  -8 35.3743 2.80584   2
   0   5   8 53.5786 1.72491   2
  -1  -5  -8 81.1962 2.83055   2
   1   5   8 79.1008 3.61671   2
  -2  -5  -8 401.855 8.58386   2
   2   5   8 377.446 9.45900   2
  -3  -5  -8 2.12249 1.28044   2
   3   5   8 6.44495 1.77942   2
  -4  -5  -8 285.395 8.83135   2
   4   5   8 265.726 8.41473   2
  -5  -5  -8 7.57070 2.04125   2
   5   5   8 1.20128 2.23539   2
  -6  -5  -8 91.1118 6.51014   2
   6   5   8 91.2346 6.40032   2
  -7  -5  -8 135.531 7.55235   2
   7   5   8 135.132 7.77923   2
  -8  -5  -8 93.5603 10.7187   2
  12  -6  -8 185.172 7.68892   2
 -12   6   8 175.735 8.55604   2
  11  -6  -8 3.49391 2.90878   2
 -11   6   8 12.9900 3.24020   2
  10  -6  -8 108.845 5.80777   2
 -10   6   8 110.589 4.66097   2
   9  -6  -8 122.714 5.79090   2
  -9   6   8 128.257 4.83401   2
   8  -6  -8 95.4345 5.25122   2
  -8   6   8 122.336 5.31952   2
   7  -6  -8 301.507 7.24603   2
  -7   6   8 275.155 6.62605   2
   6  -6  -8 194.122 5.28284   2
  -6   6   8 192.057 3.82778   2
   5  -6  -8 33.2959 2.08569   2
  -5   6   8 61.4569 3.35558   2
   4  -6  -8 46.1922 1.80777   2
  -4   6   8 34.8020 2.32956   2
   3  -6  -8 652.082 11.3892   2
  -3   6   8 660.345 11.2108   2
   2  -6  -8 226.985 4.69128   2
  -2   6   8 236.182 5.76268   2
   1  -6  -8 66.1002 2.72458   2
  -1   6   8 67.0785 2.25752   2
   0  -6  -8 0.99720 1.32670   2
   0   6   8 2.14084 0.83744   2
  -1  -6  -8 309.684 6.42856   2
   1   6   8 298.326 6.50417   2
  -2  -6  -8 8.34197 1.36904   2
   2   6   8 8.41584 1.82107   2
  -3  -6  -8 259.017 7.88634   2
   3   6   8 289.888 8.84097   2
  -4  -6  -8 20.3595 1.84111   2
   4   6   8 21.1455 2.87476   2
  -5  -6  -8 171.667 7.07546   2
   5   6   8 202.574 9.97603   2
  -6  -6  -8 26.2942 4.74746   2
   6   6   8 42.3669 5.28548   2
  -7  -6  -8 9.18011 3.75727   2
   7   6   8 7.04333 5.02446   2
  12  -7  -8 20.1397 7.09967   2
 -12   7   8 35.1006 7.58075   2
  11  -7  -8 4.59790 3.33849   2
 -11   7   8 6.81205 3.16315   2
  10  -7  -8 84.4329 5.02021   2
 -10   7   8 82.5936 4.57484   2
   9  -7  -8 178.593 5.98150   2
  -9   7   8 180.933 6.12444   2
   8  -7  -8 12.2882 2.59146   2
  -8   7   8 43.5614 2.35192   2
   7  -7  -8 26.7696 2.72331   2
  -7   7   8 14.6521 1.53225   2
   6  -7  -8 239.270 6.22494   2
  -6   7   8 229.284 5.21182   2
   5  -7  -8 108.007 3.34878   2
  -5   7   8 110.915 3.82494   2
   4  -7  -8 115.918 2.94035   2
  -4   7   8 117.825 3.91270   2
   3  -7  -8 10.2458 0.94674   2
  -3   7   8 22.1977 1.65529   2
   2  -7  -8 293.212 7.46053   2
  -2   7   8 298.515 7.04122   2
   1  -7  -8 70.2185 3.84501   2
  -1   7   8 73.0402 2.74127   2
   0  -7  -8 171.156 5.22788   2
   0   7   8 182.896 3.82770   2
  -1  -7  -8 40.4968 2.83024   2
   1   7   8 46.1261 3.15265   2
  -2  -7  -8 225.170 6.72216   2
   2   7   8 235.301 6.62836   2
  -3  -7  -8 13.2113 1.96497   2
   3   7   8 25.4660 2.23198   2
  -4  -7  -8 46.0876 2.89701   2
   4   7   8 41.4987 3.49697   2
  -5  -7  -8 22.4246 2.87415   2
   5   7   8 19.3289 3.02035   2
  -6  -7  -8 33.1199 3.96495   2
   6   7   8 34.5460 3.64058   2
  11  -8  -8 80.4877 4.06416   2
 -11   8   8 69.8747 6.11455   2
  10  -8  -8 42.0013 3.51212   2
 -10   8   8 39.9456 3.96662   2
   9  -8  -8 64.3288 4.13609   2
  -9   8   8 70.6850 4.39823   2
   8  -8  -8 131.763 6.07221   2
  -8   8   8 133.603 5.38456   2
   7  -8  -8 6.58117 1.81105   2
  -7   8   8 16.2175 1.44944   2
   6  -8  -8 9.22304 1.66186   2
  -6   8   8 12.1891 1.57678   2
   5  -8  -8 254.563 6.76552   2
  -5   8   8 255.152 6.57705   2
   4  -8  -8 159.461 5.56186   2
  -4   8   8 170.725 5.52868   2
   3  -8  -8 115.838 4.38972   2
  -3   8   8 131.774 4.23004   2
   2  -8  -8 10.3934 1.19994   2
  -2   8   8 10.7717 2.06851   2
   1  -8  -8 158.393 5.80603   2
  -1   8   8 158.151 5.26880   2
   0  -8  -8 17.4072 2.35592   2
   0   8   8 27.3014 2.92008   2
  -1  -8  -8 90.1926 4.51863   2
   1   8   8 87.0576 4.35443   2
  -2  -8  -8 10.0322 2.00057   2
   2   8   8 15.6444 3.21958   2
  -3  -8  -8 60.8633 3.48030   2
   3   8   8 74.4202 3.48154   2
  -4  -8  -8 10.5876 2.58929   2
   4   8   8 7.30392 2.44105   2
  -5  -8  -8 136.474 8.63812   2
   5   8   8 176.327 10.7227   2
  -6  -8  -8 7.85066 6.30173   2
  11  -9  -8 51.3490 10.2050   2
 -11   9   8 42.9632 7.19828   2
  10  -9  -8 29.0430 3.25369   2
 -10   9   8 34.7059 4.26579   2
   9  -9  -8 34.5193 3.31498   2
  -9   9   8 42.5703 4.58978   2
   8  -9  -8 117.072 7.80111   2
  -8   9   8 115.207 5.40554   2
   7  -9  -8 88.3293 4.89795   2
  -7   9   8 91.5981 3.36012   2
   6  -9  -8 13.7682 2.42034   2
  -6   9   8 36.2292 2.01119   2
   5  -9  -8 38.2978 2.71874   2
  -5   9   8 42.0173 2.90082   2
   4  -9  -8 191.684 6.50617   2
  -4   9   8 194.434 6.39826   2
   3  -9  -8 97.7562 4.60956   2
  -3   9   8 113.710 4.01189   2
   2  -9  -8 12.3845 2.46380   2
  -2   9   8 2.38294 1.77836   2
   1  -9  -8 23.3536 2.95520   2
  -1   9   8 26.0442 2.53131   2
   0  -9  -8 248.246 7.81923   2
   0   9   8 250.684 7.22116   2
  -1  -9  -8 33.3309 2.78390   2
   1   9   8 30.1180 2.14251   2
  -2  -9  -8 65.9513 3.83650   2
   2   9   8 76.3991 5.57344   2
  -3  -9  -8 35.0741 2.90888   2
   3   9   8 40.6263 4.52856   2
  -4  -9  -8 94.2310 6.56868   2
   4   9   8 85.6644 9.07538   2
  -5  -9  -8 15.3639 2.84709   2
   5   9   8 18.8595 4.20471   2
  10 -10  -8 1.43053 3.94123   2
 -10  10   8 3.92949 3.37901   2
   9 -10  -8 13.7483 2.94514   2
  -9  10   8 14.6311 2.97583   2
   8 -10  -8 22.1889 3.14760   2
  -8  10   8 19.4188 3.44824   2
   7 -10  -8 24.4107 3.12009   2
  -7  10   8 19.8499 2.18356   2
   6 -10  -8 25.4026 2.99311   2
  -6  10   8 25.0740 2.35335   2
   5 -10  -8 43.2731 3.33182   2
  -5  10   8 36.4309 3.22266   2
   4 -10  -8 2.07299 1.83069   2
  -4  10   8 1.66484 1.97490   2
   3 -10  -8 75.6496 3.13591   2
  -3  10   8 79.4736 3.67016   2
   2 -10  -8 10.2845 2.43054   2
  -2  10   8 11.4328 2.04483   2
   1 -10  -8 100.504 5.25480   2
  -1  10   8 97.6513 4.70952   2
   0 -10  -8 15.7668 2.80174   2
   0  10   8 12.9543 2.44790   2
  -1 -10  -8 3.99845 2.29421   2
   1  10   8 3.58089 2.33680   2
  -2 -10  -8 120.222 5.22942   2
   2  10   8 120.749 6.97912   2
  -3 -10  -8 95.9471 4.91164   2
   3  10   8 97.7875 7.11735   2
  -4 -10  -8 15.4193 3.10799   2
   4  10   8 7.66815 3.32436   2
  -5 -10  -8 12.9750 4.47258   2
   9 -11  -8 7.26654 5.50089   2
  -9  11   8 -2.7951 3.32304   2
   8 -11  -8 23.1424 4.00442   2
  -8  11   8 19.2373 3.32050   2
   7 -11  -8 16.9085 3.19189   2
  -7  11   8 19.7582 4.34459   2
   6 -11  -8 4.04474 2.15194   2
  -6  11   8 8.47764 2.14448   2
   5 -11  -8 8.22894 2.22034   2
  -5  11   8 6.36034 2.73678   2
   4 -11  -8 40.6589 5.18853   2
  -4  11   8 45.5197 4.26907   2
   3 -11  -8 6.31432 3.26889   2
  -3  11   8 2.28782 2.60458   2
   2 -11  -8 187.562 8.94538   2
  -2  11   8 186.750 6.41427   2
   1 -11  -8 32.1996 4.42082   2
  -1  11   8 34.6522 4.60251   2
   0 -11  -8 34.6096 3.63147   2
   0  11   8 33.1785 3.21577   2
  -1 -11  -8 51.8385 4.23105   2
   1  11   8 49.5974 4.80342   2
  -2 -11  -8 16.7308 2.62312   2
   2  11   8 13.5029 3.45180   2
  -3 -11  -8 4.66959 2.86452   2
   3  11   8 1.46594 5.17679   2
   8 -12  -8 9.57722 5.51957   2
  -8  12   8 31.2021 7.22692   2
   7 -12  -8 39.6054 6.74257   2
  -7  12   8 48.2490 5.76911   2
   6 -12  -8 6.56846 3.23450   2
  -6  12   8 6.22579 2.78559   2
   5 -12  -8 9.13931 3.14395   2
  -5  12   8 13.3352 2.41323   2
   4 -12  -8 51.3553 5.05843   2
  -4  12   8 36.6361 4.02769   2
   3 -12  -8 28.1406 5.43904   2
  -3  12   8 18.5584 3.05494   2
   2 -12  -8 23.2604 5.22842   2
  -2  12   8 23.3019 3.77269   2
   1 -12  -8 8.45495 3.32319   2
  -1  12   8 4.75515 2.64639   2
   0 -12  -8 8.88836 2.75603   2
   0  12   8 7.93893 2.45839   2
  -1 -12  -8 74.3321 4.98813   2
   1  12   8 70.6572 5.81296   2
   2  12   8 -1.8740 4.72358   2
   6 -13  -8 12.9325 4.86945   2
   5 -13  -8 13.3002 5.52604   2
  -5  13   8 20.8550 4.17862   2
   4 -13  -8 6.12114 5.34270   2
  -4  13   8 2.00870 3.08092   2
   3 -13  -8 3.17102 3.95215   2
  -3  13   8 1.63706 2.44031   2
   2 -13  -8 -1.4046 3.90605   2
  -2  13   8 5.54358 4.59915   2
   1 -13  -8 -3.7992 6.06738   2
  -1  13   8 2.78693 5.02836   2
   0 -13  -8 7.30174 6.18874   2
  -1 -13  -8 23.7546 8.27478   2
 -13   0   9 63.5137 4.96608  -1
   7   0   9 63.5137 4.96608   2
 -12   0   9 100.818 4.44905  -1
   6   0   9 100.818 4.44905   2
 -11   0   9 24.4455 2.71734  -1
   5   0   9 24.4455 2.71734   2
 -10   0   9 13.1640 2.24578  -1
   4   0   9 13.1640 2.24578   2
  -9   0   9 57.2832 3.30124  -1
   3   0   9 57.2832 3.30124   2
  -8   0   9 89.8370 3.72245  -1
   2   0   9 89.8370 3.72245   2
  -7   0   9 104.853 2.99153  -1
   1   0   9 104.853 2.99153   2
  -6   0   9 37.3899 1.78874  -1
   0   0   9 37.3899 1.78874   2
  -5   0   9 2.51744 1.15866  -1
  -1   0   9 2.51744 1.15866   2
  -4   0   9 12.1581 1.50980  -1
  -2   0   9 12.1581 1.50980   2
  -3   0   9 0.98677 1.23777  -1
  -3   0   9 0.98677 1.23777   2
  -2   0   9 9.75156 1.05877  -1
  -4   0   9 9.75156 1.05877   2
  -1   0   9 6.74755 1.21839  -1
  -5   0   9 6.74755 1.21839   2
   0   0   9 50.6737 3.37878  -1
  -6   0   9 50.6737 3.37878   2
   1   0   9 147.628 4.64201  -1
  -7   0   9 147.628 4.64201   2
   2   0   9 89.7992 4.02012  -1
  -8   0   9 89.7992 4.02012   2
   3   0   9 46.5691 3.29567  -1
  -9   0   9 46.5691 3.29567   2
   4   0   9 26.9452 2.94718  -1
 -10   0   9 26.9452 2.94718   2
   5   0   9 16.6097 2.32674  -1
 -11   0   9 16.6097 2.32674   2
   6   0   9 111.018 5.52607  -1
 -12   0   9 111.018 5.52607   2
   7   0   9 78.7222 6.67549  -1
 -13   0   9 78.7222 6.67549   2
   8   0   9 -0.8206 5.58745  -1
 -14   0   9 -0.8206 5.58745   2
  13  -1  -9 75.3140 8.04428  -1
   7   1   9 75.3140 8.04428   2
 -13   1   9 95.1700 7.20366  -1
  -7  -1  -9 95.1700 7.20366   2
  12  -1  -9 171.527 6.58594  -1
   6   1   9 171.527 6.58594   2
 -12   1   9 152.904 5.68086  -1
  -6  -1  -9 152.904 5.68086   2
  11  -1  -9 147.430 4.90922  -1
   5   1   9 147.430 4.90922   2
 -11   1   9 133.599 5.15050  -1
  -5  -1  -9 133.599 5.15050   2
  10  -1  -9 338.293 9.08473  -1
   4   1   9 338.293 9.08473   2
 -10   1   9 353.927 8.56588  -1
  -4  -1  -9 353.927 8.56588   2
   9  -1  -9 255.272 7.62978  -1
   3   1   9 255.272 7.62978   2
  -9   1   9 247.960 7.35031  -1
  -3  -1  -9 247.960 7.35031   2
   8  -1  -9 880.037 16.7594  -1
   2   1   9 880.037 16.7594   2
  -8   1   9 904.537 15.0677  -1
  -2  -1  -9 904.537 15.0677   2
   7  -1  -9 100.068 2.74094  -1
   1   1   9 100.068 2.74094   2
  -7   1   9 106.077 3.52775  -1
  -1  -1  -9 106.077 3.52775   2
   6  -1  -9 58.0274 1.88006  -1
   0   1   9 58.0274 1.88006   2
  -6   1   9 61.0639 2.17561  -1
   0  -1  -9 61.0639 2.17561   2
   5  -1  -9 416.595 6.67762  -1
  -1   1   9 416.595 6.67762   2
  -5   1   9 439.350 7.39197  -1
   1  -1  -9 439.350 7.39197   2
   4  -1  -9 636.177 9.44467  -1
  -2   1   9 636.177 9.44467   2
  -4   1   9 638.546 11.0841  -1
   2  -1  -9 638.546 11.0841   2
   3  -1  -9 10.8594 1.14196  -1
  -3   1   9 10.8594 1.14196   2
  -3   1   9 7.90746 1.40561  -1
   3  -1  -9 7.90746 1.40561   2
   2  -1  -9 597.992 8.60423  -1
  -4   1   9 597.992 8.60423   2
  -2   1   9 582.260 10.1317  -1
   4  -1  -9 582.260 10.1317   2
   1  -1  -9 435.352 7.56306  -1
  -5   1   9 435.352 7.56306   2
  -1   1   9 458.531 7.65047  -1
   5  -1  -9 458.531 7.65047   2
   0  -1  -9 89.3270 3.58501  -1
  -6   1   9 89.3270 3.58501   2
   0   1   9 95.0054 3.04382  -1
   6  -1  -9 95.0054 3.04382   2
  -1  -1  -9 169.714 5.15133  -1
  -7   1   9 169.714 5.15133   2
   1   1   9 178.772 4.36545  -1
   7  -1  -9 178.772 4.36545   2
  -2  -1  -9 634.855 13.8971  -1
  -8   1   9 634.855 13.8971   2
   2   1   9 653.334 12.2142  -1
   8  -1  -9 653.334 12.2142   2
  -3  -1  -9 404.467 11.4514  -1
  -9   1   9 404.467 11.4514   2
   3   1   9 415.268 9.70518  -1
   9  -1  -9 415.268 9.70518   2
  -4  -1  -9 294.352 8.48872  -1
 -10   1   9 294.352 8.48872   2
   4   1   9 316.119 7.39734  -1
  10  -1  -9 316.119 7.39734   2
  -5  -1  -9 111.626 5.13688  -1
 -11   1   9 111.626 5.13688   2
   5   1   9 111.169 5.29520  -1
  11  -1  -9 111.169 5.29520   2
  -6  -1  -9 254.829 11.0278  -1
 -12   1   9 254.829 11.0278   2
   6   1   9 229.139 7.72928  -1
  12  -1  -9 229.139 7.72928   2
  -7  -1  -9 70.8728 6.65242  -1
 -13   1   9 70.8728 6.65242   2
   7   1   9 79.5894 6.97716  -1
  13  -1  -9 79.5894 6.97716   2
  13  -2  -9 74.9218 10.7337  -1
   7   2   9 74.9218 10.7337   2
 -13   2   9 124.390 10.1615  -1
  -7  -2  -9 124.390 10.1615   2
  12  -2  -9 11.2702 3.20855  -1
   6   2   9 11.2702 3.20855   2
 -12   2   9 9.94570 2.71773  -1
  -6  -2  -9 9.94570 2.71773   2
  11  -2  -9 83.4056 4.42815  -1
   5   2   9 83.4056 4.42815   2
 -11   2   9 77.2538 4.18173  -1
  -5  -2  -9 77.2538 4.18173   2
  10  -2  -9 420.024 12.5791  -1
   4   2   9 420.024 12.5791   2
 -10   2   9 444.868 10.2110  -1
  -4  -2  -9 444.868 10.2110   2
   9  -2  -9 334.728 9.46056  -1
   3   2   9 334.728 9.46056   2
  -9   2   9 346.982 10.5296  -1
  -3  -2  -9 346.982 10.5296   2
   8  -2  -9 159.909 4.59754  -1
   2   2   9 159.909 4.59754   2
  -8   2   9 163.545 3.90982  -1
  -2  -2  -9 163.545 3.90982   2
   7  -2  -9 1023.63 16.7231  -1
   1   2   9 1023.63 16.7231   2
  -7   2   9 982.261 16.5476  -1
  -1  -2  -9 982.261 16.5476   2
   6  -2  -9 668.346 10.3334  -1
   0   2   9 668.346 10.3334   2
  -6   2   9 689.237 10.9368  -1
   0  -2  -9 689.237 10.9368   2
   5  -2  -9 59.6978 1.82546  -1
  -1   2   9 59.6978 1.82546   2
  -5   2   9 76.4423 2.35120  -1
   1  -2  -9 76.4423 2.35120   2
   4  -2  -9 342.627 5.04841  -1
  -2   2   9 342.627 5.04841   2
  -4   2   9 360.545 7.50620  -1
   2  -2  -9 360.545 7.50620   2
   3  -2  -9 489.535 7.92361  -1
  -3   2   9 489.535 7.92361   2
  -3   2   9 507.390 10.0032  -1
   3  -2  -9 507.390 10.0032   2
   2  -2  -9 337.313 5.34524  -1
  -4   2   9 337.313 5.34524   2
  -2   2   9 310.929 6.02943  -1
   4  -2  -9 310.929 6.02943   2
   1  -2  -9 88.4085 2.23895  -1
  -5   2   9 88.4085 2.23895   2
  -1   2   9 101.639 2.97588  -1
   5  -2  -9 101.639 2.97588   2
   0  -2  -9 401.353 7.24982  -1
  -6   2   9 401.353 7.24982   2
   0   2   9 381.730 7.87253  -1
   6  -2  -9 381.730 7.87253   2
  -1  -2  -9 1364.96 24.8625  -1
  -7   2   9 1364.96 24.8625   2
   1   2   9 1292.89 23.7521  -1
   7  -2  -9 1292.89 23.7521   2
  -2  -2  -9 105.941 4.70162  -1
  -8   2   9 105.941 4.70162   2
   2   2   9 113.023 3.32315  -1
   8  -2  -9 113.023 3.32315   2
  -3  -2  -9 206.971 9.08157  -1
  -9   2   9 206.971 9.08157   2
   3   2   9 219.276 6.59901  -1
   9  -2  -9 219.276 6.59901   2
  -4  -2  -9 636.940 16.9928  -1
 -10   2   9 636.940 16.9928   2
   4   2   9 695.393 14.5348  -1
  10  -2  -9 695.393 14.5348   2
  -5  -2  -9 64.8787 5.36188  -1
 -11   2   9 64.8787 5.36188   2
   5   2   9 77.2963 4.47449  -1
  11  -2  -9 77.2963 4.47449   2
  -6  -2  -9 7.27403 3.60621  -1
 -12   2   9 7.27403 3.60621   2
   6   2   9 5.42536 3.24013  -1
  12  -2  -9 5.42536 3.24013   2
  -7  -2  -9 115.169 12.5914  -1
 -13   2   9 115.169 12.5914   2
   7   2   9 162.209 10.4804  -1
  13  -2  -9 162.209 10.4804   2
  13  -3  -9 31.6618 8.00922  -1
   7   3   9 31.6618 8.00922   2
 -13   3   9 42.7185 4.84922  -1
  -7  -3  -9 42.7185 4.84922   2
 -12   3   9 100.284 7.64053  -1
  -6  -3  -9 100.284 7.64053   2
  11  -3  -9 80.3445 9.38811  -1
   5   3   9 80.3445 9.38811   2
 -11   3   9 79.8458 6.36224  -1
  -5  -3  -9 79.8458 6.36224   2
  10  -3  -9 39.1544 6.17665  -1
   4   3   9 39.1544 6.17665   2
 -10   3   9 20.9449 1.70556  -1
  -4  -3  -9 20.9449 1.70556   2
   9  -3  -9 59.4634 3.17168  -1
   3   3   9 59.4634 3.17168   2
  -9   3   9 52.9951 2.51902  -1
  -3  -3  -9 52.9951 2.51902   2
   8  -3  -9 57.5515 3.65093  -1
   2   3   9 57.5515 3.65093   2
  -8   3   9 58.2236 2.07280  -1
  -2  -3  -9 58.2236 2.07280   2
   7  -3  -9 67.3206 2.98927  -1
   1   3   9 67.3206 2.98927   2
  -7   3   9 69.6582 2.21555  -1
  -1  -3  -9 69.6582 2.21555   2
   6  -3  -9 49.3022 1.89941  -1
   0   3   9 49.3022 1.89941   2
  -6   3   9 51.3351 2.15726  -1
   0  -3  -9 51.3351 2.15726   2
   5  -3  -9 158.511 4.97773  -1
  -1   3   9 158.511 4.97773   2
  -5   3   9 150.800 3.47917  -1
   1  -3  -9 150.800 3.47917   2
   4  -3  -9 117.381 3.24364  -1
  -2   3   9 117.381 3.24364   2
  -4   3   9 124.307 3.05935  -1
   2  -3  -9 124.307 3.05935   2
   3  -3  -9 90.2868 3.14680  -1
  -3   3   9 90.2868 3.14680   2
  -3   3   9 89.6776 2.47039  -1
   3  -3  -9 89.6776 2.47039   2
   2  -3  -9 151.531 3.21769  -1
  -4   3   9 151.531 3.21769   2
  -2   3   9 157.624 3.05864  -1
   4  -3  -9 157.624 3.05864   2
   1  -3  -9 167.636 3.83666  -1
  -5   3   9 167.636 3.83666   2
  -1   3   9 173.593 4.30334  -1
   5  -3  -9 173.593 4.30334   2
   0  -3  -9 32.9294 1.70905  -1
  -6   3   9 32.9294 1.70905   2
   0   3   9 37.2511 1.73982  -1
   6  -3  -9 37.2511 1.73982   2
  -1  -3  -9 107.052 4.04403  -1
  -7   3   9 107.052 4.04403   2
   1   3   9 136.790 3.47921  -1
   7  -3  -9 136.790 3.47921   2
  -2  -3  -9 48.9765 3.96672  -1
  -8   3   9 48.9765 3.96672   2
   2   3   9 53.1234 2.15657  -1
   8  -3  -9 53.1234 2.15657   2
  -3  -3  -9 48.8865 4.18128  -1
  -9   3   9 48.8865 4.18128   2
   3   3   9 46.1223 3.17109  -1
   9  -3  -9 46.1223 3.17109   2
  -4  -3  -9 13.7549 3.77035  -1
 -10   3   9 13.7549 3.77035   2
   4   3   9 19.6716 2.44566  -1
  10  -3  -9 19.6716 2.44566   2
  -5  -3  -9 86.5190 10.2647  -1
 -11   3   9 86.5190 10.2647   2
   5   3   9 62.7115 4.79158  -1
  11  -3  -9 62.7115 4.79158   2
  -6  -3  -9 97.8950 5.81584  -1
 -12   3   9 97.8950 5.81584   2
  -7  -3  -9 51.8391 8.51589  -1
 -13   3   9 51.8391 8.51589   2
  13  -4  -9 115.715 11.7544  -1
   7   4   9 115.715 11.7544   2
 -13   4   9 144.260 11.8261  -1
  -7  -4  -9 144.260 11.8261   2
  12  -4  -9 74.6907 8.53351  -1
   6   4   9 74.6907 8.53351   2
 -12   4   9 98.4772 6.91977  -1
  -6  -4  -9 98.4772 6.91977   2
  11  -4  -9 237.501 9.66712  -1
   5   4   9 237.501 9.66712   2
 -11   4   9 225.920 9.06081  -1
  -5  -4  -9 225.920 9.06081   2
  10  -4  -9 63.1849 4.43219  -1
   4   4   9 63.1849 4.43219   2
 -10   4   9 54.5188 3.40030  -1
  -4  -4  -9 54.5188 3.40030   2
   9  -4  -9 109.935 5.02889  -1
   3   4   9 109.935 5.02889   2
  -9   4   9 101.115 3.58095  -1
  -3  -4  -9 101.115 3.58095   2
   8  -4  -9 395.778 9.80461  -1
   2   4   9 395.778 9.80461   2
  -8   4   9 380.553 10.7070  -1
  -2  -4  -9 380.553 10.7070   2
   7  -4  -9 345.889 8.85674  -1
   1   4   9 345.889 8.85674   2
  -7   4   9 398.511 8.26616  -1
  -1  -4  -9 398.511 8.26616   2
   6  -4  -9 328.737 7.14013  -1
   0   4   9 328.737 7.14013   2
  -6   4   9 328.209 6.00036  -1
   0  -4  -9 328.209 6.00036   2
   5  -4  -9 256.419 5.57044  -1
  -1   4   9 256.419 5.57044   2
  -5   4   9 238.915 4.77572  -1
   1  -4  -9 238.915 4.77572   2
   4  -4  -9 173.357 3.97392  -1
  -2   4   9 173.357 3.97392   2
  -4   4   9 170.801 3.75664  -1
   2  -4  -9 170.801 3.75664   2
   3  -4  -9 858.249 13.2549  -1
  -3   4   9 858.249 13.2549   2
  -3   4   9 837.134 14.3009  -1
   3  -4  -9 837.134 14.3009   2
   2  -4  -9 287.953 7.47346  -1
  -4   4   9 287.953 7.47346   2
  -2   4   9 316.026 7.14206  -1
   4  -4  -9 316.026 7.14206   2
   1  -4  -9 336.043 6.49140  -1
  -5   4   9 336.043 6.49140   2
  -1   4   9 294.098 6.20033  -1
   5  -4  -9 294.098 6.20033   2
   0  -4  -9 342.529 5.66775  -1
  -6   4   9 342.529 5.66775   2
   0   4   9 322.172 7.29351  -1
   6  -4  -9 322.172 7.29351   2
  -1  -4  -9 570.423 12.1874  -1
  -7   4   9 570.423 12.1874   2
   1   4   9 616.156 14.4319  -1
   7  -4  -9 616.156 14.4319   2
  -2  -4  -9 323.146 9.18888  -1
  -8   4   9 323.146 9.18888   2
   2   4   9 297.061 6.41779  -1
   8  -4  -9 297.061 6.41779   2
  -3  -4  -9 166.249 9.11014  -1
  -9   4   9 166.249 9.11014   2
   3   4   9 184.748 5.32614  -1
   9  -4  -9 184.748 5.32614   2
  -4  -4  -9 80.2054 5.58490  -1
 -10   4   9 80.2054 5.58490   2
   4   4   9 74.3652 3.93132  -1
  10  -4  -9 74.3652 3.93132   2
  -5  -4  -9 176.952 8.90984  -1
 -11   4   9 176.952 8.90984   2
   5   4   9 164.515 9.71258  -1
  11  -4  -9 164.515 9.71258   2
  -6  -4  -9 120.746 10.6948  -1
 -12   4   9 120.746 10.6948   2
   6   4   9 113.380 8.31077  -1
  12  -4  -9 113.380 8.31077   2
   7   4   9 102.387 10.9998  -1
  13  -4  -9 102.387 10.9998   2
 -13   5   9 173.980 14.0352  -1
  -7  -5  -9 173.980 14.0352   2
  12  -5  -9 149.994 10.8935  -1
   6   5   9 149.994 10.8935   2
 -12   5   9 180.072 8.93073  -1
  -6  -5  -9 180.072 8.93073   2
  11  -5  -9 295.971 9.45329  -1
   5   5   9 295.971 9.45329   2
 -11   5   9 301.430 13.5949  -1
  -5  -5  -9 301.430 13.5949   2
  10  -5  -9 34.4359 3.88324  -1
   4   5   9 34.4359 3.88324   2
 -10   5   9 52.0577 3.55596  -1
  -4  -5  -9 52.0577 3.55596   2
   9  -5  -9 557.167 13.4530  -1
   3   5   9 557.167 13.4530   2
  -9   5   9 577.017 11.5721  -1
  -3  -5  -9 577.017 11.5721   2
   8  -5  -9 1091.09 24.4216  -1
   2   5   9 1091.09 24.4216   2
  -8   5   9 1055.98 19.5298  -1
  -2  -5  -9 1055.98 19.5298   2
   7  -5  -9 13.8704 2.50710  -1
   1   5   9 13.8704 2.50710   2
  -7   5   9 7.48855 1.92475  -1
  -1  -5  -9 7.48855 1.92475   2
   6  -5  -9 621.510 11.3560  -1
   0   5   9 621.510 11.3560   2
  -6   5   9 624.236 12.3699  -1
   0  -5  -9 624.236 12.3699   2
   5  -5  -9 1545.30 28.0764  -1
  -1   5   9 1545.30 28.0764   2
  -5   5   9 1613.16 30.7815  -1
   1  -5  -9 1613.16 30.7815   2
   4  -5  -9 123.312 4.45809  -1
  -2   5   9 123.312 4.45809   2
  -4   5   9 157.283 3.78612  -1
   2  -5  -9 157.283 3.78612   2
   3  -5  -9 72.7901 2.91314  -1
  -3   5   9 72.7901 2.91314   2
  -3   5   9 69.5896 2.97806  -1
   3  -5  -9 69.5896 2.97806   2
   2  -5  -9 153.127 5.85834  -1
  -4   5   9 153.127 5.85834   2
  -2   5   9 195.658 4.40457  -1
   4  -5  -9 195.658 4.40457   2
   1  -5  -9 1042.16 16.5135  -1
  -5   5   9 1042.16 16.5135   2
  -1   5   9 1087.09 19.7258  -1
   5  -5  -9 1087.09 19.7258   2
   0  -5  -9 775.810 13.4551  -1
  -6   5   9 775.810 13.4551   2
   0   5   9 780.553 14.6003  -1
   6  -5  -9 780.553 14.6003   2
  -1  -5  -9 15.8544 2.37878  -1
  -7   5   9 15.8544 2.37878   2
   1   5   9 15.8673 2.16165  -1
   7  -5  -9 15.8673 2.16165   2
  -2  -5  -9 847.632 19.6218  -1
  -8   5   9 847.632 19.6218   2
   2   5   9 820.836 20.4429  -1
   8  -5  -9 820.836 20.4429   2
  -3  -5  -9 843.066 17.2173  -1
  -9   5   9 843.066 17.2173   2
   3   5   9 826.231 26.4426  -1
   9  -5  -9 826.231 26.4426   2
  -4  -5  -9 35.6696 4.85781  -1
 -10   5   9 35.6696 4.85781   2
   4   5   9 60.6632 6.13620  -1
  10  -5  -9 60.6632 6.13620   2
  -5  -5  -9 275.144 10.2415  -1
 -11   5   9 275.144 10.2415   2
   5   5   9 265.779 11.5783  -1
  11  -5  -9 265.779 11.5783   2
  -6  -5  -9 244.073 10.2029  -1
 -12   5   9 244.073 10.2029   2
   6   5   9 298.486 11.7750  -1
  12  -5  -9 298.486 11.7750   2
  12  -6  -9 101.028 9.97424  -1
   6   6   9 101.028 9.97424   2
 -12   6   9 103.881 8.09484  -1
  -6  -6  -9 103.881 8.09484   2
  11  -6  -9 322.836 17.3518  -1
   5   6   9 322.836 17.3518   2
 -11   6   9 316.920 13.7615  -1
  -5  -6  -9 316.920 13.7615   2
  10  -6  -9 182.625 7.79981  -1
   4   6   9 182.625 7.79981   2
 -10   6   9 169.268 7.02598  -1
  -4  -6  -9 169.268 7.02598   2
   9  -6  -9 108.754 5.05076  -1
   3   6   9 108.754 5.05076   2
  -9   6   9 108.991 4.97327  -1
  -3  -6  -9 108.991 4.97327   2
   8  -6  -9 26.7447 3.32639  -1
   2   6   9 26.7447 3.32639   2
  -8   6   9 21.1576 2.56186  -1
  -2  -6  -9 21.1576 2.56186   2
   7  -6  -9 29.0544 2.99690  -1
   1   6   9 29.0544 2.99690   2
  -7   6   9 45.0369 3.64714  -1
  -1  -6  -9 45.0369 3.64714   2
   6  -6  -9 296.359 8.16437  -1
   0   6   9 296.359 8.16437   2
  -6   6   9 323.123 7.55948  -1
   0  -6  -9 323.123 7.55948   2
   5  -6  -9 150.966 4.13375  -1
  -1   6   9 150.966 4.13375   2
  -5   6   9 173.193 5.11984  -1
   1  -6  -9 173.193 5.11984   2
   4  -6  -9 396.567 9.33975  -1
  -2   6   9 396.567 9.33975   2
  -4   6   9 419.875 7.75697  -1
   2  -6  -9 419.875 7.75697   2
   3  -6  -9 1023.34 15.9733  -1
  -3   6   9 1023.34 15.9733   2
  -3   6   9 942.812 15.0447  -1
   3  -6  -9 942.812 15.0447   2
   2  -6  -9 669.902 11.9708  -1
  -4   6   9 669.902 11.9708   2
  -2   6   9 633.230 10.4885  -1
   4  -6  -9 633.230 10.4885   2
   1  -6  -9 131.526 4.27787  -1
  -5   6   9 131.526 4.27787   2
  -1   6   9 150.697 4.69705  -1
   5  -6  -9 150.697 4.69705   2
   0  -6  -9 519.344 9.25684  -1
  -6   6   9 519.344 9.25684   2
   0   6   9 525.933 10.9945  -1
   6  -6  -9 525.933 10.9945   2
  -1  -6  -9 78.6543 24.6070  -1
  -7   6   9 78.6543 24.6070   2
   1   6   9 58.6895 3.60536  -1
   7  -6  -9 58.6895 3.60536   2
   2   6   9 66.7726 14.7989  -1
   8  -6  -9 66.7726 14.7989   2
  -3  -6  -9 70.2233 3.93294  -1
  -9   6   9 70.2233 3.93294   2
   3   6   9 82.5029 5.01518  -1
   9  -6  -9 82.5029 5.01518   2
  -4  -6  -9 111.812 11.4380  -1
 -10   6   9 111.812 11.4380   2
   4   6   9 109.757 6.00593  -1
  10  -6  -9 109.757 6.00593   2
  -5  -6  -9 309.898 17.6051  -1
 -11   6   9 309.898 17.6051   2
   5   6   9 236.292 10.4807  -1
  11  -6  -9 236.292 10.4807   2
  -6  -6  -9 171.392 11.4584  -1
 -12   6   9 171.392 11.4584   2
   6   6   9 152.642 10.6970  -1
  12  -6  -9 152.642 10.6970   2
  11  -7  -9 157.572 8.51711  -1
   5   7   9 157.572 8.51711   2
 -11   7   9 161.750 8.17481  -1
  -5  -7  -9 161.750 8.17481   2
  10  -7  -9 202.224 7.34512  -1
   4   7   9 202.224 7.34512   2
 -10   7   9 236.059 7.59789  -1
  -4  -7  -9 236.059 7.59789   2
   9  -7  -9 21.6486 3.34601  -1
   3   7   9 21.6486 3.34601   2
  -9   7   9 26.6782 2.98379  -1
  -3  -7  -9 26.6782 2.98379   2
   8  -7  -9 68.5030 3.95774  -1
   2   7   9 68.5030 3.95774   2
  -8   7   9 99.6734 4.04772  -1
  -2  -7  -9 99.6734 4.04772   2
   7  -7  -9 279.162 9.54103  -1
   1   7   9 279.162 9.54103   2
  -7   7   9 292.053 7.37356  -1
  -1  -7  -9 292.053 7.37356   2
   6  -7  -9 307.079 9.46111  -1
   0   7   9 307.079 9.46111   2
  -6   7   9 290.773 9.78694  -1
   0  -7  -9 290.773 9.78694   2
   5  -7  -9 119.920 5.30935  -1
  -1   7   9 119.920 5.30935   2
  -5   7   9 109.723 5.09868  -1
   1  -7  -9 109.723 5.09868   2
   4  -7  -9 307.977 7.43271  -1
  -2   7   9 307.977 7.43271   2
  -4   7   9 284.238 6.66859  -1
   2  -7  -9 284.238 6.66859   2
   3  -7  -9 44.2775 3.71374  -1
  -3   7   9 44.2775 3.71374   2
  -3   7   9 29.7579 1.94631  -1
   3  -7  -9 29.7579 1.94631   2
   2  -7  -9 219.472 5.69921  -1
  -4   7   9 219.472 5.69921   2
  -2   7   9 201.984 5.46416  -1
   4  -7  -9 201.984 5.46416   2
   1  -7  -9 223.535 6.85338  -1
  -5   7   9 223.535 6.85338   2
  -1   7   9 184.865 6.17665  -1
   5  -7  -9 184.865 6.17665   2
   0  -7  -9 192.415 5.97556  -1
  -6   7   9 192.415 5.97556   2
   0   7   9 176.162 5.47871  -1
   6  -7  -9 176.162 5.47871   2
  -1  -7  -9 384.633 6.96944  -1
  -7   7   9 384.633 6.96944   2
   1   7   9 339.674 9.52682  -1
   7  -7  -9 339.674 9.52682   2
  -2  -7  -9 120.422 5.13968  -1
  -8   7   9 120.422 5.13968   2
   2   7   9 143.168 6.05602  -1
   8  -7  -9 143.168 6.05602   2
  -3  -7  -9 36.1878 3.54705  -1
  -9   7   9 36.1878 3.54705   2
   3   7   9 40.7405 4.08555  -1
   9  -7  -9 40.7405 4.08555   2
  -4  -7  -9 130.600 7.13222  -1
 -10   7   9 130.600 7.13222   2
   4   7   9 150.596 7.69653  -1
  10  -7  -9 150.596 7.69653   2
  -5  -7  -9 145.773 7.67381  -1
 -11   7   9 145.773 7.67381   2
   5   7   9 159.365 8.08888  -1
  11  -7  -9 159.365 8.08888   2
  10  -8  -9 466.070 19.4054  -1
   4   8   9 466.070 19.4054   2
 -10   8   9 534.328 15.4872  -1
  -4  -8  -9 534.328 15.4872   2
   9  -8  -9 381.765 15.4610  -1
   3   8   9 381.765 15.4610   2
  -9   8   9 330.714 8.37749  -1
  -3  -8  -9 330.714 8.37749   2
   8  -8  -9 44.8308 5.74350  -1
   2   8   9 44.8308 5.74350   2
  -8   8   9 47.7619 3.38553  -1
  -2  -8  -9 47.7619 3.38553   2
   7  -8  -9 659.986 19.7046  -1
   1   8   9 659.986 19.7046   2
  -7   8   9 576.410 12.5784  -1
  -1  -8  -9 576.410 12.5784   2
   6  -8  -9 378.121 9.62285  -1
   0   8   9 378.121 9.62285   2
  -6   8   9 371.959 10.1559  -1
   0  -8  -9 371.959 10.1559   2
   5  -8  -9 172.371 5.94022  -1
  -1   8   9 172.371 5.94022   2
  -5   8   9 195.769 7.87125  -1
   1  -8  -9 195.769 7.87125   2
   4  -8  -9 476.007 12.1299  -1
  -2   8   9 476.007 12.1299   2
  -4   8   9 458.932 13.8972  -1
   2  -8  -9 458.932 13.8972   2
   3  -8  -9 68.6730 3.63527  -1
  -3   8   9 68.6730 3.63527   2
  -3   8   9 131.064 18.1355  -1
   3  -8  -9 131.064 18.1355   2
   2  -8  -9 297.452 8.36189  -1
  -4   8   9 297.452 8.36189   2
  -2   8   9 302.839 9.45804  -1
   4  -8  -9 302.839 9.45804   2
   1  -8  -9 127.704 4.76934  -1
  -5   8   9 127.704 4.76934   2
  -1   8   9 141.891 5.99701  -1
   5  -8  -9 141.891 5.99701   2
   0  -8  -9 231.663 6.64828  -1
  -6   8   9 231.663 6.64828   2
   0   8   9 278.627 7.01229  -1
   6  -8  -9 278.627 7.01229   2
  -1  -8  -9 619.278 12.5241  -1
  -7   8   9 619.278 12.5241   2
   1   8   9 586.170 12.8198  -1
   7  -8  -9 586.170 12.8198   2
  -2  -8  -9 84.8281 5.19584  -1
  -8   8   9 84.8281 5.19584   2
   2   8   9 76.4025 5.03651  -1
   8  -8  -9 76.4025 5.03651   2
  -3  -8  -9 245.272 8.80701  -1
  -9   8   9 245.272 8.80701   2
   3   8   9 233.363 8.35251  -1
   9  -8  -9 233.363 8.35251   2
  -4  -8  -9 722.692 22.8930  -1
 -10   8   9 722.692 22.8930   2
   4   8   9 713.428 17.8465  -1
  10  -8  -9 713.428 17.8465   2
  -5  -8  -9 17.3520 6.17017  -1
 -11   8   9 17.3520 6.17017   2
   5   8   9 37.0326 5.77856  -1
  11  -8  -9 37.0326 5.77856   2
  10  -9  -9 89.1803 11.6247  -1
   4   9   9 89.1803 11.6247   2
 -10   9   9 134.875 7.48759  -1
  -4  -9  -9 134.875 7.48759   2
   9  -9  -9 90.8238 6.66153  -1
   3   9   9 90.8238 6.66153   2
  -9   9   9 93.1720 7.03022  -1
  -3  -9  -9 93.1720 7.03022   2
   8  -9  -9 23.5062 4.81024  -1
   2   9   9 23.5062 4.81024   2
  -8   9   9 52.3442 3.49904  -1
  -2  -9  -9 52.3442 3.49904   2
   7  -9  -9 102.746 7.22131  -1
   1   9   9 102.746 7.22131   2
  -7   9   9 120.005 6.26657  -1
  -1  -9  -9 120.005 6.26657   2
   6  -9  -9 81.9067 4.53191  -1
   0   9   9 81.9067 4.53191   2
   5  -9  -9 276.100 8.18632  -1
  -1   9   9 276.100 8.18632   2
  -5   9   9 301.592 8.91555  -1
   1  -9  -9 301.592 8.91555   2
   4  -9  -9 636.684 13.9695  -1
  -2   9   9 636.684 13.9695   2
  -4   9   9 589.281 14.6082  -1
   2  -9  -9 589.281 14.6082   2
   3  -9  -9 509.653 11.7682  -1
  -3   9   9 509.653 11.7682   2
  -3   9   9 512.990 10.6317  -1
   3  -9  -9 512.990 10.6317   2
   2  -9  -9 902.966 18.8913  -1
  -4   9   9 902.966 18.8913   2
  -2   9   9 764.710 21.8349  -1
   4  -9  -9 764.710 21.8349   2
   1  -9  -9 422.820 11.9421  -1
  -5   9   9 422.820 11.9421   2
  -1   9   9 369.964 10.0366  -1
   5  -9  -9 369.964 10.0366   2
   0  -9  -9 75.5591 4.05194  -1
  -6   9   9 75.5591 4.05194   2
   0   9   9 114.220 10.6608  -1
   6  -9  -9 114.220 10.6608   2
  -1  -9  -9 197.475 7.74225  -1
  -7   9   9 197.475 7.74225   2
   1   9   9 227.199 8.59989  -1
   7  -9  -9 227.199 8.59989   2
  -2  -9  -9 32.0581 4.20745  -1
  -8   9   9 32.0581 4.20745   2
   2   9   9 61.8478 4.43465  -1
   8  -9  -9 61.8478 4.43465   2
  -3  -9  -9 65.7020 4.90634  -1
  -9   9   9 65.7020 4.90634   2
   3   9   9 62.3837 5.26450  -1
   9  -9  -9 62.3837 5.26450   2
  -4  -9  -9 85.9320 7.70883  -1
 -10   9   9 85.9320 7.70883   2
   4   9   9 80.6847 7.47454  -1
  10  -9  -9 80.6847 7.47454   2
   9 -10  -9 150.531 14.2410  -1
   3  10   9 150.531 14.2410   2
  -9  10   9 177.231 14.0751  -1
  -3 -10  -9 177.231 14.0751   2
   8 -10  -9 210.557 9.22714  -1
   2  10   9 210.557 9.22714   2
  -8  10   9 209.968 6.78991  -1
  -2 -10  -9 209.968 6.78991   2
   7 -10  -9 311.496 11.2225  -1
   1  10   9 311.496 11.2225   2
  -7  10   9 314.996 9.66520  -1
  -1 -10  -9 314.996 9.66520   2
   6 -10  -9 19.4884 2.85511  -1
   0  10   9 19.4884 2.85511   2
  -6  10   9 16.9079 3.63403  -1
   0 -10  -9 16.9079 3.63403   2
   5 -10  -9 113.752 7.26071  -1
  -1  10   9 113.752 7.26071   2
  -5  10   9 90.7066 7.20283  -1
   1 -10  -9 90.7066 7.20283   2
   4 -10  -9 172.768 6.86833  -1
  -2  10   9 172.768 6.86833   2
  -4  10   9 169.703 7.16815  -1
   2 -10  -9 169.703 7.16815   2
   3 -10  -9 228.576 8.69774  -1
  -3  10   9 228.576 8.69774   2
  -3  10   9 229.893 9.36542  -1
   3 -10  -9 229.893 9.36542   2
   2 -10  -9 246.703 9.82905  -1
  -4  10   9 246.703 9.82905   2
  -2  10   9 239.559 12.3228  -1
   4 -10  -9 239.559 12.3228   2
   1 -10  -9 122.294 6.29661  -1
  -5  10   9 122.294 6.29661   2
  -1  10   9 106.155 5.00135  -1
   5 -10  -9 106.155 5.00135   2
   0 -10  -9 43.3690 3.29393  -1
  -6  10   9 43.3690 3.29393   2
   0  10   9 25.4001 3.31997  -1
   6 -10  -9 25.4001 3.31997   2
  -1 -10  -9 191.629 8.26784  -1
  -7  10   9 191.629 8.26784   2
   1  10   9 199.798 7.14329  -1
   7 -10  -9 199.798 7.14329   2
  -2 -10  -9 317.199 9.55094  -1
  -8  10   9 317.199 9.55094   2
   2  10   9 308.002 11.4762  -1
   8 -10  -9 308.002 11.4762   2
  -3 -10  -9 200.436 8.60288  -1
  -9  10   9 200.436 8.60288   2
   3  10   9 192.402 15.1092  -1
   9 -10  -9 192.402 15.1092   2
   4  10   9 12.4235 5.88695  -1
  10 -10  -9 12.4235 5.88695   2
   8 -11  -9 456.168 25.2128  -1
   2  11   9 456.168 25.2128   2
  -8  11   9 483.790 24.1135  -1
  -2 -11  -9 483.790 24.1135   2
   7 -11  -9 43.3722 4.80584  -1
   1  11   9 43.3722 4.80584   2
  -7  11   9 45.4046 4.19639  -1
  -1 -11  -9 45.4046 4.19639   2
   6 -11  -9 313.595 9.37601  -1
   0  11   9 313.595 9.37601   2
  -6  11   9 345.326 12.0591  -1
   0 -11  -9 345.326 12.0591   2
   5 -11  -9 468.861 19.1939  -1
  -1  11   9 468.861 19.1939   2
  -5  11   9 456.725 15.4650  -1
   1 -11  -9 456.725 15.4650   2
   4 -11  -9 118.069 6.77493  -1
  -2  11   9 118.069 6.77493   2
  -4  11   9 157.514 6.76845  -1
   2 -11  -9 157.514 6.76845   2
   3 -11  -9 34.9833 3.65074  -1
  -3  11   9 34.9833 3.65074   2
  -3  11   9 9.22497 2.73921  -1
   3 -11  -9 9.22497 2.73921   2
   2 -11  -9 85.6919 5.30830  -1
  -4  11   9 85.6919 5.30830   2
  -2  11   9 110.738 5.93430  -1
   4 -11  -9 110.738 5.93430   2
   1 -11  -9 260.448 10.2836  -1
  -5  11   9 260.448 10.2836   2
  -1  11   9 290.309 17.6703  -1
   5 -11  -9 290.309 17.6703   2
   0 -11  -9 356.382 11.4869  -1
  -6  11   9 356.382 11.4869   2
   0  11   9 330.472 12.0101  -1
   6 -11  -9 330.472 12.0101   2
  -1 -11  -9 59.2812 4.62037  -1
  -7  11   9 59.2812 4.62037   2
   1  11   9 66.4955 4.46146  -1
   7 -11  -9 66.4955 4.46146   2
  -2 -11  -9 364.092 17.3239  -1
  -8  11   9 364.092 17.3239   2
   2  11   9 331.593 18.1278  -1
   8 -11  -9 331.593 18.1278   2
   3  11   9 348.532 22.6504  -1
   9 -11  -9 348.532 22.6504   2
   7 -12  -9 7.22593 4.98515  -1
   1  12   9 7.22593 4.98515   2
  -7  12   9 36.6918 7.58686  -1
  -1 -12  -9 36.6918 7.58686   2
  -6  12   9 267.054 18.7874  -1
   0 -12  -9 267.054 18.7874   2
   5 -12  -9 301.592 11.3495  -1
  -1  12   9 301.592 11.3495   2
  -5  12   9 343.000 13.4374  -1
   1 -12  -9 343.000 13.4374   2
   4 -12  -9 123.079 6.97032  -1
  -2  12   9 123.079 6.97032   2
  -4  12   9 137.357 6.54940  -1
   2 -12  -9 137.357 6.54940   2
   3 -12  -9 636.399 15.2702  -1
  -3  12   9 636.399 15.2702   2
  -3  12   9 563.697 15.1404  -1
   3 -12  -9 563.697 15.1404   2
   2 -12  -9 229.207 8.07194  -1
  -4  12   9 229.207 8.07194   2
  -2  12   9 205.516 8.13350  -1
   4 -12  -9 205.516 8.13350   2
   1 -12  -9 267.659 9.52929  -1
  -5  12   9 267.659 9.52929   2
  -1  12   9 299.043 11.1202  -1
   5 -12  -9 299.043 11.1202   2
   0 -12  -9 395.923 15.6893  -1
  -6  12   9 395.923 15.6893   2
   0  12   9 349.282 20.9313  -1
   6 -12  -9 349.282 20.9313   2
  -1 -12  -9 25.7709 7.00323  -1
  -7  12   9 25.7709 7.00323   2
   1  12   9 34.4408 7.18275  -1
   7 -12  -9 34.4408 7.18275   2
 -13   0  10 5.60061 4.54277   2
 -12   0  10 264.589 9.17391   2
 -11   0  10 17.0598 4.26177   2
 -10   0  10 422.319 11.0552   2
  -9   0  10 78.4239 20.2549   2
  -8   0  10 389.709 9.69907   2
  -7   0  10 6.86885 1.83923   2
  -6   0  10 79.8612 3.69077   2
  -5   0  10 429.905 8.65925   2
  -4   0  10 620.879 11.7887   2
  -3   0  10 36.3655 1.71553   2
  -2   0  10 8.11945 1.08668   2
  -1   0  10 1103.97 16.7834   2
   0   0  10 985.785 16.2306   2
   1   0  10 31.3293 1.44112   2
   2   0  10 33.8368 2.58026   2
   3   0  10 286.513 7.47898   2
   4   0  10 13.5863 2.24468   2
   5   0  10 318.786 8.36741   2
   6   0  10 -0.7168 2.63818   2
  13  -1 -10 76.6916 10.1166   2
  12  -1 -10 0.93212 2.12905   2
 -12   1  10 1.64834 2.96049   2
  11  -1 -10 249.182 8.31507   2
 -11   1  10 220.606 7.88887   2
  10  -1 -10 2.80496 1.99015   2
 -10   1  10 5.33690 2.23223   2
   9  -1 -10 274.959 7.53377   2
  -9   1  10 285.382 7.85024   2
   8  -1 -10 42.9182 3.22046   2
  -8   1  10 53.0673 3.38876   2
   7  -1 -10 294.462 7.57714   2
  -7   1  10 305.973 7.85156   2
   6  -1 -10 209.753 5.60785   2
  -6   1  10 198.495 4.73583   2
   5  -1 -10 523.878 10.1305   2
  -5   1  10 527.161 9.22765   2
   4  -1 -10 47.1677 2.01003   2
  -4   1  10 42.8599 1.93711   2
   3  -1 -10 146.334 4.18525   2
  -3   1  10 142.484 3.15852   2
   2  -1 -10 361.590 6.38065   2
  -2   1  10 352.159 7.36812   2
   1  -1 -10 203.584 4.34716   2
  -1   1  10 198.343 4.24853   2
   0  -1 -10 378.493 6.74557   2
   0   1  10 369.359 6.36573   2
  -1  -1 -10 69.3071 2.58780   2
   1   1  10 70.4255 3.16252   2
  -2  -1 -10 227.628 5.48654   2
   2   1  10 222.133 6.10966   2
  -3  -1 -10 14.5682 2.29195   2
   3   1  10 20.3082 2.24885   2
  -4  -1 -10 171.822 5.91470   2
   4   1  10 180.505 5.64426   2
  -5  -1 -10 7.43720 2.27871   2
   5   1  10 5.29157 2.37559   2
  -6  -1 -10 213.179 8.92888   2
   6   1  10 207.903 10.1577   2
  13  -2 -10 4.41166 4.95284   2
 -13   2  10 11.0591 5.33042   2
  12  -2 -10 159.427 6.57165   2
 -12   2  10 174.381 8.15418   2
  11  -2 -10 28.4044 3.20430   2
 -11   2  10 31.1087 4.08268   2
  10  -2 -10 55.2193 3.67760   2
 -10   2  10 69.9180 5.31004   2
   9  -2 -10 37.0082 3.04445   2
  -9   2  10 56.6442 3.46331   2
   8  -2 -10 235.720 6.45772   2
  -8   2  10 226.090 7.26731   2
   7  -2 -10 252.591 6.66672   2
  -7   2  10 244.491 7.00885   2
   6  -2 -10 738.545 13.0462   2
  -6   2  10 741.135 11.9247   2
   5  -2 -10 18.7578 1.81407   2
  -5   2  10 23.2821 1.35658   2
   4  -2 -10 204.791 4.49688   2
  -4   2  10 214.290 4.34096   2
   3  -2 -10 337.177 6.63107   2
  -3   2  10 326.851 5.69953   2
   2  -2 -10 375.045 6.64178   2
  -2   2  10 375.257 6.29380   2
   1  -2 -10 89.5758 2.76652   2
  -1   2  10 87.7059 2.82210   2
   0  -2 -10 6.47078 1.15675   2
   0   2  10 4.00323 0.68919   2
  -1  -2 -10 404.733 7.33319   2
   1   2  10 418.803 9.70400   2
  -2  -2 -10 58.4609 2.44858   2
   2   2  10 50.1934 2.96360   2
  -3  -2 -10 296.227 7.38219   2
   3   2  10 282.768 8.08270   2
  -4  -2 -10 63.5072 5.97149   2
   4   2  10 52.0939 3.59032   2
  -5  -2 -10 212.274 7.53230   2
   5   2  10 188.330 9.82100   2
  -6  -2 -10 6.43410 2.64815   2
   6   2  10 11.8397 5.32598   2
  13  -3 -10 283.468 19.0315   2
 -13   3  10 289.379 23.9898   2
  12  -3 -10 9.60904 3.56261   2
 -12   3  10 12.8235 3.47888   2
  11  -3 -10 197.366 9.73248   2
 -11   3  10 203.261 8.64144   2
  10  -3 -10 14.1015 3.38847   2
 -10   3  10 9.68727 2.90839   2
   9  -3 -10 173.901 5.23364   2
  -9   3  10 164.663 6.92852   2
   8  -3 -10 74.0522 3.25003   2
  -8   3  10 73.2812 4.44415   2
   7  -3 -10 471.275 9.33296   2
  -7   3  10 492.655 10.4645   2
   6  -3 -10 5.94529 1.83221   2
  -6   3  10 13.3031 1.00829   2
   5  -3 -10 49.0118 2.76643   2
  -5   3  10 48.7696 1.83295   2
   4  -3 -10 402.927 7.71041   2
  -4   3  10 388.411 7.03206   2
   3  -3 -10 264.322 5.11572   2
  -3   3  10 266.051 5.47731   2
   2  -3 -10 171.606 3.84027   2
  -2   3  10 170.904 4.71960   2
   1  -3 -10 219.793 4.69242   2
  -1   3  10 219.149 6.39849   2
   0  -3 -10 186.934 4.20987   2
   0   3  10 175.403 5.95262   2
  -1  -3 -10 160.114 4.16144   2
   1   3  10 158.883 5.86214   2
  -2  -3 -10 253.260 5.54655   2
   2   3  10 253.541 8.05015   2
  -3  -3 -10 1.51270 1.42910   2
   3   3  10 5.82936 3.55954   2
  -4  -3 -10 281.418 8.85389   2
   4   3  10 289.333 13.7881   2
  -5  -3 -10 0.45904 2.23519   2
   5   3  10 0.70083 3.63059   2
  -6  -3 -10 69.5403 7.44407   2
   6   3  10 86.5290 11.3872   2
  12  -4 -10 72.4396 6.36294   2
 -12   4  10 72.7425 6.08273   2
  11  -4 -10 4.05641 3.12110   2
 -11   4  10 6.74905 2.99946   2
  10  -4 -10 402.194 13.4807   2
 -10   4  10 392.988 12.9157   2
   9  -4 -10 2.20567 2.59834   2
  -9   4  10 5.27452 2.62168   2
   8  -4 -10 183.701 7.72769   2
  -8   4  10 212.518 5.61907   2
   7  -4 -10 101.264 5.67380   2
  -7   4  10 118.767 3.80704   2
   6  -4 -10 288.768 7.25506   2
  -6   4  10 312.961 5.40541   2
   5  -4 -10 6.34562 1.29467   2
  -5   4  10 3.91903 1.25691   2
   4  -4 -10 40.0208 2.58912   2
  -4   4  10 22.9920 2.27068   2
   3  -4 -10 404.939 7.05766   2
  -3   4  10 393.625 7.22027   2
   2  -4 -10 300.712 5.64121   2
  -2   4  10 289.819 6.45476   2
   1  -4 -10 288.036 6.13973   2
  -1   4  10 273.451 6.39539   2
   0  -4 -10 83.5140 2.43370   2
   0   4  10 91.3541 4.22872   2
  -1  -4 -10 249.952 6.39870   2
   1   4  10 260.311 7.71669   2
  -2  -4 -10 52.9617 2.82059   2
   2   4  10 49.2461 3.74334   2
  -3  -4 -10 28.0146 2.68034   2
   3   4  10 36.5038 3.74583   2
  -4  -4 -10 0.92670 2.52000   2
   4   4  10 2.24457 2.87984   2
  -5  -4 -10 167.105 8.06848   2
   5   4  10 162.353 8.61649   2
  -6  -4 -10 4.52563 3.26498   2
   6   4  10 -0.3795 4.62670   2
  12  -5 -10 11.8127 4.34588   2
 -12   5  10 8.98191 4.78198   2
  11  -5 -10 82.9894 8.05408   2
 -11   5  10 98.3340 6.93596   2
  10  -5 -10 8.34382 4.19131   2
 -10   5  10 14.4187 3.40275   2
   9  -5 -10 90.0448 5.26612   2
  -9   5  10 86.8111 5.67213   2
   8  -5 -10 15.6189 2.84206   2
  -8   5  10 31.9970 2.36820   2
   7  -5 -10 154.860 5.31865   2
  -7   5  10 167.928 4.69856   2
   6  -5 -10 203.492 6.06234   2
  -6   5  10 207.830 5.54874   2
   5  -5 -10 692.543 13.9120   2
  -5   5  10 701.212 13.2454   2
   4  -5 -10 13.7182 1.02807   2
  -4   5  10 10.4601 1.81033   2
   3  -5 -10 33.2993 2.19311   2
  -3   5  10 46.1240 2.69213   2
   2  -5 -10 169.510 4.21251   2
  -2   5  10 179.580 4.43246   2
   1  -5 -10 19.1733 2.14086   2
  -1   5  10 18.7873 2.12011   2
   0  -5 -10 272.311 7.12258   2
   0   5  10 247.310 9.14091   2
  -1  -5 -10 87.8223 3.76068   2
   1   5  10 84.5502 4.50572   2
  -2  -5 -10 97.0431 3.88067   2
   2   5  10 90.6390 4.84901   2
  -3  -5 -10 5.13438 1.97964   2
   3   5  10 8.07205 2.77896   2
  -4  -5 -10 223.001 11.2357   2
   4   5  10 240.172 8.40403   2
  -5  -5 -10 13.2080 4.22240   2
   5   5  10 10.8424 3.43265   2
  -6  -5 -10 104.467 17.8695   2
   6   5  10 57.1096 8.93407   2
  11  -6 -10 2.52819 3.16762   2
 -11   6  10 14.5569 3.63976   2
  10  -6 -10 67.6709 5.68709   2
 -10   6  10 66.8492 5.34479   2
   9  -6 -10 42.4873 4.78343   2
  -9   6  10 39.5873 4.39177   2
   8  -6 -10 142.413 6.06353   2
  -8   6  10 151.253 5.30290   2
   7  -6 -10 48.4644 3.15272   2
  -7   6  10 43.4370 2.80556   2
   6  -6 -10 45.6828 3.17548   2
  -6   6  10 36.0769 2.78290   2
   5  -6 -10 280.175 8.65091   2
  -5   6  10 271.173 7.41080   2
   4  -6 -10 443.685 8.62705   2
  -4   6  10 446.784 12.0065   2
   3  -6 -10 26.6974 1.91621   2
  -3   6  10 29.9450 2.40906   2
   2  -6 -10 5.55160 1.34522   2
  -2   6  10 12.4127 2.27755   2
   1  -6 -10 414.911 10.3760   2
  -1   6  10 390.900 9.96265   2
   0  -6 -10 286.341 8.33109   2
   0   6  10 282.657 9.84818   2
  -1  -6 -10 27.3823 2.49878   2
   1   6  10 31.5559 4.05877   2
  -2  -6 -10 3.28025 1.54778   2
   2   6  10 8.28601 2.15519   2
  -3  -6 -10 280.805 9.35062   2
   3   6  10 286.496 9.36114   2
  -4  -6 -10 2.19450 2.84585   2
   4   6  10 0.68572 2.58090   2
  -5  -6 -10 144.601 9.17833   2
   5   6  10 138.026 12.6712   2
  11  -7 -10 136.117 9.70211   2
 -11   7  10 129.522 12.8882   2
  10  -7 -10 10.2166 3.04578   2
 -10   7  10 11.2819 4.23242   2
   9  -7 -10 95.7091 5.68069   2
  -9   7  10 119.052 5.11511   2
   8  -7 -10 19.6133 3.13929   2
  -8   7  10 21.1784 2.75940   2
   7  -7 -10 118.259 4.83213   2
  -7   7  10 105.634 4.25114   2
   6  -7 -10 16.7940 2.22491   2
  -6   7  10 26.3802 2.22654   2
   5  -7 -10 38.5220 2.76294   2
  -5   7  10 36.7463 2.92274   2
   4  -7 -10 71.5345 3.21088   2
  -4   7  10 83.4652 4.27967   2
   3  -7 -10 43.2861 2.68711   2
  -3   7  10 43.7562 2.99070   2
   2  -7 -10 299.462 10.3598   2
  -2   7  10 289.736 8.12687   2
   1  -7 -10 162.400 6.56101   2
  -1   7  10 155.751 5.66032   2
   0  -7 -10 69.1713 4.40302   2
   0   7  10 68.7840 4.08338   2
  -1  -7 -10 5.46401 1.89953   2
   1   7  10 3.37100 2.68902   2
  -2  -7 -10 59.4137 3.60537   2
   2   7  10 61.3201 5.49726   2
  -3  -7 -10 6.14465 2.17123   2
   3   7  10 7.02029 2.93985   2
  -4  -7 -10 13.2069 3.68617   2
   4   7  10 15.2025 3.89886   2
  10  -8 -10 7.07614 2.90665   2
 -10   8  10 2.43932 2.88774   2
   9  -8 -10 35.0834 3.98279   2
  -9   8  10 26.2945 5.44040   2
   8  -8 -10 87.8232 5.15980   2
  -8   8  10 81.6660 4.73828   2
   7  -8 -10 11.7108 3.07914   2
  -7   8  10 8.35159 2.31342   2
   6  -8 -10 199.962 6.10242   2
  -6   8  10 210.623 6.13607   2
   5  -8 -10 2.47046 2.71000   2
  -5   8  10 41.4349 2.74003   2
   4  -8 -10 1.95382 1.66404   2
  -4   8  10 13.0610 2.34967   2
   3  -8 -10 251.815 6.31868   2
  -3   8  10 247.616 7.06592   2
   2  -8 -10 60.2739 4.30260   2
  -2   8  10 63.9447 3.81126   2
   1  -8 -10 16.5074 2.64687   2
  -1   8  10 28.4572 2.93310   2
   0  -8 -10 3.73183 2.14871   2
   0   8  10 3.61105 2.13077   2
  -1  -8 -10 122.058 6.64193   2
   1   8  10 113.227 6.83385   2
  -2  -8 -10 38.2869 3.05716   2
   2   8  10 35.8647 5.02007   2
  -3  -8 -10 49.7813 4.13603   2
   3   8  10 43.9306 5.26294   2
  10  -9 -10 6.87633 4.06254   2
   9  -9 -10 14.6482 2.96500   2
  -9   9  10 15.6496 3.39435   2
   8  -9 -10 120.790 5.77082   2
  -8   9  10 113.134 5.98361   2
   7  -9 -10 80.0408 4.45929   2
  -7   9  10 91.0093 4.33907   2
   6  -9 -10 13.4743 2.16081   2
  -6   9  10 23.9902 2.91655   2
   5  -9 -10 27.6517 3.32144   2
  -5   9  10 19.5557 3.50871   2
   4  -9 -10 27.2175 2.60838   2
  -4   9  10 17.2833 3.16799   2
   3  -9 -10 51.6133 4.12018   2
  -3   9  10 52.0596 3.41426   2
   2  -9 -10 7.52315 2.84132   2
  -2   9  10 8.83512 2.34813   2
   1  -9 -10 3.48194 2.55136   2
  -1   9  10 4.47544 2.38030   2
   0  -9 -10 79.9121 4.96243   2
   0   9  10 77.6058 4.74540   2
  -1  -9 -10 6.66694 2.45597   2
   1   9  10 8.67659 3.76306   2
  -2  -9 -10 63.1125 4.53281   2
   2   9  10 74.8557 5.93041   2
  -3  -9 -10 12.3232 6.91439   2
   3   9  10 -5.8601 4.86635   2
   9 -10 -10 25.2486 6.77548   2
   8 -10 -10 4.89390 4.28195   2
  -8  10  10 1.07942 3.16376   2
   7 -10 -10 83.9757 4.78176   2
  -7  10  10 73.2541 5.45054   2
   6 -10 -10 55.0765 4.06599   2
  -6  10  10 70.5576 9.51807   2
   5 -10 -10 5.24441 3.23307   2
  -5  10  10 12.7057 3.53760   2
   4 -10 -10 -0.3726 2.42150   2
  -4  10  10 4.54895 3.19447   2
   3 -10 -10 38.6730 3.92078   2
  -3  10  10 41.2285 3.81680   2
   2 -10 -10 43.3552 4.06619   2
  -2  10  10 40.5705 3.36803   2
   1 -10 -10 51.1431 5.85822   2
  -1  10  10 41.4071 4.15176   2
   0 -10 -10 5.67906 2.92921   2
   0  10  10 4.80716 2.66735   2
  -1 -10 -10 24.4075 3.73344   2
   1  10  10 19.3010 3.58076   2
  -2 -10 -10 0.83134 3.74003   2
   2  10  10 -3.1407 4.83308   2
  -8  11  10 22.8641 6.21997   2
   7 -11 -10 6.67630 4.85679   2
  -7  11  10 0.10216 2.85011   2
   6 -11 -10 21.7035 6.22910   2
  -6  11  10 24.9847 4.08558   2
   5 -11 -10 78.5175 7.99299   2
  -5  11  10 85.2710 7.48913   2
   4 -11 -10 8.43052 2.72790   2
  -4  11  10 16.8747 3.90536   2
   3 -11 -10 8.88677 2.94542   2
  -3  11  10 9.24643 2.75492   2
   2 -11 -10 66.7225 5.11844   2
  -2  11  10 75.2634 5.70142   2
   1 -11 -10 -2.0579 2.55613   2
  -1  11  10 0.26437 2.64531   2
   0 -11 -10 17.1020 4.83640   2
   0  11  10 14.1951 5.35062   2
  -1 -11 -10 33.6923 9.17754   2
   1  11  10 39.4162 7.77563   2
 -12   0  11 1.76339 2.74176   2
 -11   0  11 9.18725 2.63093   2
 -10   0  11 -1.4276 1.97420   2
  -9   0  11 44.3868 3.02980   2
  -8   0  11 1.47226 1.74119   2
  -7   0  11 8.51674 2.18973   2
  -6   0  11 6.40579 1.77653   2
  -5   0  11 8.39033 1.82697   2
  -4   0  11 2.72826 1.13470   2
  -3   0  11 0.02130 0.95180   2
  -2   0  11 1.38827 0.94453   2
  -1   0  11 0.58182 0.95147   2
   0   0  11 1.94801 0.94321   2
   1   0  11 2.97707 1.53111   2
   2   0  11 1.07158 1.57596   2
   3   0  11 0.78844 1.64864   2
   4   0  11 -0.0760 1.86502   2
   5   0  11 3.01129 4.04576   2
 -13   1  11 56.1311 8.52121   2
  12  -1 -11 39.0336 4.14094   2
 -12   1  11 33.6628 4.65517   2
  11  -1 -11 39.2657 3.69617   2
 -11   1  11 29.6573 3.43883   2
  10  -1 -11 76.0261 5.01331   2
 -10   1  11 87.7280 6.76934   2
   9  -1 -11 87.7350 4.43015   2
  -9   1  11 85.5001 4.72044   2
   8  -1 -11 120.347 5.17392   2
  -8   1  11 94.8108 4.57604   2
   7  -1 -11 64.0453 3.57318   2
  -7   1  11 76.4092 3.96238   2
   6  -1 -11 64.6683 3.55390   2
  -6   1  11 78.0177 3.94717   2
   5  -1 -11 63.9698 3.33199   2
  -5   1  11 55.5461 2.57895   2
   4  -1 -11 18.0359 1.74614   2
  -4   1  11 11.8818 1.33181   2
   3  -1 -11 24.1545 1.62819   2
  -3   1  11 24.5256 1.88083   2
   2  -1 -11 20.6580 1.54283   2
  -2   1  11 17.4843 1.31884   2
   1  -1 -11 5.15391 1.13441   2
  -1   1  11 10.1438 1.32476   2
   0  -1 -11 55.8246 2.43168   2
   0   1  11 62.7336 2.23777   2
  -1  -1 -11 13.2998 1.36530   2
   1   1  11 11.0900 1.82248   2
  -2  -1 -11 7.22700 1.71978   2
   2   1  11 9.41878 1.82664   2
  -3  -1 -11 15.0682 2.59227   2
   3   1  11 11.0293 2.09336   2
  -4  -1 -11 -0.0735 2.01896   2
   4   1  11 0.47664 3.47796   2
  -5  -1 -11 6.64235 4.27235   2
   5   1  11 3.35441 4.02139   2
 -13   2  11 41.6914 12.1170   2
  12  -2 -11 9.36308 3.58089   2
 -12   2  11 5.13045 2.97761   2
  11  -2 -11 26.1297 3.36837   2
 -11   2  11 30.4402 4.06521   2
  10  -2 -11 57.5474 3.79419   2
 -10   2  11 60.4135 7.43951   2
   9  -2 -11 29.6259 2.35859   2
  -9   2  11 32.1249 2.56281   2
   8  -2 -11 19.1495 3.88870   2
  -8   2  11 25.6514 2.60021   2
   7  -2 -11 27.2782 2.26739   2
  -7   2  11 36.0855 3.03549   2
   6  -2 -11 24.3425 2.26239   2
  -6   2  11 26.4438 1.81837   2
   5  -2 -11 8.75139 2.09492   2
  -5   2  11 8.42432 1.21237   2
   4  -2 -11 18.9988 1.25498   2
  -4   2  11 21.6008 1.40156   2
   3  -2 -11 22.9807 1.61303   2
  -3   2  11 24.6277 1.36389   2
   2  -2 -11 16.9182 1.45110   2
  -2   2  11 15.1148 2.30276   2
   1  -2 -11 7.18105 1.20803   2
  -1   2  11 4.61500 1.44971   2
   0  -2 -11 31.2606 1.89725   2
   0   2  11 32.4045 3.36692   2
  -1  -2 -11 47.0037 2.52729   2
   1   2  11 44.5126 5.10917   2
  -2  -2 -11 179.871 5.69398   2
   2   2  11 187.502 8.04127   2
  -3  -2 -11 48.0941 4.77712   2
   3   2  11 52.8778 5.22678   2
  -4  -2 -11 11.1950 2.69134   2
   4   2  11 4.97032 3.52059   2
  -5  -2 -11 179.681 8.18588   2
   5   2  11 169.558 15.1306   2
  12  -3 -11 18.1321 4.91627   2
 -12   3  11 25.3771 6.25654   2
  11  -3 -11 23.8910 5.07294   2
 -11   3  11 25.6191 4.93010   2
  10  -3 -11 21.5174 5.49846   2
 -10   3  11 14.8834 3.17560   2
   9  -3 -11 22.2978 2.31145   2
  -9   3  11 26.8308 3.47633   2
   8  -3 -11 7.64409 1.72105   2
  -8   3  11 13.0196 2.75460   2
   7  -3 -11 67.4520 3.03615   2
  -7   3  11 75.3312 4.54119   2
   6  -3 -11 14.5581 2.88060   2
  -6   3  11 16.5963 1.68231   2
   5  -3 -11 20.4316 2.25559   2
  -5   3  11 19.2446 1.65075   2
   4  -3 -11 1.37312 0.70050   2
  -4   3  11 1.49564 1.30657   2
   3  -3 -11 7.78375 1.18181   2
  -3   3  11 8.62386 1.64481   2
   2  -3 -11 22.5744 1.61706   2
  -2   3  11 17.3000 2.24090   2
   1  -3 -11 99.4631 3.14561   2
  -1   3  11 95.9671 3.69991   2
   0  -3 -11 5.66928 1.21458   2
   0   3  11 7.86759 2.07765   2
  -1  -3 -11 25.7011 1.73197   2
   1   3  11 24.3489 3.29379   2
  -2  -3 -11 38.3028 3.59931   2
   2   3  11 41.1927 4.23564   2
  -3  -3 -11 2.06749 2.05142   2
   3   3  11 -0.4807 2.67431   2
  -4  -3 -11 8.67448 3.06310   2
   4   3  11 4.48107 3.08396   2
   5   3  11 8.51818 5.74317   2
  12  -4 -11 109.847 15.0865   2
 -12   4  11 118.227 11.5315   2
  11  -4 -11 37.7626 7.10019   2
 -11   4  11 33.7263 4.21783   2
  10  -4 -11 7.31197 3.54346   2
 -10   4  11 8.30341 3.14822   2
   9  -4 -11 5.84118 3.05146   2
  -9   4  11 9.64833 2.77590   2
   8  -4 -11 9.45217 4.11068   2
  -8   4  11 22.9617 3.28554   2
   7  -4 -11 3.03526 2.52434   2
  -7   4  11 15.0124 1.64949   2
   6  -4 -11 80.6596 4.11827   2
  -6   4  11 83.8939 3.36210   2
   5  -4 -11 16.5988 2.25781   2
  -5   4  11 18.7349 2.02065   2
   4  -4 -11 61.4728 2.45473   2
  -4   4  11 59.4453 3.23207   2
   3  -4 -11 23.5496 1.66035   2
  -3   4  11 24.5124 2.26453   2
   2  -4 -11 62.7804 2.42218   2
  -2   4  11 65.6748 3.68043   2
   1  -4 -11 83.6242 2.90431   2
  -1   4  11 88.6207 3.38406   2
   0  -4 -11 108.708 3.81816   2
   0   4  11 115.135 8.97589   2
  -1  -4 -11 5.23767 1.65752   2
   1   4  11 10.4541 2.41371   2
  -2  -4 -11 28.9188 2.29077   2
   2   4  11 33.8652 4.45384   2
  -3  -4 -11 165.296 7.90721   2
   3   4  11 162.253 7.88448   2
  -4  -4 -11 119.535 5.92235   2
   4   4  11 108.769 7.16834   2
  -5  -4 -11 13.5470 3.65997   2
   5   4  11 29.3879 7.05988   2
  11  -5 -11 131.557 6.79101   2
 -11   5  11 140.128 7.65229   2
  10  -5 -11 79.8316 5.60089   2
 -10   5  11 64.6301 5.85893   2
   9  -5 -11 8.75650 2.69877   2
  -9   5  11 10.2760 3.00722   2
   8  -5 -11 94.1231 5.34172   2
  -8   5  11 109.606 5.98290   2
   7  -5 -11 237.659 7.73704   2
  -7   5  11 252.085 6.13525   2
   6  -5 -11 12.5111 2.13092   2
  -6   5  11 3.97606 1.69437   2
   5  -5 -11 28.5610 2.56217   2
  -5   5  11 38.4525 2.64821   2
   4  -5 -11 36.3454 1.92546   2
  -4   5  11 44.5817 2.70197   2
   3  -5 -11 87.1330 2.74341   2
  -3   5  11 77.9980 4.24191   2
   2  -5 -11 26.5751 1.82088   2
  -2   5  11 23.0381 2.51948   2
   1  -5 -11 39.4351 3.15533   2
  -1   5  11 37.3547 1.94240   2
   0  -5 -11 7.19666 1.84987   2
   0   5  11 5.47925 2.53454   2
  -1  -5 -11 20.6293 2.28109   2
   1   5  11 28.3406 3.89737   2
  -2  -5 -11 32.2831 2.61136   2
   2   5  11 34.0357 5.27698   2
  -3  -5 -11 72.9420 5.61226   2
   3   5  11 68.6328 5.59527   2
  -4  -5 -11 43.5411 5.54967   2
   4   5  11 45.7119 5.13797   2
   5   5  11 5.06852 5.74970   2
  11  -6 -11 3.13363 3.85898   2
 -11   6  11 8.64499 6.06222   2
  10  -6 -11 45.4805 4.14479   2
 -10   6  11 49.3248 6.29844   2
   9  -6 -11 12.8235 2.99036   2
  -9   6  11 16.5072 3.35155   2
   8  -6 -11 168.686 7.43191   2
  -8   6  11 169.406 7.15589   2
   7  -6 -11 2.53429 2.26082   2
  -7   6  11 2.66491 1.49440   2
   6  -6 -11 52.8250 3.33306   2
  -6   6  11 66.8638 3.45913   2
   5  -6 -11 45.8408 3.00187   2
  -5   6  11 66.5740 3.11653   2
   4  -6 -11 154.936 4.03662   2
  -4   6  11 168.288 5.78872   2
   3  -6 -11 7.75043 1.01890   2
  -3   6  11 7.71031 2.04733   2
   2  -6 -11 28.7508 3.63596   2
  -2   6  11 28.4276 2.84225   2
   1  -6 -11 39.1039 5.13180   2
  -1   6  11 39.6763 3.18512   2
   0  -6 -11 103.758 4.86429   2
   0   6  11 107.776 6.11017   2
  -1  -6 -11 81.3750 5.20935   2
   1   6  11 81.4328 6.00762   2
  -2  -6 -11 60.1043 3.62691   2
   2   6  11 54.3597 5.28363   2
  -3  -6 -11 46.8024 5.52255   2
   3   6  11 40.9433 3.88745   2
  -4  -6 -11 1.81036 3.82638   2
  10  -7 -11 44.2806 4.53286   2
 -10   7  11 74.0263 5.92589   2
   9  -7 -11 226.954 8.22748   2
  -9   7  11 225.047 11.5635   2
   8  -7 -11 79.7874 4.84027   2
  -8   7  11 70.9091 4.34809   2
   7  -7 -11 4.60712 2.04528   2
  -7   7  11 12.8632 2.31994   2
   6  -7 -11 38.2466 2.94317   2
  -6   7  11 42.0199 3.01894   2
   5  -7 -11 210.578 6.02712   2
  -5   7  11 215.325 6.92542   2
   4  -7 -11 19.5675 2.37425   2
  -4   7  11 18.7193 2.71249   2
   3  -7 -11 185.905 5.37964   2
  -3   7  11 203.195 6.68306   2
   2  -7 -11 21.8734 2.89917   2
  -2   7  11 15.7287 2.38031   2
   1  -7 -11 40.6510 3.48856   2
  -1   7  11 49.0458 3.95375   2
   0  -7 -11 148.959 5.48451   2
   0   7  11 150.600 7.58478   2
  -1  -7 -11 68.6081 3.96074   2
   1   7  11 60.6370 5.27224   2
  -2  -7 -11 14.9532 2.84668   2
   2   7  11 13.4141 3.59928   2
  -3  -7 -11 6.47216 3.58102   2
   3   7  11 2.49662 5.63471   2
  10  -8 -11 184.993 10.6818   2
   9  -8 -11 19.0410 3.28710   2
  -9   8  11 11.8556 3.38616   2
   8  -8 -11 75.0484 4.86286   2
  -8   8  11 92.8121 5.10390   2
   7  -8 -11 19.1088 2.57492   2
  -7   8  11 27.5020 2.65290   2
   6  -8 -11 152.303 5.26926   2
  -6   8  11 154.332 5.37820   2
   5  -8 -11 4.56498 2.63337   2
  -5   8  11 6.85409 2.26731   2
   4  -8 -11 49.7154 3.32802   2
  -4   8  11 55.3399 4.12557   2
   3  -8 -11 105.954 5.64415   2
  -3   8  11 120.735 5.89230   2
   2  -8 -11 175.292 7.93270   2
  -2   8  11 154.089 5.90030   2
   1  -8 -11 2.95414 2.29063   2
  -1   8  11 7.78026 2.50831   2
   0  -8 -11 11.2924 2.57544   2
   0   8  11 14.5289 3.17068   2
  -1  -8 -11 71.0457 4.78728   2
   1   8  11 63.6269 5.53928   2
  -2  -8 -11 212.916 8.27332   2
   2   8  11 204.549 12.1484   2
   9  -9 -11 46.5155 7.44966   2
   8  -9 -11 15.3161 3.98714   2
  -8   9  11 21.7672 3.15919   2
   7  -9 -11 231.734 8.44358   2
  -7   9  11 230.154 7.63472   2
   6  -9 -11 7.00512 2.47695   2
  -6   9  11 17.0651 2.87165   2
   5  -9 -11 122.163 7.43401   2
  -5   9  11 117.158 6.12304   2
   4  -9 -11 0.94004 2.30176   2
  -4   9  11 1.13854 2.45156   2
   3  -9 -11 37.0041 3.84087   2
  -3   9  11 42.5566 4.58612   2
   2  -9 -11 54.2048 4.73131   2
  -2   9  11 53.1473 4.37742   2
   1  -9 -11 224.433 8.76977   2
  -1   9  11 210.238 8.23797   2
   0  -9 -11 20.8655 3.50999   2
   0   9  11 20.7847 4.48530   2
  -1  -9 -11 41.8703 5.81462   2
   1   9  11 55.8807 11.3083   2
  -2  -9 -11 187.855 12.4277   2
   7 -10 -11 2.48241 5.23312   2
  -7  10  11 7.56540 3.50970   2
   6 -10 -11 158.646 11.5683   2
  -6  10  11 166.084 7.20467   2
   5 -10 -11 6.75721 2.70382   2
  -5  10  11 3.57886 2.32751   2
   4 -10 -11 188.436 7.67114   2
  -4  10  11 193.942 8.37000   2
   3 -10 -11 47.1396 4.21767   2
  -3  10  11 51.9990 4.86363   2
   2 -10 -11 88.0724 5.90657   2
  -2  10  11 90.2672 6.10762   2
   1 -10 -11 116.821 8.28653   2
  -1  10  11 111.462 8.65051   2
   0 -10 -11 40.3920 6.39422   2
   0  10  11 43.6509 7.55675   2
   1  10  11 3.49004 6.14998   2
  -5  11  11 41.4245 5.60980   2
  -4  11  11 72.3369 11.1922   2
 -11   0  12 481.932 24.1190  -1
   3   0  12 481.932 24.1190   2
 -10   0  12 704.059 23.3835  -1
   2   0  12 704.059 23.3835   2
  -9   0  12 419.871 9.54179  -1
   1   0  12 419.871 9.54179   2
  -8   0  12 1393.35 25.5414  -1
   0   0  12 1393.35 25.5414   2
  -7   0  12 81.8426 5.20301  -1
  -1   0  12 81.8426 5.20301   2
  -6   0  12 363.882 9.17194  -1
  -2   0  12 363.882 9.17194   2
  -5   0  12 493.464 10.2822  -1
  -3   0  12 493.464 10.2822   2
  -4   0  12 55.2562 2.82396  -1
  -4   0  12 55.2562 2.82396   2
  -3   0  12 685.513 15.0721  -1
  -5   0  12 685.513 15.0721   2
  -2   0  12 295.326 9.56589  -1
  -6   0  12 295.326 9.56589   2
  -1   0  12 91.1579 4.52676  -1
  -7   0  12 91.1579 4.52676   2
   0   0  12 1624.11 37.7850  -1
  -8   0  12 1624.11 37.7850   2
   1   0  12 294.203 8.64722  -1
  -9   0  12 294.203 8.64722   2
   2   0  12 714.750 20.3100  -1
 -10   0  12 714.750 20.3100   2
   3   0  12 492.014 12.9989  -1
 -11   0  12 492.014 12.9989   2
   4   0  12 26.0531 8.31570  -1
 -12   0  12 26.0531 8.31570   2
 -12   1  12 30.6625 6.36647  -1
  -4  -1 -12 30.6625 6.36647   2
  11  -1 -12 347.656 21.4395  -1
   3   1  12 347.656 21.4395   2
 -11   1  12 285.791 13.0257  -1
  -3  -1 -12 285.791 13.0257   2
  10  -1 -12 23.0240 8.50669  -1
   2   1  12 23.0240 8.50669   2
 -10   1  12 18.4796 2.29606  -1
  -2  -1 -12 18.4796 2.29606   2
   9  -1 -12 80.2249 6.62331  -1
   1   1  12 80.2249 6.62331   2
  -9   1  12 46.5374 3.16122  -1
  -1  -1 -12 46.5374 3.16122   2
   8  -1 -12 237.016 8.11025  -1
   0   1  12 237.016 8.11025   2
  -8   1  12 264.763 5.84928  -1
   0  -1 -12 264.763 5.84928   2
   7  -1 -12 58.5232 3.57908  -1
  -1   1  12 58.5232 3.57908   2
  -7   1  12 86.0299 3.09541  -1
   1  -1 -12 86.0299 3.09541   2
   6  -1 -12 299.032 7.28237  -1
  -2   1  12 299.032 7.28237   2
  -6   1  12 293.409 6.42002  -1
   2  -1 -12 293.409 6.42002   2
   5  -1 -12 1532.82 26.2828  -1
  -3   1  12 1532.82 26.2828   2
  -5   1  12 1487.80 24.3795  -1
   3  -1 -12 1487.80 24.3795   2
   4  -1 -12 162.164 4.19883  -1
  -4   1  12 162.164 4.19883   2
  -4   1  12 159.209 4.27363  -1
   4  -1 -12 159.209 4.27363   2
   3  -1 -12 1175.43 24.2445  -1
  -5   1  12 1175.43 24.2445   2
  -3   1  12 1197.07 28.7677  -1
   5  -1 -12 1197.07 28.7677   2
   2  -1 -12 310.400 9.61507  -1
  -6   1  12 310.400 9.61507   2
  -2   1  12 317.063 9.79733  -1
   6  -1 -12 317.063 9.79733   2
   1  -1 -12 108.388 4.92517  -1
  -7   1  12 108.388 4.92517   2
  -1   1  12 119.669 5.24358  -1
   7  -1 -12 119.669 5.24358   2
   0  -1 -12 165.709 5.85648  -1
  -8   1  12 165.709 5.85648   2
   0   1  12 182.974 5.79483  -1
   8  -1 -12 182.974 5.79483   2
  -1  -1 -12 77.4378 8.03904  -1
  -9   1  12 77.4378 8.03904   2
   1   1  12 49.2068 3.78496  -1
   9  -1 -12 49.2068 3.78496   2
  -2  -1 -12 24.9421 3.53744  -1
 -10   1  12 24.9421 3.53744   2
   2   1  12 25.1331 3.19981  -1
  10  -1 -12 25.1331 3.19981   2
  -3  -1 -12 369.311 10.5749  -1
 -11   1  12 369.311 10.5749   2
   3   1  12 337.797 15.1997  -1
  11  -1 -12 337.797 15.1997   2
  -4  -1 -12 16.9127 6.42370  -1
 -12   1  12 16.9127 6.42370   2
  11  -2 -12 49.1178 10.4694  -1
   3   2  12 49.1178 10.4694   2
 -11   2  12 54.7774 4.78498  -1
  -3  -2 -12 54.7774 4.78498   2
  10  -2 -12 93.1701 11.8988  -1
   2   2  12 93.1701 11.8988   2
 -10   2  12 121.866 6.35492  -1
  -2  -2 -12 121.866 6.35492   2
   9  -2 -12 141.544 6.93654  -1
   1   2  12 141.544 6.93654   2
  -9   2  12 122.324 5.02692  -1
  -1  -2 -12 122.324 5.02692   2
   8  -2 -12 204.278 9.84066  -1
   0   2  12 204.278 9.84066   2
  -8   2  12 216.400 4.91829  -1
   0  -2 -12 216.400 4.91829   2
   7  -2 -12 114.634 4.84929  -1
  -1   2  12 114.634 4.84929   2
  -7   2  12 101.556 3.51612  -1
   1  -2 -12 101.556 3.51612   2
   6  -2 -12 374.863 13.9304  -1
  -2   2  12 374.863 13.9304   2
  -6   2  12 353.244 7.41390  -1
   2  -2 -12 353.244 7.41390   2
   5  -2 -12 52.5669 3.95935  -1
  -3   2  12 52.5669 3.95935   2
  -5   2  12 51.9305 2.56660  -1
   3  -2 -12 51.9305 2.56660   2
   4  -2 -12 909.101 18.5087  -1
  -4   2  12 909.101 18.5087   2
  -4   2  12 916.051 14.5041  -1
   4  -2 -12 916.051 14.5041   2
   3  -2 -12 36.2879 2.30622  -1
  -5   2  12 36.2879 2.30622   2
  -3   2  12 36.7358 3.38327  -1
   5  -2 -12 36.7358 3.38327   2
   2  -2 -12 470.046 9.83253  -1
  -6   2  12 470.046 9.83253   2
  -2   2  12 435.127 17.6109  -1
   6  -2 -12 435.127 17.6109   2
   1  -2 -12 72.1789 4.47912  -1
  -7   2  12 72.1789 4.47912   2
  -1   2  12 71.0055 4.05243  -1
   7  -2 -12 71.0055 4.05243   2
   0  -2 -12 212.886 8.32478  -1
  -8   2  12 212.886 8.32478   2
   0   2  12 229.622 6.32603  -1
   8  -2 -12 229.622 6.32603   2
  -1  -2 -12 92.8075 8.53417  -1
  -9   2  12 92.8075 8.53417   2
   1   2  12 107.354 5.06070  -1
   9  -2 -12 107.354 5.06070   2
  -2  -2 -12 120.728 6.64304  -1
 -10   2  12 120.728 6.64304   2
   2   2  12 155.144 8.11338  -1
  10  -2 -12 155.144 8.11338   2
  -3  -2 -12 34.5455 6.83914  -1
 -11   2  12 34.5455 6.83914   2
   3   2  12 38.9512 5.20025  -1
  11  -2 -12 38.9512 5.20025   2
 -12   3  12 226.461 15.9994  -1
  -4  -3 -12 226.461 15.9994   2
  11  -3 -12 165.983 8.25427  -1
   3   3  12 165.983 8.25427   2
 -11   3  12 161.978 9.95888  -1
  -3  -3 -12 161.978 9.95888   2
  10  -3 -12 512.312 19.5014  -1
   2   3  12 512.312 19.5014   2
 -10   3  12 485.681 23.2758  -1
  -2  -3 -12 485.681 23.2758   2
   9  -3 -12 790.212 25.0627  -1
   1   3  12 790.212 25.0627   2
  -9   3  12 757.671 20.9341  -1
  -1  -3 -12 757.671 20.9341   2
   8  -3 -12 16.5278 4.13170  -1
   0   3  12 16.5278 4.13170   2
  -8   3  12 8.66471 2.07027  -1
   0  -3 -12 8.66471 2.07027   2
   7  -3 -12 971.488 29.6371  -1
  -1   3  12 971.488 29.6371   2
  -7   3  12 880.436 17.1638  -1
   1  -3 -12 880.436 17.1638   2
   6  -3 -12 358.307 14.5500  -1
  -2   3  12 358.307 14.5500   2
  -6   3  12 393.889 8.55304  -1
   2  -3 -12 393.889 8.55304   2
   5  -3 -12 225.240 10.3125  -1
  -3   3  12 225.240 10.3125   2
  -5   3  12 272.976 5.53090  -1
   3  -3 -12 272.976 5.53090   2
   4  -3 -12 127.882 4.96476  -1
  -4   3  12 127.882 4.96476   2
  -4   3  12 119.249 3.34718  -1
   4  -3 -12 119.249 3.34718   2
   3  -3 -12 325.305 13.2293  -1
  -5   3  12 325.305 13.2293   2
  -3   3  12 344.080 9.43273  -1
   5  -3 -12 344.080 9.43273   2
   2  -3 -12 711.225 17.9858  -1
  -6   3  12 711.225 17.9858   2
  -2   3  12 688.246 15.8620  -1
   6  -3 -12 688.246 15.8620   2
   1  -3 -12 699.803 17.9265  -1
  -7   3  12 699.803 17.9265   2
  -1   3  12 678.544 22.4730  -1
   7  -3 -12 678.544 22.4730   2
   0  -3 -12 8.42833 3.54308  -1
  -8   3  12 8.42833 3.54308   2
   0   3  12 9.14217 3.71979  -1
   8  -3 -12 9.14217 3.71979   2
  -1  -3 -12 933.673 23.3306  -1
  -9   3  12 933.673 23.3306   2
   1   3  12 937.299 31.8632  -1
   9  -3 -12 937.299 31.8632   2
   2   3  12 380.988 13.3737  -1
  10  -3 -12 380.988 13.3737   2
  -3  -3 -12 191.362 10.9032  -1
 -11   3  12 191.362 10.9032   2
   3   3  12 180.107 9.08442  -1
  11  -3 -12 180.107 9.08442   2
  12  -4 -12 245.107 18.9877  -1
   4   4  12 245.107 18.9877   2
 -12   4  12 204.307 14.3007  -1
  -4  -4 -12 204.307 14.3007   2
  11  -4 -12 39.0868 6.04240  -1
   3   4  12 39.0868 6.04240   2
 -11   4  12 59.2941 5.08163  -1
  -3  -4 -12 59.2941 5.08163   2
  10  -4 -12 105.452 9.44399  -1
   2   4  12 105.452 9.44399   2
 -10   4  12 88.5336 6.57350  -1
  -2  -4 -12 88.5336 6.57350   2
   9  -4 -12 40.6583 10.1036  -1
   1   4  12 40.6583 10.1036   2
  -9   4  12 51.2963 3.01046  -1
  -1  -4 -12 51.2963 3.01046   2
   8  -4 -12 5.05548 3.58923  -1
   0   4  12 5.05548 3.58923   2
  -8   4  12 44.0666 3.83283  -1
   0  -4 -12 44.0666 3.83283   2
   7  -4 -12 453.404 13.4826  -1
  -1   4  12 453.404 13.4826   2
  -7   4  12 446.512 12.8562  -1
   1  -4 -12 446.512 12.8562   2
   6  -4 -12 482.324 10.3962  -1
  -2   4  12 482.324 10.3962   2
  -6   4  12 506.935 9.71242  -1
   2  -4 -12 506.935 9.71242   2
   5  -4 -12 183.481 6.41602  -1
  -3   4  12 183.481 6.41602   2
  -5   4  12 168.667 4.18606  -1
   3  -4 -12 168.667 4.18606   2
   4  -4 -12 1130.29 20.3232  -1
  -4   4  12 1130.29 20.3232   2
  -4   4  12 1060.86 20.5038  -1
   4  -4 -12 1060.86 20.5038   2
   3  -4 -12 111.865 4.25860  -1
  -5   4  12 111.865 4.25860   2
  -3   4  12 114.647 4.56861  -1
   5  -4 -12 114.647 4.56861   2
   2  -4 -12 430.090 9.60102  -1
  -6   4  12 430.090 9.60102   2
  -2   4  12 478.189 10.5560  -1
   6  -4 -12 478.189 10.5560   2
   1  -4 -12 372.542 11.4976  -1
  -7   4  12 372.542 11.4976   2
  -1   4  12 360.662 10.2589  -1
   7  -4 -12 360.662 10.2589   2
   0   4  12 44.6097 4.60482  -1
   8  -4 -12 44.6097 4.60482   2
  -1  -4 -12 31.0273 6.26396  -1
  -9   4  12 31.0273 6.26396   2
   1   4  12 38.5799 5.00819  -1
   9  -4 -12 38.5799 5.00819   2
  -2  -4 -12 121.291 6.84771  -1
 -10   4  12 121.291 6.84771   2
   2   4  12 103.896 9.11017  -1
  10  -4 -12 103.896 9.11017   2
  -3  -4 -12 33.3803 7.81219  -1
 -11   4  12 33.3803 7.81219   2
   3   4  12 64.8826 7.55305  -1
  11  -4 -12 64.8826 7.55305   2
 -11   5  12 143.255 7.69320  -1
  -3  -5 -12 143.255 7.69320   2
  10  -5 -12 122.741 12.9427  -1
   2   5  12 122.741 12.9427   2
 -10   5  12 82.4832 5.21729  -1
  -2  -5 -12 82.4832 5.21729   2
   9  -5 -12 215.840 9.19987  -1
   1   5  12 215.840 9.19987   2
  -9   5  12 195.442 7.85983  -1
  -1  -5 -12 195.442 7.85983   2
   8  -5 -12 78.7120 5.72284  -1
   0   5  12 78.7120 5.72284   2
  -8   5  12 68.4360 3.94318  -1
   0  -5 -12 68.4360 3.94318   2
   7  -5 -12 119.775 6.17992  -1
  -1   5  12 119.775 6.17992   2
  -7   5  12 86.3291 4.71246  -1
   1  -5 -12 86.3291 4.71246   2
   6  -5 -12 15.2584 3.75902  -1
  -2   5  12 15.2584 3.75902   2
  -6   5  12 19.0644 2.91171  -1
   2  -5 -12 19.0644 2.91171   2
   5  -5 -12 568.359 13.7550  -1
  -3   5  12 568.359 13.7550   2
  -5   5  12 579.621 9.88631  -1
   3  -5 -12 579.621 9.88631   2
   4  -5 -12 189.538 6.79003  -1
  -4   5  12 189.538 6.79003   2
  -4   5  12 196.164 5.21467  -1
   4  -5 -12 196.164 5.21467   2
   3  -5 -12 359.282 8.48890  -1
  -5   5  12 359.282 8.48890   2
  -3   5  12 359.832 8.72656  -1
   5  -5 -12 359.832 8.72656   2
   2  -5 -12 19.9305 2.62236  -1
  -6   5  12 19.9305 2.62236   2
  -2   5  12 18.5958 2.62711  -1
   6  -5 -12 18.5958 2.62711   2
   1  -5 -12 155.257 5.69391  -1
  -7   5  12 155.257 5.69391   2
  -1   5  12 124.930 7.66151  -1
   7  -5 -12 124.930 7.66151   2
   0  -5 -12 45.2696 6.53640  -1
  -8   5  12 45.2696 6.53640   2
   0   5  12 35.9991 3.81441  -1
   8  -5 -12 35.9991 3.81441   2
  -1  -5 -12 249.281 14.9786  -1
  -9   5  12 249.281 14.9786   2
   1   5  12 240.224 13.3256  -1
   9  -5 -12 240.224 13.3256   2
  -2  -5 -12 76.0745 7.78762  -1
 -10   5  12 76.0745 7.78762   2
   2   5  12 57.4479 7.09942  -1
  10  -5 -12 57.4479 7.09942   2
  10  -6 -12 293.931 19.3663  -1
   2   6  12 293.931 19.3663   2
 -10   6  12 263.240 16.6495  -1
  -2  -6 -12 263.240 16.6495   2
   9  -6 -12 284.751 13.3047  -1
   1   6  12 284.751 13.3047   2
  -9   6  12 296.941 8.37579  -1
  -1  -6 -12 296.941 8.37579   2
   8  -6 -12 532.475 19.7481  -1
   0   6  12 532.475 19.7481   2
  -8   6  12 536.182 13.1543  -1
   0  -6 -12 536.182 13.1543   2
   7  -6 -12 70.3597 6.23257  -1
  -1   6  12 70.3597 6.23257   2
  -7   6  12 77.2751 3.97056  -1
   1  -6 -12 77.2751 3.97056   2
   6  -6 -12 73.4343 6.49042  -1
  -2   6  12 73.4343 6.49042   2
  -6   6  12 64.5663 3.91815  -1
   2  -6 -12 64.5663 3.91815   2
   5  -6 -12 130.995 6.43186  -1
  -3   6  12 130.995 6.43186   2
  -5   6  12 132.163 6.48646  -1
   3  -6 -12 132.163 6.48646   2
   4  -6 -12 39.2685 7.43060  -1
  -4   6  12 39.2685 7.43060   2
  -4   6  12 70.4193 3.77672  -1
   4  -6 -12 70.4193 3.77672   2
   3  -6 -12 161.358 6.92194  -1
  -5   6  12 161.358 6.92194   2
  -3   6  12 173.951 5.95952  -1
   5  -6 -12 173.951 5.95952   2
   2  -6 -12 87.0724 5.67763  -1
  -6   6  12 87.0724 5.67763   2
  -2   6  12 68.5527 7.33998  -1
   6  -6 -12 68.5527 7.33998   2
   1  -6 -12 97.3467 4.63126  -1
  -7   6  12 97.3467 4.63126   2
  -1   6  12 110.430 5.43952  -1
   7  -6 -12 110.430 5.43952   2
   0   6  12 735.258 19.6089  -1
   8  -6 -12 735.258 19.6089   2
  -1  -6 -12 207.337 11.4133  -1
  -9   6  12 207.337 11.4133   2
   1   6  12 214.013 9.14898  -1
   9  -6 -12 214.013 9.14898   2
  -2  -6 -12 282.729 16.9397  -1
 -10   6  12 282.729 16.9397   2
   2   6  12 249.859 16.4896  -1
  10  -6 -12 249.859 16.4896   2
   9  -7 -12 28.0888 7.03930  -1
   1   7  12 28.0888 7.03930   2
  -9   7  12 43.2952 7.95555  -1
  -1  -7 -12 43.2952 7.95555   2
   8  -7 -12 255.088 12.9491  -1
   0   7  12 255.088 12.9491   2
  -8   7  12 242.731 11.8251  -1
   0  -7 -12 242.731 11.8251   2
   7  -7 -12 28.4269 4.19444  -1
  -1   7  12 28.4269 4.19444   2
  -7   7  12 24.2807 4.59305  -1
   1  -7 -12 24.2807 4.59305   2
   6  -7 -12 300.337 9.31979  -1
  -2   7  12 300.337 9.31979   2
  -6   7  12 291.910 10.5042  -1
   2  -7 -12 291.910 10.5042   2
   5  -7 -12 602.826 14.4951  -1
  -3   7  12 602.826 14.4951   2
  -5   7  12 540.214 22.0775  -1
   3  -7 -12 540.214 22.0775   2
   4  -7 -12 38.0066 3.96736  -1
  -4   7  12 38.0066 3.96736   2
  -4   7  12 34.0745 6.53933  -1
   4  -7 -12 34.0745 6.53933   2
   3  -7 -12 529.058 13.0143  -1
  -5   7  12 529.058 13.0143   2
  -3   7  12 503.269 14.5728  -1
   5  -7 -12 503.269 14.5728   2
   2  -7 -12 288.447 8.65588  -1
  -6   7  12 288.447 8.65588   2
  -2   7  12 277.878 10.7488  -1
   6  -7 -12 277.878 10.7488   2
   1  -7 -12 56.9342 7.04273  -1
  -7   7  12 56.9342 7.04273   2
  -1   7  12 45.5481 5.34978  -1
   7  -7 -12 45.5481 5.34978   2
   0  -7 -12 142.567 7.18076  -1
  -8   7  12 142.567 7.18076   2
   0   7  12 144.323 7.82013  -1
   8  -7 -12 144.323 7.82013   2
   1   7  12 72.7035 10.2658  -1
   9  -7 -12 72.7035 10.2658   2
   2   7  12 88.0392 11.2932  -1
  10  -7 -12 88.0392 11.2932   2
   8  -8 -12 182.209 10.0453  -1
   0   8  12 182.209 10.0453   2
  -8   8  12 193.619 14.1167  -1
   0  -8 -12 193.619 14.1167   2
   7  -8 -12 50.7519 5.83760  -1
  -1   8  12 50.7519 5.83760   2
  -7   8  12 55.4946 5.08194  -1
   1  -8 -12 55.4946 5.08194   2
   6  -8 -12 82.4708 4.76236  -1
  -2   8  12 82.4708 4.76236   2
  -6   8  12 93.5082 6.29650  -1
   2  -8 -12 93.5082 6.29650   2
   5  -8 -12 22.5438 6.84933  -1
  -3   8  12 22.5438 6.84933   2
  -5   8  12 26.7844 5.39004  -1
   3  -8 -12 26.7844 5.39004   2
   4  -8 -12 45.9442 5.80371  -1
  -4   8  12 45.9442 5.80371   2
  -4   8  12 31.5426 4.62552  -1
   4  -8 -12 31.5426 4.62552   2
   3  -8 -12 30.2855 4.91782  -1
  -5   8  12 30.2855 4.91782   2
  -3   8  12 29.2301 7.07113  -1
   5  -8 -12 29.2301 7.07113   2
   2  -8 -12 76.8961 4.78013  -1
  -6   8  12 76.8961 4.78013   2
  -2   8  12 72.7396 11.2812  -1
   6  -8 -12 72.7396 11.2812   2
   1  -8 -12 62.9937 3.99176  -1
  -7   8  12 62.9937 3.99176   2
  -1   8  12 75.8092 4.70837  -1
   7  -8 -12 75.8092 4.70837   2
   0   8  12 116.883 9.57391  -1
   8  -8 -12 116.883 9.57391   2
   1   8  12 50.6389 8.12064  -1
   9  -8 -12 50.6389 8.12064   2
  -8   9  12 2.25081 5.29750  -1
   0  -9 -12 2.25081 5.29750   2
   7  -9 -12 176.232 16.1041  -1
  -1   9  12 176.232 16.1041   2
  -7   9  12 133.293 8.64083  -1
   1  -9 -12 133.293 8.64083   2
   6  -9 -12 157.144 9.92171  -1
  -2   9  12 157.144 9.92171   2
  -6   9  12 176.764 9.91578  -1
   2  -9 -12 176.764 9.91578   2
   5  -9 -12 91.5302 11.5901  -1
  -3   9  12 91.5302 11.5901   2
  -5   9  12 110.326 6.84000  -1
   3  -9 -12 110.326 6.84000   2
   4  -9 -12 33.2151 6.45016  -1
  -4   9  12 33.2151 6.45016   2
  -4   9  12 19.8212 3.98518  -1
   4  -9 -12 19.8212 3.98518   2
   3  -9 -12 103.150 7.94196  -1
  -5   9  12 103.150 7.94196   2
  -3   9  12 142.498 6.60621  -1
   5  -9 -12 142.498 6.60621   2
   2  -9 -12 270.068 11.8664  -1
  -6   9  12 270.068 11.8664   2
  -2   9  12 300.952 19.3540  -1
   6  -9 -12 300.952 19.3540   2
   1  -9 -12 109.431 7.83398  -1
  -7   9  12 109.431 7.83398   2
   3 -10 -12 69.8593 6.75453  -1
  -5  10  12 69.8593 6.75453   2
   2 -10 -12 62.9402 6.01040  -1
  -6  10  12 62.9402 6.01040   2
 -10   0  13 4.56898 2.34224   2
  -9   0  13 21.1421 3.90991   2
  -8   0  13 0.84289 2.21385   2
  -7   0  13 23.4752 2.81497   2
  -6   0  13 0.26366 1.74995   2
  -5   0  13 -0.2250 1.53653   2
  -4   0  13 0.49659 1.05421   2
  -3   0  13 0.84733 1.10042   2
  -2   0  13 0.01683 1.12981   2
  -1   0  13 4.83855 2.66231   2
   0   0  13 3.88492 3.74445   2
   1   0  13 3.06649 2.95483   2
   2   0  13 -0.6553 3.44568   2
 -11   1  13 8.13664 4.05092   2
  10  -1 -13 16.0896 4.02867   2
 -10   1  13 24.1383 3.25717   2
   9  -1 -13 25.6877 2.87992   2
  -9   1  13 29.5492 3.37486   2
   8  -1 -13 6.33665 2.19483   2
  -8   1  13 8.03495 2.58089   2
   7  -1 -13 56.3698 3.77310   2
  -7   1  13 52.6595 4.47831   2
   6  -1 -13 89.6701 5.64766   2
  -6   1  13 68.1618 4.22885   2
   5  -1 -13 12.6446 2.06856   2
  -5   1  13 11.7179 2.28915   2
   4  -1 -13 18.2424 1.70835   2
  -4   1  13 12.1890 1.43790   2
   3  -1 -13 10.0491 1.54073   2
  -3   1  13 12.0781 2.03501   2
   2  -1 -13 64.1279 2.82517   2
  -2   1  13 74.9569 3.83454   2
   1  -1 -13 58.6846 2.79142   2
  -1   1  13 53.8535 5.08533   2
   0  -1 -13 1.99185 1.50884   2
   0   1  13 1.93056 2.67597   2
  -1  -1 -13 6.76530 5.30760   2
   1   1  13 12.9577 2.96127   2
  -2  -1 -13 38.1041 4.73029   2
   2   1  13 40.2468 4.43632   2
  -3  -1 -13 76.5914 9.84096   2
  10  -2 -13 47.8130 5.23970   2
 -10   2  13 40.2276 4.81915   2
   9  -2 -13 29.6845 4.88823   2
  -9   2  13 52.8833 4.82588   2
   8  -2 -13 64.8801 5.89264   2
  -8   2  13 61.3437 4.70943   2
   7  -2 -13 43.6297 4.70257   2
  -7   2  13 31.2596 3.65250   2
   6  -2 -13 2.36882 2.08581   2
  -6   2  13 4.02956 2.29913   2
   5  -2 -13 24.3605 2.30360   2
  -5   2  13 30.8254 2.47126   2
   4  -2 -13 33.7281 3.07549   2
  -4   2  13 33.3989 2.67613   2
   3  -2 -13 4.65607 1.30874   2
  -3   2  13 5.28647 1.78760   2
   2  -2 -13 9.26059 1.51312   2
  -2   2  13 8.23638 1.83148   2
   1  -2 -13 21.7424 1.83076   2
  -1   2  13 21.8894 3.69494   2
   0  -2 -13 1.25177 1.94092   2
   0   2  13 1.36180 2.71576   2
  -1  -2 -13 2.00252 2.10669   2
   1   2  13 3.02747 2.54294   2
  -2  -2 -13 12.9454 4.05197   2
   2   2  13 13.2195 3.95262   2
  -3  -2 -13 20.6535 6.61494   2
 -11   3  13 9.81981 5.19727   2
  10  -3 -13 59.0886 5.59356   2
 -10   3  13 63.1496 5.16378   2
   9  -3 -13 14.8190 3.65830   2
  -9   3  13 8.93867 3.80293   2
   8  -3 -13 14.7587 3.43623   2
  -8   3  13 13.8206 2.98710   2
   7  -3 -13 1.13556 2.16728   2
  -7   3  13 -0.2331 2.57747   2
   6  -3 -13 28.1870 3.85415   2
  -6   3  13 32.3484 3.56235   2
   5  -3 -13 63.5835 3.73074   2
  -5   3  13 56.6268 3.38390   2
   4  -3 -13 8.52609 1.65542   2
  -4   3  13 6.58442 1.85053   2
   3  -3 -13 70.0533 3.14817   2
  -3   3  13 68.8038 3.92534   2
   2  -3 -13 8.91140 1.60728   2
  -2   3  13 10.3015 4.96550   2
   1  -3 -13 33.6681 2.51652   2
  -1   3  13 32.8237 4.38268   2
   0  -3 -13 0.70483 1.80559   2
   0   3  13 1.08994 3.06934   2
  -1  -3 -13 0.31957 2.03471   2
   1   3  13 2.19547 3.30485   2
  -2  -3 -13 -2.1587 3.22106   2
   2   3  13 2.02280 3.32172   2
  10  -4 -13 147.224 9.57221   2
 -10   4  13 153.079 11.7692   2
   9  -4 -13 112.292 5.91640   2
  -9   4  13 85.5513 5.99274   2
   8  -4 -13 11.0496 3.33349   2
  -8   4  13 4.14011 3.17291   2
   7  -4 -13 11.7106 2.64934   2
  -7   4  13 18.6940 3.24689   2
   6  -4 -13 98.5332 4.94929   2
  -6   4  13 95.4558 5.87261   2
   5  -4 -13 32.4506 2.91005   2
  -5   4  13 22.9975 2.82069   2
   4  -4 -13 21.8962 2.10401   2
  -4   4  13 22.8050 2.65304   2
   3  -4 -13 1.98973 1.86104   2
  -3   4  13 2.17409 1.95622   2
   2  -4 -13 9.71500 1.80253   2
  -2   4  13 16.1086 3.57145   2
   1  -4 -13 47.9660 3.18730   2
  -1   4  13 48.7740 5.82839   2
   0  -4 -13 87.6280 4.87450   2
   0   4  13 98.4094 7.35776   2
  -1  -4 -13 4.22223 2.27828   2
   1   4  13 3.51132 3.65194   2
  -2  -4 -13 25.3260 4.43781   2
  10  -5 -13 7.21916 5.23377   2
 -10   5  13 15.0147 8.03700   2
   9  -5 -13 61.1476 5.34732   2
  -9   5  13 60.4521 5.15065   2
   8  -5 -13 13.2358 2.76296   2
  -8   5  13 11.4130 3.19479   2
   7  -5 -13 65.8829 4.50618   2
  -7   5  13 63.8617 5.67111   2
   6  -5 -13 31.8615 2.87317   2
  -6   5  13 21.5515 3.34526   2
   5  -5 -13 38.9349 3.14207   2
  -5   5  13 41.8779 3.00855   2
   4  -5 -13 4.58300 1.71445   2
  -4   5  13 6.79584 2.23903   2
   3  -5 -13 46.2781 3.82263   2
  -3   5  13 46.6082 3.71239   2
   2  -5 -13 5.62159 2.18420   2
  -2   5  13 5.56959 2.64506   2
   1  -5 -13 0.66667 1.75470   2
  -1   5  13 7.02875 3.82536   2
   0  -5 -13 43.5269 3.59860   2
   0   5  13 47.8275 5.97719   2
  -1  -5 -13 221.221 10.2357   2
   1   5  13 222.429 11.4827   2
  -2  -5 -13 19.5075 6.79024   2
  10  -6 -13 13.2573 9.14414   2
   9  -6 -13 18.3895 4.21647   2
  -9   6  13 29.7114 8.35592   2
   8  -6 -13 39.0735 3.67335   2
  -8   6  13 45.0014 4.48434   2
   7  -6 -13 3.69047 2.25162   2
  -7   6  13 14.3668 2.83866   2
   6  -6 -13 58.5178 4.50765   2
  -6   6  13 68.3636 4.73318   2
   5  -6 -13 -0.0230 1.83680   2
  -5   6  13 3.98818 2.12266   2
   4  -6 -13 51.7431 4.69102   2
  -4   6  13 56.7928 3.98682   2
   3  -6 -13 3.03087 2.40871   2
  -3   6  13 3.52999 2.34766   2
   2  -6 -13 194.291 8.52750   2
  -2   6  13 196.837 12.9783   2
   1  -6 -13 28.2009 3.73710   2
  -1   6  13 27.0658 3.22976   2
   0  -6 -13 22.2289 4.32035   2
   0   6  13 17.5274 3.82357   2
  -1  -6 -13 25.9258 4.44179   2
   9  -7 -13 10.5641 5.66170   2
   8  -7 -13 18.5139 5.89187   2
   7  -7 -13 95.8348 6.10860   2
  -7   7  13 82.5893 6.97977   2
   6  -7 -13 37.0801 3.83433   2
  -6   7  13 26.3599 3.72377   2
   5  -7 -13 48.4216 5.71045   2
  -5   7  13 64.3268 4.38562   2
   4  -7 -13 2.66089 3.23339   2
  -4   7  13 1.91689 2.57865   2
   3  -7 -13 138.183 8.83831   2
  -3   7  13 140.632 6.40208   2
   2  -7 -13 20.8281 3.22136   2
  -2   7  13 14.8017 3.42788   2
   1  -7 -13 138.742 7.62176   2
  -1   7  13 140.131 7.38996   2
   0   7  13 2.64682 4.71805   2
  -6   8  13 44.5024 7.75323   2
   5  -8 -13 1.53581 3.08333   2
  -5   8  13 5.06005 3.48148   2
   4  -8 -13 63.8623 5.34055   2
  -4   8  13 71.8391 6.73405   2
   3  -8 -13 0.78989 2.49459   2
  -3   8  13 3.80426 3.01834   2
   2  -8 -13 19.8632 4.22528   2
  -2   8  13 24.3768 5.84027   2
   1  -8 -13 3.31531 3.21258   2
  -6   9  13 21.0490 7.03963   2
  -5   9  13 142.630 11.3265   2
  -4   9  13 29.5975 7.03717   2
  -9   0  14 109.606 7.21446   2
  -8   0  14 64.4324 4.78266   2
  -7   0  14 4.38493 2.16882   2
  -6   0  14 390.993 11.0893   2
  -5   0  14 160.286 6.08115   2
  -4   0  14 23.3951 2.77451   2
  -3   0  14 97.8731 5.86843   2
  -2   0  14 472.667 24.2966   2
  -1   0  14 30.4448 4.07663   2
   0   0  14 31.0706 6.22100   2
   1   0  14 5.05121 4.73780   2
   9  -1 -14 87.7999 6.58827   2
  -9   1  14 81.0258 5.44476   2
   8  -1 -14 40.0454 4.93972   2
  -8   1  14 34.6392 3.73052   2
   7  -1 -14 162.524 12.0782   2
  -7   1  14 153.329 6.69162   2
   6  -1 -14 31.4762 2.84877   2
  -6   1  14 35.6472 4.22952   2
   5  -1 -14 136.451 4.69364   2
  -5   1  14 149.838 6.76523   2
   4  -1 -14 6.67829 1.65945   2
  -4   1  14 11.7399 3.33713   2
   3  -1 -14 167.393 7.77980   2
  -3   1  14 162.724 6.43577   2
   2  -1 -14 0.18929 2.09930   2
  -2   1  14 2.92598 2.32283   2
   1  -1 -14 202.287 12.9015   2
  -1   1  14 207.195 9.79440   2
   0  -1 -14 0.54496 3.60927   2
   0   1  14 4.42643 4.09708   2
  -1  -1 -14 105.899 10.5509   2
   1   1  14 101.394 10.8805   2
 -10   2  14 58.7158 10.1870   2
   9  -2 -14 14.4228 3.85771   2
  -9   2  14 24.5544 3.56625   2
   8  -2 -14 184.297 8.27518   2
  -8   2  14 190.888 10.4824   2
   7  -2 -14 100.340 5.42783   2
  -7   2  14 100.283 5.99583   2
   6  -2 -14 40.0828 3.44446   2
  -6   2  14 44.0884 4.07786   2
   5  -2 -14 4.21771 1.77844   2
  -5   2  14 4.16760 2.45300   2
   4  -2 -14 289.320 7.24254   2
  -4   2  14 280.088 13.9294   2
   3  -2 -14 34.7005 2.64385   2
  -3   2  14 37.4165 4.33173   2
   2  -2 -14 109.341 6.58570   2
  -2   2  14 98.7374 8.58840   2
   1  -2 -14 3.88536 2.85038   2
  -1   2  14 3.85650 3.16951   2
   0  -2 -14 202.931 10.6858   2
   0   2  14 221.848 12.4372   2
  -1  -2 -14 11.2161 5.17642   2
   1   2  14 12.1107 7.50861   2
 -10   3  14 27.4097 5.88665   2
   9  -3 -14 175.051 9.97504   2
  -9   3  14 186.124 18.0256   2
   8  -3 -14 98.2355 6.60654   2
  -8   3  14 95.3885 5.91184   2
   7  -3 -14 80.2543 4.90088   2
  -7   3  14 81.2515 6.38742   2
   6  -3 -14 31.9954 2.95169   2
  -6   3  14 39.3592 4.60905   2
   5  -3 -14 118.958 4.63035   2
  -5   3  14 118.170 6.61038   2
   4  -3 -14 5.76990 1.69595   2
  -4   3  14 4.42000 2.58296   2
   3  -3 -14 248.979 8.41413   2
  -3   3  14 250.849 10.8502   2
   2  -3 -14 2.05663 1.78455   2
  -2   3  14 2.12440 2.55422   2
   1  -3 -14 55.7842 4.71376   2
  -1   3  14 61.8651 6.29557   2
   0  -3 -14 7.92095 3.88908   2
   0   3  14 8.26523 3.33092   2
  -1  -3 -14 70.9643 9.18241   2
   1   3  14 91.4109 16.6415   2
   9  -4 -14 16.5826 4.04392   2
  -9   4  14 10.6879 4.73906   2
   8  -4 -14 176.380 9.79494   2
  -8   4  14 183.171 8.63879   2
   7  -4 -14 63.2787 4.38046   2
  -7   4  14 66.9712 5.21924   2
   6  -4 -14 54.0466 3.72303   2
  -6   4  14 61.9831 4.86277   2
   5  -4 -14 2.28081 1.91958   2
  -5   4  14 1.37798 3.24848   2
   4  -4 -14 152.562 6.75688   2
  -4   4  14 138.177 8.82899   2
   3  -4 -14 29.0663 3.13698   2
  -3   4  14 27.5542 4.36521   2
   2  -4 -14 83.0163 5.48106   2
  -2   4  14 73.8599 12.2114   2
   1  -4 -14 -0.9661 2.18633   2
  -1   4  14 1.32509 3.10443   2
   0   4  14 182.654 10.5614   2
   9  -5 -14 7.83635 5.26386   2
   8  -5 -14 6.64484 3.50440   2
  -8   5  14 -1.2611 3.65298   2
   7  -5 -14 130.020 6.81423   2
  -7   5  14 113.666 8.49802   2
   6  -5 -14 36.3452 3.23012   2
  -6   5  14 36.3780 4.11540   2
   5  -5 -14 92.2183 4.49764   2
  -5   5  14 88.5423 7.16330   2
   4  -5 -14 11.9020 2.66256   2
  -4   5  14 11.5754 2.82908   2
   3  -5 -14 139.109 5.97350   2
  -3   5  14 123.475 8.75951   2
   2  -5 -14 8.57762 2.62070   2
  -2   5  14 7.60297 3.21892   2
   1  -5 -14 145.991 9.34717   2
  -1   5  14 144.165 11.6530   2
   0  -5 -14 0.18708 3.63739   2
   8  -6 -14 25.2107 5.88302   2
   7  -6 -14 -1.3567 3.95845   2
   6  -6 -14 206.521 10.0449   2
  -6   6  14 224.683 12.7390   2
   5  -6 -14 59.2161 5.18012   2
  -5   6  14 66.2366 6.14402   2
   4  -6 -14 5.66170 2.62290   2
  -4   6  14 17.9471 5.60200   2
   3  -6 -14 107.456 6.01805   2
  -3   6  14 105.762 7.41007   2
   2  -6 -14 220.043 8.49192   2
  -2   6  14 201.988 13.9720   2
   1  -6 -14 17.6253 6.02628   2
  -5   7  14 42.4232 7.82693   2
  -4   7  14 5.91139 5.02043   2
  -3   7  14 48.9519 7.23888   2
  -7   0  15 1.87989 4.05416  -1
  -3   0  15 1.87989 4.05416   2
  -6   0  15 1.14293 7.05497  -1
  -4   0  15 1.14293 7.05497   2
  -5   0  15 7.62528 7.27227  -1
  -5   0  15 7.62528 7.27227   2
  -4   0  15 0.79021 4.20007  -1
  -6   0  15 0.79021 4.20007   2
  -3   0  15 8.80466 3.65211  -1
  -7   0  15 8.80466 3.65211   2
   7  -1 -15 89.5749 11.5528  -1
  -3   1  15 89.5749 11.5528   2
   5  -1 -15 -0.2773 5.45525  -1
  -5   1  15 -0.2773 5.45525   2
  -5   1  15 1.90078 3.91454  -1
   5  -1 -15 1.90078 3.91454   2
   4  -1 -15 131.139 7.75418  -1
  -6   1  15 131.139 7.75418   2
  -4   1  15 153.848 10.0411  -1
   6  -1 -15 153.848 10.0411   2
   3  -1 -15 72.7868 6.19863  -1
  -7   1  15 72.7868 6.19863   2
  -3   1  15 71.6796 6.41341  -1
   7  -1 -15 71.6796 6.41341   2
  -2   1  15 86.2309 9.20355  -1
   8  -1 -15 86.2309 9.20355   2
   9  -2 -15 102.166 12.4439  -1
  -1   2  15 102.166 12.4439   2
   8  -2 -15 183.648 15.1471  -1
  -2   2  15 183.648 15.1471   2
   7  -2 -15 -6.1244 6.73306  -1
  -3   2  15 -6.1244 6.73306   2
  -7   2  15 -4.2832 6.64776  -1
   3  -2 -15 -4.2832 6.64776   2
  -6   2  15 79.1669 10.8805  -1
   4  -2 -15 79.1669 10.8805   2
   5  -2 -15 152.624 14.2918  -1
  -5   2  15 152.624 14.2918   2
  -5   2  15 131.480 8.44387  -1
   5  -2 -15 131.480 8.44387   2
   4  -2 -15 129.125 13.6353  -1
  -6   2  15 129.125 13.6353   2
  -4   2  15 135.361 10.8774  -1
   6  -2 -15 135.361 10.8774   2
  -3   2  15 2.42474 4.41095  -1
   7  -2 -15 2.42474 4.41095   2
  -2   2  15 160.749 14.6170  -1
   8  -2 -15 160.749 14.6170   2
  -7   3  15 60.4570 9.18327  -1
   3  -3 -15 60.4570 9.18327   2
   6  -3 -15 34.9795 9.15027  -1
  -4   3  15 34.9795 9.15027   2
  -6   3  15 34.1125 7.88271  -1
   4  -3 -15 34.1125 7.88271   2
   5  -3 -15 7.22037 8.45851  -1
  -5   3  15 7.22037 8.45851   2
  -5   3  15 14.1700 4.85176  -1
   5  -3 -15 14.1700 4.85176   2
   4  -3 -15 31.9416 6.80297  -1
  -6   3  15 31.9416 6.80297   2
  -4   3  15 39.1298 7.75174  -1
   6  -3 -15 39.1298 7.75174   2
   3  -3 -15 29.0163 6.87152  -1
  -7   3  15 29.0163 6.87152   2
  -3   3  15 43.6212 5.86415  -1
   7  -3 -15 43.6212 5.86415   2
  -2   3  15 15.9509 5.57307  -1
   8  -3 -15 15.9509 5.57307   2
  -6   4  15 67.1199 8.47671  -1
   4  -4 -15 67.1199 8.47671   2
  -5   4  15 119.018 10.6045  -1
   5  -4 -15 119.018 10.6045   2
  -3   4  15 74.7878 5.98333  -1
   7  -4 -15 74.7878 5.98333   2
   0   0   0    0.00    0.00   0
;
_shelx_hkl_checksum              62122
loop_
_space_group_symop_operation_xyz
'x, y, z'
'-x, y+1/2, -z'
loop_
_atom_site_type_symbol
_atom_site_label
_atom_site_fract_x
_atom_site_fract_y
_atom_site_fract_z
_atom_site_U_iso_or_equiv
_atom_site_adp_type
_atom_site_calc_flag
_atom_site_refinement_flags_adp
_atom_site_refinement_flags_occupancy
_atom_site_refinement_flags_posn
_atom_site_occupancy
_atom_site_disorder_assembly
_atom_site_disorder_group
Sr Sr1 0.24068(6) 0.79681(5) 0.03384(6) 0.00770(15) Uani d . P . 0.986(5) . .
Eu Eu1 0.24068(6) 0.79681(5) 0.03384(6) 0.00770(15) Uani d . P . 0.014(5) . .
Sr Sr2 0.76830(6) 0.33257(5) 0.46567(6) 0.00730(14) Uani d . P . 0.979(5) . .
Eu Eu2 0.76830(6) 0.33257(5) 0.46567(6) 0.00730(14) Uani d . P . 0.021(5) . .
Si Si1 0.12209(19) 0.16595(19) 0.3737(2) 0.0042(2) Uani d . P . 0.8 . .
Al Al1 0.12209(19) 0.16595(19) 0.3737(2) 0.0042(2) Uani d . P . 0.2 . .
Si Si2 0.13342(19) 0.15911(19) 0.7114(2) 0.0041(2) Uani d . P . 0.8 . .
Al Al2 0.13342(19) 0.15911(19) 0.7114(2) 0.0041(2) Uani d . P . 0.2 . .
Si Si3 0.13533(19) 0.45266(18) 0.8756(2) 0.0040(2) Uani d . P . 0.8 . .
Al Al3 0.13533(19) 0.45266(18) 0.8756(2) 0.0040(2) Uani d . P . 0.2 . .
Si Si4 0.13617(19) 0.15278(19) 0.0466(2) 0.0042(2) Uani d . P . 0.8 . .
Al Al4 0.13617(19) 0.15278(19) 0.0466(2) 0.0042(2) Uani d . P . 0.2 . .
Si Si5 0.1454(2) 0.45651(19) 0.2150(2) 0.0047(2) Uani d . P . 0.8 . .
Al Al5 0.1454(2) 0.45651(19) 0.2150(2) 0.0047(2) Uani d . P . 0.2 . .
Si Si6 0.14956(19) 0.46442(18) 0.5525(2) 0.0037(2) Uani d . P . 0.8 . .
Al Al6 0.14956(19) 0.46442(18) 0.5525(2) 0.0037(2) Uani d . P . 0.2 . .
Si Si7 0.4388(2) 0.00024(18) 0.3390(2) 0.0034(3) Uani d . P . 0.8 . .
Al Al7 0.4388(2) 0.00024(18) 0.3390(2) 0.0034(3) Uani d . P . 0.2 . .
Si Si8 0.4837(2) 0.15673(18) 0.63932(19) 0.0037(2) Uani d . P . 0.8 . .
Al Al8 0.4837(2) 0.15673(18) 0.63932(19) 0.0037(2) Uani d . P . 0.2 . .
Si Si9 0.4871(2) 0.47947(17) 0.14065(19) 0.0036(3) Uani d . P . 0.8 . .
Al Al9 0.4871(2) 0.47947(17) 0.14065(19) 0.0036(3) Uani d . P . 0.2 . .
Si Si10 0.5580(2) 0.13389(17) 0.1629(2) 0.0038(3) Uani d . P . 0.8 . .
Al Al10 0.5580(2) 0.13389(17) 0.1629(2) 0.0038(3) Uani d . P . 0.2 . .
N N1 0.0176(5) 0.1011(5) 0.1715(5) 0.0083(6) Uani d . . . 1.0 . .
N N2 0.0202(5) 0.0994(4) 0.5074(5) 0.0072(6) Uani d . . . 1.0 . .
N N3 0.0362(6) 0.0871(5) 0.8459(6) 0.0098(6) Uani d . . . 1.0 . .
N N4 0.1044(5) 0.3541(4) 0.6983(5) 0.0076(6) Uani d . . . 1.0 . .
N N5 0.1160(5) 0.3476(5) 0.0358(5) 0.0080(6) Uani d . . . 1.0 . .
N N6 0.1239(5) 0.3595(4) 0.3811(5) 0.0086(6) Uani d . . . 1.0 . .
N N7 0.3433(6) 0.0962(6) 0.4508(6) 0.0067(7) Uani d . . . 1.0 . .
N N8 0.3468(6) 0.0708(6) 0.1391(6) 0.0062(8) Uani d . . . 1.0 . .
N N9 0.3608(6) 0.1199(6) 0.7650(6) 0.0068(8) Uani d . . . 1.0 . .
N N10 0.3635(6) 0.5223(6) 0.2613(6) 0.0076(8) Uani d . . . 1.0 . .
N N11 0.5892(6) 0.3183(5) 0.6526(6) 0.0072(8) Uani d . . . 1.0 . .
N N12 0.5888(6) 0.3155(5) 0.1555(6) 0.0071(8) Uani d . . . 1.0 . .
N N13 0.6496(6) 0.0353(5) 0.0487(6) 0.0055(7) Uani d . . . 1.0 . .
N N14 0.6498(6) 0.0633(6) 0.3634(6) 0.0065(8) Uani d . . . 1.0 . .
loop_
_atom_site_aniso_label
_atom_site_aniso_U_11
_atom_site_aniso_U_22
_atom_site_aniso_U_33
_atom_site_aniso_U_12
_atom_site_aniso_U_13
_atom_site_aniso_U_23
Sr1 0.0067(2) 0.0084(2) 0.0086(3) -0.00135(15) 0.00349(17) -0.00317(17)
Eu1 0.0067(2) 0.0084(2) 0.0086(3) -0.00135(15) 0.00349(17) -0.00317(17)
Sr2 0.0065(2) 0.0074(2) 0.0077(2) -0.00070(15) 0.00215(16) -0.00202(17)
Eu2 0.0065(2) 0.0074(2) 0.0077(2) -0.00070(15) 0.00215(16) -0.00202(17)
Si1 0.0042(5) 0.0045(6) 0.0039(6) -0.0003(4) 0.0017(5) 0.0001(5)
Al1 0.0042(5) 0.0045(6) 0.0039(6) -0.0003(4) 0.0017(5) 0.0001(5)
Si2 0.0044(5) 0.0039(5) 0.0041(6) 0.0002(4) 0.0017(5) 0.0003(5)
Al2 0.0044(5) 0.0039(5) 0.0041(6) 0.0002(4) 0.0017(5) 0.0003(5)
Si3 0.0045(5) 0.0037(6) 0.0039(6) -0.0003(4) 0.0017(5) 0.0003(5)
Al3 0.0045(5) 0.0037(6) 0.0039(6) -0.0003(4) 0.0017(5) 0.0003(5)
Si4 0.0042(5) 0.0042(5) 0.0044(6) 0.0002(4) 0.0017(5) 0.0002(5)
Al4 0.0042(5) 0.0042(5) 0.0044(6) 0.0002(4) 0.0017(5) 0.0002(5)
Si5 0.0054(5) 0.0046(6) 0.0044(6) 0.0005(4) 0.0021(5) 0.0003(5)
Al5 0.0054(5) 0.0046(6) 0.0044(6) 0.0005(4) 0.0021(5) 0.0003(5)
Si6 0.0042(5) 0.0034(5) 0.0034(6) 0.0000(4) 0.0013(5) -0.0001(5)
Al6 0.0042(5) 0.0034(5) 0.0034(6) 0.0000(4) 0.0013(5) -0.0001(5)
Si7 0.0038(5) 0.0025(5) 0.0041(6) -0.0004(4) 0.0017(5) -0.0013(5)
Al7 0.0038(5) 0.0025(5) 0.0041(6) -0.0004(4) 0.0017(5) -0.0013(5)
Si8 0.0045(5) 0.0029(5) 0.0032(6) 0.0000(4) 0.0007(5) -0.0003(5)
Al8 0.0045(5) 0.0029(5) 0.0032(6) 0.0000(4) 0.0007(5) -0.0003(5)
Si9 0.0034(5) 0.0030(6) 0.0042(6) 0.0005(4) 0.0012(5) -0.0003(5)
Al9 0.0034(5) 0.0030(6) 0.0042(6) 0.0005(4) 0.0012(5) -0.0003(5)
Si10 0.0034(5) 0.0041(6) 0.0040(6) 0.0001(4) 0.0016(5) 0.0007(5)
Al10 0.0034(5) 0.0041(6) 0.0040(6) 0.0001(4) 0.0016(5) 0.0007(5)
N1 0.0089(14) 0.0092(15) 0.0080(15) -0.0005(12) 0.0045(13) 0.0005(13)
N2 0.0074(14) 0.0062(14) 0.0085(15) -0.0011(11) 0.0035(13) 0.0005(13)
N3 0.0121(16) 0.0079(15) 0.0099(16) -0.0023(13) 0.0047(14) -0.0022(13)
N4 0.0086(15) 0.0063(14) 0.0075(15) 0.0005(11) 0.0024(13) 0.0001(12)
N5 0.0070(14) 0.0090(15) 0.0077(15) -0.0007(12) 0.0025(12) 0.0006(12)
N6 0.0087(15) 0.0080(15) 0.0089(16) 0.0014(12) 0.0029(13) 0.0005(12)
N7 0.0060(15) 0.0097(19) 0.0054(19) 0.0027(14) 0.0033(16) -0.0022(17)
N8 0.0045(15) 0.0085(18) 0.0056(19) -0.0005(14) 0.0018(15) 0.0000(15)
N9 0.0066(15) 0.0074(17) 0.0068(18) 0.0033(14) 0.0028(14) 0.0026(14)
N10 0.0070(16) 0.0094(18) 0.0085(19) -0.0013(14) 0.0055(15) -0.0032(15)
N11 0.0093(16) 0.0033(18) 0.009(2) -0.0010(14) 0.0038(15) 0.0000(15)
N12 0.0073(15) 0.0045(19) 0.010(2) 0.0021(14) 0.0034(15) 0.0011(15)
N13 0.0054(15) 0.0050(16) 0.0045(18) -0.0003(13) -0.0001(15) -0.0010(16)
N14 0.0046(15) 0.0088(19) 0.006(2) -0.0019(14) 0.0015(15) 0.0012(15)
loop_
_atom_type_symbol
_atom_type_description
_atom_type_scat_dispersion_real
_atom_type_scat_dispersion_imag
_atom_type_scat_source
N N 0.0061 0.0033 'International Tables Vol C Tables 4.2.6.8 and 6.1.1.4'
Al Al 0.0645 0.0514 'International Tables Vol C Tables 4.2.6.8 and 6.1.1.4'
Si Si 0.0817 0.0704 'International Tables Vol C Tables 4.2.6.8 and 6.1.1.4'
Sr Sr -1.5307 3.2498 'International Tables Vol C Tables 4.2.6.8 and 6.1.1.4'
Eu Eu -0.1578 3.6682 'International Tables Vol C Tables 4.2.6.8 and 6.1.1.4'
loop_
_geom_angle_atom_site_label_1
_geom_angle_atom_site_label_2
_geom_angle_atom_site_label_3
_geom_angle_site_symmetry_1
_geom_angle_site_symmetry_3
_geom_angle
N12 Sr1 N11 2_655 2_656 120.28(13)
N12 Sr1 N8 2_655 1_565 89.48(15)
N11 Sr1 N8 2_656 1_565 65.45(15)
N12 Sr1 N13 2_655 2_655 64.45(15)
N11 Sr1 N13 2_656 2_655 104.99(15)
N8 Sr1 N13 1_565 2_655 143.74(13)
N12 Sr1 N5 2_655 2 127.92(14)
N11 Sr1 N5 2_656 2 108.63(13)
N8 Sr1 N5 1_565 2 95.56(13)
N13 Sr1 N5 2_655 2 120.13(13)
N12 Sr1 N1 2_655 2 93.40(14)
N11 Sr1 N1 2_656 2 134.87(14)
N8 Sr1 N1 1_565 2 150.44(13)
N13 Sr1 N1 2_655 2 61.04(13)
N5 Sr1 N1 2 2 59.98(12)
N12 Sr1 N10 2_655 . 111.37(14)
N11 Sr1 N10 2_656 . 56.76(15)
N8 Sr1 N10 1_565 . 121.55(14)
N13 Sr1 N10 2_655 . 55.20(14)
N5 Sr1 N10 2 . 109.51(12)
N1 Sr1 N10 2 . 84.57(13)
N12 Sr1 Al4 2_655 2 126.15(11)
N11 Sr1 Al4 2_656 2 110.78(11)
N8 Sr1 Al4 1_565 2 128.48(10)
N13 Sr1 Al4 2_655 2 87.78(10)
N5 Sr1 Al4 2 2 34.20(9)
N1 Sr1 Al4 2 2 34.21(9)
N10 Sr1 Al4 . 2 82.35(9)
N12 Sr1 Si4 2_655 2 126.15(11)
N11 Sr1 Si4 2_656 2 110.78(11)
N8 Sr1 Si4 1_565 2 128.48(10)
N13 Sr1 Si4 2_655 2 87.78(10)
N5 Sr1 Si4 2 2 34.20(9)
N1 Sr1 Si4 2 2 34.21(9)
N10 Sr1 Si4 . 2 82.35(9)
Al4 Sr1 Si4 2 2 0
N12 Sr1 Al10 2_655 2_655 31.66(11)
N11 Sr1 Al10 2_656 2_655 116.93(11)
N8 Sr1 Al10 1_565 2_655 117.62(10)
N13 Sr1 Al10 2_655 2_655 32.79(10)
N5 Sr1 Al10 2 2_655 131.39(9)
N1 Sr1 Al10 2 2_655 75.77(9)
N10 Sr1 Al10 . 2_655 83.48(9)
Al4 Sr1 Al10 2 2_655 109.37(5)
Si4 Sr1 Al10 2 2_655 109.37(5)
N12 Sr1 Si10 2_655 2_655 31.66(11)
N11 Sr1 Si10 2_656 2_655 116.93(11)
N8 Sr1 Si10 1_565 2_655 117.62(10)
N13 Sr1 Si10 2_655 2_655 32.79(10)
N5 Sr1 Si10 2 2_655 131.39(9)
N1 Sr1 Si10 2 2_655 75.77(9)
N10 Sr1 Si10 . 2_655 83.48(9)
Al4 Sr1 Si10 2 2_655 109.37(5)
Si4 Sr1 Si10 2 2_655 109.37(5)
Al10 Sr1 Si10 2_655 2_655 0
N12 Sr1 Al7 2_655 1_565 107.84(11)
N11 Sr1 Al7 2_656 1_565 31.49(11)
N8 Sr1 Al7 1_565 1_565 33.95(11)
N13 Sr1 Al7 2_655 1_565 128.56(10)
N5 Sr1 Al7 2 1_565 104.45(9)
N1 Sr1 Al7 2 1_565 158.75(9)
N10 Sr1 Al7 . 1_565 87.96(10)
Al4 Sr1 Al7 2 1_565 124.99(4)
Si4 Sr1 Al7 2 1_565 124.99(4)
Al10 Sr1 Al7 2_655 1_565 123.12(4)
Si10 Sr1 Al7 2_655 1_565 123.12(4)
N11 Sr2 N12 . . 117.34(13)
N11 Sr2 N14 . . 87.75(15)
N12 Sr2 N14 . . 65.96(15)
N11 Sr2 N4 . 1_655 98.35(14)
N12 Sr2 N4 . 1_655 144.27(14)
N14 Sr2 N4 . 1_655 117.07(13)
N11 Sr2 N7 . 2_656 63.31(15)
N12 Sr2 N7 . 2_656 103.32(15)
N14 Sr2 N7 . 2_656 141.11(13)
N4 Sr2 N7 1_655 2_656 93.63(13)
N11 Sr2 N2 . 1_655 114.77(14)
N12 Sr2 N2 . 1_655 100.58(13)
N14 Sr2 N2 . 1_655 60.98(13)
N4 Sr2 N2 1_655 1_655 59.88(11)
N7 Sr2 N2 2_656 1_655 153.40(13)
N11 Sr2 N2 . 2_656 115.98(14)
N12 Sr2 N2 . 2_656 102.39(14)
N14 Sr2 N2 . 2_656 156.13(13)
N4 Sr2 N2 1_655 2_656 59.65(12)
N7 Sr2 N2 2_656 2_656 59.92(12)
N2 Sr2 N2 1_655 2_656 103.579(19)
N11 Sr2 Al6 . 1_655 126.42(12)
N12 Sr2 Al6 . 1_655 113.31(11)
N14 Sr2 Al6 . 1_655 129.33(10)
N4 Sr2 Al6 1_655 1_655 34.65(9)
N7 Sr2 Al6 2_656 1_655 89.53(10)
N2 Sr2 Al6 1_655 1_655 70.22(8)
N2 Sr2 Al6 2_656 1_655 33.79(8)
N11 Sr2 Si6 . 1_655 126.42(12)
N12 Sr2 Si6 . 1_655 113.31(11)
N14 Sr2 Si6 . 1_655 129.33(10)
N4 Sr2 Si6 1_655 1_655 34.65(9)
N7 Sr2 Si6 2_656 1_655 89.53(10)
N2 Sr2 Si6 1_655 1_655 70.22(8)
N2 Sr2 Si6 2_656 1_655 33.79(8)
Al6 Sr2 Si6 1_655 1_655 0
N11 Sr2 Si10 . . 105.82(11)
N12 Sr2 Si10 . . 31.70(11)
N14 Sr2 Si10 . . 34.27(11)
N4 Sr2 Si10 1_655 . 138.95(9)
N7 Sr2 Si10 2_656 . 126.76(11)
N2 Sr2 Si10 1_655 . 79.82(9)
N2 Sr2 Si10 2_656 . 130.77(9)
Al6 Sr2 Si10 1_655 . 126.71(4)
Si6 Sr2 Si10 1_655 . 126.71(4)
N11 Sr2 Al7 . 2_656 31.16(11)
N12 Sr2 Al7 . 2_656 114.13(10)
N14 Sr2 Al7 . 2_656 115.36(11)
N4 Sr2 Al7 1_655 2_656 96.96(9)
N7 Sr2 Al7 2_656 2_656 32.15(10)
N2 Sr2 Al7 1_655 2_656 140.03(9)
N2 Sr2 Al7 2_656 2_656 88.27(9)
Al6 Sr2 Al7 1_655 2_656 110.33(5)
Si6 Sr2 Al7 1_655 2_656 110.33(5)
Si10 Sr2 Al7 . 2_656 120.70(4)
N6 Si1 N7 . . 110.3(2)
N6 Si1 N2 . . 108.2(2)
N7 Si1 N2 . . 105.4(2)
N6 Si1 N1 . . 111.1(2)
N7 Si1 N1 . . 107.9(2)
N2 Si1 N1 . . 113.8(2)
N6 Si1 Eu2 . 2_646 153.56(17)
N7 Si1 Eu2 . 2_646 55.90(18)
N2 Si1 Eu2 . 2_646 61.24(13)
N1 Si1 Eu2 . 2_646 95.15(15)
N6 Si1 Sr2 . 2_646 153.56(17)
N7 Si1 Sr2 . 2_646 55.90(18)
N2 Si1 Sr2 . 2_646 61.24(13)
N1 Si1 Sr2 . 2_646 95.15(15)
Eu2 Si1 Sr2 2_646 2_646 0
N6 Si1 Sr2 . 1_455 64.35(15)
N7 Si1 Sr2 . 1_455 146.40(18)
N2 Si1 Sr2 . 1_455 52.14(13)
N1 Si1 Sr2 . 1_455 104.57(14)
Eu2 Si1 Sr2 2_646 1_455 113.0
Sr2 Si1 Sr2 2_646 1_455 113.05(5)
N6 Si1 Eu2 . 1_455 64.35(15)
N7 Si1 Eu2 . 1_455 146.40(18)
N2 Si1 Eu2 . 1_455 52.14(13)
N1 Si1 Eu2 . 1_455 104.57(14)
Eu2 Si1 Eu2 2_646 1_455 113.05(5)
Sr2 Si1 Eu2 2_646 1_455 113.05(5)
Sr2 Si1 Eu2 1_455 1_455 0.00(2)
N9 Si2 N4 . . 108.6(2)
N9 Si2 N3 . . 114.7(2)
N4 Si2 N3 . . 109.1(2)
N9 Si2 N2 . . 107.8(2)
N4 Si2 N2 . . 103.1(2)
N3 Si2 N2 . . 112.9(2)
N9 Si2 Eu2 . 1_455 148.60(18)
N4 Si2 Eu2 . 1_455 55.13(14)
N3 Si2 Eu2 . 1_455 96.56(15)
N2 Si2 Eu2 . 1_455 58.65(13)
N9 Si2 Sr2 . 1_455 148.60(18)
N4 Si2 Sr2 . 1_455 55.13(14)
N3 Si2 Sr2 . 1_455 96.56(15)
N2 Si2 Sr2 . 1_455 58.65(13)
Eu2 Si2 Sr2 1_455 1_455 0
N9 Si2 Eu2 . 2_646 64.71(18)
N4 Si2 Eu2 . 2_646 146.73(16)
N3 Si2 Eu2 . 2_646 102.74(15)
N2 Si2 Eu2 . 2_646 54.16(13)
Eu2 Si2 Eu2 1_455 2_646 112.49(5)
Sr2 Si2 Eu2 1_455 2_646 112.49(5)
N9 Si2 Sr2 . 2_646 64.71(18)
N4 Si2 Sr2 . 2_646 146.73(16)
N3 Si2 Sr2 . 2_646 102.74(15)
N2 Si2 Sr2 . 2_646 54.16(13)
Eu2 Si2 Sr2 1_455 2_646 112.5
Sr2 Si2 Sr2 1_455 2_646 112.49(5)
Eu2 Si2 Sr2 2_646 2_646 0
N4 Si3 N1 . 2_556 108.5(2)
N4 Si3 N5 . 1_556 115.5(2)
N1 Si3 N5 2_556 1_556 109.8(2)
N4 Si3 N13 . 2_656 110.5(2)
N1 Si3 N13 2_556 2_656 105.6(2)
N5 Si3 N13 1_556 2_656 106.4(2)
N4 Si3 Eu1 . 1_556 140.59(15)
N1 Si3 Eu1 2_556 1_556 56.44(14)
N5 Si3 Eu1 1_556 1_556 103.82(15)
N13 Si3 Eu1 2_656 1_556 52.90(16)
N4 Si3 Sr1 . 1_556 140.59(15)
N1 Si3 Sr1 2_556 1_556 56.44(14)
N5 Si3 Sr1 1_556 1_556 103.82(15)
N13 Si3 Sr1 2_656 1_556 52.90(16)
Eu1 Si3 Sr1 1_556 1_556 0
N4 Si3 Sr1 . 2_546 98.57(15)
N1 Si3 Sr1 2_556 2_546 77.60(14)
N5 Si3 Sr1 1_556 2_546 45.13(13)
N13 Si3 Sr1 2_656 2_546 147.36(18)
Eu1 Si3 Sr1 1_556 2_546 111.0
Sr1 Si3 Sr1 1_556 2_546 111.00(4)
N8 Si4 N5 . . 120.0(2)
N8 Si4 N3 . 1_554 109.5(2)
N5 Si4 N3 . 1_554 106.3(2)
N8 Si4 N1 . . 104.1(2)
N5 Si4 N1 . . 103.6(2)
N3 Si4 N1 1_554 . 113.4(2)
N8 Si4 Eu1 . 2_545 166.09(18)
N5 Si4 Eu1 . 2_545 60.78(13)
N3 Si4 Eu1 1_554 2_545 82.36(15)
N1 Si4 Eu1 . 2_545 63.47(14)
N8 Si4 Sr1 . 2_545 166.09(18)
N5 Si4 Sr1 . 2_545 60.78(13)
N3 Si4 Sr1 1_554 2_545 82.36(15)
N1 Si4 Sr1 . 2_545 63.47(14)
Eu1 Si4 Sr1 2_545 2_545 0
N8 Si4 Sr1 . 1_545 52.87(18)
N5 Si4 Sr1 . 1_545 167.82(15)
N3 Si4 Sr1 1_554 1_545 70.67(15)
N1 Si4 Sr1 . 1_545 88.22(15)
Eu1 Si4 Sr1 2_545 1_545 128.9
Sr1 Si4 Sr1 2_545 1_545 128.89(5)
N8 Si4 Eu1 . 1_545 52.87(18)
N5 Si4 Eu1 . 1_545 167.82(15)
N3 Si4 Eu1 1_554 1_545 70.67(15)
N1 Si4 Eu1 . 1_545 88.22(15)
Eu1 Si4 Eu1 2_545 1_545 128.89(5)
Sr1 Si4 Eu1 2_545 1_545 128.89(5)
Sr1 Si4 Eu1 1_545 1_545 0.000(19)
N10 Si5 N6 . . 111.5(2)
N10 Si5 N3 . 2_556 118.7(2)
N6 Si5 N3 . 2_556 104.9(2)
N10 Si5 N5 . . 100.6(2)
N6 Si5 N5 . . 116.3(2)
N3 Si5 N5 2_556 . 105.2(2)
N10 Si5 Eu1 . 2_545 153.11(19)
N6 Si5 Eu1 . 2_545 89.34(14)
N3 Si5 Eu1 2_556 2_545 68.67(15)
N5 Si5 Eu1 . 2_545 53.51(13)
N10 Si5 Sr1 . 2_545 153.11(19)
N6 Si5 Sr1 . 2_545 89.34(14)
N3 Si5 Sr1 2_556 2_545 68.67(15)
N5 Si5 Sr1 . 2_545 53.51(13)
Eu1 Si5 Sr1 2_545 2_545 0
N10 Si5 Sr1 . . 57.82(19)
N6 Si5 Sr1 . . 150.96(15)
N3 Si5 Sr1 2_556 . 66.28(15)
N5 Si5 Sr1 . . 92.66(14)
Eu1 Si5 Sr1 2_545 . 110.8
Sr1 Si5 Sr1 2_545 . 110.84(5)
N6 Si6 N14 . 2_656 116.3(2)
N6 Si6 N2 . 2_556 106.4(2)
N14 Si6 N2 2_656 2_556 105.5(2)
N6 Si6 N4 . . 110.3(2)
N14 Si6 N4 2_656 . 112.1(2)
N2 Si6 N4 2_556 . 105.3(2)
N6 Si6 Sr2 . 1_455 77.72(14)
N14 Si6 Sr2 2_656 1_455 165.82(18)
N2 Si6 Sr2 2_556 1_455 66.77(14)
N4 Si6 Sr2 . 1_455 61.22(14)
N6 Si6 Eu2 . 1_455 77.72(14)
N14 Si6 Eu2 2_656 1_455 165.82(18)
N2 Si6 Eu2 2_556 1_455 66.77(14)
N4 Si6 Eu2 . 1_455 61.22(14)
Sr2 Si6 Eu2 1_455 1_455 0.00(3)
N6 Si6 Sr2 . 2_656 116.79(15)
N14 Si6 Sr2 2_656 2_656 50.12(17)
N2 Si6 Sr2 2_556 2_656 56.79(14)
N4 Si6 Sr2 . 2_656 132.63(15)
Sr2 Si6 Sr2 1_455 2_656 123.56(5)
Eu2 Si6 Sr2 1_455 2_656 123.6
N6 Si6 Eu2 . 2_656 116.79(15)
N14 Si6 Eu2 2_656 2_656 50.12(17)
N2 Si6 Eu2 2_556 2_656 56.79(14)
N4 Si6 Eu2 . 2_656 132.63(15)
Sr2 Si6 Eu2 1_455 2_656 123.56(5)
Eu2 Si6 Eu2 1_455 2_656 123.56(5)
Sr2 Si6 Eu2 2_656 2_656 0.000(18)
N11 Si7 N7 2_646 . 112.2(3)
N11 Si7 N14 2_646 . 117.6(2)
N7 Si7 N14 . . 113.2(2)
N11 Si7 N8 2_646 . 112.7(3)
N7 Si7 N8 . . 107.1(2)
N14 Si7 N8 . . 92.0(2)
N11 Si7 Si10 2_646 . 127.54(18)
N7 Si7 Si10 . . 119.63(19)
N14 Si7 Si10 . . 46.85(17)
N8 Si7 Si10 . . 45.12(15)
N11 Si7 Sr1 2_646 1_545 55.57(18)
N7 Si7 Sr1 . 1_545 127.04(18)
N14 Si7 Sr1 . 1_545 117.20(18)
N8 Si7 Sr1 . 1_545 57.12(17)
Si10 Si7 Sr1 . 1_545 85.83(4)
N11 Si7 Eu1 2_646 1_545 55.57(18)
N7 Si7 Eu1 . 1_545 127.04(18)
N14 Si7 Eu1 . 1_545 117.20(18)
N8 Si7 Eu1 . 1_545 57.12(17)
Si10 Si7 Eu1 . 1_545 85.83(4)
Sr1 Si7 Eu1 1_545 1_545 0.000(19)
N11 Si7 Sr2 2_646 2_646 53.28(17)
N7 Si7 Sr2 . 2_646 58.95(18)
N14 Si7 Sr2 . 2_646 140.60(18)
N8 Si7 Sr2 . 2_646 127.40(16)
Si10 Si7 Sr2 . 2_646 172.46(5)
Sr1 Si7 Sr2 1_545 2_646 89.70(4)
Eu1 Si7 Sr2 1_545 2_646 89.70(4)
N11 Si7 Eu2 2_646 2_646 53.28(17)
N7 Si7 Eu2 . 2_646 58.95(18)
N14 Si7 Eu2 . 2_646 140.60(18)
N8 Si7 Eu2 . 2_646 127.40(16)
Si10 Si7 Eu2 . 2_646 172.46(5)
Sr1 Si7 Eu2 1_545 2_646 89.70(4)
Eu1 Si7 Eu2 1_545 2_646 89.70(4)
Sr2 Si7 Eu2 2_646 2_646 0.00(3)
N11 Si8 N10 . 2_646 109.3(3)
N11 Si8 N7 . . 118.5(3)
N10 Si8 N7 2_646 . 111.3(3)
N11 Si8 N9 . . 120.4(3)
N10 Si8 N9 2_646 . 90.1(2)
N7 Si8 N9 . . 103.7(2)
N11 Si8 Al9 . 2_646 127.70(19)
N10 Si8 Al9 2_646 2_646 45.20(16)
N7 Si8 Al9 . 2_646 113.72(19)
N9 Si8 Al9 . 2_646 44.90(16)
N11 Si8 Si9 . 2_646 127.70(19)
N10 Si8 Si9 2_646 2_646 45.20(16)
N7 Si8 Si9 . 2_646 113.72(19)
N9 Si8 Si9 . 2_646 44.90(16)
Al9 Si8 Si9 2_646 2_646 0
N11 Si8 Sr1 . 2_646 55.01(18)
N10 Si8 Sr1 2_646 2_646 71.73(19)
N7 Si8 Sr1 . 2_646 173.37(19)
N9 Si8 Sr1 . 2_646 81.95(17)
Al9 Si8 Sr1 2_646 2_646 72.71(4)
Si9 Si8 Sr1 2_646 2_646 72.71(4)
N11 Si8 Eu1 . 2_646 55.01(18)
N10 Si8 Eu1 2_646 2_646 71.73(19)
N7 Si8 Eu1 . 2_646 173.37(19)
N9 Si8 Eu1 . 2_646 81.95(17)
Al9 Si8 Eu1 2_646 2_646 72.71(4)
Si9 Si8 Eu1 2_646 2_646 72.71(4)
Sr1 Si8 Eu1 2_646 2_646 0.00(2)
N11 Si8 Sr2 . 2_646 169.29(19)
N10 Si8 Sr2 2_646 2_646 77.33(19)
N7 Si8 Sr2 . 2_646 50.79(19)
N9 Si8 Sr2 . 2_646 66.95(18)
Al9 Si8 Sr2 2_646 2_646 62.97(4)
Si9 Si8 Sr2 2_646 2_646 62.97(4)
Sr1 Si8 Sr2 2_646 2_646 135.67(5)
Eu1 Si8 Sr2 2_646 2_646 135.67(5)
N11 Si8 Eu2 . 2_646 169.29(19)
N10 Si8 Eu2 2_646 2_646 77.33(19)
N7 Si8 Eu2 . 2_646 50.79(19)
N9 Si8 Eu2 . 2_646 66.95(18)
Al9 Si8 Eu2 2_646 2_646 62.97(4)
Si9 Si8 Eu2 2_646 2_646 62.97(4)
Sr1 Si8 Eu2 2_646 2_646 135.67(5)
Eu1 Si8 Eu2 2_646 2_646 135.67(5)
Sr2 Si8 Eu2 2_646 2_646 0.00(3)
N11 Si8 Sr2 . . 41.62(17)
N10 Si8 Sr2 2_646 . 94.93(17)
N7 Si8 Sr2 . . 90.74(18)
N9 Si8 Sr2 . . 161.83(19)
Al9 Si8 Sr2 2_646 . 137.89(5)
Si9 Si8 Sr2 2_646 . 137.89(5)
Sr1 Si8 Sr2 2_646 . 83.06(4)
Eu1 Si8 Sr2 2_646 . 83.06(4)
Sr2 Si8 Sr2 2_646 . 131.20(5)
Eu2 Si8 Sr2 2_646 . 131.2
N12 Si9 N13 . 2_655 117.1(3)
N12 Si9 N9 . 2_656 111.7(2)
N13 Si9 N9 2_655 2_656 110.0(2)
N12 Si9 N10 . . 121.2(3)
N13 Si9 N10 2_655 . 103.6(2)
N9 Si9 N10 2_656 . 90.0(3)
N12 Si9 Al8 . 2_656 127.52(19)
N13 Si9 Al8 2_655 2_656 115.38(18)
N9 Si9 Al8 2_656 2_656 45.91(16)
N10 Si9 Al8 . 2_656 44.10(17)
N12 Si9 Si8 . 2_656 127.52(19)
N13 Si9 Si8 2_655 2_656 115.38(18)
N9 Si9 Si8 2_656 2_656 45.91(16)
N10 Si9 Si8 . 2_656 44.10(17)
Al8 Si9 Si8 2_656 2_656 0
N12 Si9 Sr2 . . 53.53(18)
N13 Si9 Sr2 2_655 . 170.32(18)
N9 Si9 Sr2 2_656 . 74.44(18)
N10 Si9 Sr2 . . 84.77(18)
Al8 Si9 Sr2 2_656 . 74.00(4)
Si8 Si9 Sr2 2_656 . 74.00(4)
N12 Si9 Sr1 . . 168.97(19)
N13 Si9 Sr1 2_655 . 51.93(17)
N9 Si9 Sr1 2_656 . 75.93(18)
N10 Si9 Sr1 . . 65.41(19)
Al8 Si9 Sr1 2_656 . 63.50(4)
Si8 Si9 Sr1 2_656 . 63.50(4)
Sr2 Si9 Sr1 . . 137.50(5)
N12 Si9 Eu1 . 2_645 41.95(17)
N13 Si9 Eu1 2_655 2_645 88.88(17)
N9 Si9 Eu1 2_656 2_645 96.50(17)
N10 Si9 Eu1 . 2_645 163.1(2)
Al8 Si9 Eu1 2_656 2_645 139.36(5)
Si8 Si9 Eu1 2_656 2_645 139.36(5)
Sr2 Si9 Eu1 . 2_645 81.97(4)
Sr1 Si9 Eu1 . 2_645 131.3
N12 Si9 Sr1 . 2_645 41.95(17)
N13 Si9 Sr1 2_655 2_645 88.88(17)
N9 Si9 Sr1 2_656 2_645 96.50(17)
N10 Si9 Sr1 . 2_645 163.1(2)
Al8 Si9 Sr1 2_656 2_645 139.36(5)
Si8 Si9 Sr1 2_656 2_645 139.36(5)
Sr2 Si9 Sr1 . 2_645 81.97(4)
Sr1 Si9 Sr1 . 2_645 131.34(5)
Eu1 Si9 Sr1 2_645 2_645 0
N12 Si10 N13 . . 112.7(2)
N12 Si10 N8 . . 118.3(2)
N13 Si10 N8 . . 112.0(2)
N12 Si10 N14 . . 112.4(3)
N13 Si10 N14 . . 107.5(2)
N8 Si10 N14 . . 91.8(2)
N12 Si10 Si7 . . 127.82(18)
N13 Si10 Si7 . . 118.92(18)
N8 Si10 Si7 . . 46.71(17)
N14 Si10 Si7 . . 45.04(15)
N12 Si10 Eu1 . 2_645 53.40(17)
N13 Si10 Eu1 . 2_645 59.30(17)
N8 Si10 Eu1 . 2_645 140.16(18)
N14 Si10 Eu1 . 2_645 128.05(16)
Si7 Si10 Eu1 . 2_645 172.93(5)
N12 Si10 Sr1 . 2_645 53.40(17)
N13 Si10 Sr1 . 2_645 59.30(17)
N8 Si10 Sr1 . 2_645 140.16(18)
N14 Si10 Sr1 . 2_645 128.05(16)
Si7 Si10 Sr1 . 2_645 172.93(5)
Eu1 Si10 Sr1 2_645 2_645 0
N12 Si10 Sr2 . . 55.53(18)
N13 Si10 Sr2 . . 126.22(16)
N8 Si10 Sr2 . . 118.96(18)
N14 Si10 Sr2 . . 56.87(17)
Si7 Si10 Sr2 . . 86.85(4)
Eu1 Si10 Sr2 2_645 . 89.26(4)
Sr1 Si10 Sr2 2_645 . 89.26(4)
Al3 N1 Si3 2_546 2_546 0
Al3 N1 Si4 2_546 . 122.7(3)
Si3 N1 Si4 2_546 . 122.7(3)
Al3 N1 Si1 2_546 . 121.2(3)
Si3 N1 Si1 2_546 . 121.2(3)
Si4 N1 Si1 . . 112.7(2)
Al3 N1 Sr1 2_546 2_545 92.24(17)
Si3 N1 Sr1 2_546 2_545 92.24(17)
Si4 N1 Sr1 . 2_545 82.32(16)
Si1 N1 Sr1 . 2_545 114.17(19)
Al3 N1 Eu1 2_546 2_545 92.24(17)
Si3 N1 Eu1 2_546 2_545 92.24(17)
Si4 N1 Eu1 . 2_545 82.32(16)
Si1 N1 Eu1 . 2_545 114.17(19)
Sr1 N1 Eu1 2_545 2_545 0.00(3)
Al6 N2 Si6 2_546 2_546 0
Al6 N2 Si1 2_546 . 121.8(3)
Si6 N2 Si1 2_546 . 121.8(3)
Al6 N2 Si2 2_546 . 124.3(2)
Si6 N2 Si2 2_546 . 124.3(2)
Si1 N2 Si2 . . 113.0(2)
Al6 N2 Sr2 2_546 1_455 92.11(16)
Si6 N2 Sr2 2_546 1_455 92.11(16)
Si1 N2 Sr2 . 1_455 98.28(17)
Si2 N2 Sr2 . 1_455 88.91(16)
Al6 N2 Eu2 2_546 1_455 92.11(16)
Si6 N2 Eu2 2_546 1_455 92.11(16)
Si1 N2 Eu2 . 1_455 98.28(17)
Si2 N2 Eu2 . 1_455 88.91(16)
Sr2 N2 Eu2 1_455 1_455 0.00(2)
Al6 N2 Eu2 2_546 2_646 79.44(14)
Si6 N2 Eu2 2_546 2_646 79.44(14)
Si1 N2 Eu2 . 2_646 86.26(16)
Si2 N2 Eu2 . 2_646 95.90(16)
Sr2 N2 Eu2 1_455 2_646 171.55(15)
Eu2 N2 Eu2 1_455 2_646 171.55(15)
Al6 N2 Sr2 2_546 2_646 79.44(14)
Si6 N2 Sr2 2_546 2_646 79.44(14)
Si1 N2 Sr2 . 2_646 86.26(16)
Si2 N2 Sr2 . 2_646 95.90(16)
Sr2 N2 Sr2 1_455 2_646 171.55(15)
Eu2 N2 Sr2 1_455 2_646 171.5
Eu2 N2 Sr2 2_646 2_646 0
Al4 N3 Si4 1_556 1_556 0
Al4 N3 Si2 1_556 . 114.2(2)
Si4 N3 Si2 1_556 . 114.2(2)
Al4 N3 Al5 1_556 2_546 122.7(3)
Si4 N3 Al5 1_556 2_546 122.7(3)
Si2 N3 Al5 . 2_546 123.1(3)
Al4 N3 Si5 1_556 2_546 122.7(3)
Si4 N3 Si5 1_556 2_546 122.7(3)
Si2 N3 Si5 . 2_546 123.1(3)
Al5 N3 Si5 2_546 2_546 0
Al4 N3 Sr1 1_556 1_546 78.02(16)
Si4 N3 Sr1 1_556 1_546 78.02(16)
Si2 N3 Sr1 . 1_546 112.40(19)
Al5 N3 Sr1 2_546 1_546 79.96(15)
Si5 N3 Sr1 2_546 1_546 79.96(15)
Si3 N4 Si2 . . 118.3(2)
Si3 N4 Si6 . . 112.1(2)
Si2 N4 Si6 . . 123.1(2)
Si3 N4 Eu2 . 1_455 119.44(19)
Si2 N4 Eu2 . 1_455 92.79(17)
Si6 N4 Eu2 . 1_455 84.12(16)
Si3 N4 Sr2 . 1_455 119.44(19)
Si2 N4 Sr2 . 1_455 92.79(17)
Si6 N4 Sr2 . 1_455 84.12(16)
Eu2 N4 Sr2 1_455 1_455 0
Si4 N5 Al3 . 1_554 123.0(3)
Si4 N5 Si3 . 1_554 123.0(3)
Al3 N5 Si3 1_554 1_554 0
Si4 N5 Si5 . . 120.8(2)
Al3 N5 Si5 1_554 . 113.5(2)
Si3 N5 Si5 1_554 . 113.5(2)
Si4 N5 Sr1 . 2_545 85.02(15)
Al3 N5 Sr1 1_554 2_545 107.67(18)
Si3 N5 Sr1 1_554 2_545 107.67(18)
Si5 N5 Sr1 . 2_545 94.32(16)
Si4 N5 Eu1 . 2_545 85.02(15)
Al3 N5 Eu1 1_554 2_545 107.67(18)
Si3 N5 Eu1 1_554 2_545 107.67(18)
Si5 N5 Eu1 . 2_545 94.32(16)
Sr1 N5 Eu1 2_545 2_545 0.00(3)
Si6 N6 Si1 . . 124.9(3)
Si6 N6 Si5 . . 116.4(2)
Si1 N6 Si5 . . 117.5(2)
Si6 N6 Sr2 . 1_455 70.39(14)
Si1 N6 Sr2 . 1_455 86.41(16)
Si5 N6 Sr2 . 1_455 126.66(19)
Si7 N7 Si8 . . 117.0(3)
Si7 N7 Si1 . . 124.1(3)
Si8 N7 Si1 . . 117.8(3)
Si7 N7 Eu2 . 2_646 88.9(2)
Si8 N7 Eu2 . 2_646 99.9(2)
Si1 N7 Eu2 . 2_646 91.8(2)
Si7 N7 Sr2 . 2_646 88.9(2)
Si8 N7 Sr2 . 2_646 99.9(2)
Si1 N7 Sr2 . 2_646 91.8(2)
Eu2 N7 Sr2 2_646 2_646 0
Si10 N8 Si4 . . 130.9(3)
Si10 N8 Si7 . . 88.2(2)
Si4 N8 Si7 . . 126.6(3)
Si10 N8 Eu1 . 1_545 121.4(2)
Si4 N8 Eu1 . 1_545 95.6(2)
Si7 N8 Eu1 . 1_545 88.9(2)
Si10 N8 Sr1 . 1_545 121.4(2)
Si4 N8 Sr1 . 1_545 95.6(2)
Si7 N8 Sr1 . 1_545 88.9(2)
Eu1 N8 Sr1 1_545 1_545 0
Al9 N9 Si9 2_646 2_646 0
Al9 N9 Si2 2_646 . 139.0(3)
Si9 N9 Si2 2_646 . 139.0(3)
Al9 N9 Si8 2_646 . 89.2(2)
Si9 N9 Si8 2_646 . 89.2(2)
Si2 N9 Si8 . . 124.0(3)
Al9 N9 Sr2 2_646 2_646 74.21(18)
Si9 N9 Sr2 2_646 2_646 74.21(18)
Si2 N9 Sr2 . 2_646 86.02(19)
Si8 N9 Sr2 . 2_646 82.67(19)
Al8 N10 Si8 2_656 2_656 0
Al8 N10 Si5 2_656 . 145.4(3)
Si8 N10 Si5 2_656 . 145.4(3)
Al8 N10 Si9 2_656 . 90.7(2)
Si8 N10 Si9 2_656 . 90.7(2)
Si5 N10 Si9 . . 121.7(3)
Al8 N10 Sr1 2_656 . 76.7(2)
Si8 N10 Sr1 2_656 . 76.7(2)
Si5 N10 Sr1 . . 93.8(2)
Si9 N10 Sr1 . . 83.8(2)
Al7 N11 Si7 2_656 2_656 0
Al7 N11 Si8 2_656 . 142.4(3)
Si7 N11 Si8 2_656 . 142.4(3)
Al7 N11 Sr2 2_656 . 95.6(2)
Si7 N11 Sr2 2_656 . 95.6(2)
Si8 N11 Sr2 . . 112.9(2)
Al7 N11 Sr1 2_656 2_646 92.9(2)
Si7 N11 Sr1 2_656 2_646 92.9(2)
Si8 N11 Sr1 . 2_646 93.6(2)
Sr2 N11 Sr1 . 2_646 119.71(18)
Al7 N11 Eu1 2_656 2_646 92.9(2)
Si7 N11 Eu1 2_656 2_646 92.9(2)
Si8 N11 Eu1 . 2_646 93.6(2)
Sr2 N11 Eu1 . 2_646 119.71(18)
Sr1 N11 Eu1 2_646 2_646 0.00(3)
Si10 N12 Si9 . . 143.1(3)
Si10 N12 Eu1 . 2_645 94.9(2)
Si9 N12 Eu1 . 2_645 112.0(2)
Si10 N12 Sr1 . 2_645 94.9(2)
Si9 N12 Sr1 . 2_645 112.0(2)
Eu1 N12 Sr1 2_645 2_645 0
Si10 N12 Sr2 . . 92.8(2)
Si9 N12 Sr2 . . 95.4(2)
Eu1 N12 Sr2 2_645 . 118.94(17)
Sr1 N12 Sr2 2_645 . 118.94(17)
Si10 N13 Al9 . 2_645 118.6(3)
Si10 N13 Si9 . 2_645 118.6(3)
Al9 N13 Si9 2_645 2_645 0
Si10 N13 Al3 . 2_646 124.5(3)
Al9 N13 Al3 2_645 2_646 115.6(3)
Si9 N13 Al3 2_645 2_646 115.6(3)
Si10 N13 Si3 . 2_646 124.5(3)
Al9 N13 Si3 2_645 2_646 115.6(3)
Si9 N13 Si3 2_645 2_646 115.6(3)
Al3 N13 Si3 2_646 2_646 0
Si10 N13 Sr1 . 2_645 87.92(19)
Al9 N13 Sr1 2_645 2_645 98.2(2)
Si9 N13 Sr1 2_645 2_645 98.2(2)
Al3 N13 Sr1 2_646 2_645 95.71(19)
Si3 N13 Sr1 2_646 2_645 95.71(19)
Si10 N13 Eu1 . 2_645 87.92(19)
Al9 N13 Eu1 2_645 2_645 98.2(2)
Si9 N13 Eu1 2_645 2_645 98.2(2)
Al3 N13 Eu1 2_646 2_645 95.71(19)
Si3 N13 Eu1 2_646 2_645 95.71(19)
Sr1 N13 Eu1 2_645 2_645 0.00(2)
Si7 N14 Al6 . 2_646 126.4(3)
Si7 N14 Si6 . 2_646 126.4(3)
Al6 N14 Si6 2_646 2_646 0
Si7 N14 Si10 . . 88.1(2)
Al6 N14 Si10 2_646 . 126.0(3)
Si6 N14 Si10 2_646 . 126.0(3)
Si7 N14 Sr2 . . 123.9(3)
Al6 N14 Sr2 2_646 . 99.4(2)
Si6 N14 Sr2 2_646 . 99.4(2)
Si10 N14 Sr2 . . 88.9(2)
loop_
_geom_bond_atom_site_label_1
_geom_bond_atom_site_label_2
_geom_bond_site_symmetry_2
_geom_bond_distance
Sr1 N12 2_655 2.562(5)
Sr1 N11 2_656 2.646(5)
Sr1 N8 1_565 2.691(5)
Sr1 N13 2_655 2.736(5)
Sr1 N5 2 2.762(4)
Sr1 N1 2 2.847(4)
Sr1 N10 . 3.146(6)
Sr1 Al4 2 3.1530(16)
Sr1 Si4 2 3.1530(16)
Sr1 Al10 2_655 3.1797(16)
Sr1 Si10 2_655 3.1797(16)
Sr1 Al7 1_565 3.2039(17)
Sr2 N11 . 2.596(5)
Sr2 N12 . 2.629(5)
Sr2 N14 . 2.667(5)
Sr2 N4 1_655 2.761(4)
Sr2 N7 2_656 2.762(5)
Sr2 N2 1_655 2.871(4)
Sr2 N2 2_656 2.929(4)
Sr2 Al6 1_655 3.1336(16)
Sr2 Si6 1_655 3.1336(16)
Sr2 Si10 . 3.1847(17)
Sr2 Al7 2_656 3.2239(17)
Si1 N6 . 1.761(4)
Si1 N7 . 1.783(5)
Si1 N2 . 1.795(4)
Si1 N1 . 1.796(5)
Si1 Eu2 2_646 3.3344(18)
Si1 Sr2 2_646 3.3344(18)
Si1 Sr2 1_455 3.5987(16)
Si1 Eu2 1_455 3.5987(16)
Si2 N9 . 1.762(5)
Si2 N4 . 1.788(4)
Si2 N3 . 1.792(5)
Si2 N2 . 1.804(5)
Si2 Eu2 1_455 3.3614(17)
Si2 Sr2 1_455 3.3614(17)
Si2 Eu2 2_646 3.5945(19)
Si2 Sr2 2_646 3.5945(19)
Si3 N4 . 1.763(5)
Si3 N1 2_556 1.775(4)
Si3 N5 1_556 1.781(4)
Si3 N13 2_656 1.787(5)
Si3 Eu1 1_556 3.4133(18)
Si3 Sr1 1_556 3.4133(18)
Si3 Sr1 2_546 3.7133(16)
Si4 N8 . 1.765(5)
Si4 N5 . 1.779(4)
Si4 N3 1_554 1.784(5)
Si4 N1 . 1.789(4)
Si4 Eu1 2_545 3.1530(16)
Si4 Sr1 2_545 3.1530(16)
Si4 Sr1 1_545 3.3593(18)
Si4 Eu1 1_545 3.3593(18)
Si5 N10 . 1.765(5)
Si5 N6 . 1.795(5)
Si5 N3 2_556 1.811(4)
Si5 N5 . 1.829(5)
Si5 Eu1 2_545 3.4257(17)
Si5 Sr1 2_545 3.4257(17)
Si6 N6 . 1.757(5)
Si6 N14 2_656 1.765(5)
Si6 N2 2_556 1.773(4)
Si6 N4 . 1.791(4)
Si6 Sr2 1_455 3.1336(16)
Si6 Eu2 1_455 3.1336(16)
Si6 Sr2 2_656 3.4296(18)
Si6 Eu2 2_656 3.4296(18)
Si7 N11 2_646 1.676(5)
Si7 N7 . 1.716(5)
Si7 N14 . 1.740(5)
Si7 N8 . 1.790(5)
Si7 Si10 . 2.4574(14)
Si7 Sr1 1_545 3.2039(17)
Si7 Eu1 1_545 3.2039(17)
Si7 Sr2 2_646 3.2239(17)
Si7 Eu2 2_646 3.2239(17)
Si8 N11 . 1.682(5)
Si8 N10 2_646 1.735(5)
Si8 N7 . 1.744(5)
Si8 N9 . 1.791(5)
Si8 Al9 2_646 2.4929(14)
Si8 Si9 2_646 2.4929(14)
Si8 Sr1 2_646 3.2234(17)
Si8 Eu1 2_646 3.2234(17)
Si8 Sr2 2_646 3.5118(17)
Si8 Eu2 2_646 3.5118(17)
Si9 N12 . 1.685(5)
Si9 N13 2_655 1.728(5)
Si9 N9 2_656 1.760(5)
Si9 N10 . 1.769(5)
Si9 Al8 2_656 2.4929(14)
Si9 Si8 2_656 2.4929(14)
Si9 Eu1 2_645 3.5546(16)
Si9 Sr1 2_645 3.5546(16)
Si10 N12 . 1.675(5)
Si10 N13 . 1.723(5)
Si10 N8 . 1.742(5)
Si10 N14 . 1.794(5)
Si10 Eu1 2_645 3.1797(16)
Si10 Sr1 2_645 3.1797(16)
N1 Al3 2_546 1.775(4)
N1 Si3 2_546 1.775(4)
N1 Sr1 2_545 2.847(4)
N1 Eu1 2_545 2.847(4)
N2 Al6 2_546 1.773(4)
N2 Si6 2_546 1.773(4)
N2 Sr2 1_455 2.871(4)
N2 Eu2 1_455 2.871(4)
N2 Eu2 2_646 2.929(4)
N2 Sr2 2_646 2.929(4)
N3 Al4 1_556 1.784(5)
N3 Si4 1_556 1.784(5)
N3 Al5 2_546 1.811(4)
N3 Si5 2_546 1.811(4)
N3 Sr1 1_546 3.241(4)
N4 Eu2 1_455 2.761(4)
N4 Sr2 1_455 2.761(4)
N5 Al3 1_554 1.781(4)
N5 Si3 1_554 1.781(4)
N5 Sr1 2_545 2.762(4)
N5 Eu1 2_545 2.762(4)
N6 Sr2 1_455 3.250(4)
N7 Eu2 2_646 2.762(5)
N7 Sr2 2_646 2.762(5)
N8 Eu1 1_545 2.691(5)
N8 Sr1 1_545 2.691(5)
N9 Al9 2_646 1.760(5)
N9 Si9 2_646 1.760(5)
N9 Sr2 2_646 3.258(5)
N10 Al8 2_656 1.735(5)
N10 Si8 2_656 1.735(5)
N11 Al7 2_656 1.676(5)
N11 Si7 2_656 1.676(5)
N11 Sr1 2_646 2.646(5)
N11 Eu1 2_646 2.646(5)
N12 Eu1 2_645 2.562(5)
N12 Sr1 2_645 2.562(5)
N13 Al9 2_645 1.728(5)
N13 Si9 2_645 1.728(5)
N13 Al3 2_646 1.787(5)
N13 Si3 2_646 1.787(5)
N13 Sr1 2_645 2.736(5)
N13 Eu1 2_645 2.736(5)
N14 Al6 2_646 1.765(5)
N14 Si6 2_646 1.765(5)
