#------------------------------------------------------------------------------
#$Date: 2016-03-21 01:21:50 +0200 (Mon, 21 Mar 2016) $
#$Revision: 178377 $
#$URL: svn://www.crystallography.net/cod/cif/4/00/20/4002023.cif $
#------------------------------------------------------------------------------
#
# This file is available in the Crystallography Open Database (COD),
# http://www.crystallography.net/
#
# All data on this site have been placed in the public domain by the
# contributors.
#
data_4002023
loop_
_publ_author_name
'Hirosaki, Naoto'
'Takeda, Takashi'
'Funahashi, Shiro'
'Xie, Rong-Jun'
_publ_section_title
;
 Discovery of New Nitridosilicate Phosphors for Solid State Lighting by
 the Single-Particle-Diagnosis Approach
;
_journal_issue                   14
_journal_name_full               'Chemistry of Materials'
_journal_page_first              4280
_journal_paper_doi               10.1021/cm501866x
_journal_volume                  26
_journal_year                    2014
_chemical_formula_sum            'Al3 Ba0.84 Eu0.16 N9 Si4'
_chemical_formula_weight         459.075
_chemical_name_systematic
;
 ?
;
_space_group_IT_number           14
_symmetry_cell_setting           monoclinic
_symmetry_space_group_name_Hall  '-P 2ybc'
_symmetry_space_group_name_H-M   'P 1 21/c 1'
_audit_creation_date             2014-05-19T10:43:12-00:00
_audit_creation_method           'WinGX routine CIF_UPDATE'
_cell_angle_alpha                90
_cell_angle_beta                 118.8970(10)
_cell_angle_gamma                90
_cell_formula_units_Z            4
_cell_length_a                   5.8465(4)
_cell_length_b                   26.7255(18)
_cell_length_c                   5.8386(4)
_cell_measurement_temperature    300(2)
_cell_volume                     798.70(9)
_computing_cell_refinement       'APEX2 (Bruker AXS, 2009)'
_computing_data_collection       'APEX2 (Bruker AXS, 2009)'
_computing_data_reduction        'SAINT (Bruker AXS, 2009)'
_computing_molecular_graphics    'VESTA (Momma and Izumi, 2008)'
_computing_structure_refinement  'SHELXL-2013 (Sheldrick, 2013)'
_computing_structure_solution    'SHELXS-97 (Sheldrick, 2008)'
_diffrn_ambient_temperature      300(2)
_diffrn_detector_area_resol_mean 8.333
_diffrn_measured_fraction_theta_full 0.998
_diffrn_measured_fraction_theta_max 0.998
_diffrn_measurement_device_type  'Bruker APEXII CCD area detector'
_diffrn_measurement_method       'omega scans'
_diffrn_radiation_monochromator  'Bruker Helios multilayer confocal mirror'
_diffrn_radiation_source         'Bruker TXS fine-focus rotating anode'
_diffrn_radiation_type           MoK\a
_diffrn_radiation_wavelength     0.71073
_diffrn_reflns_av_R_equivalents  0.0217
_diffrn_reflns_Laue_measured_fraction_full 0.998
_diffrn_reflns_Laue_measured_fraction_max 0.998
_diffrn_reflns_limit_h_max       9
_diffrn_reflns_limit_h_min       -9
_diffrn_reflns_limit_k_max       43
_diffrn_reflns_limit_k_min       -42
_diffrn_reflns_limit_l_max       9
_diffrn_reflns_limit_l_min       -9
_diffrn_reflns_number            12144
_diffrn_reflns_point_group_measured_fraction_full 0.998
_diffrn_reflns_point_group_measured_fraction_max 0.998
_diffrn_reflns_theta_full        25.242
_diffrn_reflns_theta_max         35.62
_diffrn_reflns_theta_min         3.049
_exptl_absorpt_coefficient_mu    6.344
_exptl_absorpt_correction_T_max  0.881
_exptl_absorpt_correction_T_min  0.583
_exptl_absorpt_correction_type   multi-scan
_exptl_absorpt_process_details
;
SADABS Sheldrick 2001
;
_exptl_crystal_colour            colourless
_exptl_crystal_density_diffrn    3.818
_exptl_crystal_description       plate
_exptl_crystal_F_000             860.5
_exptl_crystal_size_max          0.095
_exptl_crystal_size_mid          0.076
_exptl_crystal_size_min          0.021
_refine_diff_density_max         1.29
_refine_diff_density_min         -1.29
_refine_diff_density_rms         0.154
_refine_ls_extinction_method     none
_refine_ls_goodness_of_fit_ref   1.060
_refine_ls_hydrogen_treatment    noref
_refine_ls_matrix_type           full
_refine_ls_number_parameters     211
_refine_ls_number_reflns         3687
_refine_ls_number_restraints     0
_refine_ls_restrained_S_all      1.060
_refine_ls_R_factor_all          0.035
_refine_ls_R_factor_gt           0.0253
_refine_ls_shift/su_max          0
_refine_ls_shift/su_mean         0
_refine_ls_structure_factor_coef Fsqd
_refine_ls_weighting_details
;
 w=1/[\s^2^(Fo^2^)+(0.0286P)^2^+1.6914P]
 where P=(Fo^2^+2Fc^2^)/3
;
_refine_ls_weighting_scheme      calc
_refine_ls_wR_factor_ref         0.0681
_reflns_number_gt                3009
_reflns_number_total             3687
_reflns_threshold_expression     'I > 2\s(I)'
_iucr_refine_instructions_details
;
 TITL 7981010101_P2(1)_c in P2(1)/c
CELL 0.71073   5.8465  26.7255   5.8386  90.000 118.897  90.000
ZERR    4.00   0.0004   0.0018   0.0004   0.000   0.001   0.000
LATT 1
SYMM -X, 0.5+Y, 0.5-Z
SFAC N  Ba Si Eu Al
UNIT 9  1  4  0  3
L.S. 50
BOND
ACTA
REM EADP Eu1 Ba1
REM EXYZ Eu1 Ba1
EXYZ Si1 Al1
EADP Si1 Al1
EXYZ Si2 Al2
EADP Si2 Al2
EXYZ Si3 Al3
EADP Si3 Al3
EXYZ Si4 Al4
EADP Si4 Al4
EXYZ Si5 Al5
EADP Si5 Al5
EXYZ Si5b Al5b
EADP Si5b Al5b
EXYZ Si6 Al6
EADP Si6 Al6
EXYZ Si6b Al6b
EADP Si6b Al6b
EXYZ Si7 Al7
EADP Si7 Al7
EXYZ Si7b Al7b
EADP Si7b Al7b
FMAP 2
PLAN 20
TEMP 23.000
SUMP 1.0 0.00001 1.0 2 1.0 3
WGHT    0.028600    1.691400
FVAR       0.07243   0.84143   0.69250
BA1   2    1.127007    0.131661    0.873609    21.00000    0.00762    0.04382 =
         0.00741   -0.00057    0.00385    0.00129
EU1   4    1.129168    0.146919    0.871344   -21.00000    0.00760    0.01101 =
         0.00698   -0.00008    0.00404    0.00007
SI1   3    0.447747    0.132800    0.553882    10.57143    0.00433    0.00452 =
         0.00411   -0.00076    0.00231    0.00056
SI2   3    0.803726    0.137125    1.193031    10.57143    0.00674    0.01695 =
         0.00656    0.00125    0.00324   -0.00173
SI3   3    0.629107    0.230510    0.867316    10.57143    0.00256    0.00472 =
         0.00303   -0.00002    0.00087   -0.00005
SI4   3    1.131806    0.271646    0.871963    10.57143    0.00249    0.00325 =
         0.00216   -0.00004    0.00061    0.00025
SI5   3    0.651341    0.059492    1.347859    30.57143    0.01046    0.00472 =
         0.01053   -0.00050    0.00471    0.00022
SI5B  3    0.602412    0.058941    1.397266   -30.57143    0.01048    0.00658 =
         0.01037   -0.00160    0.00140    0.00195
SI6   3    0.660421    0.033801    0.836469    10.28571    0.00806    0.00507 =
         0.00478   -0.00118    0.00352   -0.00196
SI6B  3    0.590328    0.032754    0.911143    10.28571    0.00899    0.00529 =
         0.00534    0.00051    0.00267   -0.00014
SI7   3    0.163175    0.033767    0.340217    10.28571    0.00512    0.00581 =
         0.00756    0.00197    0.00361    0.00187
SI7B  3    1.089053    0.033012    1.409696    10.28571    0.00591    0.00515 =
         0.00886    0.00005    0.00304   -0.00012
AL1   5    0.447747    0.132800    0.553882    10.42857    0.00433    0.00452 =
         0.00411   -0.00076    0.00231    0.00056
AL2   5    0.803726    0.137125    1.193031    10.42857    0.00674    0.01695 =
         0.00656    0.00125    0.00324   -0.00173
AL3   5    0.629107    0.230510    0.867316    10.42857    0.00256    0.00472 =
         0.00303   -0.00002    0.00087   -0.00005
AL4   5    1.131806    0.271646    0.871963    10.42857    0.00249    0.00325 =
         0.00216   -0.00004    0.00061    0.00025
AL5   5    0.651341    0.059492    1.347859    30.42857    0.01046    0.00472 =
         0.01053   -0.00050    0.00471    0.00022
AL5B  5    0.602412    0.058941    1.397266   -30.42857    0.01048    0.00658 =
         0.01037   -0.00160    0.00140    0.00195
AL6   5    0.660421    0.033801    0.836469    10.21429    0.00806    0.00507 =
         0.00478   -0.00118    0.00352   -0.00196
AL6B  5    0.590328    0.032754    0.911143    10.21429    0.00899    0.00529 =
         0.00534    0.00051    0.00267   -0.00014
AL7   5    0.163175    0.033767    0.340217    10.21429    0.00512    0.00581 =
         0.00756    0.00197    0.00361    0.00187
AL7B  5    1.089053    0.033012    1.409696    10.21429    0.00591    0.00515 =
         0.00886    0.00005    0.00304   -0.00012
N1    1    0.627764    0.162756    0.858726    11.00000    0.00887    0.00633 =
         0.00896    0.00044    0.00306    0.00041
N2    1    1.138533    0.338315    0.876712    11.00000    0.00914    0.00546 =
         0.00805    0.00058    0.00339    0.00054
N3    1    0.388163    0.069741    0.614077    11.00000    0.01691    0.00678 =
         0.01617    0.00246   -0.00031   -0.00252
N4    1    0.621327    0.124590    1.375471    11.00000    0.00787    0.01404 =
         0.00675    0.00014    0.00414    0.00043
N5    1    0.848905    0.067516    1.150160    11.00000    0.02458    0.00665 =
         0.02511   -0.00140    0.00774    0.00120
N6    1    0.799595    0.246430    1.205291    11.00000    0.00596    0.02267 =
         0.00643    0.00063    0.00201    0.00186
N7    1    1.294870    0.249439    1.199536    11.00000    0.00822    0.00968 =
         0.00664    0.00158    0.00305   -0.00028
N8    1    0.574103   -0.024990    0.895357    10.50000    0.01413    0.00904 =
         0.01194   -0.00073    0.00904   -0.00089
N8B   1    0.656335   -0.027429    0.831898    10.50000    0.01242    0.01390 =
         0.01087    0.00211    0.00627    0.00143
N9    1    1.105085   -0.025362    1.426521    10.50000    0.01203    0.00966 =
         0.01221    0.00255    0.00861    0.00286
N10   1    0.169693   -0.027791    0.342002    10.50000    0.01176    0.01035 =
         0.01273    0.00025    0.00693   -0.00100

HKLF 4

REM  7981010101_P2(1)_c in P2(1)/c
REM R1 =  0.0253 for    3009 Fo > 4sig(Fo)  and  0.0350 for all    3687 data
REM    211 parameters refined using      1 restraints

END

WGHT      0.0286      1.6914

REM Highest difference peak  1.290,  deepest hole -1.290,  1-sigma level  0.154
Q1    1   0.9135  0.0695  1.1022  11.00000  0.05    1.29
Q2    1   0.3798  0.0970  1.1205  11.00000  0.05    0.84
Q3    1   0.7870  0.2230  1.2014  11.00000  0.05    0.68
Q4    1   1.1294  0.1701  0.8573  11.00000  0.05    0.67
Q5    1   0.9952  0.1338  0.8621  11.00000  0.05    0.66
Q6    1   1.2568  0.1359  0.8858  11.00000  0.05    0.63
Q7    1   0.6488  0.0989  1.3732  11.00000  0.05    0.55
Q8    1   1.1656  0.3140  0.8203  11.00000  0.05    0.55
Q9    1   0.8792  0.1768  0.6255  11.00000  0.05    0.54
Q10   1   0.7828  0.1603  1.2021  11.00000  0.05    0.53
Q11   1   0.5031  0.0602  0.6624  11.00000  0.05    0.53
Q12   1   0.6240 -0.0051  0.8540  11.00000  0.05    0.52
Q13   1   0.7943  0.1332  1.5237  11.00000  0.05    0.49
Q14   1   1.2135  0.2468  1.2288  11.00000  0.05    0.47
Q15   1   1.2799  0.3430  0.8919  11.00000  0.05    0.45
Q16   1   1.1670  0.0634  0.8410  11.00000  0.05    0.44
Q17   1   0.4968  0.1354  0.6620  11.00000  0.05    0.43
Q18   1   1.2822  0.1592  0.9907  11.00000  0.05    0.41
Q19   1   0.7081  0.1622  0.9711  11.00000  0.05    0.41
Q20   1   0.7407  0.0596  0.9767  11.00000  0.05    0.41
;
_cod_data_source_file            cm501866x_si_003.cif
_cod_data_source_block           7981010101_p2(1)_c
_cod_depositor_comments
'Adding full bibliography for 4002022--4002023.cif.'
_cod_original_sg_symbol_H-M      'P 21/c'
_cod_database_code               4002023
loop_
_symmetry_equiv_pos_as_xyz
'x, y, z'
'-x, 1/2+y, 1/2-z'
'-x, -y, -z'
'x, 1/2-y, 1/2+z'
loop_
_atom_site_label
_atom_site_fract_x
_atom_site_fract_y
_atom_site_fract_z
_atom_site_U_iso_or_equiv
_atom_site_adp_type
_atom_site_calc_flag
_atom_site_occupancy
_atom_site_type_symbol
Ba1 1.12701(8) 0.13166(4) 0.87361(8) 0.01952(10) Uani d 0.841(2) Ba
Eu1 1.1292(4) 0.14692(7) 0.8713(4) 0.0083(2) Uani d 0.159(2) Eu
Si1 0.44775(11) 0.13280(2) 0.55388(11) 0.00421(9) Uani d 0.5714 Si
Si2 0.80373(12) 0.13713(2) 1.19303(12) 0.01008(11) Uani d 0.5714 Si
Si3 0.62911(10) 0.23051(2) 0.86732(10) 0.00364(9) Uani d 0.5714 Si
Si4 1.13181(10) 0.27165(2) 0.87196(10) 0.00285(8) Uani d 0.5714 Si
Si5 0.6513(6) 0.05949(5) 1.3479(6) 0.0087(5) Uani d 0.396(11) Si
Si5B 0.6024(16) 0.05894(12) 1.3973(16) 0.0107(14) Uani d 0.176(11) Si
Si6 0.6604(2) 0.03380(4) 0.8365(2) 0.00579(17) Uani d 0.2857 Si
Si6B 0.5903(2) 0.03275(4) 0.9111(2) 0.00687(18) Uani d 0.2857 Si
Si7 0.1632(2) 0.03377(4) 0.3402(2) 0.00594(18) Uani d 0.2857 Si
Si7B 1.0891(2) 0.03301(4) 1.4097(2) 0.00686(18) Uani d 0.2857 Si
Al1 0.44775(11) 0.13280(2) 0.55388(11) 0.00421(9) Uani d 0.4286 Al
Al2 0.80373(12) 0.13713(2) 1.19303(12) 0.01008(11) Uani d 0.4286 Al
Al3 0.62911(10) 0.23051(2) 0.86732(10) 0.00364(9) Uani d 0.4286 Al
Al4 1.13181(10) 0.27165(2) 0.87196(10) 0.00285(8) Uani d 0.4286 Al
Al5 0.6513(6) 0.05949(5) 1.3479(6) 0.0087(5) Uani d 0.297(9) Al
Al5B 0.6024(16) 0.05894(12) 1.3973(16) 0.0107(14) Uani d 0.132(9) Al
Al6 0.6604(2) 0.03380(4) 0.8365(2) 0.00579(17) Uani d 0.2143 Al
Al6B 0.5903(2) 0.03275(4) 0.9111(2) 0.00687(18) Uani d 0.2143 Al
Al7 0.1632(2) 0.03377(4) 0.3402(2) 0.00594(18) Uani d 0.2143 Al
Al7B 1.0891(2) 0.03301(4) 1.4097(2) 0.00686(18) Uani d 0.2143 Al
N1 0.6278(3) 0.16276(6) 0.8587(3) 0.0086(3) Uani d 1 N
N2 1.1385(3) 0.33831(6) 0.8767(3) 0.0079(3) Uani d 1 N
N3 0.3882(4) 0.06974(7) 0.6141(4) 0.0168(4) Uani d 1 N
N4 0.6213(3) 0.12459(7) 1.3755(3) 0.0093(3) Uani d 1 N
N5 0.8489(5) 0.06752(7) 1.1502(5) 0.0206(4) Uani d 1 N
N6 0.7996(3) 0.24643(7) 1.2053(3) 0.0121(3) Uani d 1 N
N7 1.2949(3) 0.24944(6) 1.1995(3) 0.0084(3) Uani d 1 N
N8 0.5741(8) -0.02499(13) 0.8954(7) 0.0105(6) Uani d 0.5 N
N8B 0.6563(8) -0.02743(14) 0.8319(7) 0.0121(6) Uani d 0.5 N
N9 1.1051(7) -0.02536(13) 1.4265(7) 0.0101(6) Uani d 0.5 N
N10 0.1697(8) -0.02779(13) 0.3420(7) 0.0112(6) Uani d 0.5 N
loop_
_atom_site_aniso_label
_atom_site_aniso_U_11
_atom_site_aniso_U_22
_atom_site_aniso_U_33
_atom_site_aniso_U_12
_atom_site_aniso_U_13
_atom_site_aniso_U_23
Ba1 0.00762(8) 0.0438(3) 0.00741(8) 0.00129(16) 0.00385(6) -0.00057(16)
Eu1 0.0076(3) 0.0110(5) 0.0070(3) 0.0001(4) 0.0040(2) -0.0001(4)
Si1 0.0043(2) 0.0045(2) 0.00411(19) 0.00056(16) 0.00231(16) -0.00076(16)
Si2 0.0067(2) 0.0170(3) 0.0066(2) -0.0017(2) 0.00324(18) 0.0013(2)
Si3 0.00256(19) 0.0047(2) 0.00303(19) -0.00005(17) 0.00087(16) -0.00002(16)
Si4 0.00249(19) 0.00325(19) 0.00216(18) 0.00025(16) 0.00061(15) -0.00004(16)
Si5 0.0105(6) 0.0047(4) 0.0105(6) 0.0002(3) 0.0047(5) -0.0005(3)
Si5B 0.0105(15) 0.0066(9) 0.0104(15) 0.0020(8) 0.0014(12) -0.0016(8)
Si6 0.0081(4) 0.0051(4) 0.0048(4) -0.0020(4) 0.0035(4) -0.0012(3)
Si6B 0.0090(5) 0.0053(5) 0.0053(4) -0.0001(4) 0.0027(4) 0.0005(3)
Si7 0.0051(4) 0.0058(5) 0.0076(4) 0.0019(3) 0.0036(4) 0.0020(4)
Si7B 0.0059(4) 0.0051(5) 0.0089(4) -0.0001(4) 0.0030(4) 0.0001(4)
Al1 0.0043(2) 0.0045(2) 0.00411(19) 0.00056(16) 0.00231(16) -0.00076(16)
Al2 0.0067(2) 0.0170(3) 0.0066(2) -0.0017(2) 0.00324(18) 0.0013(2)
Al3 0.00256(19) 0.0047(2) 0.00303(19) -0.00005(17) 0.00087(16) -0.00002(16)
Al4 0.00249(19) 0.00325(19) 0.00216(18) 0.00025(16) 0.00061(15) -0.00004(16)
Al5 0.0105(6) 0.0047(4) 0.0105(6) 0.0002(3) 0.0047(5) -0.0005(3)
Al5B 0.0105(15) 0.0066(9) 0.0104(15) 0.0020(8) 0.0014(12) -0.0016(8)
Al6 0.0081(4) 0.0051(4) 0.0048(4) -0.0020(4) 0.0035(4) -0.0012(3)
Al6B 0.0090(5) 0.0053(5) 0.0053(4) -0.0001(4) 0.0027(4) 0.0005(3)
Al7 0.0051(4) 0.0058(5) 0.0076(4) 0.0019(3) 0.0036(4) 0.0020(4)
Al7B 0.0059(4) 0.0051(5) 0.0089(4) -0.0001(4) 0.0030(4) 0.0001(4)
N1 0.0089(6) 0.0063(6) 0.0090(6) 0.0004(5) 0.0031(5) 0.0004(5)
N2 0.0091(6) 0.0055(6) 0.0080(6) 0.0005(5) 0.0034(5) 0.0006(5)
N3 0.0169(8) 0.0068(7) 0.0162(8) -0.0025(6) -0.0003(7) 0.0025(6)
N4 0.0079(6) 0.0140(7) 0.0068(6) 0.0004(6) 0.0041(5) 0.0001(6)
N5 0.0246(10) 0.0067(7) 0.0251(10) 0.0012(7) 0.0077(8) -0.0014(7)
N6 0.0060(6) 0.0227(9) 0.0064(6) 0.0019(6) 0.0020(5) 0.0006(6)
N7 0.0082(6) 0.0097(7) 0.0066(6) -0.0003(5) 0.0030(5) 0.0016(5)
N8 0.0141(15) 0.0090(14) 0.0119(14) -0.0009(12) 0.0090(13) -0.0007(11)
N8B 0.0124(15) 0.0139(16) 0.0109(14) 0.0014(12) 0.0063(13) 0.0021(12)
N9 0.0120(14) 0.0097(14) 0.0122(14) 0.0029(11) 0.0086(13) 0.0025(11)
N10 0.0118(14) 0.0104(15) 0.0127(14) -0.0010(12) 0.0069(13) 0.0003(12)
loop_
_atom_type_symbol
_atom_type_description
_atom_type_scat_dispersion_real
_atom_type_scat_dispersion_imag
_atom_type_scat_source
N N 0.0061 0.0033 'International Tables Vol C Tables 4.2.6.8 and 6.1.1.4'
Ba Ba -0.3244 2.2819 'International Tables Vol C Tables 4.2.6.8 and 6.1.1.4'
Si Si 0.0817 0.0704 'International Tables Vol C Tables 4.2.6.8 and 6.1.1.4'
Eu Eu -0.1578 3.6682 'International Tables Vol C Tables 4.2.6.8 and 6.1.1.4'
Al Al 0.0645 0.0514 'International Tables Vol C Tables 4.2.6.8 and 6.1.1.4'
loop_
_geom_angle_atom_site_label_1
_geom_angle_atom_site_label_2
_geom_angle_atom_site_label_3
_geom_angle_site_symmetry_1
_geom_angle_site_symmetry_3
_geom_angle
N1 Ba1 N1 . 1_655 148.13
N1 Ba1 N2 . 4_554 111.68
N1 Ba1 N2 . 4_555 61.12
N1 Ba1 N3 . 1_655 146.87
N1 Ba1 N4 . 1_554 59.82
N1 Ba1 N4 . 1_655 121.14
N1 Ba1 N2 1_655 4_554 56.18
N1 Ba1 N2 1_655 4_555 112.41
N1 Ba1 N3 1_655 1_655 55.35
N1 Ba1 N4 1_655 1_554 119.72
N1 Ba1 N4 1_655 1_655 63.89
N2 Ba1 N2 4_554 4_555 149.18
N2 Ba1 N3 4_554 1_655 55.34
N2 Ba1 N4 4_554 1_554 63.63
N2 Ba1 N4 4_554 1_655 119.94
N2 Ba1 N3 4_555 1_655 146.56
N2 Ba1 N4 4_555 1_554 120.74
N2 Ba1 N4 4_555 1_655 60.12
N3 Ba1 N4 1_655 1_554 88.84
N3 Ba1 N4 1_655 1_655 88.51
N4 Ba1 N4 1_554 1_655 172.57
N1 Si1 N2 . 4_454 109.59
N1 Si1 N3 . . 107.9
N1 Si1 N4 . 1_554 114.51
N2 Si1 N3 4_454 . 106.56
N2 Si1 N4 4_454 1_554 114.91
N3 Si1 N4 . 1_554 102.61
N1 Si2 N2 . 4_555 112.15
N1 Si2 N4 . . 119.39
N1 Si2 N5 . . 105.35
N2 Si2 N4 4_555 . 118.16
N2 Si2 N5 4_555 . 104.36
N4 Si2 N5 . . 93.05
N1 Si3 N6 . . 105.21
N1 Si3 N6 . 4_554 109.08
N1 Si3 N7 . 4_454 107.14
N6 Si3 N6 . 4_554 110.39
N6 Si3 N7 . 4_454 114.39
N6 Si3 N7 4_554 4_454 110.36
N2 Si4 N6 . 4_554 106.97
N2 Si4 N7 . . 108.72
N2 Si4 N7 . 4_554 108.15
N6 Si4 N7 4_554 . 112.12
N6 Si4 N7 4_554 4_554 110.39
N7 Si4 N7 . 4_554 110.35
N4 Si5 N5 . . 93.31
N4 Si5 N8 . 3_657 123.31
N4 Si5 N8b . 3_657 114.01
N4 Si5 N9 . 3_758 123.5
N4 Si5 N10 . 3_657 113.97
N5 Si5 N8 . 3_657 90.4
N5 Si5 N8b . 3_657 114.03
N5 Si5 N9 . 3_758 90.21
N5 Si5 N10 . 3_657 114.37
N8 Si5 N8b 3_657 3_657 24.16
N8 Si5 N9 3_657 3_758 113.02
N8 Si5 N10 3_657 3_657 115.46
N8b Si5 N9 3_657 3_758 115.53
N8b Si5 N10 3_657 3_657 107.01
N9 Si5 N10 3_758 3_657 24.71
N4 Si5b N8 . 3_657 118
N4 Si5b N8b . 3_657 120.22
N4 Si5b N9 . 3_758 118.19
N4 Si5b N10 . 3_657 120.49
N8 Si5b N8b 3_657 3_657 24.61
N8 Si5b N9 3_657 3_758 104.66
N8 Si5b N10 3_657 3_657 117.37
N8b Si5b N9 3_657 3_758 117.16
N8b Si5b N10 3_657 3_657 119.13
N9 Si5b N10 3_758 3_657 25.26
N3 Si6 N5 . . 110.8
N3 Si6 N8 . . 113.05
N3 Si6 N8b . . 121.92
N3 Si6 N10 . 3_656 100.35
N5 Si6 N8 . . 109.62
N5 Si6 N8b . . 119.97
N5 Si6 N10 . 3_656 113.17
N8 Si6 N8b . . 25.08
N8 Si6 N10 . 3_656 109.64
N8b Si6 N10 . 3_656 84.67
N3 Si6b N5 . . 112.32
N3 Si6b N8 . . 119.07
N3 Si6b N8 . 3_657 110.81
N3 Si6b N8b . . 111.31
N5 Si6b N8 . . 125.62
N5 Si6b N8 . 3_657 94.46
N5 Si6b N8b . . 118.6
N8 Si6b N8 . 3_657 83.53
N8 Si6b N8b . . 24.6
N8 Si6b N8b 3_657 . 107.9
N3 Si7 N5 . 1_454 111.23
N3 Si7 N8b . 3_656 100.12
N3 Si7 N9 . 1_454 113.11
N3 Si7 N10 . . 121.92
N5 Si7 N8b 1_454 3_656 113.17
N5 Si7 N9 1_454 1_454 109.79
N5 Si7 N10 1_454 . 120.16
N8b Si7 N9 3_656 1_454 109.17
N8b Si7 N10 3_656 . 83.7
N9 Si7 N10 1_454 . 25.57
N3 Si7b N5 1_656 . 113.04
N3 Si7b N9 1_656 . 118.64
N3 Si7b N9 1_656 3_758 110.89
N3 Si7b N10 1_656 1_656 110.87
N5 Si7b N9 . . 125.38
N5 Si7b N9 . 3_758 94.09
N5 Si7b N10 . 1_656 118.31
N9 Si7b N9 . 3_758 83.58
N9 Si7b N10 . 1_656 24.9
N9 Si7b N10 3_758 1_656 108.23
loop_
_geom_bond_atom_site_label_1
_geom_bond_atom_site_label_2
_geom_bond_site_symmetry_2
_geom_bond_distance
Ba1 N1 . 2.9954
Ba1 N1 1_655 3.0847
Ba1 N2 4_554 3.0421
Ba1 N2 4_555 3.0142
Ba1 N3 1_655 3.0987
Ba1 N4 1_554 2.9875
Ba1 N4 1_655 2.9647
Eu1 N1 . 2.9273
Si1 N1 . 1.7624
Si1 N2 4_454 1.7683
Si1 N3 . 1.7898
Si1 N4 1_554 1.7846
Si2 N1 . 1.843
Si2 N2 4_555 1.8395
Si2 N4 . 1.866
Si2 N5 . 1.9124
Si3 N1 . 1.8114
Si3 N6 . 1.7797
Si3 N6 4_554 1.7831
Si3 N7 4_454 1.7931
Si4 N2 . 1.7821
Si4 N6 4_554 1.7681
Si4 N7 . 1.7767
Si4 N7 4_554 1.7798
Si5 N4 . 1.7638
Si5 N5 . 2.0003
Si5 N8 3_657 1.6719
Si5 N8b 3_657 1.8019
Si5 N9 3_758 1.668
Si5 N10 3_657 1.8056
Si5b N4 . 1.7664
Si5b N8 3_657 1.7616
Si5b N8b 3_657 1.6828
Si5b N9 3_758 1.7572
Si5b N10 3_657 1.6809
Si6 N3 . 1.7733
Si6 N5 . 1.852
Si6 N8 . 1.7347
Si6 N8b . 1.6366
Si6 N10 3_656 1.7602
Si6b N3 . 1.8442
Si6b N5 . 1.7484
Si6b N8 . 1.5462
Si6b N8 3_657 1.8147
Si6b N8b . 1.7671
Si7 N3 . 1.7828
Si7 N5 1_454 1.8575
Si7 N8b 3_656 1.7824
Si7 N9 1_454 1.7412
Si7 N10 . 1.6455
Si7b N3 1_656 1.8517
Si7b N5 . 1.7497
Si7b N9 . 1.5631
Si7b N9 3_758 1.8148
Si7b N10 1_656 1.7886
loop_
_refln_index_h
_refln_index_k
_refln_index_l
_refln_F_squared_calc
_refln_F_squared_meas
_refln_F_squared_sigma
_refln_observed_status
1 0 0 3503.41 3250.02 110.56 o
2 0 0 2715.36 3053.69 53.37 o
3 0 0 18431.40 18295.40 289.74 o
4 0 0 70114.20 70295.80 1498.25 o
5 0 0 651.92 663.35 24.78 o
6 0 0 851.79 886.37 30.50 o
7 0 0 2720.01 2704.86 62.90 o
8 0 0 4847.71 5074.23 152.49 o
1 1 0 4041.16 4092.55 74.34 o
2 1 0 41746.00 43565.60 491.79 o
3 1 0 9133.38 9113.41 104.84 o
4 1 0 1.01 7.62 7.62 <
5 1 0 1107.21 1054.11 20.97 o
6 1 0 24021.30 24189.30 327.86 o
7 1 0 915.99 852.06 22.87 o
8 1 0 428.55 514.67 40.03 o
1 2 0 1655.54 1675.53 28.59 o
2 2 0 1040.32 1351.48 17.16 o
3 2 0 1020.29 1056.02 20.97 o
4 2 0 25.60 28.59 5.72 o
5 2 0 98.41 80.06 7.62 o
6 2 0 57.28 62.90 11.44 o
7 2 0 140.52 156.31 13.34 o
8 2 0 813.83 825.37 40.03 o
1 3 0 473.58 470.83 13.34 o
2 3 0 4062.96 3696.07 49.56 o
3 3 0 5056.27 5207.66 61.00 o
4 3 0 371.87 379.33 9.53 o
5 3 0 119.62 123.90 9.53 o
6 3 0 1091.76 1271.42 43.84 o
7 3 0 656.47 674.78 41.94 o
8 3 0 52.31 61.00 24.78 <
0 4 0 13084.70 12256.70 181.09 o
1 4 0 8365.88 7706.65 125.81 o
2 4 0 825.02 1115.11 13.34 o
3 4 0 18846.60 18249.70 203.96 o
4 4 0 3196.61 3019.38 34.31 o
5 4 0 1572.23 1498.25 24.78 o
6 4 0 2.43 13.34 11.44 <
7 4 0 2767.70 2781.10 64.81 o
8 4 0 1248.94 1300.01 41.94 o
1 5 0 14840.00 14286.80 251.62 o
2 5 0 4721.70 6181.72 95.31 o
3 5 0 15303.60 14988.20 152.49 o
4 5 0 200.28 171.55 7.62 o
5 5 0 4107.81 3968.65 51.47 o
6 5 0 4440.51 4504.29 70.53 o
7 5 0 1074.97 1136.08 49.56 o
8 5 0 35.83 38.12 17.16 <
0 6 0 389.42 358.36 7.62 o
1 6 0 3360.18 3314.83 53.37 o
2 6 0 660.70 789.16 22.87 o
3 6 0 4450.52 4462.35 68.62 o
4 6 0 135.79 142.96 7.62 o
5 6 0 402.52 392.67 13.34 o
6 6 0 15.26 38.12 11.44 o
7 6 0 497.65 505.14 28.59 o
8 6 0 4.96 28.59 17.16 <
1 7 0 2424.05 2361.75 41.94 o
2 7 0 32.47 30.50 3.81 o
3 7 0 2166.54 2157.79 24.78 o
4 7 0 116.95 104.84 5.72 o
5 7 0 399.13 388.86 13.34 o
6 7 0 3679.72 3640.79 59.09 o
7 7 0 206.38 223.02 26.69 o
8 7 0 28.86 30.50 17.16 <
0 8 0 57685.20 61611.30 977.87 o
1 8 0 8437.93 7807.68 133.43 o
2 8 0 272.27 333.58 7.62 o
3 8 0 16940.10 16322.60 173.46 o
4 8 0 6389.11 6216.03 116.28 o
5 8 0 1691.87 1572.59 38.12 o
6 8 0 6.03 24.78 11.44 <
7 8 0 2428.36 2388.43 59.09 o
8 8 0 1253.91 1288.57 43.84 o
1 9 0 6779.72 6671.60 76.25 o
2 9 0 28791.30 29560.90 335.49 o
3 9 0 11894.20 11528.50 142.96 o
4 9 0 38.41 36.22 5.72 o
5 9 0 1718.79 1641.21 26.69 o
6 9 0 19755.00 20039.60 270.68 o
7 9 0 852.99 800.59 47.65 o
8 9 0 149.48 110.56 20.97 o
0 10 0 91467.00 99902.50 2933.60 o
1 10 0 713.55 756.75 11.44 o
2 10 0 1593.10 1717.46 20.97 o
3 10 0 3252.85 3257.65 36.22 o
4 10 0 10807.10 10333.40 270.68 o
5 10 0 35.75 30.50 9.53 o
6 10 0 384.60 388.86 19.06 o
7 10 0 393.42 404.11 26.69 o
8 10 0 523.23 609.97 32.40 o
1 11 0 1167.44 1078.89 17.16 o
2 11 0 485.30 558.51 20.97 o
3 11 0 532.13 604.26 17.16 o
4 11 0 116.68 112.46 11.44 o
5 11 0 161.75 169.65 13.34 o
6 11 0 42.04 72.43 11.44 o
7 11 0 1.54 -9.53 15.25 <
8 11 0 256.17 263.05 24.78 o
0 12 0 29421.40 29042.40 390.77 o
1 12 0 1646.36 1481.10 20.97 o
2 12 0 626.87 701.47 13.34 o
3 12 0 6028.49 6048.28 64.81 o
4 12 0 7332.37 7212.96 102.93 o
5 12 0 686.28 674.78 38.12 o
6 12 0 1.35 5.72 11.44 <
7 12 0 927.51 899.71 34.31 o
8 12 0 357.35 360.27 26.69 o
1 13 0 1608.04 1595.47 20.97 o
2 13 0 9413.67 9100.07 104.84 o
3 13 0 8543.15 8549.18 89.59 o
4 13 0 589.78 604.26 40.03 o
5 13 0 498.54 476.54 19.06 o
6 13 0 7408.17 7182.46 173.46 o
7 13 0 1109.56 1033.15 36.22 o
8 13 0 2.34 -1.91 19.06 <
0 14 0 6337.42 6315.15 85.78 o
1 14 0 1601.33 1606.90 22.87 o
2 14 0 43.01 64.81 5.72 o
3 14 0 5761.84 5684.21 68.62 o
4 14 0 2673.09 2655.30 45.75 o
5 14 0 144.64 146.77 13.34 o
6 14 0 73.21 57.19 11.44 o
7 14 0 845.01 791.06 34.31 o
1 15 0 541.23 535.63 13.34 o
2 15 0 35.87 36.22 5.72 o
3 15 0 721.89 770.09 15.25 o
4 15 0 50.46 45.75 9.53 o
5 15 0 490.85 480.36 19.06 o
6 15 0 23.95 28.59 11.44 <
7 15 0 37.96 70.53 17.16 o
0 16 0 1757.14 1791.80 28.59 o
1 16 0 66.18 93.40 5.72 o
2 16 0 38.61 36.22 5.72 o
3 16 0 532.88 594.73 13.34 o
4 16 0 11.64 36.22 9.53 o
5 16 0 50.87 78.15 13.34 o
6 16 0 3.06 9.53 11.44 <
7 16 0 182.23 196.34 20.97 o
1 17 0 1512.64 1517.31 28.59 o
2 17 0 2053.64 2119.66 30.50 o
3 17 0 6231.56 6004.44 72.43 o
4 17 0 118.99 97.21 11.44 o
5 17 0 104.65 110.56 17.16 o
6 17 0 2411.81 2386.53 83.87 o
7 17 0 676.48 739.59 34.31 o
0 18 0 14158.30 15062.60 249.71 o
1 18 0 2290.85 2163.51 26.69 o
2 18 0 99.45 80.06 7.62 o
3 18 0 7178.79 6831.72 165.84 o
4 18 0 122.43 125.81 11.44 o
5 18 0 321.85 329.77 19.06 o
6 18 0 11.78 32.40 13.34 <
7 18 0 792.27 758.66 40.03 o
1 19 0 592.37 564.23 11.44 o
2 19 0 454.76 472.73 13.34 o
3 19 0 729.76 762.47 26.69 o
4 19 0 510.53 518.48 24.78 o
5 19 0 367.58 356.45 17.16 o
6 19 0 6.69 1.91 13.34 <
7 19 0 56.13 93.40 17.16 o
0 20 0 17060.70 17799.80 236.37 o
1 20 0 25.58 57.19 5.72 o
2 20 0 476.30 505.14 13.34 o
3 20 0 1000.44 1071.27 24.78 o
4 20 0 6677.35 6925.12 129.62 o
5 20 0 42.10 36.22 13.34 <
6 20 0 5.55 13.34 15.25 <
7 20 0 241.44 284.02 20.97 o
1 21 0 2504.56 2544.74 38.12 o
2 21 0 9123.81 9456.52 110.56 o
3 21 0 4408.51 4412.79 66.72 o
4 21 0 315.08 297.36 24.78 o
5 21 0 457.56 489.89 20.97 o
6 21 0 4492.24 4569.09 74.34 o
7 21 0 121.50 162.02 17.16 o
0 22 0 5137.61 5649.89 80.06 o
1 22 0 939.16 928.31 20.97 o
2 22 0 81.75 93.40 9.53 o
3 22 0 3979.03 3987.71 62.90 o
4 22 0 1622.25 1570.69 36.22 o
5 22 0 155.17 131.53 15.25 o
6 22 0 18.64 28.59 13.34 <
7 22 0 383.74 379.33 34.31 o
1 23 0 55.08 49.56 9.53 o
2 23 0 929.97 932.12 19.06 o
3 23 0 492.23 510.85 22.87 o
4 23 0 166.79 181.09 15.25 o
5 23 0 23.20 40.03 17.16 <
6 23 0 1459.08 1471.56 41.94 o
7 23 0 75.37 83.87 17.16 o
0 24 0 859.02 1141.80 22.87 o
1 24 0 14.99 19.06 7.62 <
2 24 0 45.45 53.37 7.62 o
3 24 0 84.67 101.03 15.25 o
4 24 0 1133.39 1075.08 34.31 o
5 24 0 94.71 76.25 13.34 o
6 24 0 98.12 93.40 20.97 o
7 24 0 45.18 34.31 15.25 <
1 25 0 349.42 324.05 15.25 o
2 25 0 1630.64 1717.46 40.03 o
3 25 0 737.25 775.81 22.87 o
4 25 0 0.79 11.44 11.44 <
5 25 0 3.93 -7.62 13.34 <
6 25 0 387.13 426.98 22.87 o
0 26 0 758.31 1099.86 51.47 o
1 26 0 29.65 30.50 7.62 o
2 26 0 8.24 7.62 7.62 <
3 26 0 857.70 831.09 22.87 o
4 26 0 497.87 524.20 20.97 o
5 26 0 25.02 28.59 13.34 <
6 26 0 1.97 -5.72 13.34 <
1 27 0 40.12 47.65 7.62 o
2 27 0 1754.37 1850.89 28.59 o
3 27 0 688.48 667.16 20.97 o
4 27 0 202.20 192.52 26.69 o
5 27 0 53.45 55.28 17.16 o
6 27 0 3.03 45.75 24.78 <
1 28 0 264.15 236.37 11.44 o
2 28 0 249.76 259.24 13.34 o
3 28 0 184.18 181.09 13.34 o
4 28 0 963.04 943.55 26.69 o
5 28 0 3.29 -9.53 13.34 <
6 28 0 0.24 -28.59 15.25 <
1 29 0 124.36 122.00 9.53 o
2 29 0 4616.83 4782.59 74.34 o
3 29 0 108.83 120.09 19.06 o
4 29 0 535.42 520.39 22.87 o
5 29 0 308.82 314.52 20.97 o
6 29 0 2240.78 2125.38 47.65 o
0 30 0 17026.60 18472.70 415.55 o
1 30 0 75.64 83.87 17.16 o
2 30 0 61.51 68.62 11.44 o
3 30 0 673.11 646.19 22.87 o
4 30 0 4396.02 4450.91 102.93 o
5 30 0 73.08 34.31 15.25 <
6 30 0 35.48 40.03 15.25 <
1 31 0 37.44 43.84 9.53 o
2 31 0 146.59 146.77 13.34 o
3 31 0 777.43 718.63 24.78 o
4 31 0 65.27 64.81 15.25 o
5 31 0 3.29 1.91 15.25 <
0 32 0 1984.65 2670.55 76.25 o
1 32 0 69.87 78.15 13.34 o
2 32 0 0.98 1.91 11.44 <
3 32 0 148.68 162.02 15.25 o
4 32 0 411.85 365.98 20.97 o
5 32 0 40.38 41.94 15.25 <
1 33 0 389.64 325.95 17.16 o
2 33 0 15.03 1.91 11.44 <
3 33 0 274.71 285.93 17.16 o
4 33 0 12.21 9.53 13.34 <
5 33 0 2.50 28.59 19.06 <
1 34 0 24.22 36.22 20.97 <
2 34 0 16.57 20.97 15.25 <
3 34 0 920.03 880.65 36.22 o
4 34 0 349.45 375.52 20.97 o
5 34 0 16.15 11.44 15.25 <
1 35 0 174.44 160.12 15.25 o
2 35 0 1712.55 1726.99 45.75 o
3 35 0 430.36 438.42 20.97 o
4 35 0 5.85 17.16 13.34 <
5 35 0 3.53 -7.62 15.25 <
0 36 0 1004.74 1376.26 51.47 o
1 36 0 3.10 -13.34 11.44 <
2 36 0 103.00 118.18 19.06 o
3 36 0 23.29 24.78 19.06 <
4 36 0 0.27 20.97 17.16 <
1 37 0 196.39 173.46 19.06 o
2 37 0 989.54 1168.48 40.03 o
3 37 0 125.17 116.28 19.06 o
4 37 0 119.01 108.65 20.97 o
0 38 0 102.32 276.39 26.69 o
1 38 0 161.85 205.87 28.59 o
2 38 0 248.19 243.99 22.87 o
3 38 0 59.75 68.62 19.06 o
4 38 0 0.15 -28.59 19.06 <
1 39 0 313.70 407.92 34.31 o
2 39 0 637.12 587.10 30.50 o
3 39 0 10.28 -3.81 17.16 <
0 40 0 100.47 270.68 28.59 o
1 40 0 139.48 135.34 26.69 o
2 40 0 0.80 53.37 19.06 <
3 40 0 4.72 -5.72 19.06 <
1 41 0 198.67 123.90 26.69 o
2 41 0 1257.47 1120.83 64.81 o
0 42 0 2409.92 2420.84 78.15 o
1 42 0 66.70 74.34 24.78 o
2 42 0 0.41 7.62 19.06 <
1 43 0 13.60 3.81 22.87 <
-8 1 1 1056.85 1143.70 38.12 o
-7 1 1 2032.51 2108.23 36.22 o
-6 1 1 1581.01 1578.31 24.78 o
-5 1 1 107.32 101.03 11.44 o
-4 1 1 423.59 415.55 9.53 o
-3 1 1 5102.45 4769.24 87.68 o
-2 1 1 9006.27 8857.98 102.93 o
-1 1 1 53.08 34.31 3.81 o
0 1 1 849.05 743.41 9.53 o
1 1 1 13479.10 12313.90 362.17 o
2 1 1 1174.59 1162.77 17.16 o
3 1 1 11.07 11.44 5.72 <
4 1 1 3222.20 3211.90 40.03 o
5 1 1 1806.73 1793.71 34.31 o
6 1 1 266.13 264.96 15.25 o
7 1 1 12.20 32.40 15.25 <
-8 2 1 3604.92 3547.39 66.72 o
-7 2 1 17.97 30.50 17.16 <
-6 2 1 3653.32 3499.73 53.37 o
-5 2 1 18945.60 18880.60 213.49 o
-4 2 1 2003.63 1900.45 26.69 o
-3 2 1 12.81 19.06 3.81 o
-2 2 1 24841.50 23907.20 409.83 o
-1 2 1 5932.71 5665.14 57.19 o
0 2 1 5417.79 5306.78 53.37 o
1 2 1 0.13 -5.72 3.81 <
2 2 1 3976.74 3718.94 43.84 o
3 2 1 4361.48 4220.27 51.47 o
4 2 1 10318.00 10262.80 122.00 o
5 2 1 24.87 38.12 11.44 o
6 2 1 962.22 914.96 22.87 o
7 2 1 6221.32 6250.34 125.81 o
-8 3 1 1988.11 2133.01 57.19 o
-7 3 1 198.41 184.90 15.25 o
-6 3 1 3545.81 3511.17 47.65 o
-5 3 1 5.14 1.91 5.72 <
-4 3 1 2088.85 2014.82 40.03 o
-3 3 1 10680.70 10407.70 123.90 o
-2 3 1 24848.10 23693.70 331.67 o
-1 3 1 16.26 26.69 3.81 o
0 3 1 8873.69 8526.31 85.78 o
1 3 1 52622.20 53370.90 1261.89 o
2 3 1 5526.43 5121.88 57.19 o
3 3 1 0.18 5.72 3.81 <
4 3 1 10097.90 9994.06 118.18 o
5 3 1 3888.80 3896.22 97.21 o
6 3 1 897.20 852.06 24.78 o
7 3 1 0.31 20.97 22.87 <
-8 4 1 416.24 428.89 26.69 o
-7 4 1 69.40 91.50 17.16 o
-6 4 1 89.44 120.09 9.53 o
-5 4 1 14.72 32.40 5.72 o
-4 4 1 1475.30 1431.54 19.06 o
-3 4 1 215.02 264.96 7.62 o
-2 4 1 2443.35 2451.34 41.94 o
-1 4 1 215.59 245.90 5.72 o
0 4 1 3536.83 3558.82 36.22 o
1 4 1 0.00 -41.94 3.81 <
2 4 1 1440.69 1355.29 22.87 o
3 4 1 18.90 20.97 5.72 o
4 4 1 1209.26 1319.07 22.87 o
5 4 1 72.37 89.59 11.44 o
6 4 1 348.31 379.33 22.87 o
7 4 1 6.21 1.91 15.25 <
-8 5 1 463.06 537.54 28.59 o
-7 5 1 2339.65 2367.47 57.19 o
-6 5 1 1099.41 1105.58 22.87 o
-5 5 1 157.66 173.46 7.62 o
-4 5 1 310.07 304.99 11.44 o
-3 5 1 29899.50 31564.30 394.58 o
-2 5 1 4774.91 4771.15 78.15 o
-1 5 1 11.70 -32.40 1.91 <
0 5 1 787.83 707.19 13.34 o
1 5 1 78252.30 86545.90 2699.14 o
2 5 1 343.95 318.33 17.16 o
3 5 1 4.44 0.00 5.72 <
4 5 1 2369.29 2394.15 38.12 o
5 5 1 9422.75 9645.23 146.77 o
6 5 1 116.30 135.34 24.78 o
7 5 1 49.94 72.43 24.78 <
-8 6 1 3551.06 3509.26 76.25 o
-7 6 1 39.43 55.28 15.25 o
-6 6 1 1819.65 1767.02 28.59 o
-5 6 1 31584.20 32056.10 423.17 o
-4 6 1 4734.91 4481.41 62.90 o
-3 6 1 122.49 137.24 5.72 o
-2 6 1 22396.60 21320.50 316.42 o
-1 6 1 51019.00 55551.60 526.10 o
0 6 1 14124.30 13812.10 173.46 o
1 6 1 0.00 -17.16 5.72 <
2 6 1 8715.49 8387.16 148.68 o
3 6 1 24378.20 25373.10 291.64 o
4 6 1 9687.57 9351.68 112.46 o
5 6 1 60.38 64.81 9.53 o
6 6 1 1720.12 1685.06 45.75 o
7 6 1 10474.60 10270.50 154.40 o
-8 7 1 2053.15 2056.76 53.37 o
-7 7 1 3672.45 3600.76 76.25 o
-6 7 1 4629.15 4490.94 59.09 o
-5 7 1 57.88 72.43 7.62 o
-4 7 1 3222.93 3107.06 36.22 o
-3 7 1 12135.50 12090.80 123.90 o
-2 7 1 27531.40 26166.00 310.71 o
-1 7 1 5.90 11.44 3.81 o
0 7 1 11695.90 11271.20 118.18 o
1 7 1 31710.30 31160.20 385.05 o
2 7 1 7925.34 7598.00 89.59 o
3 7 1 2.10 3.81 7.62 <
4 7 1 12124.10 11618.10 137.24 o
5 7 1 5901.69 5848.14 74.34 o
6 7 1 1194.84 1197.08 40.03 o
7 7 1 29.93 47.65 19.06 <
-8 8 1 930.42 966.43 36.22 o
-7 8 1 123.59 144.87 19.06 o
-6 8 1 595.78 606.16 24.78 o
-5 8 1 7933.86 8097.42 85.78 o
-4 8 1 925.44 956.90 15.25 o
-3 8 1 35.36 34.31 5.72 o
-2 8 1 3674.37 3970.56 81.97 o
-1 8 1 4189.40 4351.79 41.94 o
0 8 1 1459.94 1587.84 19.06 o
1 8 1 0.01 0.00 3.81 <
2 8 1 1187.04 1301.92 19.06 o
3 8 1 2016.42 2134.91 28.59 o
4 8 1 1639.26 1725.09 30.50 o
5 8 1 30.82 22.87 11.44 <
6 8 1 422.40 419.36 24.78 o
7 8 1 2647.09 2645.77 81.97 o
-8 9 1 142.47 148.68 45.75 o
-7 9 1 233.25 255.43 20.97 o
-6 9 1 381.12 398.39 26.69 o
-5 9 1 208.46 219.21 11.44 o
-4 9 1 406.39 373.61 9.53 o
-3 9 1 571.42 613.79 15.25 o
-2 9 1 2415.36 2274.06 38.12 o
-1 9 1 150.93 129.62 5.72 o
0 9 1 1184.33 1054.11 17.16 o
1 9 1 38.99 26.69 3.81 o
2 9 1 753.45 669.07 17.16 o
3 9 1 95.60 106.75 7.62 o
4 9 1 1152.48 1212.33 20.97 o
5 9 1 271.43 304.99 19.06 o
6 9 1 129.90 131.53 19.06 o
7 9 1 53.46 72.43 19.06 o
-8 10 1 2191.45 2152.07 55.28 o
-7 10 1 38.31 36.22 11.44 o
-6 10 1 1013.61 916.87 49.56 o
-5 10 1 5819.36 5735.67 78.15 o
-4 10 1 2425.04 2327.44 28.59 o
-3 10 1 0.08 1.91 3.81 <
-2 10 1 11401.80 11002.40 112.46 o
-1 10 1 1588.56 2298.84 24.78 o
0 10 1 5319.85 4921.74 51.47 o
1 10 1 0.00 -11.44 3.81 <
2 10 1 4499.30 4254.58 93.40 o
3 10 1 46.18 36.22 7.62 o
4 10 1 5368.58 5327.75 66.72 o
5 10 1 0.27 7.62 15.25 <
6 10 1 954.75 966.43 36.22 o
7 10 1 2005.74 2054.85 80.06 o
-8 11 1 2022.35 2054.85 80.06 o
-7 11 1 303.29 308.80 17.16 o
-6 11 1 2464.15 2304.56 41.94 o
-5 11 1 3.04 0.00 9.53 <
-4 11 1 907.61 949.27 15.25 o
-3 11 1 1612.06 1475.38 19.06 o
-2 11 1 15056.60 15030.20 169.65 o
-1 11 1 3.20 0.00 3.81 <
0 11 1 3113.41 2988.88 32.40 o
1 11 1 12810.20 13049.70 137.24 o
2 11 1 2310.22 2241.66 34.31 o
3 11 1 0.94 -3.81 5.72 <
4 11 1 6802.03 6644.92 81.97 o
5 11 1 571.92 615.69 20.97 o
6 11 1 485.96 505.14 28.59 o
7 11 1 0.44 5.72 22.87 <
-8 12 1 1016.59 972.15 38.12 o
-7 12 1 3.89 15.25 11.44 <
-6 12 1 1188.32 1178.01 53.37 o
-5 12 1 1643.33 1732.71 32.40 o
-4 12 1 80.67 89.59 5.72 o
-3 12 1 42.71 34.31 3.81 o
-2 12 1 5598.23 5912.95 70.53 o
-1 12 1 57.16 215.40 5.72 o
0 12 1 173.43 190.62 5.72 o
1 12 1 0.00 5.72 3.81 <
2 12 1 38.76 43.84 5.72 o
3 12 1 82.37 72.43 11.44 o
4 12 1 2839.82 2727.73 45.75 o
5 12 1 11.50 22.87 11.44 <
6 12 1 61.24 72.43 22.87 o
7 12 1 526.31 556.60 49.56 o
-8 13 1 1.51 0.00 17.16 <
-7 13 1 2110.23 2018.64 40.03 o
-6 13 1 29.24 43.84 11.44 o
-5 13 1 0.79 3.81 9.53 <
-4 13 1 114.61 102.93 7.62 o
-3 13 1 881.78 935.93 19.06 o
-2 13 1 114.48 243.99 9.53 o
-1 13 1 126.29 133.43 5.72 o
0 13 1 46.89 62.90 7.62 o
1 13 1 18.74 24.78 5.72 o
2 13 1 36.07 43.84 5.72 o
3 13 1 64.96 59.09 7.62 o
4 13 1 11.75 41.94 9.53 o
5 13 1 495.21 474.64 19.06 o
6 13 1 22.88 9.53 17.16 <
7 13 1 1.11 -11.44 19.06 <
-8 14 1 554.01 529.92 30.50 o
-7 14 1 129.33 118.18 15.25 o
-6 14 1 291.41 276.39 17.16 o
-5 14 1 19707.20 19791.80 266.86 o
-4 14 1 8.06 24.78 9.53 <
-3 14 1 752.25 802.50 19.06 o
-2 14 1 2915.51 2924.07 36.22 o
-1 14 1 29350.50 30737.00 331.67 o
0 14 1 400.02 438.42 9.53 o
1 14 1 0.06 5.72 3.81 <
2 14 1 367.07 377.42 9.53 o
3 14 1 16787.60 16164.30 333.58 o
4 14 1 1355.95 1282.85 40.03 o
5 14 1 281.96 316.42 24.78 o
6 14 1 16.84 53.37 19.06 <
7 14 1 6834.33 6448.58 127.71 o
-8 15 1 936.12 949.27 38.12 o
-7 15 1 3960.40 4039.18 66.72 o
-6 15 1 1811.77 1875.67 38.12 o
-5 15 1 627.09 632.85 30.50 o
-4 15 1 242.00 261.15 19.06 o
-3 15 1 50889.40 51651.50 590.91 o
-2 15 1 8060.05 8097.42 95.31 o
-1 15 1 85.40 62.90 5.72 o
0 15 1 886.74 817.75 13.34 o
1 15 1 127692.00 131678.00 1429.63 o
2 15 1 310.67 301.17 11.44 o
3 15 1 45.31 40.03 9.53 o
4 15 1 4545.26 4294.61 87.68 o
5 15 1 19622.50 19389.60 535.63 o
6 15 1 85.46 93.40 19.06 o
7 15 1 191.62 194.43 24.78 o
-8 16 1 1224.60 1284.76 66.72 o
-7 16 1 182.45 188.71 15.25 o
-6 16 1 787.45 783.44 36.22 o
-5 16 1 13593.10 13825.50 190.62 o
-4 16 1 886.52 876.84 17.16 o
-3 16 1 103.50 106.75 7.62 o
-2 16 1 6955.69 6892.72 81.97 o
-1 16 1 13191.30 13676.80 129.62 o
0 16 1 2096.42 2041.51 24.78 o
1 16 1 0.09 3.81 5.72 <
2 16 1 1974.24 1869.95 36.22 o
3 16 1 7994.03 7906.80 308.80 o
4 16 1 3017.39 2857.35 47.65 o
5 16 1 81.29 116.28 17.16 o
6 16 1 479.25 507.04 30.50 o
7 16 1 4850.58 4706.34 171.55 o
-8 17 1 8.43 3.81 22.87 <
-7 17 1 751.18 739.59 26.69 o
-6 17 1 193.38 234.46 17.16 o
-5 17 1 40.94 45.75 9.53 o
-4 17 1 99.62 93.40 9.53 o
-3 17 1 192.02 169.65 7.62 o
-2 17 1 1662.77 1673.62 28.59 o
-1 17 1 36.44 40.03 3.81 o
0 17 1 1200.30 1128.45 20.97 o
1 17 1 1431.59 1406.76 22.87 o
2 17 1 939.13 916.87 17.16 o
3 17 1 39.42 43.84 9.53 o
4 17 1 753.71 758.66 34.31 o
5 17 1 16.03 26.69 13.34 <
6 17 1 33.60 51.47 13.34 o
7 17 1 19.27 41.94 22.87 <
-8 18 1 155.66 211.59 22.87 o
-7 18 1 29.97 20.97 13.34 <
-6 18 1 254.96 278.30 17.16 o
-5 18 1 791.09 792.97 40.03 o
-4 18 1 17.06 17.16 7.62 <
-3 18 1 45.54 53.37 7.62 o
-2 18 1 1878.08 1850.89 26.69 o
-1 18 1 675.27 634.76 11.44 o
0 18 1 148.92 190.62 7.62 o
1 18 1 0.25 9.53 3.81 <
2 18 1 174.73 205.87 13.34 o
3 18 1 385.02 392.67 17.16 o
4 18 1 934.15 937.84 22.87 o
5 18 1 24.96 17.16 13.34 <
6 18 1 0.91 11.44 13.34 <
7 18 1 292.15 274.49 26.69 o
-7 19 1 150.77 177.27 17.16 o
-6 19 1 1559.35 1629.78 36.22 o
-5 19 1 11.80 19.06 9.53 <
-4 19 1 338.09 354.55 20.97 o
-3 19 1 12.94 20.97 7.62 <
-2 19 1 9100.28 8701.68 118.18 o
-1 19 1 38.65 57.19 5.72 o
0 19 1 1684.64 1685.06 20.97 o
1 19 1 1343.17 1254.26 17.16 o
2 19 1 1309.38 1273.32 24.78 o
3 19 1 23.85 28.59 9.53 <
4 19 1 4452.13 4243.14 87.68 o
5 19 1 14.20 1.91 11.44 <
6 19 1 143.74 173.46 24.78 o
7 19 1 4.23 17.16 19.06 <
-7 20 1 0.83 1.91 13.34 <
-6 20 1 464.55 497.51 30.50 o
-5 20 1 2707.60 2729.64 47.65 o
-4 20 1 1504.85 1488.72 47.65 o
-3 20 1 12.42 20.97 7.62 <
-2 20 1 6963.43 6570.58 181.09 o
-1 20 1 1019.55 1136.08 20.97 o
0 20 1 2587.09 2527.58 30.50 o
1 20 1 0.17 -3.81 5.72 <
2 20 1 2048.03 2045.32 36.22 o
3 20 1 687.98 741.50 40.03 o
4 20 1 3515.56 3312.93 108.65 o
5 20 1 1.56 -5.72 11.44 <
6 20 1 635.21 659.54 47.65 o
-7 21 1 127.03 131.53 15.25 o
-6 21 1 154.06 188.71 15.25 o
-5 21 1 19.27 19.06 11.44 <
-4 21 1 34.20 24.78 9.53 <
-3 21 1 84.98 80.06 7.62 o
-2 21 1 2034.47 1974.79 28.59 o
-1 21 1 81.02 74.34 5.72 o
0 21 1 774.51 768.19 15.25 o
1 21 1 2562.41 2403.68 32.40 o
2 21 1 453.09 451.76 17.16 o
3 21 1 76.98 62.90 13.34 o
4 21 1 1231.94 1216.14 38.12 o
5 21 1 32.18 20.97 17.16 <
6 21 1 17.05 22.87 15.25 <
-7 22 1 96.72 83.87 15.25 o
-6 22 1 3.47 19.06 11.44 <
-5 22 1 123.17 122.00 13.34 o
-4 22 1 18.94 20.97 11.44 <
-3 22 1 76.43 66.72 7.62 o
-2 22 1 439.40 474.64 20.97 o
-1 22 1 1290.95 1124.64 24.78 o
0 22 1 984.23 958.80 17.16 o
1 22 1 0.06 -9.53 5.72 <
2 22 1 762.27 783.44 20.97 o
3 22 1 729.05 745.31 32.40 o
4 22 1 222.91 253.52 15.25 o
5 22 1 31.90 30.50 17.16 <
6 22 1 3.31 3.81 15.25 <
-7 23 1 111.20 93.40 17.16 o
-6 23 1 682.35 739.59 47.65 o
-5 23 1 80.45 89.59 17.16 o
-4 23 1 277.10 261.15 15.25 o
-3 23 1 725.33 724.34 17.16 o
-2 23 1 2409.77 2437.99 34.31 o
-1 23 1 281.58 282.11 11.44 o
0 23 1 164.53 173.46 7.62 o
1 23 1 3916.34 4239.33 57.19 o
2 23 1 101.25 106.75 11.44 o
3 23 1 161.98 160.12 13.34 o
4 23 1 1456.53 1467.75 41.94 o
5 23 1 395.68 375.52 49.56 o
6 23 1 146.32 169.65 26.69 o
-7 24 1 5.57 -9.53 15.25 <
-6 24 1 35.54 45.75 13.34 o
-5 24 1 5544.36 5581.27 85.78 o
-4 24 1 16.65 24.78 11.44 <
-3 24 1 100.01 104.84 9.53 o
-2 24 1 1509.71 1439.16 24.78 o
-1 24 1 6318.47 6399.02 70.53 o
0 24 1 74.72 91.50 15.25 o
1 24 1 0.00 9.53 7.62 <
2 24 1 59.55 66.72 9.53 o
3 24 1 4103.27 4149.74 76.25 o
4 24 1 785.54 752.94 24.78 o
5 24 1 51.27 45.75 15.25 o
6 24 1 2.58 1.91 15.25 <
-7 25 1 13.58 20.97 15.25 <
-6 25 1 2.69 5.72 13.34 <
-5 25 1 296.98 297.36 17.16 o
-4 25 1 57.31 40.03 11.44 o
-3 25 1 1910.20 1889.02 30.50 o
-2 25 1 229.81 253.52 11.44 o
-1 25 1 142.29 156.31 9.53 o
0 25 1 18.90 34.31 7.62 o
1 25 1 7719.05 8066.92 97.21 o
2 25 1 36.12 34.31 20.97 <
3 25 1 91.30 102.93 13.34 o
4 25 1 131.55 154.40 17.16 o
5 25 1 814.82 817.75 28.59 o
6 25 1 29.65 26.69 15.25 <
-7 26 1 71.68 91.50 20.97 o
-6 26 1 20.90 -9.53 19.06 <
-5 26 1 164.98 190.62 17.16 o
-4 26 1 17.07 30.50 11.44 <
-3 26 1 20.98 20.97 7.62 <
-2 26 1 54.34 66.72 9.53 o
-1 26 1 991.09 1082.71 19.06 o
0 26 1 274.94 282.11 20.97 o
1 26 1 0.06 11.44 7.62 <
2 26 1 128.94 133.43 13.34 o
3 26 1 626.23 657.63 22.87 o
4 26 1 55.71 41.94 13.34 o
5 26 1 3.24 7.62 17.16 <
6 26 1 0.63 3.81 15.25 <
-7 27 1 2.00 -3.81 19.06 <
-6 27 1 93.31 91.50 15.25 o
-5 27 1 10.86 5.72 13.34 <
-4 27 1 29.21 3.81 15.25 <
-3 27 1 2047.11 2102.51 70.53 o
-2 27 1 494.45 537.54 19.06 o
-1 27 1 27.55 41.94 11.44 o
0 27 1 28.69 26.69 7.62 o
1 27 1 8622.87 8905.64 110.56 o
2 27 1 19.23 15.25 9.53 <
3 27 1 19.18 17.16 13.34 <
4 27 1 286.29 284.02 19.06 o
5 27 1 932.13 928.31 28.59 o
6 27 1 15.94 13.34 15.25 <
-6 28 1 154.06 146.77 17.16 o
-5 28 1 2985.51 2916.44 68.62 o
-4 28 1 89.57 78.15 13.34 o
-3 28 1 154.74 169.65 15.25 o
-2 28 1 1472.81 1441.07 32.40 o
-1 28 1 497.22 514.67 17.16 o
0 28 1 3.10 17.16 9.53 <
1 28 1 0.34 20.97 7.62 <
2 28 1 4.07 -3.81 9.53 <
3 28 1 352.27 369.80 41.94 o
4 28 1 773.93 672.88 28.59 o
5 28 1 90.74 81.97 15.25 o
-6 29 1 211.86 215.40 19.06 o
-5 29 1 48.92 40.03 13.34 <
-4 29 1 28.87 38.12 13.34 <
-3 29 1 103.87 114.37 13.34 o
-2 29 1 1930.02 1871.86 30.50 o
-1 29 1 30.13 41.94 9.53 o
0 29 1 183.45 196.34 13.34 o
1 29 1 1028.67 1004.55 20.97 o
2 29 1 105.93 112.46 13.34 o
3 29 1 31.82 20.97 11.44 <
4 29 1 1141.19 1139.89 30.50 o
5 29 1 61.22 64.81 15.25 o
-6 30 1 71.52 55.28 17.16 o
-5 30 1 252.55 238.27 20.97 o
-4 30 1 396.58 371.70 19.06 o
-3 30 1 109.30 99.12 13.34 o
-2 30 1 476.20 467.01 22.87 o
-1 30 1 54.99 68.62 13.34 o
0 30 1 118.63 144.87 13.34 o
1 30 1 0.14 0.00 13.34 <
2 30 1 79.31 81.97 13.34 o
3 30 1 19.80 20.97 11.44 <
4 30 1 265.98 253.52 19.06 o
5 30 1 37.34 19.06 15.25 <
-6 31 1 45.72 47.65 20.97 <
-5 31 1 83.37 66.72 19.06 o
-4 31 1 1.19 -11.44 11.44 <
-3 31 1 1126.67 1109.39 26.69 o
-2 31 1 0.28 11.44 7.62 <
-1 31 1 203.62 211.59 28.59 o
0 31 1 369.20 333.58 15.25 o
1 31 1 1225.28 1101.77 34.31 o
2 31 1 211.52 192.52 20.97 o
3 31 1 163.04 154.40 17.16 o
4 31 1 1.10 15.25 17.16 <
5 31 1 583.58 554.70 26.69 o
-6 32 1 14.86 13.34 24.78 <
-5 32 1 304.40 318.33 24.78 o
-4 32 1 102.10 112.46 15.25 o
-3 32 1 0.20 7.62 11.44 <
-2 32 1 889.72 873.03 20.97 o
-1 32 1 7064.11 7319.70 123.90 o
0 32 1 214.03 167.74 13.34 o
1 32 1 0.02 -3.81 11.44 <
2 32 1 78.12 61.00 13.34 o
3 32 1 4590.53 4677.75 78.15 o
4 32 1 660.18 632.85 26.69 o
5 32 1 0.25 -9.53 15.25 <
-5 33 1 89.62 57.19 15.25 o
-4 33 1 1.35 9.53 13.34 <
-3 33 1 801.75 831.09 57.19 o
-2 33 1 801.76 825.37 22.87 o
-1 33 1 59.84 112.46 19.06 o
0 33 1 10.79 24.78 11.44 <
1 33 1 21.99 17.16 30.50 <
2 33 1 13.01 24.78 13.34 <
3 33 1 35.84 32.40 13.34 <
4 33 1 404.31 425.08 22.87 o
-5 34 1 252.51 240.18 19.06 o
-4 34 1 6.42 -11.44 13.34 <
-3 34 1 67.69 64.81 13.34 o
-2 34 1 5.47 32.40 13.34 <
-1 34 1 138.79 160.12 19.06 o
0 34 1 10.76 -3.81 11.44 <
1 34 1 0.00 19.06 22.87 <
2 34 1 4.10 0.00 15.25 <
3 34 1 118.76 139.15 15.25 o
4 34 1 1.93 30.50 15.25 <
-5 35 1 19.89 5.72 15.25 <
-4 35 1 6.82 -20.97 11.44 <
-3 35 1 1609.29 1551.62 49.56 o
-2 35 1 345.81 329.77 17.16 o
-1 35 1 85.76 106.75 19.06 o
0 35 1 4.44 -7.62 11.44 <
1 35 1 3434.93 3128.03 93.40 o
2 35 1 1.21 9.53 15.25 <
3 35 1 65.42 72.43 15.25 o
4 35 1 224.74 192.52 19.06 o
-5 36 1 1128.23 1061.74 40.03 o
-4 36 1 0.53 34.31 13.34 <
-3 36 1 53.14 40.03 15.25 <
-2 36 1 602.65 548.98 26.69 o
-1 36 1 1018.18 970.24 30.50 o
0 36 1 169.34 123.90 20.97 o
1 36 1 0.15 41.94 17.16 <
2 36 1 149.56 123.90 19.06 o
3 36 1 714.83 611.88 24.78 o
4 36 1 356.73 289.74 32.40 o
-4 37 1 31.31 70.53 22.87 o
-3 37 1 0.09 3.81 17.16 <
-2 37 1 123.89 129.62 19.06 o
-1 37 1 0.77 32.40 13.34 <
0 37 1 77.62 97.21 15.25 o
1 37 1 485.62 524.20 34.31 o
2 37 1 56.19 91.50 34.31 <
3 37 1 0.26 -15.25 19.06 <
-4 38 1 174.68 186.80 22.87 o
-3 38 1 4.86 11.44 17.16 <
-2 38 1 0.69 7.62 19.06 <
-1 38 1 15.41 22.87 13.34 <
0 38 1 424.44 388.86 32.40 o
1 38 1 0.01 -5.72 17.16 <
2 38 1 369.37 385.05 28.59 o
3 38 1 10.27 26.69 19.06 <
-4 39 1 93.97 95.31 26.69 o
-3 39 1 241.72 297.36 24.78 o
-2 39 1 3.52 -15.25 20.97 <
-1 39 1 117.49 118.18 17.16 o
0 39 1 4.15 20.97 20.97 <
1 39 1 374.44 417.45 28.59 o
2 39 1 0.86 15.25 19.06 <
3 39 1 89.72 85.78 20.97 o
-3 40 1 156.02 129.62 43.84 <
-2 40 1 30.99 61.00 20.97 <
-1 40 1 765.94 892.09 30.50 o
0 40 1 15.48 22.87 20.97 <
1 40 1 0.01 0.00 19.06 <
2 40 1 9.20 17.16 17.16 <
-3 41 1 909.48 1015.99 40.03 o
-2 41 1 14.02 5.72 22.87 <
-1 41 1 60.09 66.72 15.25 o
0 41 1 186.09 184.90 28.59 o
1 41 1 255.24 304.99 26.69 o
2 41 1 128.74 188.71 22.87 o
-2 42 1 55.30 93.40 26.69 o
-1 42 1 1497.15 1498.25 59.09 o
0 42 1 16.20 34.31 24.78 <
1 42 1 0.00 -24.78 19.06 <
0 43 1 57.58 85.78 24.78 o
-9 0 2 728.79 787.25 53.37 o
-8 0 2 426.85 428.89 32.40 o
-7 0 2 3878.65 3945.78 76.25 o
-6 0 2 12393.20 12424.40 205.87 o
-5 0 2 6350.42 6126.44 104.84 o
-4 0 2 2400.80 2329.34 43.84 o
-3 0 2 1508.22 1301.92 26.69 o
-2 0 2 162300.00 174990.00 3305.30 o
-1 0 2 22796.80 22578.60 299.27 o
0 0 2 2576.84 2924.07 41.94 o
1 0 2 4542.40 4296.51 123.90 o
2 0 2 192533.00 190470.00 3303.40 o
3 0 2 1230.51 1141.80 36.22 o
4 0 2 485.46 528.01 22.87 o
5 0 2 6615.09 6471.45 122.00 o
6 0 2 19375.20 19887.10 339.30 o
7 0 2 193.18 213.49 38.12 o
-9 1 2 164.80 173.46 28.59 o
-8 1 2 8052.24 8263.26 123.90 o
-7 1 2 3762.12 3779.94 51.47 o
-6 1 2 1131.02 1137.98 22.87 o
-5 1 2 2917.65 2720.11 40.03 o
-4 1 2 61220.80 58795.90 2333.15 o
-3 1 2 1832.68 1664.09 22.87 o
-2 1 2 92.92 160.12 5.72 o
-1 1 2 15797.30 15905.10 163.93 o
0 1 2 41103.60 43445.50 598.54 o
1 1 2 2484.22 2407.50 26.69 o
2 1 2 0.06 9.53 3.81 <
3 1 2 2098.26 2016.73 24.78 o
4 1 2 13958.80 14143.80 169.65 o
5 1 2 2667.05 2624.80 41.94 o
6 1 2 3.29 38.12 22.87 <
7 1 2 475.92 463.20 34.31 o
-9 2 2 45.31 45.75 20.97 <
-8 2 2 0.59 7.62 11.44 <
-7 2 2 34.83 99.12 9.53 o
-6 2 2 2376.54 2443.71 34.31 o
-5 2 2 312.61 324.05 11.44 o
-4 2 2 132.66 133.43 7.62 o
-3 2 2 428.30 428.89 17.16 o
-2 2 2 82.52 133.43 9.53 o
-1 2 2 1557.01 1589.75 34.31 o
0 2 2 984.75 1277.14 15.25 o
1 2 2 730.72 688.13 13.34 o
2 2 2 64.68 70.53 5.72 o
3 2 2 509.81 497.51 15.25 o
4 2 2 171.35 179.18 11.44 o
5 2 2 363.10 419.36 34.31 o
6 2 2 74.81 68.62 13.34 o
7 2 2 15.46 11.44 17.16 <
-9 3 2 256.61 295.46 26.69 o
-8 3 2 178.27 150.59 19.06 o
-7 3 2 1381.22 1372.44 24.78 o
-6 3 2 109.33 93.40 9.53 o
-5 3 2 1918.24 1833.74 26.69 o
-4 3 2 2442.48 2365.56 49.56 o
-3 3 2 119.38 91.50 5.72 o
-2 3 2 1166.03 1599.28 19.06 o
-1 3 2 6882.64 6816.47 137.24 o
0 3 2 3958.96 3537.86 49.56 o
1 3 2 788.10 815.84 15.25 o
2 3 2 0.01 7.62 3.81 <
3 3 2 314.37 325.95 11.44 o
4 3 2 1465.23 1376.26 41.94 o
5 3 2 1776.73 1803.24 43.84 o
6 3 2 111.30 125.81 13.34 o
7 3 2 88.70 110.56 40.03 <
-9 4 2 949.24 981.68 59.09 o
-8 4 2 174.07 188.71 20.97 o
-7 4 2 3830.73 3791.38 53.37 o
-6 4 2 2877.72 2748.70 38.12 o
-5 4 2 7106.77 6772.63 72.43 o
-4 4 2 1.11 -3.81 5.72 <
-3 4 2 2942.83 2720.11 30.50 o
-2 4 2 8583.50 9018.10 93.40 o
-1 4 2 29247.20 28865.20 295.46 o
0 4 2 881.12 1143.70 20.97 o
1 4 2 5946.30 5546.96 59.09 o
2 4 2 7065.43 6877.47 72.43 o
3 4 2 3357.28 3166.15 41.94 o
4 4 2 136.69 131.53 11.44 o
5 4 2 5914.23 5764.26 87.68 o
6 4 2 1127.26 1139.89 36.22 o
7 4 2 589.79 577.57 47.65 o
-9 5 2 130.48 99.12 20.97 o
-8 5 2 4252.36 4212.64 85.78 o
-7 5 2 6462.47 6419.99 95.31 o
-6 5 2 134.96 133.43 9.53 o
-5 5 2 2868.90 2720.11 32.40 o
-4 5 2 11543.90 11576.20 120.09 o
-3 5 2 8374.66 8198.45 85.78 o
-2 5 2 837.07 1103.67 13.34 o
-1 5 2 22465.70 21932.40 223.02 o
0 5 2 4564.25 6042.57 62.90 o
1 5 2 8534.48 8072.64 102.93 o
2 5 2 0.20 -7.62 5.72 <
3 5 2 5583.88 5354.44 66.72 o
4 5 2 332.29 306.89 11.44 o
5 5 2 4997.06 5005.61 108.65 o
6 5 2 87.35 66.72 15.25 o
7 5 2 1309.72 1374.35 40.03 o
-9 6 2 144.33 141.06 22.87 o
-8 6 2 33.46 74.34 17.16 o
-7 6 2 633.39 688.13 20.97 o
-6 6 2 13.79 9.53 7.62 <
-5 6 2 1241.92 1271.42 19.06 o
-4 6 2 79.25 83.87 5.72 o
-3 6 2 1056.81 1082.71 20.97 o
-2 6 2 691.33 817.75 11.44 o
-1 6 2 5778.06 5850.04 61.00 o
0 6 2 764.00 909.24 11.44 o
1 6 2 2726.07 2784.92 32.40 o
2 6 2 295.05 325.95 19.06 o
3 6 2 951.23 953.09 17.16 o
4 6 2 79.81 78.15 9.53 o
5 6 2 1447.69 1530.66 32.40 o
6 6 2 47.57 47.65 15.25 o
7 6 2 125.50 135.34 19.06 o
-9 7 2 53.79 53.37 19.06 <
-8 7 2 2610.95 2537.12 59.09 o
-7 7 2 733.57 745.31 22.87 o
-6 7 2 45.06 36.22 7.62 o
-5 7 2 389.10 419.36 13.34 o
-4 7 2 8676.11 8444.34 89.59 o
-3 7 2 757.45 739.59 11.44 o
-2 7 2 553.08 680.50 9.53 o
-1 7 2 3113.58 2996.50 47.65 o
0 7 2 27.17 26.69 3.81 o
1 7 2 1350.72 1265.70 17.16 o
2 7 2 0.16 -3.81 5.72 <
3 7 2 1068.15 1044.58 19.06 o
4 7 2 32.17 32.40 13.34 <
5 7 2 712.14 752.94 26.69 o
6 7 2 26.33 38.12 19.06 <
7 7 2 117.76 114.37 19.06 o
-9 8 2 429.59 421.26 40.03 o
-8 8 2 1.79 -5.72 17.16 <
-7 8 2 3025.74 2832.57 104.84 o
-6 8 2 2857.72 2863.07 36.22 o
-5 8 2 5994.40 5842.42 66.72 o
-4 8 2 0.34 3.81 5.72 <
-3 8 2 3582.70 3425.39 38.12 o
-2 8 2 10221.80 10159.90 116.28 o
-1 8 2 21999.20 21084.20 215.40 o
0 8 2 237.39 297.36 11.44 o
1 8 2 5940.29 5562.21 59.09 o
2 8 2 26302.50 27029.50 364.08 o
3 8 2 3399.19 3154.71 47.65 o
4 8 2 55.35 66.72 9.53 o
5 8 2 5903.39 5699.45 137.24 o
6 8 2 2411.85 2350.31 66.72 o
7 8 2 560.61 583.29 28.59 o
-8 9 2 4678.81 4672.03 95.31 o
-7 9 2 5281.97 5116.17 78.15 o
-6 9 2 398.95 369.80 15.25 o
-5 9 2 2419.13 2350.31 32.40 o
-4 9 2 48118.70 49815.90 507.04 o
-3 9 2 3698.53 3562.64 49.56 o
-2 9 2 206.94 251.62 9.53 o
-1 9 2 16662.70 16177.70 165.84 o
0 9 2 28310.60 28848.00 293.55 o
1 9 2 5036.22 5085.67 55.28 o
2 9 2 0.01 5.72 5.72 <
3 9 2 2772.99 2725.83 38.12 o
4 9 2 11012.50 11090.10 133.43 o
5 9 2 3927.30 3808.53 80.06 o
6 9 2 9.69 57.19 19.06 <
7 9 2 576.69 598.54 40.03 o
-8 10 2 45.59 41.94 17.16 <
-7 10 2 761.58 768.19 22.87 o
-6 10 2 1291.01 1328.60 28.59 o
-5 10 2 841.50 827.28 17.16 o
-4 10 2 1080.77 1061.74 22.87 o
-3 10 2 139.90 154.40 5.72 o
-2 10 2 20896.50 21713.20 226.83 o
-1 10 2 4065.28 4185.95 57.19 o
0 10 2 1487.32 1578.31 19.06 o
1 10 2 689.67 737.69 11.44 o
2 10 2 37902.70 38115.80 625.22 o
3 10 2 201.79 215.40 19.06 o
4 10 2 399.52 407.92 13.34 o
5 10 2 1253.83 1271.42 40.03 o
6 10 2 3127.16 3141.37 72.43 o
7 10 2 11.40 -15.25 17.16 <
-8 11 2 7.38 24.78 13.34 <
-7 11 2 110.00 114.37 13.34 o
-6 11 2 596.00 592.82 19.06 o
-5 11 2 13.36 38.12 7.62 o
-4 11 2 131.09 122.00 7.62 o
-3 11 2 545.75 533.73 9.53 o
-2 11 2 402.21 438.42 9.53 o
-1 11 2 327.45 365.98 22.87 o
0 11 2 500.60 583.29 9.53 o
1 11 2 1347.24 1364.82 17.16 o
2 11 2 0.04 1.91 9.53 <
3 11 2 333.99 352.64 11.44 o
4 11 2 203.82 213.49 13.34 o
5 11 2 254.75 299.27 22.87 o
6 11 2 28.87 5.72 17.16 <
-8 12 2 172.29 146.77 19.06 o
-7 12 2 2091.38 2142.54 59.09 o
-6 12 2 653.04 615.69 20.97 o
-5 12 2 2349.42 2361.75 34.31 o
-4 12 2 6.31 13.34 5.72 <
-3 12 2 1143.56 1155.14 15.25 o
-2 12 2 12563.10 12582.60 142.96 o
-1 12 2 8145.19 8040.23 83.87 o
0 12 2 636.04 703.38 19.06 o
1 12 2 1378.44 1349.57 20.97 o
2 12 2 18114.00 18287.80 247.80 o
3 12 2 725.60 682.41 24.78 o
4 12 2 157.99 150.59 13.34 o
5 12 2 2135.78 1972.89 51.47 o
6 12 2 2343.17 2218.78 59.09 o
-8 13 2 3533.86 3459.70 74.34 o
-7 13 2 3342.15 3349.14 57.19 o
-6 13 2 6.33 1.91 9.53 <
-5 13 2 2874.03 2844.01 40.03 o
-4 13 2 16661.30 16871.50 173.46 o
-3 13 2 526.70 501.32 9.53 o
-2 13 2 990.68 1075.08 17.16 o
-1 13 2 11220.10 11416.10 118.18 o
0 13 2 9182.42 9040.97 93.40 o
1 13 2 1167.22 1134.17 17.16 o
2 13 2 0.36 0.00 5.72 <
3 13 2 1022.95 1023.61 19.06 o
4 13 2 3681.98 3623.63 74.34 o
5 13 2 3142.31 2939.32 66.72 o
6 13 2 248.76 247.80 36.22 o
-8 14 2 323.79 312.61 22.87 o
-7 14 2 1114.00 1117.02 40.03 o
-6 14 2 3156.63 3133.75 53.37 o
-5 14 2 1902.66 1927.14 30.50 o
-4 14 2 201.69 192.52 9.53 o
-3 14 2 185.88 194.43 9.53 o
-2 14 2 4870.85 4807.37 66.72 o
-1 14 2 8214.96 8400.50 87.68 o
0 14 2 68.33 89.59 5.72 o
1 14 2 1227.66 1200.89 17.16 o
2 14 2 4038.77 4016.30 102.93 o
3 14 2 691.89 646.19 19.06 o
4 14 2 5.76 22.87 9.53 <
5 14 2 1952.99 1860.42 45.75 o
6 14 2 977.06 953.09 64.81 o
-8 15 2 245.40 238.27 22.87 o
-7 15 2 406.98 432.70 20.97 o
-6 15 2 5.76 9.53 9.53 <
-5 15 2 173.66 194.43 11.44 o
-4 15 2 35.01 53.37 13.34 o
-3 15 2 963.15 951.18 13.34 o
-2 15 2 110.17 129.62 7.62 o
-1 15 2 964.66 1038.86 15.25 o
0 15 2 33.38 28.59 5.72 o
1 15 2 437.83 390.77 13.34 o
2 15 2 0.59 5.72 7.62 <
3 15 2 191.33 158.21 13.34 o
4 15 2 50.40 49.56 11.44 o
5 15 2 235.50 274.49 20.97 o
6 15 2 34.55 47.65 19.06 <
-8 16 2 26.84 32.40 17.16 <
-7 16 2 580.62 598.54 28.59 o
-6 16 2 72.97 64.81 15.25 o
-5 16 2 424.91 467.01 13.34 o
-4 16 2 0.56 0.00 7.62 <
-3 16 2 18.15 36.22 7.62 o
-2 16 2 17.90 30.50 5.72 o
-1 16 2 874.21 951.18 17.16 o
0 16 2 57.85 55.28 5.72 o
1 16 2 145.49 163.93 7.62 o
2 16 2 899.65 844.43 32.40 o
3 16 2 2.97 9.53 9.53 <
4 16 2 1.37 9.53 11.44 <
5 16 2 185.60 221.12 22.87 o
6 16 2 4.48 22.87 36.22 <
-8 17 2 851.20 859.68 34.31 o
-7 17 2 1793.82 1787.99 38.12 o
-6 17 2 7.74 15.25 11.44 <
-5 17 2 1395.93 1431.54 24.78 o
-4 17 2 4969.02 4944.61 62.90 o
-3 17 2 196.96 188.71 9.53 o
-2 17 2 258.44 224.93 7.62 o
-1 17 2 7212.38 7052.84 74.34 o
0 17 2 2166.61 2222.60 32.40 o
1 17 2 1593.22 1545.91 30.50 o
2 17 2 0.29 5.72 7.62 <
3 17 2 642.93 609.97 20.97 o
4 17 2 473.54 463.20 19.06 o
5 17 2 2530.25 2403.68 45.75 o
6 17 2 43.34 49.56 19.06 <
-8 18 2 205.61 200.15 28.59 o
-7 18 2 1032.69 1057.93 45.75 o
-6 18 2 1115.13 1158.95 38.12 o
-5 18 2 2002.82 2045.32 38.12 o
-4 18 2 51.58 45.75 7.62 o
-3 18 2 436.62 421.26 13.34 o
-2 18 2 206.93 173.46 7.62 o
-1 18 2 8941.22 8598.74 91.50 o
0 18 2 77.50 89.59 7.62 o
1 18 2 1720.63 1610.72 20.97 o
2 18 2 7997.06 8055.48 114.37 o
3 18 2 1137.97 1057.93 26.69 o
4 18 2 47.78 51.47 11.44 o
5 18 2 2566.29 2542.83 49.56 o
6 18 2 44.07 76.25 20.97 o
-8 19 2 527.60 512.76 34.31 o
-7 19 2 562.34 577.57 30.50 o
-6 19 2 3.30 7.62 11.44 <
-5 19 2 87.58 104.84 11.44 o
-4 19 2 20.13 11.44 7.62 <
-3 19 2 891.46 857.78 17.16 o
-2 19 2 951.50 951.18 15.25 o
-1 19 2 875.19 926.40 20.97 o
0 19 2 471.87 499.42 11.44 o
1 19 2 436.90 436.51 17.16 o
2 19 2 0.10 15.25 9.53 <
3 19 2 213.10 200.15 13.34 o
4 19 2 222.80 205.87 22.87 o
5 19 2 265.90 259.24 17.16 o
6 19 2 161.50 148.68 22.87 o
-8 20 2 232.67 190.62 32.40 o
-7 20 2 185.22 173.46 22.87 o
-6 20 2 1773.50 1869.95 55.28 o
-5 20 2 569.56 552.79 19.06 o
-4 20 2 20.08 36.22 7.62 o
-3 20 2 68.74 81.97 9.53 o
-2 20 2 10901.00 10941.40 114.37 o
-1 20 2 996.12 1071.27 24.78 o
0 20 2 444.19 457.48 11.44 o
1 20 2 80.59 91.50 7.62 o
2 20 2 10058.00 10699.30 148.68 o
3 20 2 1.75 28.59 13.34 <
4 20 2 200.55 169.65 15.25 o
5 20 2 414.65 421.26 36.22 o
6 20 2 2357.25 2245.47 68.62 o
-8 21 2 1562.64 1706.02 74.34 o
-7 21 2 1403.98 1399.13 43.84 o
-6 21 2 61.40 59.09 13.34 o
-5 21 2 336.80 375.52 17.16 o
-4 21 2 9415.48 9843.47 118.18 o
-3 21 2 781.67 819.65 17.16 o
-2 21 2 456.71 428.89 13.34 o
-1 21 2 5519.30 5358.25 59.09 o
0 21 2 9011.38 9462.24 101.03 o
1 21 2 2016.29 2012.92 43.84 o
2 21 2 0.35 -5.72 9.53 <
3 21 2 1273.87 1317.16 30.50 o
4 21 2 4325.21 4271.73 70.53 o
5 21 2 1639.80 1585.94 53.37 o
6 21 2 146.89 123.90 34.31 o
-8 22 2 269.17 268.77 41.94 o
-7 22 2 1060.17 987.40 38.12 o
-6 22 2 1130.72 1157.05 57.19 o
-5 22 2 896.14 968.34 32.40 o
-4 22 2 37.01 36.22 9.53 o
-3 22 2 259.23 268.77 11.44 o
-2 22 2 2178.11 2258.81 32.40 o
-1 22 2 5432.22 5289.63 68.62 o
0 22 2 103.33 112.46 9.53 o
1 22 2 782.14 804.41 20.97 o
2 22 2 4053.30 4174.52 64.81 o
3 22 2 487.95 512.76 20.97 o
4 22 2 31.49 19.06 13.34 <
5 22 2 1460.52 1406.76 55.28 o
6 22 2 727.83 731.97 38.12 o
-7 23 2 505.46 432.70 32.40 o
-6 23 2 110.81 91.50 13.34 o
-5 23 2 186.28 205.87 15.25 o
-4 23 2 3216.43 3166.15 43.84 o
-3 23 2 7.24 5.72 7.62 <
-2 23 2 230.66 245.90 15.25 o
-1 23 2 586.05 606.16 15.25 o
0 23 2 897.33 893.99 15.25 o
1 23 2 45.70 49.56 11.44 o
2 23 2 0.00 13.34 13.34 <
3 23 2 12.35 15.25 13.34 <
4 23 2 487.58 489.89 20.97 o
5 23 2 223.75 202.05 17.16 o
-7 24 2 14.81 28.59 28.59 <
-6 24 2 708.61 686.22 36.22 o
-5 24 2 163.49 156.31 15.25 o
-4 24 2 213.79 219.21 13.34 o
-3 24 2 210.35 188.71 11.44 o
-2 24 2 1799.34 1696.49 51.47 o
-1 24 2 136.95 146.77 7.62 o
0 24 2 35.08 38.12 7.62 o
1 24 2 2.87 9.53 17.16 <
2 24 2 503.39 482.26 19.06 o
3 24 2 16.62 5.72 11.44 <
4 24 2 20.57 26.69 13.34 <
5 24 2 21.33 38.12 15.25 <
-7 25 2 273.22 297.36 24.78 o
-6 25 2 25.13 17.16 17.16 <
-5 25 2 3.64 7.62 11.44 <
-4 25 2 750.93 752.94 19.06 o
-3 25 2 7.36 1.91 7.62 <
-2 25 2 0.14 3.81 9.53 <
-1 25 2 967.45 962.62 32.40 o
0 25 2 1668.90 1719.37 51.47 o
1 25 2 249.11 232.55 17.16 o
2 25 2 0.02 -11.44 9.53 <
3 25 2 208.29 186.80 20.97 o
4 25 2 728.70 672.88 28.59 o
5 25 2 271.33 285.93 20.97 o
-7 26 2 746.30 709.10 36.22 o
-6 26 2 829.55 815.84 34.31 o
-5 26 2 280.16 308.80 24.78 o
-4 26 2 4.21 -7.62 9.53 <
-3 26 2 4.24 0.00 7.62 <
-2 26 2 678.61 690.03 19.06 o
-1 26 2 982.42 977.87 34.31 o
0 26 2 6.14 0.00 13.34 <
1 26 2 37.19 32.40 9.53 o
2 26 2 455.49 438.42 19.06 o
3 26 2 2.96 5.72 13.34 <
4 26 2 5.69 -1.91 15.25 <
5 26 2 398.30 428.89 22.87 o
-7 27 2 247.51 245.90 24.78 o
-6 27 2 0.10 -3.81 15.25 <
-5 27 2 263.32 268.77 28.59 o
-4 27 2 8.30 -7.62 9.53 <
-3 27 2 75.02 80.06 17.16 o
-2 27 2 318.23 308.80 13.34 o
-1 27 2 616.64 596.63 17.16 o
0 27 2 1820.97 1921.42 47.65 o
1 27 2 0.90 11.44 9.53 <
2 27 2 0.02 9.53 11.44 <
3 27 2 41.79 38.12 13.34 <
4 27 2 826.51 779.62 26.69 o
5 27 2 385.59 362.17 22.87 o
-7 28 2 32.60 15.25 20.97 <
-6 28 2 2179.11 2060.57 129.62 o
-5 28 2 9.47 -3.81 13.34 <
-4 28 2 2.44 17.16 11.44 <
-3 28 2 15.43 22.87 19.06 <
-2 28 2 1301.21 1269.51 24.78 o
-1 28 2 335.12 295.46 15.25 o
0 28 2 226.69 240.18 13.34 o
1 28 2 144.02 127.71 13.34 o
2 28 2 35.73 38.12 11.44 o
3 28 2 178.95 158.21 15.25 o
4 28 2 128.38 106.75 17.16 o
5 28 2 35.91 26.69 15.25 <
-7 29 2 7.62 9.53 19.06 <
-6 29 2 0.52 1.91 19.06 <
-5 29 2 3.73 -20.97 13.34 <
-4 29 2 4358.10 4469.97 70.53 o
-3 29 2 675.45 678.60 19.06 o
-2 29 2 835.19 777.72 28.59 o
-1 29 2 143.97 137.24 17.16 o
0 29 2 4569.17 4641.53 70.53 o
1 29 2 79.64 80.06 13.34 o
2 29 2 0.02 20.97 13.34 <
3 29 2 57.21 55.28 24.78 <
4 29 2 2358.79 2321.72 47.65 o
5 29 2 46.77 64.81 17.16 o
-6 30 2 351.88 314.52 28.59 o
-5 30 2 85.72 70.53 17.16 o
-4 30 2 88.30 85.78 13.34 o
-3 30 2 81.89 112.46 11.44 o
-2 30 2 6513.58 6704.01 95.31 o
-1 30 2 758.95 764.38 28.59 o
0 30 2 57.49 74.34 11.44 o
1 30 2 18.51 26.69 15.25 <
2 30 2 11187.30 11376.00 162.02 o
3 30 2 88.98 72.43 15.25 o
4 30 2 42.96 45.75 15.25 o
-6 31 2 0.94 0.00 30.50 <
-5 31 2 65.02 72.43 30.50 <
-4 31 2 840.16 846.34 32.40 o
-3 31 2 0.36 -7.62 9.53 <
-2 31 2 64.26 91.50 13.34 o
-1 31 2 1075.01 1025.52 26.69 o
0 31 2 134.21 123.90 17.16 o
1 31 2 9.24 11.44 17.16 <
2 31 2 0.04 24.78 13.34 <
3 31 2 45.59 15.25 20.97 <
4 31 2 107.50 78.15 24.78 o
-6 32 2 60.31 51.47 20.97 <
-5 32 2 31.17 26.69 20.97 <
-4 32 2 0.46 -1.91 11.44 <
-3 32 2 78.17 68.62 15.25 o
-2 32 2 650.12 648.10 34.31 o
-1 32 2 219.30 213.49 15.25 o
0 32 2 1.94 9.53 17.16 <
1 32 2 59.78 61.00 17.16 o
2 32 2 1283.80 1250.45 36.22 o
3 32 2 32.95 36.22 17.16 <
4 32 2 0.82 1.91 17.16 <
-6 33 2 7.94 -7.62 17.16 <
-5 33 2 16.24 19.06 15.25 <
-4 33 2 220.63 217.30 20.97 o
-3 33 2 10.64 11.44 9.53 <
-2 33 2 12.04 7.62 15.25 <
-1 33 2 443.55 434.61 28.59 o
0 33 2 14.09 1.91 17.16 <
1 33 2 243.00 181.09 22.87 o
2 33 2 1.07 -5.72 13.34 <
3 33 2 304.05 259.24 19.06 o
4 33 2 6.49 0.00 15.25 <
-5 34 2 547.28 526.10 30.50 o
-4 34 2 22.36 19.06 15.25 <
-3 34 2 39.25 32.40 11.44 <
-2 34 2 526.19 520.39 22.87 o
-1 34 2 1085.29 1084.61 26.69 o
0 34 2 23.61 26.69 15.25 <
1 34 2 21.51 17.16 17.16 <
2 34 2 0.12 5.72 13.34 <
3 34 2 8.66 11.44 15.25 <
4 34 2 3.67 -1.91 15.25 <
-5 35 2 0.00 -3.81 15.25 <
-4 35 2 338.12 316.42 22.87 o
-3 35 2 9.30 -1.91 15.25 <
-2 35 2 10.01 26.69 13.34 <
-1 35 2 543.03 537.54 22.87 o
0 35 2 1752.37 1787.99 49.56 o
1 35 2 162.47 127.71 20.97 o
2 35 2 0.11 -9.53 17.16 <
3 35 2 94.55 64.81 15.25 o
-5 36 2 3.83 20.97 28.59 <
-4 36 2 30.98 34.31 17.16 <
-3 36 2 1.42 -43.84 20.97 <
-2 36 2 0.36 3.81 13.34 <
-1 36 2 10.69 19.06 13.34 <
0 36 2 87.09 141.06 19.06 o
1 36 2 0.45 -15.25 19.06 <
2 36 2 677.22 613.79 32.40 o
3 36 2 1.57 -19.06 15.25 <
-5 37 2 19.84 20.97 19.06 <
-4 37 2 104.76 150.59 30.50 o
-3 37 2 2.01 17.16 22.87 <
-2 37 2 176.61 160.12 15.25 o
-1 37 2 140.14 118.18 20.97 o
0 37 2 983.57 1046.49 43.84 o
1 37 2 186.55 154.40 20.97 o
2 37 2 0.01 1.91 17.16 <
3 37 2 84.59 49.56 20.97 <
-4 38 2 90.05 59.09 28.59 <
-3 38 2 11.78 20.97 24.78 <
-2 38 2 0.38 9.53 26.69 <
-1 38 2 43.09 55.28 20.97 <
0 38 2 241.15 253.52 22.87 o
1 38 2 106.57 120.09 20.97 o
2 38 2 69.81 5.72 17.16 <
-4 39 2 386.37 284.02 36.22 o
-3 39 2 500.18 520.39 41.94 o
-2 39 2 135.26 135.34 30.50 o
-1 39 2 13.59 5.72 20.97 <
0 39 2 621.87 592.82 41.94 o
1 39 2 283.53 282.11 47.65 o
2 39 2 0.01 20.97 43.84 <
-3 40 2 216.21 200.15 32.40 o
-2 40 2 7.67 22.87 15.25 <
-1 40 2 1.53 15.25 20.97 <
0 40 2 0.69 -7.62 17.16 <
1 40 2 92.10 74.34 20.97 o
-3 41 2 24.78 38.12 24.78 <
-2 41 2 13.11 20.97 22.87 <
-1 41 2 6.18 -7.62 20.97 <
0 41 2 1263.48 1216.14 55.28 o
1 41 2 186.20 123.90 20.97 o
-2 42 2 506.04 392.67 36.22 o
-1 42 2 8.96 3.81 20.97 <
0 42 2 0.95 17.16 22.87 <
-8 1 3 657.67 670.97 22.87 o
-7 1 3 132.80 139.15 13.34 o
-6 1 3 2535.87 2466.59 38.12 o
-5 1 3 4559.56 4296.51 55.28 o
-4 1 3 3109.76 3007.94 51.47 o
-3 1 3 250.12 228.74 7.62 o
-2 1 3 353.95 303.08 7.62 o
-1 1 3 5329.77 5180.98 49.56 o
0 1 3 6870.98 6988.03 66.72 o
1 1 3 11.89 11.44 5.72 <
2 1 3 452.39 423.17 11.44 o
3 1 3 4447.73 4365.13 59.09 o
4 1 3 483.19 491.79 17.16 o
5 1 3 0.24 -11.44 11.44 <
6 1 3 893.97 878.74 26.69 o
-8 2 3 868.86 909.24 32.40 o
-7 2 3 7564.93 7596.10 83.87 o
-6 2 3 8576.16 8211.79 135.34 o
-5 2 3 25.46 28.59 7.62 o
-4 2 3 7043.46 6862.22 81.97 o
-3 2 3 30785.60 30329.10 375.52 o
-2 2 3 2411.56 2133.01 24.78 o
-1 2 3 11.22 15.25 3.81 o
0 2 3 15855.50 15819.30 148.68 o
1 2 3 4034.69 3840.94 59.09 o
2 2 3 2846.65 2689.61 36.22 o
3 2 3 0.04 17.16 7.62 <
4 2 3 1486.36 1425.82 28.59 o
5 2 3 1640.00 1656.46 32.40 o
6 2 3 3041.58 3015.56 59.09 o
-9 3 3 922.30 1046.49 55.28 o
-8 3 3 730.43 752.94 30.50 o
-7 3 3 9.81 -3.81 7.62 <
-6 3 3 4382.23 4353.70 59.09 o
-5 3 3 222.44 184.90 7.62 o
-4 3 3 7058.56 6923.22 81.97 o
-3 3 3 29.65 34.31 5.72 o
-2 3 3 2415.05 2260.72 26.69 o
-1 3 3 11110.20 11278.80 106.75 o
0 3 3 16341.90 16112.90 163.93 o
1 3 3 4.45 1.91 5.72 <
2 3 3 3472.57 3204.28 38.12 o
3 3 3 15763.50 16065.20 221.12 o
4 3 3 1693.40 1690.77 32.40 o
5 3 3 0.34 3.81 15.25 <
6 3 3 2692.29 2718.20 70.53 o
-9 4 3 51.51 32.40 22.87 <
-8 4 3 42.25 53.37 15.25 o
-7 4 3 170.46 163.93 9.53 o
-6 4 3 1261.42 1267.60 28.59 o
-5 4 3 159.46 160.12 7.62 o
-4 4 3 102.90 146.77 7.62 o
-3 4 3 24.95 5.72 3.81 <
-2 4 3 2617.18 2718.20 30.50 o
-1 4 3 221.58 263.05 11.44 o
0 4 3 1339.60 1422.00 19.06 o
1 4 3 20.21 11.44 5.72 <
2 4 3 1243.43 1183.73 41.94 o
3 4 3 0.01 20.97 7.62 <
4 4 3 292.03 303.08 15.25 o
5 4 3 3.64 0.00 9.53 <
6 4 3 344.01 392.67 24.78 o
-9 5 3 1522.12 1574.50 64.81 o
-8 5 3 192.62 186.80 32.40 o
-7 5 3 293.19 289.74 11.44 o
-6 5 3 1217.15 1265.70 20.97 o
-5 5 3 4903.91 4996.08 76.25 o
-4 5 3 1951.40 1991.95 24.78 o
-3 5 3 276.80 257.33 7.62 o
-2 5 3 484.75 486.07 11.44 o
-1 5 3 30233.60 32029.40 442.23 o
0 5 3 2659.51 2687.70 30.50 o
1 5 3 3.08 -3.81 3.81 <
2 5 3 612.96 602.35 15.25 o
3 5 3 19816.90 20344.60 236.37 o
4 5 3 97.67 125.81 13.34 o
5 5 3 0.99 -9.53 11.44 <
6 5 3 743.94 813.94 32.40 o
-9 6 3 113.96 156.31 28.59 o
-8 6 3 129.42 135.34 17.16 o
-7 6 3 9655.37 9588.05 156.31 o
-6 6 3 8889.77 8743.61 93.40 o
-5 6 3 76.06 74.34 7.62 o
-4 6 3 3873.82 3686.54 41.94 o
-3 6 3 52908.90 55395.30 564.23 o
-2 6 3 6527.25 6191.25 64.81 o
-1 6 3 108.85 125.81 7.62 o
0 6 3 16104.40 15857.40 162.02 o
1 6 3 23747.80 24299.90 245.90 o
2 6 3 5528.20 5289.63 66.72 o
3 6 3 0.10 5.72 7.62 <
4 6 3 2796.12 2742.98 47.65 o
5 6 3 7783.32 7639.94 118.18 o
6 6 3 2559.23 2615.27 55.28 o
-9 7 3 7616.13 7756.21 205.87 o
-8 7 3 1018.19 1038.86 38.12 o
-7 7 3 187.60 182.99 11.44 o
-6 7 3 5076.70 5026.58 57.19 o
-5 7 3 7118.57 7222.49 78.15 o
-4 7 3 8812.38 8674.99 91.50 o
-3 7 3 55.93 49.56 5.72 o
-2 7 3 4534.19 4468.07 47.65 o
-1 7 3 12605.70 12733.20 131.53 o
0 7 3 20460.70 20211.10 228.74 o
1 7 3 1.83 1.91 3.81 <
2 7 3 4787.35 4601.50 59.09 o
3 7 3 14579.40 14635.60 198.24 o
4 7 3 2425.46 2350.31 43.84 o
5 7 3 2.68 11.44 13.34 <
6 7 3 3313.90 3324.36 64.81 o
-9 8 3 170.33 165.84 30.50 o
-8 8 3 121.19 131.53 17.16 o
-7 8 3 5467.99 5562.21 118.18 o
-6 8 3 2155.10 2171.13 28.59 o
-5 8 3 218.49 215.40 9.53 o
-4 8 3 1020.51 1078.89 15.25 o
-3 8 3 12346.50 12615.00 129.62 o
-2 8 3 973.41 966.43 13.34 o
-1 8 3 27.11 36.22 5.72 o
0 8 3 2734.19 2952.66 34.31 o
1 8 3 1897.61 1995.76 24.78 o
2 8 3 478.49 480.36 13.34 o
3 8 3 0.01 -1.91 9.53 <
4 8 3 452.89 482.26 22.87 o
5 8 3 737.23 777.72 97.21 o
6 8 3 466.26 581.38 28.59 o
-9 9 3 3.30 7.62 24.78 <
-8 9 3 7.37 22.87 22.87 <
-7 9 3 86.68 93.40 15.25 o
-6 9 3 367.97 484.17 26.69 o
-5 9 3 559.42 602.35 13.34 o
-4 9 3 774.04 752.94 13.34 o
-3 9 3 338.84 327.86 7.62 o
-2 9 3 620.58 606.16 15.25 o
-1 9 3 559.71 608.07 11.44 o
0 9 3 1854.88 1948.11 26.69 o
1 9 3 87.02 102.93 5.72 o
2 9 3 522.20 503.23 19.06 o
3 9 3 43.23 152.49 61.00 <
4 9 3 230.68 240.18 15.25 o
5 9 3 25.59 1.91 20.97 <
6 9 3 290.62 331.67 22.87 o
-9 10 3 25.74 24.78 24.78 <
-8 10 3 99.20 85.78 17.16 o
-7 10 3 3346.11 3362.49 80.06 o
-6 10 3 5287.52 5078.04 64.81 o
-5 10 3 102.02 118.18 7.62 o
-4 10 3 1682.92 1603.09 24.78 o
-3 10 3 10828.00 10558.30 108.65 o
-2 10 3 2698.57 2546.65 45.75 o
-1 10 3 0.06 1.91 3.81 <
0 10 3 8991.99 9048.60 95.31 o
1 10 3 35.31 32.40 5.72 o
2 10 3 2252.55 2152.07 36.22 o
3 10 3 0.00 1.91 7.62 <
4 10 3 1559.09 1498.25 41.94 o
5 10 3 25.29 38.12 17.16 <
6 10 3 1453.64 1498.25 45.75 o
-9 11 3 3058.90 3152.81 102.93 o
-8 11 3 685.33 686.22 30.50 o
-7 11 3 4.79 20.97 15.25 <
-6 11 3 4610.93 4525.25 59.09 o
-5 11 3 512.99 495.61 11.44 o
-4 11 3 4412.41 4304.14 47.65 o
-3 11 3 7.23 9.53 5.72 <
-2 11 3 957.09 928.31 22.87 o
-1 11 3 1752.68 1625.96 20.97 o
0 11 3 11323.10 11376.00 173.46 o
1 11 3 0.18 9.53 5.72 <
2 11 3 1363.16 1345.76 26.69 o
3 11 3 4275.91 4193.58 62.90 o
4 11 3 892.65 831.09 40.03 o
5 11 3 0.07 19.06 17.16 <
6 11 3 1993.51 2001.48 62.90 o
-9 12 3 2.58 53.37 26.69 <
-8 12 3 162.26 175.37 20.97 o
-7 12 3 17.89 38.12 15.25 <
-6 12 3 2373.45 2386.53 43.84 o
-5 12 3 10.55 20.97 5.72 o
-4 12 3 2349.35 2369.37 28.59 o
-3 12 3 2472.15 2518.05 32.40 o
-2 12 3 155.53 144.87 7.62 o
-1 12 3 49.96 47.65 7.62 o
0 12 3 3435.41 3429.20 45.75 o
1 12 3 60.57 55.28 11.44 o
2 12 3 262.12 276.39 13.34 o
3 12 3 0.01 0.00 7.62 <
4 12 3 26.90 24.78 15.25 <
5 12 3 52.46 40.03 19.06 <
6 12 3 989.72 924.49 40.03 o
-9 13 3 2240.80 2123.48 81.97 o
-8 13 3 2.04 1.91 17.16 <
-7 13 3 228.00 211.59 19.06 o
-6 13 3 28.77 61.00 11.44 o
-5 13 3 4526.03 4651.06 59.09 o
-4 13 3 14.93 38.12 5.72 o
-3 13 3 0.30 -1.91 5.72 <
-2 13 3 234.13 226.83 7.62 o
-1 13 3 861.70 888.28 13.34 o
0 13 3 84.92 150.59 7.62 o
1 13 3 51.69 49.56 9.53 o
2 13 3 6.06 17.16 9.53 <
3 13 3 12.41 9.53 7.62 <
4 13 3 13.06 19.06 20.97 <
5 13 3 18.58 26.69 26.69 <
6 13 3 0.23 3.81 20.97 <
-8 14 3 148.48 175.37 20.97 o
-7 14 3 7840.71 8211.79 146.77 o
-6 14 3 1094.72 1082.71 26.69 o
-5 14 3 319.02 308.80 11.44 o
-4 14 3 828.59 813.94 20.97 o
-3 14 3 31297.30 31491.90 362.17 o
-2 14 3 24.30 34.31 5.72 o
-1 14 3 760.94 762.47 13.34 o
0 14 3 2666.76 2723.92 41.94 o
1 14 3 16379.00 16583.70 194.43 o
2 14 3 243.63 272.58 13.34 o
3 14 3 0.09 28.59 11.44 <
4 14 3 243.71 257.33 15.25 o
5 14 3 5560.51 5404.00 160.12 o
6 14 3 363.56 371.70 28.59 o
-8 15 3 230.94 232.55 20.97 o
-7 15 3 917.60 905.43 38.12 o
-6 15 3 2522.29 2565.71 45.75 o
-5 15 3 7537.50 7552.25 91.50 o
-4 15 3 3057.52 3078.47 41.94 o
-3 15 3 1065.30 975.96 15.25 o
-2 15 3 499.30 514.67 19.06 o
-1 15 3 51642.10 50860.50 518.48 o
0 15 3 5226.12 5188.60 57.19 o
1 15 3 30.13 41.94 7.62 o
2 15 3 783.76 779.62 17.16 o
3 15 3 45281.90 45294.50 747.22 o
4 15 3 70.06 70.53 22.87 o
5 15 3 10.15 36.22 19.06 <
-8 16 3 84.02 97.21 19.06 o
-7 16 3 4791.45 4835.96 95.31 o
-6 16 3 2797.33 2773.48 45.75 o
-5 16 3 298.31 304.99 11.44 o
-4 16 3 1788.15 1757.49 26.69 o
-3 16 3 20803.50 21225.20 230.65 o
-2 16 3 828.60 787.25 19.06 o
-1 16 3 78.48 87.68 7.62 o
0 16 3 6000.70 5781.42 62.90 o
1 16 3 7633.93 7685.69 131.53 o
2 16 3 819.35 800.59 17.16 o
3 16 3 0.33 22.87 13.34 <
4 16 3 920.62 920.68 26.69 o
5 16 3 2891.13 2855.45 68.62 o
-8 17 3 76.73 68.62 24.78 <
-7 17 3 29.10 20.97 20.97 <
-6 17 3 33.22 59.09 24.78 <
-5 17 3 1487.01 1553.53 30.50 o
-4 17 3 332.31 322.14 13.34 o
-3 17 3 54.45 47.65 7.62 o
-2 17 3 175.52 156.31 11.44 o
-1 17 3 176.37 169.65 9.53 o
0 17 3 1428.52 1418.19 20.97 o
1 17 3 17.09 15.25 7.62 <
2 17 3 539.19 499.42 26.69 o
3 17 3 222.46 198.24 15.25 o
4 17 3 300.18 249.71 17.16 o
5 17 3 15.65 34.31 19.06 <
-8 18 3 105.40 141.06 20.97 o
-7 18 3 2.25 7.62 15.25 <
-6 18 3 325.68 388.86 22.87 o
-5 18 3 71.04 83.87 15.25 o
-4 18 3 491.69 514.67 19.06 o
-3 18 3 1234.69 1376.26 36.22 o
-2 18 3 39.61 43.84 5.72 o
-1 18 3 43.48 57.19 7.62 o
0 18 3 1554.97 1635.50 22.87 o
1 18 3 369.28 407.92 17.16 o
2 18 3 114.79 142.96 13.34 o
3 18 3 0.79 -1.91 11.44 <
4 18 3 103.15 118.18 22.87 o
5 18 3 115.92 133.43 55.28 <
-8 19 3 181.20 211.59 22.87 o
-7 19 3 9.10 -9.53 15.25 <
-6 19 3 1612.09 1559.25 43.84 o
-5 19 3 235.33 257.33 15.25 o
-4 19 3 2900.75 2870.70 40.03 o
-3 19 3 19.91 24.78 7.62 o
-2 19 3 448.90 453.67 11.44 o
-1 19 3 15.26 20.97 5.72 o
0 19 3 7408.47 7254.89 114.37 o
1 19 3 41.15 53.37 9.53 o
2 19 3 876.10 853.97 26.69 o
3 19 3 691.99 663.35 45.75 o
4 19 3 474.29 472.73 20.97 o
5 19 3 7.30 -26.69 19.06 <
-8 20 3 10.59 20.97 19.06 <
-7 20 3 2049.04 2092.98 53.37 o
-6 20 3 3828.83 3850.47 83.87 o
-5 20 3 0.56 22.87 11.44 <
-4 20 3 893.88 859.68 20.97 o
-3 20 3 4123.40 4144.02 59.09 o
-2 20 3 1718.16 1593.56 22.87 o
-1 20 3 21.83 15.25 5.72 <
0 20 3 5575.15 5409.72 61.00 o
1 20 3 756.06 777.72 43.84 o
2 20 3 1268.38 1242.82 30.50 o
3 20 3 0.77 -7.62 9.53 <
4 20 3 763.24 730.06 43.84 o
5 20 3 107.70 80.06 45.75 <
-8 21 3 70.23 76.25 26.69 <
-7 21 3 9.06 20.97 17.16 <
-6 21 3 544.07 697.66 36.22 o
-5 21 3 317.32 358.36 17.16 o
-4 21 3 200.90 213.49 13.34 o
-3 21 3 12.60 17.16 7.62 <
-2 21 3 46.18 47.65 7.62 o
-1 21 3 96.42 62.90 9.53 o
0 21 3 1398.34 1427.72 20.97 o
1 21 3 33.24 24.78 11.44 <
2 21 3 500.64 451.76 19.06 o
3 21 3 992.49 1000.74 66.72 o
4 21 3 146.25 133.43 15.25 o
5 21 3 41.37 64.81 22.87 <
-8 22 3 3.17 -9.53 22.87 <
-7 22 3 1152.54 1208.51 41.94 o
-6 22 3 7.40 -3.81 15.25 <
-5 22 3 194.13 219.21 15.25 o
-4 22 3 16.68 11.44 9.53 <
-3 22 3 152.26 167.74 9.53 o
-2 22 3 24.28 30.50 7.62 o
-1 22 3 90.90 101.03 7.62 o
0 22 3 357.67 398.39 11.44 o
1 22 3 749.08 834.90 28.59 o
2 22 3 469.02 463.20 26.69 o
3 22 3 0.25 -13.34 11.44 <
4 22 3 252.30 249.71 30.50 o
5 22 3 134.84 129.62 22.87 o
-8 23 3 2.29 17.16 19.06 <
-7 23 3 22.59 28.59 19.06 <
-6 23 3 928.63 928.31 34.31 o
-5 23 3 130.44 152.49 13.34 o
-4 23 3 1044.47 1071.27 26.69 o
-3 23 3 154.59 156.31 9.53 o
-2 23 3 293.10 274.49 13.34 o
-1 23 3 772.25 735.78 15.25 o
0 23 3 1693.80 1770.83 28.59 o
1 23 3 170.56 160.12 17.16 o
2 23 3 117.37 137.24 20.97 o
3 23 3 1854.86 1824.21 47.65 o
4 23 3 34.05 59.09 15.25 o
5 23 3 46.67 51.47 20.97 <
-7 24 3 640.33 646.19 32.40 o
-6 24 3 854.18 913.06 34.31 o
-5 24 3 13.86 5.72 11.44 <
-4 24 3 112.02 114.37 13.34 o
-3 24 3 8310.71 8402.41 110.56 o
-2 24 3 29.15 36.22 7.62 o
-1 24 3 90.59 91.50 7.62 o
0 24 3 1271.76 1233.29 28.59 o
1 24 3 3897.01 4004.87 99.12 o
2 24 3 55.96 53.37 11.44 o
3 24 3 0.00 -17.16 11.44 <
4 24 3 42.51 32.40 13.34 <
5 24 3 1458.52 1509.69 83.87 o
-7 25 3 160.63 181.09 22.87 o
-6 25 3 184.19 158.21 20.97 o
-5 25 3 13.77 3.81 11.44 <
-4 25 3 3.26 0.00 9.53 <
-3 25 3 501.37 497.51 15.25 o
-2 25 3 25.67 36.22 9.53 o
-1 25 3 1981.77 2022.45 30.50 o
0 25 3 201.44 202.05 15.25 o
1 25 3 65.58 61.00 11.44 o
2 25 3 1.20 -3.81 11.44 <
3 25 3 3215.45 3238.59 57.19 o
4 25 3 18.17 9.53 19.06 <
-7 26 3 0.19 -15.25 19.06 <
-6 26 3 24.23 32.40 38.12 <
-5 26 3 114.52 112.46 19.06 o
-4 26 3 57.73 41.94 11.44 o
-3 26 3 245.68 299.27 15.25 o
-2 26 3 48.79 59.09 11.44 o
-1 26 3 25.35 34.31 13.34 <
0 26 3 16.95 34.31 11.44 <
1 26 3 662.58 741.50 22.87 o
2 26 3 188.10 202.05 15.25 o
3 26 3 0.18 13.34 13.34 <
4 26 3 14.05 15.25 15.25 <
-7 27 3 121.36 112.46 30.50 o
-6 27 3 720.90 728.16 102.93 o
-5 27 3 1.40 19.06 20.97 <
-4 27 3 194.01 198.24 15.25 o
-3 27 3 14.73 19.06 11.44 <
-2 27 3 39.67 40.03 9.53 o
-1 27 3 2078.72 2115.85 40.03 o
0 27 3 475.75 486.07 26.69 o
1 27 3 20.25 24.78 11.44 <
2 27 3 7.17 5.72 11.44 <
3 27 3 3875.88 3957.21 68.62 o
4 27 3 1.44 5.72 15.25 <
-7 28 3 757.21 758.66 36.22 o
-6 28 3 547.79 518.48 30.50 o
-5 28 3 56.68 19.06 19.06 <
-4 28 3 280.99 264.96 26.69 o
-3 28 3 4322.23 4102.08 93.40 o
-2 28 3 181.40 169.65 13.34 o
-1 28 3 134.35 135.34 13.34 o
0 28 3 1370.58 1391.51 43.84 o
1 28 3 321.70 316.42 17.16 o
2 28 3 2.16 -9.53 17.16 <
3 28 3 1.72 9.53 13.34 <
4 28 3 21.55 30.50 15.25 <
-7 29 3 30.85 41.94 20.97 <
-6 29 3 197.27 175.37 36.22 o
-5 29 3 306.21 303.08 22.87 o
-4 29 3 295.21 266.86 17.16 o
-3 29 3 55.34 61.00 11.44 o
-2 29 3 30.38 43.84 11.44 o
-1 29 3 116.55 127.71 15.25 o
0 29 3 1438.82 1500.16 68.62 o
1 29 3 9.62 20.97 13.34 <
2 29 3 133.88 141.06 15.25 o
3 29 3 534.41 547.07 24.78 o
4 29 3 28.85 34.31 15.25 <
-6 30 3 440.10 411.73 49.56 o
-5 30 3 78.17 83.87 20.97 o
-4 30 3 183.29 167.74 15.25 o
-3 30 3 333.71 268.77 17.16 o
-2 30 3 460.11 467.01 24.78 o
-1 30 3 134.45 116.28 20.97 o
0 30 3 381.15 337.39 22.87 o
1 30 3 21.76 13.34 11.44 <
2 30 3 68.84 49.56 17.16 <
3 30 3 0.75 11.44 13.34 <
4 30 3 27.17 36.22 17.16 <
-6 31 3 82.84 81.97 20.97 o
-5 31 3 242.27 245.90 20.97 o
-4 31 3 80.76 74.34 15.25 o
-3 31 3 97.01 74.34 13.34 o
-2 31 3 6.09 3.81 15.25 <
-1 31 3 1110.15 1065.55 28.59 o
0 31 3 3.15 -3.81 13.34 <
1 31 3 127.95 99.12 13.34 o
2 31 3 285.17 266.86 19.06 o
3 31 3 618.62 562.32 26.69 o
-6 32 3 86.58 110.56 20.97 o
-5 32 3 365.65 316.42 24.78 o
-4 32 3 7.89 19.06 13.34 <
-3 32 3 442.93 457.48 20.97 o
-2 32 3 72.82 72.43 17.16 o
-1 32 3 0.36 5.72 24.78 <
0 32 3 541.22 493.70 28.59 o
1 32 3 4755.55 4896.96 78.15 o
2 32 3 239.05 192.52 19.06 o
3 32 3 0.09 17.16 15.25 <
-6 33 3 66.39 76.25 20.97 o
-5 33 3 2421.38 2409.40 83.87 o
-4 33 3 159.63 137.24 17.16 o
-3 33 3 133.22 120.09 15.25 o
-2 33 3 12.24 11.44 13.34 <
-1 33 3 752.62 773.91 30.50 o
0 33 3 674.02 682.41 30.50 o
1 33 3 48.66 19.06 17.16 <
2 33 3 1.63 1.91 13.34 <
3 33 3 3.36 30.50 20.97 <
-6 34 3 54.65 59.09 26.69 <
-5 34 3 20.24 38.12 19.06 <
-4 34 3 3.78 0.00 24.78 <
-3 34 3 306.54 289.74 22.87 o
-2 34 3 4.70 13.34 20.97 <
-1 34 3 80.44 114.37 19.06 o
0 34 3 3.57 26.69 17.16 <
1 34 3 131.43 97.21 20.97 o
2 34 3 10.89 11.44 15.25 <
3 34 3 0.01 -3.81 15.25 <
-5 35 3 316.55 251.62 24.78 o
-4 35 3 265.04 251.62 20.97 o
-3 35 3 35.16 40.03 17.16 <
-2 35 3 6.22 0.00 19.06 <
-1 35 3 1604.49 1498.25 43.84 o
0 35 3 232.62 240.18 22.87 o
1 35 3 45.34 59.09 19.06 o
2 35 3 3.00 -17.16 19.06 <
-5 36 3 21.75 -1.91 20.97 <
-4 36 3 1.45 3.81 24.78 <
-3 36 3 1531.13 1435.35 59.09 o
-2 36 3 2.53 11.44 13.34 <
-1 36 3 52.11 36.22 17.16 <
0 36 3 507.23 463.20 28.59 o
1 36 3 707.14 569.95 30.50 o
2 36 3 82.55 72.43 20.97 o
-5 37 3 6.96 22.87 24.78 <
-4 37 3 6.16 -17.16 24.78 <
-3 37 3 14.57 22.87 15.25 <
-2 37 3 34.87 30.50 15.25 <
-1 37 3 0.22 -9.53 17.16 <
0 37 3 146.13 108.65 38.12 <
1 37 3 1.15 5.72 19.06 <
2 37 3 41.83 22.87 19.06 <
-4 38 3 0.71 28.59 26.69 <
-3 38 3 608.14 619.51 28.59 o
-2 38 3 209.35 224.93 20.97 o
-1 38 3 4.70 20.97 30.50 <
0 38 3 0.60 -3.81 17.16 <
1 38 3 11.95 0.00 19.06 <
-4 39 3 130.38 106.75 26.69 o
-3 39 3 66.41 89.59 26.69 o
-2 39 3 118.89 87.68 24.78 o
-1 39 3 238.31 232.55 26.69 o
0 39 3 9.49 -26.69 26.69 <
1 39 3 80.06 70.53 20.97 o
-3 40 3 10.40 17.16 24.78 <
-2 40 3 114.44 127.71 26.69 o
-1 40 3 162.25 123.90 26.69 o
0 40 3 27.56 1.91 17.16 <
-2 41 3 11.78 24.78 22.87 <
-1 41 3 886.09 918.78 47.65 o
-8 0 4 11134.80 11229.30 190.62 o
-7 0 4 1499.00 1402.94 78.15 o
-6 0 4 910.77 911.15 28.59 o
-5 0 4 7746.66 7556.07 129.62 o
-4 0 4 19142.00 20094.90 324.05 o
-3 0 4 7622.91 7689.50 129.62 o
-2 0 4 2375.31 2274.06 34.31 o
-1 0 4 1896.07 1856.61 28.59 o
0 0 4 72095.00 73683.10 975.96 o
1 0 4 7827.29 7857.24 108.65 o
2 0 4 382.04 430.80 20.97 o
3 0 4 1972.14 1824.21 43.84 o
4 0 4 47069.60 46960.50 775.81 o
5 0 4 320.31 371.70 41.94 o
-8 1 4 966.56 968.34 24.78 o
-7 1 4 507.89 467.01 30.50 o
-6 1 4 16669.10 16831.50 200.15 o
-5 1 4 6377.83 6206.50 76.25 o
-4 1 4 1792.37 1784.18 26.69 o
-3 1 4 4554.81 4513.82 57.19 o
-2 1 4 60955.90 60707.80 1961.45 o
-1 1 4 1256.67 1229.48 15.25 o
0 1 4 0.88 -1.91 3.81 <
1 1 4 6978.29 6968.97 68.62 o
2 1 4 13406.70 13486.20 162.02 o
3 1 4 810.83 733.88 20.97 o
4 1 4 0.19 78.15 36.22 <
5 1 4 811.79 819.65 26.69 o
-9 2 4 4.49 34.31 22.87 <
-8 2 4 6823.83 6989.93 87.68 o
-7 2 4 61.47 72.43 9.53 o
-6 2 4 0.35 11.44 9.53 <
-5 2 4 163.31 224.93 13.34 o
-4 2 4 3600.94 3726.57 47.65 o
-3 2 4 326.36 377.42 11.44 o
-2 2 4 126.30 116.28 7.62 o
-1 2 4 381.39 377.42 9.53 o
0 2 4 29.07 30.50 5.72 o
1 2 4 649.50 751.03 13.34 o
2 2 4 139.52 169.65 11.44 o
3 2 4 213.01 228.74 13.34 o
4 2 4 157.23 142.96 13.34 o
5 2 4 124.88 148.68 15.25 o
-9 3 4 1088.30 1111.30 55.28 o
-8 3 4 43.17 40.03 11.44 o
-7 3 4 587.36 573.76 17.16 o
-6 3 4 334.38 333.58 13.34 o
-5 3 4 2578.88 2481.84 36.22 o
-4 3 4 195.11 169.65 9.53 o
-3 3 4 2735.30 2763.95 36.22 o
-2 3 4 2404.76 2319.81 30.50 o
-1 3 4 148.24 146.77 5.72 o
0 3 4 361.44 365.98 9.53 o
1 3 4 2500.28 2487.55 28.59 o
2 3 4 1361.07 1239.01 30.50 o
3 3 4 454.00 480.36 17.16 o
4 3 4 0.02 -3.81 11.44 <
5 3 4 143.96 177.27 15.25 o
-9 4 4 1170.85 1197.08 57.19 o
-8 4 4 7312.28 7279.67 125.81 o
-7 4 4 1665.03 1660.28 28.59 o
-6 4 4 316.59 331.67 13.34 o
-5 4 4 6907.85 6772.63 93.40 o
-4 4 4 4839.67 4603.41 57.19 o
-3 4 4 9310.30 9326.90 108.65 o
-2 4 4 1.66 -11.44 5.72 <
-1 4 4 2283.23 2176.85 24.78 o
0 4 4 3599.94 3421.58 36.22 o
1 4 4 12454.70 12382.50 118.18 o
2 4 4 187.67 196.34 9.53 o
3 4 4 1994.95 1961.45 34.31 o
4 4 4 2276.46 2253.10 40.03 o
5 4 4 944.02 954.99 32.40 o
-9 5 4 2557.81 2479.93 85.78 o
-8 5 4 3.85 19.06 11.44 <
-7 5 4 158.42 162.02 11.44 o
-6 5 4 9007.06 8661.65 104.84 o
-5 5 4 11808.50 11570.50 135.34 o
-4 5 4 267.32 255.43 9.53 o
-3 5 4 3769.58 3728.47 47.65 o
-2 5 4 11520.60 11528.50 120.09 o
-1 5 4 5045.47 5015.14 55.28 o
0 5 4 153.51 129.62 5.72 o
1 5 4 9542.49 9553.74 118.18 o
2 5 4 264.95 251.62 11.44 o
3 5 4 2599.47 2512.33 57.19 o
4 5 4 0.28 11.44 11.44 <
5 5 4 1567.64 1467.75 38.12 o
-9 6 4 164.52 184.90 20.97 o
-8 6 4 6.94 -9.53 15.25 <
-7 6 4 275.31 278.30 13.34 o
-6 6 4 22.86 24.78 13.34 <
-5 6 4 1117.20 1202.79 20.97 o
-4 6 4 16.46 24.78 9.53 <
-3 6 4 1510.72 1553.53 24.78 o
-2 6 4 94.11 99.12 5.72 o
-1 6 4 760.58 775.81 15.25 o
0 6 4 166.97 177.27 7.62 o
1 6 4 2361.76 2466.59 36.22 o
2 6 4 141.14 148.68 11.44 o
3 6 4 877.52 903.53 22.87 o
4 6 4 81.30 81.97 13.34 o
5 6 4 202.28 211.59 20.97 o
-9 7 4 324.24 345.02 24.78 o
-8 7 4 24.20 61.00 22.87 <
-7 7 4 54.99 59.09 15.25 o
-6 7 4 5486.60 5379.22 68.62 o
-5 7 4 1176.14 1158.95 43.84 o
-4 7 4 64.69 51.47 7.62 o
-3 7 4 324.17 367.89 19.06 o
-2 7 4 8659.89 8417.66 89.59 o
-1 7 4 477.29 461.29 13.34 o
0 7 4 105.29 89.59 5.72 o
1 7 4 1524.76 1624.06 26.69 o
2 7 4 23.02 20.97 11.44 <
3 7 4 396.25 484.17 19.06 o
4 7 4 0.10 13.34 11.44 <
5 7 4 297.88 331.67 22.87 o
-9 8 4 832.47 773.91 45.75 o
-8 8 4 10332.50 10321.90 179.18 o
-7 8 4 810.68 838.72 40.03 o
-6 8 4 13.48 19.06 9.53 <
-5 8 4 5470.05 5203.85 106.75 o
-4 8 4 3941.16 3861.91 49.56 o
-3 8 4 7262.65 7054.74 102.93 o
-2 8 4 0.25 1.91 5.72 <
-1 8 4 2632.86 2481.84 30.50 o
0 8 4 6861.42 6877.47 74.34 o
1 8 4 9640.81 9368.84 112.46 o
2 8 4 30.74 34.31 11.44 <
3 8 4 2006.33 1969.08 40.03 o
4 8 4 8397.57 8120.29 106.75 o
5 8 4 957.75 951.18 32.40 o
-9 9 4 2518.13 2437.99 61.00 o
-8 9 4 371.24 404.11 24.78 o
-7 9 4 133.88 152.49 17.16 o
-6 9 4 9501.12 9654.76 156.31 o
-5 9 4 9463.85 9033.35 125.81 o
-4 9 4 628.52 592.82 17.16 o
-3 9 4 3534.26 3398.71 43.84 o
-2 9 4 48059.00 48811.40 501.32 o
-1 9 4 2897.16 2853.54 34.31 o
0 9 4 59.49 53.37 5.72 o
1 9 4 7905.45 8007.83 97.21 o
2 9 4 10512.70 10754.60 129.62 o
3 9 4 1718.38 1702.21 36.22 o
4 9 4 0.06 28.59 15.25 <
5 9 4 871.63 810.12 30.50 o
-9 10 4 432.48 385.05 26.69 o
-8 10 4 2291.63 2298.84 66.72 o
-7 10 4 281.50 348.83 17.16 o
-6 10 4 108.80 112.46 9.53 o
-5 10 4 1660.04 1726.99 26.69 o
-4 10 4 1895.76 1896.64 28.59 o
-3 10 4 1057.89 1105.58 30.50 o
-2 10 4 1066.44 1025.52 17.16 o
-1 10 4 228.71 251.62 9.53 o
0 10 4 11241.20 11198.80 131.53 o
1 10 4 1582.76 1698.40 26.69 o
2 10 4 312.92 345.02 13.34 o
3 10 4 325.26 337.39 17.16 o
4 10 4 10121.50 10095.10 182.99 o
5 10 4 63.41 72.43 17.16 o
-9 11 4 61.62 59.09 19.06 o
-8 11 4 358.34 335.49 38.12 o
-7 11 4 46.51 70.53 11.44 o
-6 11 4 16.50 17.16 9.53 <
-5 11 4 281.98 301.17 13.34 o
-4 11 4 874.12 867.31 17.16 o
-3 11 4 28.04 64.81 9.53 o
-2 11 4 121.60 120.09 7.62 o
-1 11 4 526.91 489.89 11.44 o
0 11 4 146.61 131.53 7.62 o
1 11 4 119.50 184.90 11.44 o
2 11 4 217.78 230.65 15.25 o
3 11 4 494.31 457.48 24.78 o
4 11 4 0.07 22.87 17.16 <
5 11 4 34.63 43.84 17.16 <
-9 12 4 614.09 657.63 34.31 o
-8 12 4 428.46 415.55 30.50 o
-7 12 4 320.45 354.55 17.16 o
-6 12 4 314.05 310.71 17.16 o
-5 12 4 3478.97 3421.58 51.47 o
-4 12 4 866.95 819.65 17.16 o
-3 12 4 3173.45 3129.93 41.94 o
-2 12 4 7.20 9.53 5.72 <
-1 12 4 841.92 852.06 15.25 o
0 12 4 7717.72 7720.00 83.87 o
1 12 4 4075.16 4071.58 53.37 o
2 12 4 177.20 211.59 13.34 o
3 12 4 584.73 552.79 24.78 o
4 12 4 5237.35 5228.63 106.75 o
5 12 4 236.05 263.05 22.87 o
-9 13 4 2054.78 2085.35 55.28 o
-8 13 4 46.16 47.65 26.69 <
-7 13 4 680.54 691.94 22.87 o
-6 13 4 7059.09 7066.18 101.03 o
-5 13 4 5774.27 5707.08 70.53 o
-4 13 4 2.16 -9.53 7.62 <
-3 13 4 3650.38 3553.10 45.75 o
-2 13 4 16536.90 16560.80 171.55 o
-1 13 4 311.16 304.99 9.53 o
0 13 4 514.20 518.48 17.16 o
1 13 4 5432.79 5390.65 80.06 o
2 13 4 3417.95 3461.61 57.19 o
3 13 4 593.72 554.70 20.97 o
4 13 4 0.61 11.44 17.16 <
5 13 4 474.74 518.48 26.69 o
-9 14 4 415.95 453.67 30.50 o
-8 14 4 5062.47 5295.35 131.53 o
-7 14 4 668.93 650.01 28.59 o
-6 14 4 591.99 583.29 28.59 o
-5 14 4 1912.59 1911.89 34.31 o
-4 14 4 4751.24 4542.41 57.19 o
-3 14 4 2337.22 2359.84 32.40 o
-2 14 4 180.49 165.84 9.53 o
-1 14 4 163.61 177.27 7.62 o
0 14 4 2922.14 2967.91 36.22 o
1 14 4 3912.61 4006.77 53.37 o
2 14 4 31.04 41.94 9.53 o
3 14 4 501.78 522.29 49.56 o
4 14 4 1335.30 1399.13 45.75 o
5 14 4 212.90 242.08 26.69 o
-8 15 4 92.33 123.90 20.97 o
-7 15 4 15.94 28.59 11.44 <
-6 15 4 531.12 556.60 28.59 o
-5 15 4 735.33 812.03 22.87 o
-4 15 4 2.09 9.53 7.62 <
-3 15 4 353.71 377.42 13.34 o
-2 15 4 34.19 59.09 7.62 o
-1 15 4 681.63 667.16 19.06 o
0 15 4 22.60 19.06 9.53 <
1 15 4 379.34 425.08 15.25 o
2 15 4 44.96 30.50 11.44 <
3 15 4 145.63 160.12 15.25 o
4 15 4 0.88 3.81 17.16 <
5 15 4 54.39 72.43 22.87 o
-8 16 4 2649.25 2626.71 62.90 o
-7 16 4 17.72 47.65 17.16 <
-6 16 4 14.29 3.81 11.44 <
-5 16 4 931.55 937.84 51.47 o
-4 16 4 108.01 102.93 9.53 o
-3 16 4 560.66 564.23 15.25 o
-2 16 4 2.40 0.00 5.72 <
-1 16 4 4.58 15.25 5.72 <
0 16 4 7.61 17.16 7.62 <
1 16 4 566.97 615.69 17.16 o
2 16 4 13.65 3.81 11.44 <
3 16 4 66.75 59.09 13.34 o
4 16 4 342.74 365.98 62.90 o
5 16 4 17.21 28.59 26.69 <
-8 17 4 12.12 40.03 19.06 <
-7 17 4 177.65 211.59 20.97 o
-6 17 4 1778.29 1845.17 36.22 o
-5 17 4 2991.49 2996.50 64.81 o
-4 17 4 14.00 15.25 9.53 <
-3 17 4 1493.26 1460.13 34.31 o
-2 17 4 4898.80 4759.71 53.37 o
-1 17 4 258.44 261.15 9.53 o
0 17 4 113.58 116.28 9.53 o
1 17 4 3326.60 3190.93 45.75 o
2 17 4 575.86 571.85 30.50 o
3 17 4 829.23 834.90 32.40 o
4 17 4 0.22 20.97 20.97 <
-8 18 4 108.99 122.00 20.97 o
-7 18 4 143.14 154.40 20.97 o
-6 18 4 461.23 461.29 19.06 o
-5 18 4 1481.94 1490.63 32.40 o
-4 18 4 1846.19 1868.05 34.31 o
-3 18 4 2584.20 2479.93 57.19 o
-2 18 4 51.42 55.28 7.62 o
-1 18 4 263.86 247.80 9.53 o
0 18 4 184.09 196.34 11.44 o
1 18 4 4344.30 4161.17 59.09 o
2 18 4 22.27 34.31 11.44 <
3 18 4 584.14 539.45 20.97 o
4 18 4 2483.56 2342.69 61.00 o
-8 19 4 0.38 17.16 19.06 <
-7 19 4 63.43 76.25 19.06 o
-6 19 4 1008.92 1031.24 36.22 o
-5 19 4 1106.77 1044.58 24.78 o
-4 19 4 1.20 7.62 9.53 <
-3 19 4 68.52 89.59 9.53 o
-2 19 4 22.35 19.06 5.72 o
-1 19 4 726.85 716.72 17.16 o
0 19 4 594.89 587.10 22.87 o
1 19 4 386.47 404.11 26.69 o
2 19 4 244.72 236.37 15.25 o
3 19 4 143.04 167.74 24.78 o
4 19 4 0.15 9.53 19.06 <
-8 20 4 402.68 434.61 30.50 o
-7 20 4 2.29 -7.62 30.50 <
-6 20 4 408.68 417.45 19.06 o
-5 20 4 279.17 331.67 17.16 o
-4 20 4 2467.75 2527.58 43.84 o
-3 20 4 623.14 630.94 19.06 o
-2 20 4 20.90 28.59 13.34 <
-1 20 4 67.61 72.43 7.62 o
0 20 4 6742.17 6883.19 167.74 o
1 20 4 391.09 440.33 19.06 o
2 20 4 163.37 158.21 17.16 o
3 20 4 58.59 72.43 13.34 o
4 20 4 3133.99 3080.37 224.93 o
-8 21 4 0.76 19.06 19.06 <
-7 21 4 6.09 11.44 17.16 <
-6 21 4 2835.99 2872.60 51.47 o
-5 21 4 2502.30 2457.06 43.84 o
-4 21 4 99.11 102.93 22.87 o
-3 21 4 507.15 510.85 26.69 o
-2 21 4 9374.17 9746.26 152.49 o
-1 21 4 554.14 566.13 20.97 o
0 21 4 295.75 310.71 13.34 o
1 21 4 2866.06 2847.82 51.47 o
2 21 4 4178.85 4233.61 78.15 o
3 21 4 752.90 716.72 49.56 o
4 21 4 0.41 5.72 19.06 <
-8 22 4 2910.90 3021.28 104.84 o
-7 22 4 57.01 61.00 19.06 o
-6 22 4 440.17 426.98 20.97 o
-5 22 4 1855.31 1782.27 66.72 o
-4 22 4 1503.13 1576.40 36.22 o
-3 22 4 1230.47 1202.79 28.59 o
-2 22 4 31.71 41.94 7.62 o
-1 22 4 242.15 274.49 11.44 o
0 22 4 1779.35 1767.02 30.50 o
1 22 4 3167.97 3091.81 64.81 o
2 22 4 62.61 49.56 11.44 o
3 22 4 359.85 373.61 20.97 o
4 22 4 1542.77 1507.78 49.56 o
-8 23 4 199.12 230.65 24.78 o
-7 23 4 1.19 0.00 17.16 <
-6 23 4 2705.94 2664.83 49.56 o
-5 23 4 817.88 791.06 24.78 o
-4 23 4 151.28 150.59 19.06 o
-3 23 4 244.68 268.77 15.25 o
-2 23 4 3191.59 3187.12 40.03 o
-1 23 4 1.82 5.72 7.62 <
0 23 4 139.23 125.81 13.34 o
1 23 4 322.24 297.36 17.16 o
2 23 4 442.12 440.33 20.97 o
3 23 4 6.13 7.62 13.34 <
4 23 4 0.04 1.91 20.97 <
-8 24 4 1.13 0.00 20.97 <
-7 24 4 25.83 13.34 26.69 <
-6 24 4 149.79 169.65 20.97 o
-5 24 4 51.91 80.06 13.34 o
-4 24 4 1028.33 1052.21 26.69 o
-3 24 4 261.54 261.15 20.97 o
-2 24 4 208.77 217.30 13.34 o
-1 24 4 189.09 171.55 13.34 o
0 24 4 1129.47 1082.71 28.59 o
1 24 4 87.04 95.31 19.06 o
2 24 4 7.99 32.40 13.34 <
3 24 4 0.24 13.34 15.25 <
4 24 4 96.98 78.15 22.87 o
-7 25 4 1.27 20.97 19.06 <
-6 25 4 194.74 224.93 22.87 o
-5 25 4 434.80 451.76 26.69 o
-4 25 4 32.98 15.25 11.44 <
-3 25 4 1.36 0.00 17.16 <
-2 25 4 751.79 747.22 19.06 o
-1 25 4 7.73 -3.81 9.53 <
0 25 4 0.11 0.00 11.44 <
1 25 4 569.82 577.57 28.59 o
2 25 4 781.63 758.66 26.69 o
3 25 4 91.06 78.15 15.25 o
-7 26 4 3.32 30.50 19.06 <
-6 26 4 54.15 57.19 17.16 o
-5 26 4 1041.19 1054.11 43.84 o
-4 26 4 1231.17 1286.67 40.03 o
-3 26 4 294.10 284.02 15.25 o
-2 26 4 4.61 1.91 9.53 <
-1 26 4 2.72 5.72 11.44 <
0 26 4 435.56 428.89 22.87 o
1 26 4 557.00 571.85 22.87 o
2 26 4 2.58 7.62 13.34 <
3 26 4 13.77 0.00 15.25 <
-7 27 4 12.64 -3.81 19.06 <
-6 27 4 582.76 495.61 28.59 o
-5 27 4 402.08 417.45 20.97 o
-4 27 4 0.30 -5.72 13.34 <
-3 27 4 254.09 226.83 15.25 o
-2 27 4 6.35 5.72 9.53 <
-1 27 4 19.84 -1.91 11.44 <
0 27 4 230.27 243.99 17.16 o
1 27 4 248.85 230.65 17.16 o
2 27 4 915.33 888.28 32.40 o
3 27 4 22.93 0.00 20.97 <
-7 28 4 17.65 -3.81 19.06 <
-6 28 4 504.78 486.07 28.59 o
-5 28 4 73.52 62.90 13.34 o
-4 28 4 3010.35 2910.72 51.47 o
-3 28 4 40.28 40.03 11.44 o
-2 28 4 3.16 20.97 9.53 <
-1 28 4 20.55 34.31 22.87 <
0 28 4 908.07 945.46 26.69 o
1 28 4 217.07 205.87 20.97 o
2 28 4 95.99 99.12 15.25 o
3 28 4 25.02 9.53 15.25 <
-7 29 4 1.59 1.91 24.78 <
-6 29 4 2226.81 2226.41 57.19 o
-5 29 4 2.09 -13.34 17.16 <
-4 29 4 3.41 9.53 11.44 <
-3 29 4 3.10 -7.62 11.44 <
-2 29 4 4287.62 4376.57 70.53 o
-1 29 4 576.03 556.60 57.19 o
0 29 4 587.05 543.26 22.87 o
1 29 4 103.34 97.21 17.16 o
2 29 4 2292.61 2295.03 47.65 o
3 29 4 19.08 34.31 15.25 <
-6 30 4 594.08 569.95 32.40 o
-5 30 4 315.26 293.55 19.06 o
-4 30 4 420.55 415.55 20.97 o
-3 30 4 117.51 152.49 17.16 o
-2 30 4 87.18 97.21 15.25 o
-1 30 4 30.57 17.16 17.16 <
0 30 4 4511.65 4670.12 95.31 o
1 30 4 379.92 371.70 28.59 o
2 30 4 36.55 17.16 15.25 <
3 30 4 0.18 9.53 15.25 <
-6 31 4 226.13 217.30 24.78 o
-5 31 4 313.38 343.11 26.69 o
-4 31 4 4.18 13.34 13.34 <
-3 31 4 109.26 101.03 19.06 o
-2 31 4 813.24 718.63 24.78 o
-1 31 4 9.18 0.00 19.06 <
0 31 4 56.74 40.03 28.59 <
1 31 4 683.27 659.54 34.31 o
2 31 4 86.27 81.97 22.87 o
-6 32 4 0.42 -45.75 36.22 <
-5 32 4 0.12 -19.06 17.16 <
-4 32 4 75.26 89.59 15.25 o
-3 32 4 36.90 1.91 19.06 <
-2 32 4 0.13 -11.44 13.34 <
-1 32 4 70.52 55.28 20.97 <
0 32 4 398.12 398.39 26.69 o
1 32 4 137.65 127.71 24.78 o
2 32 4 2.78 17.16 20.97 <
-6 33 4 40.20 45.75 32.40 <
-5 33 4 8.91 28.59 17.16 <
-4 33 4 18.00 -3.81 17.16 <
-3 33 4 20.37 34.31 17.16 <
-2 33 4 220.36 179.18 43.84 o
-1 33 4 12.29 17.16 17.16 <
0 33 4 6.01 9.53 19.06 <
1 33 4 340.73 346.92 28.59 o
2 33 4 5.13 -19.06 15.25 <
-5 34 4 176.00 137.24 28.59 o
-4 34 4 80.64 91.50 17.16 o
-3 34 4 638.41 615.69 30.50 o
-2 34 4 30.23 41.94 24.78 <
-1 34 4 49.73 0.00 26.69 <
0 34 4 314.12 303.08 41.94 o
1 34 4 564.37 529.92 32.40 o
2 34 4 12.69 13.34 15.25 <
-5 35 4 358.62 356.45 66.72 o
-4 35 4 4.96 1.91 38.12 <
-3 35 4 1.13 3.81 17.16 <
-2 35 4 335.57 322.14 36.22 o
-1 35 4 8.84 -7.62 19.06 <
0 35 4 13.06 9.53 19.06 <
1 35 4 334.37 341.20 28.59 o
-5 36 4 81.50 108.65 20.97 o
-4 36 4 435.26 385.05 26.69 o
-3 36 4 11.64 17.16 15.25 <
-2 36 4 28.72 97.21 26.69 o
-1 36 4 0.65 15.25 26.69 <
0 36 4 0.16 1.91 19.06 <
1 36 4 3.27 -15.25 19.06 <
-4 37 4 131.50 150.59 20.97 o
-3 37 4 19.08 3.81 17.16 <
-1 37 4 2.40 3.81 19.06 <
0 37 4 138.96 169.65 22.87 o
-4 38 4 71.24 78.15 26.69 <
-3 38 4 1.69 -13.34 26.69 <
-2 38 4 96.44 80.06 24.78 o
-1 38 4 15.43 34.31 32.40 <
0 38 4 0.03 11.44 19.06 <
-3 39 4 40.61 34.31 24.78 <
-2 39 4 372.62 318.33 34.31 o
-1 39 4 491.54 446.04 36.22 o
-9 1 5 36.46 61.00 13.34 o
-8 1 5 1031.16 1080.80 34.31 o
-7 1 5 9722.76 9439.37 116.28 o
-6 1 5 851.05 781.53 19.06 o
-5 1 5 223.89 247.80 11.44 o
-4 1 5 3074.60 3074.66 53.37 o
-3 1 5 4580.26 4380.38 55.28 o
-2 1 5 2534.11 2508.52 36.22 o
-1 1 5 116.63 108.65 5.72 o
0 1 5 240.27 240.18 11.44 o
1 1 5 2046.31 1986.23 32.40 o
2 1 5 2342.33 2346.50 38.12 o
3 1 5 0.14 1.91 11.44 <
4 1 5 157.37 169.65 17.16 o
-9 2 5 1235.14 1315.26 32.40 o
-8 2 5 4575.58 4710.15 64.81 o
-7 2 5 63.34 59.09 11.44 o
-6 2 5 1252.27 1229.48 24.78 o
-5 2 5 11445.40 11494.20 135.34 o
-4 2 5 10419.00 10306.70 122.00 o
-3 2 5 18.72 32.40 9.53 o
-2 2 5 5186.81 4944.61 61.00 o
-1 2 5 18725.50 18798.70 213.49 o
0 2 5 1303.85 1263.79 17.16 o
1 2 5 17.19 32.40 7.62 o
2 2 5 5055.46 4820.71 66.72 o
3 2 5 1446.70 1418.19 30.50 o
4 2 5 1090.03 1088.42 34.31 o
-9 3 5 14.11 13.34 17.16 <
-8 3 5 1293.99 1300.01 32.40 o
-7 3 5 1523.29 1542.09 28.59 o
-6 3 5 1283.88 1303.82 24.78 o
-5 3 5 25.28 17.16 7.62 <
-4 3 5 4798.82 4834.05 61.00 o
-3 3 5 219.76 211.59 9.53 o
-2 3 5 5833.67 5615.58 61.00 o
-1 3 5 4.95 0.00 5.72 <
0 3 5 1078.33 1038.86 15.25 o
1 3 5 4355.98 4359.42 51.47 o
2 3 5 5228.93 5060.89 68.62 o
3 3 5 1.92 19.06 11.44 <
4 3 5 982.80 987.40 26.69 o
-9 4 5 211.38 202.05 20.97 o
-8 4 5 228.70 207.77 15.25 o
-7 4 5 96.99 106.75 11.44 o
-6 4 5 105.00 139.15 9.53 o
-5 4 5 236.77 249.71 15.25 o
-4 4 5 1770.49 1789.90 45.75 o
-3 4 5 164.29 188.71 9.53 o
-2 4 5 79.33 122.00 7.62 o
-1 4 5 19.79 28.59 5.72 o
0 4 5 1102.54 1086.52 17.16 o
1 4 5 81.90 104.84 7.62 o
2 4 5 349.62 426.98 26.69 o
3 4 5 4.02 -11.44 9.53 <
4 4 5 318.74 333.58 17.16 o
-9 5 5 96.24 122.00 20.97 o
-8 5 5 407.37 419.36 20.97 o
-7 5 5 2621.77 2470.40 38.12 o
-6 5 5 317.28 282.11 13.34 o
-5 5 5 428.20 447.95 22.87 o
-4 5 5 1563.82 1610.72 30.50 o
-3 5 5 4870.32 4957.95 62.90 o
-2 5 5 1417.83 1446.78 24.78 o
-1 5 5 155.30 152.49 9.53 o
0 5 5 380.24 421.26 17.16 o
1 5 5 9766.50 10022.70 108.65 o
2 5 5 785.50 815.84 20.97 o
3 5 5 0.32 5.72 11.44 <
4 5 5 248.21 297.36 17.16 o
-9 6 5 1798.46 1774.65 89.59 o
-8 6 5 3815.29 3627.45 61.00 o
-7 6 5 217.07 247.80 13.34 o
-6 6 5 270.80 249.71 17.16 o
-5 6 5 14528.90 14795.70 173.46 o
-4 6 5 11052.50 10693.60 125.81 o
-3 6 5 62.58 57.19 7.62 o
-2 6 5 3675.84 3577.89 41.94 o
-1 6 5 31538.80 32669.90 314.52 o
0 6 5 2971.84 2927.88 32.40 o
1 6 5 39.27 43.84 7.62 o
2 6 5 5495.78 5402.09 72.43 o
3 6 5 7436.92 7273.95 95.31 o
4 6 5 1562.19 1542.09 40.03 o
-9 7 5 176.04 146.77 20.97 o
-8 7 5 1377.41 1338.13 68.62 o
-7 7 5 14796.90 15276.10 179.18 o
-6 7 5 1488.29 1505.88 30.50 o
-5 7 5 226.11 226.83 11.44 o
-4 7 5 6477.12 6351.37 78.15 o
-3 7 5 7088.21 7165.30 78.15 o
-2 7 5 7284.04 7106.21 76.25 o
-1 7 5 49.49 62.90 7.62 o
0 7 5 2167.55 2106.32 24.78 o
1 7 5 6508.38 6534.36 74.34 o
2 7 5 6817.07 6635.39 87.68 o
3 7 5 2.09 5.72 11.44 <
4 7 5 1410.70 1355.29 36.22 o
-9 8 5 1757.44 1784.18 59.09 o
-8 8 5 926.26 964.52 26.69 o
-7 8 5 333.01 346.92 17.16 o
-6 8 5 114.61 129.62 11.44 o
-5 8 5 8190.08 8349.03 101.03 o
-4 8 5 2485.86 2584.77 38.12 o
-3 8 5 191.45 203.96 15.25 o
-2 8 5 734.54 777.72 15.25 o
-1 8 5 7884.49 8196.54 95.31 o
0 8 5 357.60 356.45 15.25 o
1 8 5 16.15 22.87 9.53 <
2 8 5 980.48 1006.46 22.87 o
3 8 5 664.98 676.69 40.03 o
4 8 5 160.95 162.02 22.87 o
-9 9 5 96.80 85.78 19.06 o
-8 9 5 30.56 57.19 19.06 <
-7 9 5 3.61 1.91 11.44 <
-6 9 5 16.59 22.87 9.53 <
-5 9 5 132.75 123.90 9.53 o
-4 9 5 503.42 556.60 15.25 o
-3 9 5 557.16 602.35 15.25 o
-2 9 5 692.21 657.63 13.34 o
-1 9 5 210.35 221.12 9.53 o
0 9 5 308.17 303.08 17.16 o
1 9 5 253.90 306.89 15.25 o
2 9 5 623.08 663.35 19.06 o
3 9 5 20.26 13.34 11.44 <
4 9 5 136.85 116.28 24.78 o
-9 10 5 646.89 629.04 34.31 o
-8 10 5 2107.07 1953.83 47.65 o
-7 10 5 52.06 40.03 11.44 o
-6 10 5 71.62 61.00 11.44 o
-5 10 5 5080.43 4805.46 62.90 o
-4 10 5 6271.91 6038.75 74.34 o
-3 10 5 106.79 127.71 11.44 o
-2 10 5 1331.31 1341.95 20.97 o
-1 10 5 5805.40 5781.42 64.81 o
0 10 5 1077.90 1042.68 24.78 o
1 10 5 0.12 0.00 9.53 <
2 10 5 3132.68 3105.15 47.65 o
3 10 5 18.61 11.44 11.44 <
4 10 5 600.69 594.73 26.69 o
-9 11 5 1.05 1.91 19.06 <
-8 11 5 1667.72 1685.06 62.90 o
-7 11 5 5841.99 5739.48 87.68 o
-6 11 5 907.04 918.78 28.59 o
-5 11 5 5.39 13.34 11.44 <
-4 11 5 5332.83 5257.22 66.72 o
-3 11 5 507.66 474.64 13.34 o
-2 11 5 3623.39 3560.73 57.19 o
-1 11 5 2.01 1.91 5.72 <
0 11 5 479.69 486.07 26.69 o
1 11 5 736.91 716.72 19.06 o
2 11 5 4066.85 4041.08 66.72 o
3 11 5 1.67 -30.50 13.34 <
4 11 5 461.67 474.64 24.78 o
-9 12 5 337.25 320.24 26.69 o
-8 12 5 1258.02 1355.29 32.40 o
-7 12 5 6.55 22.87 13.34 <
-6 12 5 306.51 325.95 17.16 o
-5 12 5 26.24 26.69 7.62 o
-4 12 5 3015.46 2994.60 41.94 o
-3 12 5 5.54 5.72 7.62 <
-2 12 5 1821.77 1828.02 26.69 o
-1 12 5 1591.22 1639.31 26.69 o
0 12 5 188.23 167.74 13.34 o
1 12 5 20.60 13.34 11.44 <
2 12 5 1069.85 1075.08 34.31 o
3 12 5 36.01 15.25 15.25 <
4 12 5 205.21 215.40 20.97 o
-9 13 5 109.08 118.18 20.97 o
-8 13 5 0.06 20.97 17.16 <
-7 13 5 4433.43 4456.63 70.53 o
-6 13 5 21.71 13.34 11.44 <
-5 13 5 330.19 316.42 13.34 o
-4 13 5 88.29 114.37 15.25 o
-3 13 5 4500.64 4485.22 66.72 o
-2 13 5 1.29 32.40 7.62 o
-1 13 5 0.60 11.44 7.62 <
0 13 5 141.84 120.09 11.44 o
1 13 5 470.43 467.01 19.06 o
2 13 5 30.40 55.28 9.53 o
3 13 5 11.06 26.69 13.34 <
4 13 5 0.05 9.53 15.25 <
-9 14 5 1838.26 1869.95 53.37 o
-8 14 5 1233.83 1326.70 41.94 o
-7 14 5 375.40 333.58 30.50 o
-6 14 5 431.45 447.95 19.06 o
-5 14 5 11459.40 11492.30 137.24 o
-4 14 5 1165.22 1166.58 22.87 o
-3 14 5 309.34 303.08 11.44 o
-2 14 5 986.47 977.87 17.16 o
-1 14 5 19455.30 19911.90 205.87 o
0 14 5 7.48 24.78 9.53 <
1 14 5 288.41 301.17 15.25 o
2 14 5 1172.95 1126.55 76.25 o
3 14 5 5319.76 5280.10 120.09 o
4 14 5 109.61 125.81 20.97 o
-8 15 5 887.47 972.15 38.12 o
-7 15 5 4884.12 4632.00 74.34 o
-6 15 5 357.41 320.24 22.87 o
-5 15 5 1310.98 1288.57 28.59 o
-4 15 5 3452.33 3312.93 45.75 o
-3 15 5 7440.13 7354.01 80.06 o
-2 15 5 2397.02 2417.03 41.94 o
-1 15 5 614.39 611.88 15.25 o
0 15 5 505.60 537.54 19.06 o
1 15 5 20505.00 21158.50 249.71 o
2 15 5 1656.57 1629.78 36.22 o
3 15 5 2.99 11.44 19.06 <
4 15 5 404.15 417.45 24.78 o
-8 16 5 1169.58 1242.82 41.94 o
-7 16 5 533.65 533.73 28.59 o
-6 16 5 150.88 142.96 15.25 o
-5 16 5 6902.16 6974.68 101.03 o
-4 16 5 3327.36 3299.58 93.40 o
-3 16 5 257.33 251.62 11.44 o
-2 16 5 1712.13 1660.28 24.78 o
-1 16 5 13376.60 13495.70 142.96 o
0 16 5 356.73 335.49 15.25 o
1 16 5 42.21 66.72 11.44 o
2 16 5 2402.00 2426.56 45.75 o
3 16 5 2666.04 2674.36 66.72 o
4 16 5 250.44 257.33 20.97 o
-8 17 5 5.91 28.59 19.06 <
-7 17 5 4321.71 4532.88 83.87 o
-6 17 5 69.54 70.53 13.34 o
-5 17 5 27.35 41.94 11.44 o
-4 17 5 72.93 99.12 9.53 o
-3 17 5 1470.61 1545.91 24.78 o
-2 17 5 257.52 255.43 11.44 o
-1 17 5 40.28 43.84 9.53 o
0 17 5 106.54 106.75 11.44 o
1 17 5 8.90 5.72 11.44 <
2 17 5 495.54 539.45 22.87 o
3 17 5 2.41 5.72 19.06 <
-8 18 5 344.17 442.23 30.50 o
-7 18 5 112.37 127.71 17.16 o
-6 18 5 174.24 184.90 15.25 o
-5 18 5 4.33 11.44 13.34 <
-4 18 5 409.50 482.26 19.06 o
-3 18 5 67.54 61.00 9.53 o
-2 18 5 408.45 428.89 15.25 o
-1 18 5 772.54 726.25 22.87 o
0 18 5 8.65 0.00 9.53 <
1 18 5 22.43 22.87 11.44 <
2 18 5 626.39 609.97 24.78 o
3 18 5 107.91 141.06 20.97 o
-8 19 5 319.01 360.27 26.69 o
-7 19 5 5053.79 5064.70 80.06 o
-6 19 5 203.88 179.18 19.06 o
-5 19 5 10.35 11.44 11.44 <
-4 19 5 2110.16 2037.70 64.81 o
-3 19 5 240.00 257.33 13.34 o
-2 19 5 2443.25 2386.53 32.40 o
-1 19 5 23.33 45.75 13.34 o
0 19 5 304.37 343.11 15.25 o
1 19 5 29.70 26.69 13.34 <
2 19 5 2726.86 2636.24 53.37 o
3 19 5 18.94 -15.25 22.87 <
-8 20 5 1164.86 1115.11 76.25 o
-7 20 5 14.05 36.22 13.34 <
-6 20 5 22.73 17.16 11.44 <
-5 20 5 3077.22 3128.03 57.19 o
-4 20 5 4410.96 4246.95 80.06 o
-3 20 5 4.04 7.62 11.44 <
-2 20 5 835.65 792.97 22.87 o
-1 20 5 2692.76 2613.36 43.84 o
0 20 5 777.52 781.53 20.97 o
1 20 5 12.59 30.50 13.34 <
2 20 5 2110.30 2049.14 43.84 o
3 20 5 136.70 160.12 24.78 o
-8 21 5 288.29 297.36 26.69 o
-7 21 5 2.87 -9.53 11.44 <
-6 21 5 99.70 123.90 15.25 o
-5 21 5 28.65 22.87 24.78 <
-4 21 5 595.62 611.88 26.69 o
-3 21 5 323.88 343.11 13.34 o
-2 21 5 145.68 150.59 11.44 o
-1 21 5 8.24 15.25 9.53 <
0 21 5 33.53 38.12 9.53 o
1 21 5 45.78 41.94 13.34 o
2 21 5 502.26 463.20 38.12 o
3 21 5 8.25 -7.62 26.69 <
-8 22 5 45.67 74.34 20.97 o
-7 22 5 117.20 120.09 24.78 o
-6 22 5 0.49 7.62 13.34 <
-5 22 5 1666.45 1631.68 55.28 o
-4 22 5 3.77 19.06 11.44 <
-3 22 5 173.56 188.71 13.34 o
-2 22 5 21.86 36.22 9.53 o
-1 22 5 119.89 133.43 15.25 o
0 22 5 6.95 -5.72 11.44 <
1 22 5 52.69 38.12 13.34 <
2 22 5 125.28 122.00 15.25 o
3 22 5 147.25 146.77 22.87 o
-8 23 5 121.88 97.21 22.87 o
-7 23 5 1471.95 1641.21 47.65 o
-6 23 5 7.94 19.06 13.34 <
-5 23 5 20.79 7.62 17.16 <
-4 23 5 1020.71 985.49 24.78 o
-3 23 5 120.06 141.06 11.44 o
-2 23 5 768.10 777.72 17.16 o
-1 23 5 83.21 97.21 11.44 o
0 23 5 158.53 144.87 17.16 o
1 23 5 465.26 482.26 36.22 o
2 23 5 565.47 585.20 24.78 o
3 23 5 52.29 59.09 15.25 o
-7 24 5 52.15 55.28 28.59 <
-6 24 5 1.58 -7.62 13.34 <
-5 24 5 900.99 913.06 26.69 o
-4 24 5 998.54 1008.37 30.50 o
-3 24 5 9.19 32.40 9.53 o
-2 24 5 150.65 156.31 11.44 o
-1 24 5 5448.46 5501.21 74.34 o
0 24 5 15.04 3.81 13.34 <
1 24 5 38.07 15.25 28.59 <
2 24 5 530.80 535.63 24.78 o
3 24 5 1322.88 1376.26 38.12 o
-7 25 5 95.28 68.62 20.97 o
-6 25 5 5.74 13.34 11.44 <
-5 25 5 222.01 247.80 17.16 o
-4 25 5 339.08 335.49 28.59 o
-3 25 5 10.64 15.25 11.44 <
-2 25 5 11.63 13.34 9.53 <
-1 25 5 302.90 331.67 19.06 o
0 25 5 0.64 -20.97 13.34 <
1 25 5 910.14 926.40 85.78 o
2 25 5 91.75 81.97 15.25 o
-7 26 5 158.13 146.77 66.72 <
-6 26 5 19.83 -1.91 20.97 <
-5 26 5 0.10 15.25 17.16 <
-4 26 5 29.40 22.87 19.06 <
-3 26 5 100.18 102.93 13.34 o
-2 26 5 60.05 47.65 11.44 o
-1 26 5 181.06 167.74 24.78 o
0 26 5 36.90 40.03 26.69 <
1 26 5 7.99 -7.62 13.34 <
2 26 5 0.46 -13.34 13.34 <
-7 27 5 74.04 53.37 20.97 <
-6 27 5 6.29 -3.81 13.34 <
-5 27 5 179.38 167.74 15.25 o
-4 27 5 918.16 951.18 28.59 o
-3 27 5 1.44 17.16 11.44 <
-2 27 5 231.59 278.30 17.16 o
-1 27 5 4.06 -15.25 13.34 <
0 27 5 30.74 28.59 15.25 <
1 27 5 974.07 979.77 30.50 o
2 27 5 267.39 274.49 26.69 o
-7 28 5 35.86 34.31 34.31 <
-6 28 5 19.69 1.91 13.34 <
-5 28 5 1058.16 1073.17 30.50 o
-4 28 5 628.19 640.47 36.22 o
-3 28 5 46.62 49.56 13.34 o
-2 28 5 258.66 232.55 26.69 o
-1 28 5 2937.33 2882.13 66.72 o
0 28 5 102.41 95.31 24.78 o
1 28 5 58.56 43.84 15.25 <
2 28 5 684.32 609.97 26.69 o
-6 29 5 13.73 32.40 19.06 <
-5 29 5 31.31 57.19 15.25 o
-4 29 5 225.97 171.55 17.16 o
-3 29 5 306.91 285.93 17.16 o
-2 29 5 199.85 213.49 26.69 o
-1 29 5 26.85 43.84 22.87 <
0 29 5 10.13 13.34 15.25 <
1 29 5 81.69 91.50 17.16 o
2 29 5 535.41 484.17 43.84 o
-6 30 5 35.80 57.19 20.97 <
-5 30 5 413.90 426.98 22.87 o
-4 30 5 468.87 457.48 22.87 o
-3 30 5 56.86 43.84 17.16 <
-2 30 5 226.73 167.74 20.97 o
-1 30 5 248.33 264.96 24.78 o
0 30 5 238.63 249.71 22.87 o
1 30 5 74.10 66.72 17.16 o
-6 31 5 56.05 64.81 26.69 <
-5 31 5 6.65 11.44 15.25 <
-4 31 5 52.10 51.47 15.25 o
-3 31 5 248.88 263.05 22.87 o
-2 31 5 74.42 93.40 20.97 o
-1 31 5 70.21 72.43 19.06 o
0 31 5 19.74 36.22 28.59 <
1 31 5 553.66 535.63 30.50 o
-6 32 5 4.76 26.69 19.06 <
-5 32 5 18.48 19.06 20.97 <
-4 32 5 97.32 97.21 15.25 o
-3 32 5 367.48 360.27 24.78 o
-2 32 5 0.49 -11.44 41.94 <
-1 32 5 330.92 341.20 28.59 o
0 32 5 17.45 26.69 19.06 <
1 32 5 0.61 11.44 15.25 <
-5 33 5 124.01 156.31 19.06 o
-4 33 5 47.04 24.78 19.06 <
-3 33 5 2445.78 2426.56 89.59 o
-2 33 5 159.61 141.06 47.65 <
-1 33 5 88.25 74.34 30.50 <
0 33 5 14.37 20.97 19.06 <
-5 34 5 1332.06 1277.14 40.03 o
-4 34 5 85.41 72.43 36.22 <
-3 34 5 27.32 61.00 32.40 <
-2 34 5 7.80 -15.25 20.97 <
-1 34 5 249.00 240.18 26.69 o
0 34 5 0.55 -15.25 17.16 <
-4 35 5 20.58 22.87 40.03 <
-3 35 5 320.80 356.45 41.94 o
-2 35 5 196.25 190.62 24.78 o
-1 35 5 23.56 38.12 30.50 <
0 35 5 1.59 1.91 41.94 <
-4 36 5 188.13 171.55 22.87 o
-3 36 5 19.43 -17.16 24.78 <
-2 36 5 1.82 1.91 24.78 <
-1 36 5 1118.15 995.02 41.94 o
-3 37 5 7.93 1.91 28.59 <
-2 37 5 0.33 -17.16 24.78 <
-9 0 6 3322.18 3223.34 97.21 o
-8 0 6 1094.92 1033.15 36.22 o
-7 0 6 3092.94 2992.69 64.81 o
-6 0 6 14984.10 15401.90 255.43 o
-5 0 6 1926.00 1822.30 43.84 o
-4 0 6 873.35 968.34 30.50 o
-3 0 6 6968.41 7092.87 123.90 o
-2 0 6 12202.10 12212.80 203.96 o
-1 0 6 3823.20 3677.01 70.53 o
0 0 6 811.76 890.18 28.59 o
1 0 6 1117.53 1080.80 34.31 o
2 0 6 20454.50 19915.70 339.30 o
3 0 6 1964.37 1862.33 51.47 o
-9 1 6 958.84 970.24 41.94 o
-8 1 6 2789.87 2748.70 66.72 o
-7 1 6 3160.64 3211.90 47.65 o
-6 1 6 1348.76 1361.01 45.75 o
-5 1 6 864.23 823.47 20.97 o
-4 1 6 16961.10 17167.00 200.15 o
-3 1 6 4887.39 4818.80 62.90 o
-2 1 6 1006.81 1042.68 40.03 o
-1 1 6 2693.77 2615.27 38.12 o
0 1 6 23783.70 24427.60 253.52 o
1 1 6 501.56 505.14 17.16 o
2 1 6 0.12 19.06 20.97 <
3 1 6 2226.27 2119.66 38.12 o
-9 2 6 58.51 102.93 17.16 o
-8 2 6 488.54 503.23 19.06 o
-7 2 6 24.18 53.37 19.06 <
-6 2 6 10085.30 10621.20 129.62 o
-5 2 6 33.24 49.56 9.53 o
-4 2 6 0.09 -3.81 7.62 <
-3 2 6 250.84 331.67 13.34 o
-2 2 6 2352.76 2426.56 47.65 o
-1 2 6 137.47 158.21 13.34 o
0 2 6 48.62 62.90 9.53 o
1 2 6 153.60 150.59 11.44 o
2 2 6 80.90 91.50 13.34 o
3 2 6 145.76 146.77 15.25 o
-9 3 6 782.99 783.44 32.40 o
-8 3 6 28.77 17.16 11.44 <
-7 3 6 1841.44 1942.39 34.31 o
-6 3 6 56.05 81.97 15.25 o
-5 3 6 743.51 741.50 19.06 o
-4 3 6 364.25 369.80 20.97 o
-3 3 6 2282.32 2279.78 34.31 o
-2 3 6 122.21 122.00 9.53 o
-1 3 6 1375.17 1387.69 22.87 o
0 3 6 1053.20 1191.36 22.87 o
1 3 6 128.55 131.53 13.34 o
2 3 6 103.87 120.09 17.16 o
3 3 6 669.38 709.10 24.78 o
-9 4 6 2914.26 2830.67 53.37 o
-8 4 6 8.92 7.62 11.44 <
-7 4 6 2122.98 2020.54 34.31 o
-6 4 6 10687.40 10647.90 129.62 o
-5 4 6 1668.07 1643.12 36.22 o
-4 4 6 308.20 291.64 19.06 o
-3 4 6 5633.13 5525.99 70.53 o
-2 4 6 2913.74 2784.92 40.03 o
-1 4 6 5061.66 4980.83 62.90 o
0 4 6 4.82 11.44 7.62 <
1 4 6 937.03 937.84 20.97 o
2 4 6 1388.36 1341.95 28.59 o
3 4 6 3461.03 3495.92 55.28 o
-9 5 6 669.13 667.16 26.69 o
-8 5 6 2737.19 2754.42 51.47 o
-7 5 6 4150.84 3842.84 74.34 o
-6 5 6 7.34 9.53 11.44 <
-5 5 6 131.95 108.65 11.44 o
-4 5 6 9350.55 9218.25 112.46 o
-3 5 6 9097.88 9073.38 110.56 o
-2 5 6 189.72 200.15 11.44 o
-1 5 6 2167.39 2201.63 30.50 o
0 5 6 4417.20 4542.41 66.72 o
1 5 6 1480.54 1463.94 40.03 o
2 5 6 55.93 34.31 11.44 <
3 5 6 2553.19 2580.96 43.84 o
-9 6 6 371.73 447.95 28.59 o
-8 6 6 30.20 45.75 13.34 o
-7 6 6 300.18 333.58 20.97 o
-6 6 6 10.14 9.53 9.53 <
-5 6 6 315.30 352.64 13.34 o
-4 6 6 19.26 32.40 9.53 o
-3 6 6 826.62 905.43 20.97 o
-2 6 6 14.57 19.06 7.62 <
-1 6 6 813.18 829.18 17.16 o
0 6 6 28.14 41.94 9.53 o
1 6 6 275.91 259.24 17.16 o
2 6 6 67.81 61.00 11.44 o
3 6 6 600.52 667.16 22.87 o
-9 7 6 153.62 150.59 22.87 o
-8 7 6 1697.48 1696.49 55.28 o
-7 7 6 499.76 478.45 17.16 o
-6 7 6 32.49 51.47 9.53 o
-5 7 6 21.71 17.16 9.53 <
-4 7 6 5564.13 5384.94 68.62 o
-3 7 6 814.19 852.06 19.06 o
-2 7 6 51.94 51.47 9.53 o
-1 7 6 141.65 186.80 9.53 o
0 7 6 3657.09 3623.63 51.47 o
1 7 6 152.35 156.31 15.25 o
2 7 6 20.62 26.69 11.44 <
3 7 6 442.93 489.89 32.40 o
-9 8 6 1457.62 1627.87 38.12 o
-8 8 6 159.81 169.65 24.78 o
-7 8 6 1323.43 1280.95 26.69 o
-6 8 6 14479.80 14389.70 169.65 o
-5 8 6 920.96 893.99 47.65 o
-4 8 6 14.21 24.78 9.53 <
-3 8 6 4449.34 4357.51 59.09 o
-2 8 6 2796.26 2803.98 36.22 o
-1 8 6 3818.34 3793.28 45.75 o
0 8 6 4.28 13.34 11.44 <
1 8 6 1022.64 985.49 26.69 o
2 8 6 2716.30 2634.33 43.84 o
3 8 6 2530.89 2519.96 51.47 o
-9 9 6 720.55 823.47 36.22 o
-8 9 6 737.40 739.59 24.78 o
-7 9 6 3990.04 3764.69 62.90 o
-6 9 6 518.06 489.89 34.31 o
-5 9 6 295.60 304.99 13.34 o
-4 9 6 9832.41 9997.87 120.09 o
-3 9 6 7532.96 7399.76 133.43 o
-2 9 6 330.03 320.24 11.44 o
-1 9 6 2232.59 2306.47 36.22 o
0 9 6 19717.50 20159.70 236.37 o
1 9 6 1111.61 1052.21 55.28 o
2 9 6 23.05 34.31 20.97 <
3 9 6 2336.47 2317.91 49.56 o
-9 10 6 975.34 995.02 40.03 o
-8 10 6 421.11 425.08 20.97 o
-7 10 6 833.55 848.25 26.69 o
-6 10 6 3057.55 2935.51 57.19 o
-5 10 6 367.45 388.86 15.25 o
-4 10 6 96.31 85.78 15.25 o
-3 10 6 1618.70 1713.65 28.59 o
-2 10 6 1248.81 1286.67 20.97 o
-1 10 6 596.16 608.07 24.78 o
0 10 6 364.80 375.52 22.87 o
1 10 6 174.88 179.18 13.34 o
2 10 6 3369.85 3524.51 61.00 o
3 10 6 435.89 430.80 32.40 o
-9 11 6 1.91 17.16 19.06 <
-8 11 6 0.64 9.53 13.34 <
-7 11 6 95.48 74.34 13.34 o
-6 11 6 488.81 467.01 17.16 o
-5 11 6 53.61 49.56 9.53 o
-4 11 6 13.47 28.59 9.53 <
-3 11 6 264.13 268.77 13.34 o
-2 11 6 538.59 547.07 15.25 o
-1 11 6 7.35 32.40 9.53 o
0 11 6 33.15 51.47 11.44 o
1 11 6 172.07 179.18 20.97 o
2 11 6 47.12 53.37 17.16 o
3 11 6 7.46 7.62 26.69 <
-9 12 6 871.33 1025.52 41.94 o
-8 12 6 54.65 45.75 20.97 <
-7 12 6 986.78 1059.83 30.50 o
-6 12 6 541.67 556.60 19.06 o
-5 12 6 416.35 455.58 17.16 o
-4 12 6 319.61 331.67 13.34 o
-3 12 6 2629.41 2697.23 57.19 o
-2 12 6 656.02 611.88 15.25 o
-1 12 6 1989.36 1915.70 32.40 o
0 12 6 2.61 3.81 9.53 <
1 12 6 352.24 350.74 17.16 o
2 12 6 2580.33 2622.89 62.90 o
3 12 6 1267.00 1383.88 106.75 o
-8 13 6 1065.02 1073.17 32.40 o
-7 13 6 3412.10 3463.51 59.09 o
-6 13 6 66.69 64.81 13.34 o
-5 13 6 663.57 693.85 32.40 o
-4 13 6 7277.87 7138.61 89.59 o
-3 13 6 4755.18 4683.46 55.28 o
-2 13 6 0.79 3.81 7.62 <
-1 13 6 1969.73 1997.67 43.84 o
0 13 6 7264.60 7260.61 93.40 o
1 13 6 172.91 179.18 13.34 o
2 13 6 192.40 242.08 22.87 o
3 13 6 1649.34 1563.06 47.65 o
-8 14 6 85.68 99.12 19.06 o
-7 14 6 777.61 815.84 26.69 o
-6 14 6 7344.14 7169.11 104.84 o
-5 14 6 578.52 569.95 34.31 o
-4 14 6 558.43 550.88 17.16 o
-3 14 6 1561.96 1574.50 24.78 o
-2 14 6 3186.65 3242.40 41.94 o
-1 14 6 1296.07 1328.60 26.69 o
0 14 6 48.23 49.56 11.44 o
1 14 6 103.23 135.34 13.34 o
2 14 6 1148.95 1164.67 57.19 o
3 14 6 1183.88 1143.70 43.84 o
-8 15 6 490.71 472.73 22.87 o
-7 15 6 72.29 72.43 13.34 o
-6 15 6 111.88 110.56 13.34 o
-5 15 6 1.82 -3.81 11.44 <
-4 15 6 550.32 539.45 19.06 o
-3 15 6 579.66 682.41 17.16 o
-2 15 6 0.24 5.72 7.62 <
-1 15 6 261.55 268.77 13.34 o
0 15 6 22.84 43.84 11.44 o
1 15 6 207.94 205.87 15.25 o
2 15 6 9.47 26.69 19.06 <
-8 16 6 7.54 38.12 28.59 <
-7 16 6 282.82 310.71 19.06 o
-6 16 6 3750.02 3455.89 59.09 o
-5 16 6 9.70 19.06 11.44 <
-4 16 6 10.73 11.44 13.34 <
-3 16 6 705.71 691.94 19.06 o
-2 16 6 69.72 85.78 9.53 o
-1 16 6 350.11 352.64 22.87 o
0 16 6 0.04 5.72 11.44 <
1 16 6 2.42 24.78 11.44 <
2 16 6 4.33 20.97 19.06 <
-8 17 6 49.46 81.97 17.16 o
-7 17 6 1757.33 1871.86 55.28 o
-6 17 6 17.47 3.81 11.44 <
-5 17 6 163.77 158.21 15.25 o
-4 17 6 1865.12 1890.92 57.19 o
-3 17 6 2397.95 2348.40 36.22 o
-2 17 6 9.38 13.34 9.53 <
-1 17 6 695.90 724.34 20.97 o
0 17 6 2324.84 2214.97 38.12 o
1 17 6 195.59 226.83 17.16 o
2 17 6 40.48 24.78 22.87 <
-8 18 6 40.30 62.90 22.87 <
-7 18 6 317.63 362.17 20.97 o
-6 18 6 115.61 120.09 15.25 o
-5 18 6 227.44 259.24 17.16 o
-4 18 6 467.21 468.92 36.22 o
-3 18 6 1024.88 1021.71 22.87 o
-2 18 6 1151.96 1153.23 30.50 o
-1 18 6 1506.43 1528.75 28.59 o
0 18 6 12.29 20.97 11.44 <
1 18 6 98.50 114.37 15.25 o
2 18 6 84.26 110.56 20.97 o
-8 19 6 1423.68 1361.01 45.75 o
-7 19 6 153.16 139.15 17.16 o
-6 19 6 0.43 -3.81 11.44 <
-5 19 6 102.06 102.93 15.25 o
-4 19 6 959.94 962.62 26.69 o
-3 19 6 959.41 928.31 22.87 o
-2 19 6 0.24 -1.91 9.53 <
-1 19 6 23.97 34.31 15.25 <
0 19 6 9.41 -7.62 15.25 <
1 19 6 273.99 261.15 19.06 o
2 19 6 217.16 224.93 24.78 o
-8 20 6 0.53 28.59 20.97 <
-7 20 6 12.85 32.40 15.25 <
-6 20 6 496.20 482.26 22.87 o
-5 20 6 2.71 3.81 11.44 <
-4 20 6 420.78 449.86 32.40 o
-3 20 6 209.92 238.27 13.34 o
-2 20 6 1765.59 1742.24 32.40 o
-1 20 6 291.95 308.80 15.25 o
0 20 6 6.08 1.91 11.44 <
1 20 6 33.77 41.94 15.25 <
2 20 6 2401.19 2253.10 144.87 o
-8 21 6 399.29 369.80 30.50 o
-7 21 6 996.11 951.18 36.22 o
-6 21 6 1.40 1.91 20.97 <
-5 21 6 4.40 5.72 11.44 <
-4 21 6 2911.07 2912.63 51.47 o
-3 21 6 2095.52 2037.70 34.31 o
-2 21 6 66.37 72.43 11.44 o
-1 21 6 370.57 419.36 17.16 o
0 21 6 4442.97 4393.73 74.34 o
1 21 6 187.53 165.84 17.16 o
2 21 6 133.78 99.12 22.87 o
-7 22 6 511.52 514.67 32.40 o
-6 22 6 4047.84 4063.96 68.62 o
-5 22 6 42.01 34.31 13.34 <
-4 22 6 432.81 406.02 22.87 o
-3 22 6 1621.43 1551.62 30.50 o
-2 22 6 1114.99 1137.98 32.40 o
-1 22 6 862.73 895.90 24.78 o
0 22 6 10.54 28.59 15.25 <
1 22 6 138.29 112.46 20.97 o
2 22 6 849.58 817.75 30.50 o
-7 23 6 259.93 251.62 20.97 o
-6 23 6 276.10 257.33 20.97 o
-5 23 6 0.76 -22.87 13.34 <
-4 23 6 2775.03 2773.48 49.56 o
-3 23 6 665.15 623.32 20.97 o
-2 23 6 75.75 62.90 11.44 o
-1 23 6 154.30 158.21 13.34 o
0 23 6 1424.10 1473.47 38.12 o
1 23 6 1.24 -15.25 20.97 <
-7 24 6 15.87 36.22 17.16 <
-6 24 6 1.56 13.34 15.25 <
-5 24 6 17.23 3.81 11.44 <
-4 24 6 141.54 160.12 19.06 o
-3 24 6 76.43 123.90 13.34 o
-2 24 6 707.62 705.28 22.87 o
-1 24 6 163.78 175.37 17.16 o
0 24 6 89.54 47.65 15.25 o
1 24 6 77.54 70.53 17.16 o
-7 25 6 469.28 467.01 24.78 o
-6 25 6 97.78 101.03 24.78 o
-5 25 6 6.26 9.53 13.34 <
-4 25 6 213.47 251.62 17.16 o
-3 25 6 324.45 362.17 17.16 o
-2 25 6 19.46 22.87 13.34 <
-1 25 6 2.85 19.06 17.16 <
0 25 6 386.42 457.48 24.78 o
1 25 6 3.19 -1.91 19.06 <
-7 26 6 337.59 371.70 22.87 o
-6 26 6 380.23 438.42 22.87 o
-5 26 6 6.42 -11.44 13.34 <
-4 26 6 56.95 57.19 26.69 <
-3 26 6 703.41 640.47 24.78 o
-2 26 6 877.47 838.72 38.12 o
-1 26 6 189.97 194.43 19.06 o
0 26 6 2.69 17.16 17.16 <
1 26 6 2.51 -17.16 15.25 <
-6 27 6 0.87 11.44 15.25 <
-5 27 6 15.92 26.69 13.34 <
-4 27 6 560.90 560.41 22.87 o
-3 27 6 354.64 356.45 24.78 o
-2 27 6 1.29 -11.44 15.25 <
-1 27 6 105.29 81.97 15.25 o
0 27 6 1.60 36.22 15.25 <
1 27 6 1.46 9.53 15.25 <
-6 28 6 1403.05 1429.63 47.65 o
-5 28 6 45.94 24.78 15.25 <
-4 28 6 514.68 482.26 45.75 o
-3 28 6 73.75 91.50 17.16 o
-2 28 6 2168.06 2165.41 129.62 o
-1 28 6 46.41 72.43 22.87 o
0 28 6 0.74 -15.25 19.06 <
-6 29 6 17.69 9.53 15.25 <
-5 29 6 25.07 15.25 15.25 <
-4 29 6 2215.39 2247.38 64.81 o
-3 29 6 0.10 28.59 17.16 <
-2 29 6 1.61 -9.53 49.56 <
-1 29 6 18.87 34.31 19.06 <
0 29 6 2140.96 2241.66 61.00 o
-6 30 6 193.04 249.71 24.78 o
-5 30 6 90.42 83.87 17.16 o
-4 30 6 595.25 569.95 24.78 o
-3 30 6 341.70 369.80 38.12 o
-2 30 6 327.80 301.17 28.59 o
-1 30 6 79.86 45.75 22.87 <
0 30 6 33.50 43.84 20.97 <
-5 31 6 54.39 55.28 15.25 o
-4 31 6 228.84 247.80 20.97 o
-3 31 6 283.40 358.36 38.12 o
-2 31 6 2.38 -3.81 22.87 <
-1 31 6 93.57 70.53 20.97 o
-5 32 6 31.97 43.84 15.25 <
-4 32 6 0.90 -3.81 26.69 <
-3 32 6 1.17 -1.91 24.78 <
-2 32 6 56.70 70.53 22.87 o
-1 32 6 23.12 28.59 28.59 <
-4 33 6 39.59 61.00 26.69 <
-3 33 6 8.07 -9.53 26.69 <
-2 33 6 8.30 -9.53 36.22 <
-3 34 6 199.49 171.55 40.03 o
-9 1 7 3893.64 3831.41 66.72 o
-8 1 7 1891.32 1812.77 34.31 o
-7 1 7 49.37 36.22 13.34 <
-6 1 7 1285.18 1277.14 34.31 o
-5 1 7 9773.10 9589.95 118.18 o
-4 1 7 577.60 560.41 17.16 o
-3 1 7 130.09 156.31 11.44 o
-2 1 7 1699.51 1726.99 30.50 o
-1 1 7 2066.65 2070.10 45.75 o
0 1 7 1072.22 1033.15 36.22 o
1 1 7 14.62 32.40 15.25 <
2 1 7 98.16 91.50 26.69 o
-9 2 7 74.84 61.00 15.25 o
-8 2 7 2064.31 1997.67 38.12 o
-7 2 7 1618.56 1706.02 32.40 o
-6 2 7 5492.12 5525.99 74.34 o
-5 2 7 61.71 70.53 13.34 o
-4 2 7 911.16 880.65 20.97 o
-3 2 7 8065.31 7920.15 99.12 o
-2 2 7 5747.46 5726.14 76.25 o
-1 2 7 7.90 -3.81 13.34 <
0 2 7 1883.90 1799.43 47.65 o
1 2 7 6118.66 6223.65 120.09 o
2 2 7 552.79 537.54 61.00 o
-9 3 7 1071.91 1080.80 51.47 o
-8 3 7 2231.04 2241.66 40.03 o
-7 3 7 22.20 11.44 11.44 <
-6 3 7 1373.14 1410.57 34.31 o
-5 3 7 1494.96 1492.53 47.65 o
-4 3 7 1240.15 1239.01 24.78 o
-3 3 7 8.67 15.25 11.44 <
-2 3 7 2366.47 2445.62 38.12 o
-1 3 7 194.93 198.24 17.16 o
0 3 7 2416.08 2388.43 57.19 o
1 3 7 0.17 -13.34 24.78 <
2 3 7 348.87 346.92 30.50 o
-9 4 7 69.42 68.62 17.16 o
-8 4 7 5.65 38.12 17.16 <
-7 4 7 289.98 343.11 22.87 o
-6 4 7 291.54 259.24 15.25 o
-5 4 7 93.29 108.65 19.06 o
-4 4 7 75.41 89.59 11.44 o
-3 4 7 137.09 141.06 11.44 o
-2 4 7 970.92 1004.55 26.69 o
-1 4 7 75.89 85.78 15.25 o
0 4 7 29.54 61.00 17.16 o
1 4 7 9.84 19.06 13.34 <
2 4 7 290.85 293.55 22.87 o
-9 5 7 1240.14 1275.23 36.22 o
-8 5 7 613.92 543.26 24.78 o
-7 5 7 129.26 110.56 13.34 o
-6 5 7 534.64 573.76 26.69 o
-5 5 7 2588.46 2485.65 40.03 o
-4 5 7 295.32 276.39 19.06 o
-3 5 7 287.39 335.49 15.25 o
-2 5 7 941.76 966.43 24.78 o
-1 5 7 2299.71 2394.15 45.75 o
0 5 7 538.34 566.13 38.12 o
1 5 7 47.95 49.56 26.69 <
2 5 7 174.86 190.62 22.87 o
-8 6 7 903.95 893.99 55.28 o
-7 6 7 2342.41 2234.03 38.12 o
-6 6 7 4543.14 4281.26 61.00 o
-5 6 7 211.87 238.27 15.25 o
-4 6 7 392.73 396.48 17.16 o
-3 6 7 10235.00 10325.70 125.81 o
-2 6 7 5960.59 5739.48 74.34 o
-1 6 7 21.58 15.25 11.44 <
0 6 7 1664.91 1700.31 66.72 o
1 6 7 10486.00 10525.90 188.71 o
2 6 7 886.88 871.12 36.22 o
-8 7 7 2462.85 2678.17 51.47 o
-7 7 7 210.98 224.93 15.25 o
-6 7 7 1774.43 1709.84 32.40 o
-5 7 7 14745.80 15018.70 177.27 o
-4 7 7 1201.95 1185.64 30.50 o
-3 7 7 172.71 181.09 13.34 o
-2 7 7 3697.48 3694.16 59.09 o
-1 7 7 3641.66 3623.63 61.00 o
0 7 7 2992.69 3036.53 68.62 o
1 7 7 20.92 53.37 41.94 <
2 7 7 776.45 747.22 34.31 o
-8 8 7 255.01 299.27 19.06 o
-7 8 7 2399.29 2392.25 76.25 o
-6 8 7 1098.95 1120.83 26.69 o
-5 8 7 327.31 331.67 15.25 o
-4 8 7 54.90 76.25 11.44 o
-3 8 7 5710.21 5684.21 74.34 o
-2 8 7 1278.35 1322.88 26.69 o
-1 8 7 85.42 70.53 17.16 o
0 8 7 277.90 320.24 24.78 o
1 8 7 2620.84 2718.20 93.40 o
2 8 7 115.11 135.34 19.06 o
-8 9 7 19.04 41.94 15.25 <
-7 9 7 135.05 127.71 15.25 o
-6 9 7 42.41 41.94 11.44 o
-5 9 7 3.40 5.72 15.25 <
-4 9 7 19.16 26.69 9.53 <
-3 9 7 77.83 72.43 11.44 o
-2 9 7 306.40 304.99 13.34 o
-1 9 7 230.95 270.68 17.16 o
0 9 7 264.32 245.90 22.87 o
1 9 7 53.76 57.19 19.06 <
2 9 7 94.05 101.03 26.69 o
-8 10 7 637.51 669.07 26.69 o
-7 10 7 862.82 884.46 28.59 o
-6 10 7 2556.94 2336.97 41.94 o
-5 10 7 53.02 43.84 13.34 o
-4 10 7 33.55 11.44 9.53 <
-3 10 7 3614.22 3457.80 64.81 o
-2 10 7 3244.57 3171.87 59.09 o
-1 10 7 42.94 43.84 13.34 o
0 10 7 552.39 621.41 30.50 o
1 10 7 1998.50 2146.35 55.28 o
2 10 7 285.38 289.74 34.31 o
-8 11 7 2607.40 2519.96 53.37 o
-7 11 7 1.09 -9.53 17.16 <
-6 11 7 1960.73 1906.17 70.53 o
-5 11 7 5822.95 5874.82 78.15 o
-4 11 7 684.04 688.13 20.97 o
-3 11 7 3.38 9.53 9.53 <
-2 11 7 2809.62 2906.91 55.28 o
-1 11 7 299.72 299.27 19.06 o
0 11 7 1581.53 1643.12 38.12 o
1 11 7 0.12 -19.06 22.87 <
-8 12 7 619.30 672.88 30.50 o
-7 12 7 481.18 421.26 22.87 o
-6 12 7 1490.26 1555.44 30.50 o
-5 12 7 5.01 24.78 11.44 <
-4 12 7 289.45 339.30 20.97 o
-3 12 7 27.13 20.97 9.53 <
-2 12 7 1842.85 1797.52 43.84 o
-1 12 7 0.28 -13.34 17.16 <
0 12 7 675.87 688.13 26.69 o
1 12 7 502.34 552.79 24.78 o
-8 13 7 59.43 36.22 22.87 <
-7 13 7 149.87 131.53 17.16 o
-6 13 7 7.21 19.06 11.44 <
-5 13 7 4435.42 4338.45 61.00 o
-4 13 7 47.59 43.84 11.44 o
-3 13 7 229.31 234.46 15.25 o
-2 13 7 87.59 112.46 13.34 o
-1 13 7 2078.99 2123.48 108.65 o
0 13 7 0.79 -9.53 17.16 <
1 13 7 1.00 0.00 13.34 <
-8 14 7 803.18 726.25 28.59 o
-7 14 7 2388.53 2314.09 45.75 o
-6 14 7 1338.07 1322.88 32.40 o
-5 14 7 358.24 345.02 26.69 o
-4 14 7 574.53 545.16 26.69 o
-3 14 7 8029.72 8114.58 101.03 o
-2 14 7 611.85 703.38 28.59 o
-1 14 7 116.72 118.18 15.25 o
0 14 7 543.13 550.88 22.87 o
1 14 7 6690.78 6576.29 104.84 o
-8 15 7 1434.11 1406.76 38.12 o
-7 15 7 376.10 346.92 20.97 o
-6 15 7 1251.00 1235.20 32.40 o
-5 15 7 4788.46 4468.07 85.78 o
-4 15 7 358.98 379.33 15.25 o
-3 15 7 875.38 838.72 20.97 o
-2 15 7 2234.72 2214.97 43.84 o
-1 15 7 3824.26 3953.40 66.72 o
0 15 7 1027.11 1115.11 28.59 o
1 15 7 180.10 125.81 20.97 o
-8 16 7 430.37 406.02 34.31 o
-7 16 7 1066.72 1122.74 32.40 o
-6 16 7 1468.58 1446.78 34.31 o
-5 16 7 524.60 529.92 22.87 o
-4 16 7 178.74 173.46 15.25 o
-3 16 7 4996.96 5055.17 93.40 o
-2 16 7 1847.97 1856.61 40.03 o
-1 16 7 120.68 125.81 17.16 o
0 16 7 829.05 817.75 24.78 o
1 16 7 4717.72 4843.58 101.03 o
-8 17 7 95.48 114.37 19.06 o
-7 17 7 211.10 190.62 19.06 o
-6 17 7 21.30 13.34 13.34 <
-5 17 7 4315.13 4475.69 72.43 o
-4 17 7 28.73 26.69 11.44 <
-3 17 7 23.02 28.59 11.44 <
-2 17 7 71.06 78.15 15.25 o
-1 17 7 729.32 707.19 26.69 o
0 17 7 102.16 89.59 13.34 o
1 17 7 17.47 28.59 20.97 <
-7 18 7 297.53 253.52 19.06 o
-6 18 7 468.19 577.57 24.78 o
-5 18 7 115.96 110.56 19.06 o
-4 18 7 134.93 144.87 11.44 o
-3 18 7 1.97 -1.91 9.53 <
-2 18 7 274.20 303.08 19.06 o
-1 18 7 25.34 38.12 15.25 <
0 18 7 176.94 184.90 20.97 o
1 18 7 282.62 282.11 26.69 o
-7 19 7 0.80 26.69 15.25 <
-6 19 7 447.78 474.64 22.87 o
-5 19 7 5069.08 5127.60 80.06 o
-4 19 7 130.43 131.53 19.06 o
-3 19 7 5.49 0.00 13.34 <
-2 19 7 1360.89 1334.32 64.81 o
-1 19 7 160.45 186.80 17.16 o
0 19 7 1016.73 1027.43 32.40 o
1 19 7 14.75 -15.25 19.06 <
-7 20 7 577.89 625.22 30.50 o
-6 20 7 1297.78 1221.86 34.31 o
-5 20 7 8.34 5.72 13.34 <
-4 20 7 10.70 3.81 13.34 <
-3 20 7 2239.19 2169.22 43.84 o
-2 20 7 2350.40 2293.13 45.75 o
-1 20 7 3.80 7.62 11.44 <
0 20 7 424.74 467.01 32.40 o
-7 21 7 24.64 15.25 15.25 <
-6 21 7 343.49 367.89 22.87 o
-5 21 7 3.52 13.34 13.34 <
-4 21 7 91.23 93.40 15.25 o
-3 21 7 18.53 22.87 19.06 <
-2 21 7 325.17 327.86 19.06 o
-1 21 7 135.52 146.77 15.25 o
0 21 7 68.74 66.72 17.16 o
-7 22 7 1109.25 1050.30 34.31 o
-6 22 7 38.84 53.37 15.25 o
-5 22 7 112.06 110.56 15.25 o
-4 22 7 4.02 28.59 17.16 <
-3 22 7 1174.85 1162.77 40.03 o
-2 22 7 0.01 3.81 15.25 <
-1 22 7 67.59 70.53 17.16 o
0 22 7 12.02 3.81 15.25 <
-7 23 7 4.04 -5.72 17.16 <
-6 23 7 132.49 154.40 17.16 o
-5 23 7 1431.07 1511.59 41.94 o
-4 23 7 7.66 -11.44 15.25 <
-3 23 7 23.03 26.69 19.06 <
-2 23 7 562.73 556.60 49.56 o
-1 23 7 91.26 104.84 17.16 o
0 23 7 311.29 367.89 28.59 o
-6 24 7 731.07 663.35 28.59 o
-5 24 7 48.80 55.28 15.25 o
-4 24 7 12.29 40.03 15.25 <
-3 24 7 714.07 712.91 34.31 o
-2 24 7 566.44 577.57 24.78 o
-1 24 7 0.74 -19.06 15.25 <
0 24 7 96.61 120.09 30.50 o
-6 25 7 233.95 263.05 20.97 o
-5 25 7 86.97 83.87 19.06 o
-4 25 7 2.86 -22.87 15.25 <
-3 25 7 142.32 148.68 20.97 o
-2 25 7 284.62 318.33 24.78 o
-1 25 7 7.39 -9.53 15.25 <
-6 26 7 43.40 53.37 17.16 o
-5 26 7 161.36 182.99 32.40 o
-4 26 7 14.27 24.78 17.16 <
-3 26 7 0.26 -15.25 17.16 <
-2 26 7 17.81 83.87 28.59 <
-1 26 7 48.36 55.28 17.16 o
-5 27 7 72.26 61.00 15.25 o
-4 27 7 1.02 28.59 17.16 <
-3 27 7 113.55 99.12 20.97 o
-2 27 7 583.01 594.73 49.56 o
-1 27 7 2.26 38.12 17.16 <
-5 28 7 28.28 40.03 15.25 <
-4 28 7 8.42 -30.50 36.22 <
-3 28 7 801.00 808.22 55.28 o
-2 28 7 406.60 392.67 40.03 o
-4 29 7 2.72 0.00 19.06 <
-3 29 7 17.90 22.87 30.50 <
-8 0 8 5534.45 5474.53 108.65 o
-7 0 8 4103.98 3892.40 81.97 o
-6 0 8 1042.23 1025.52 36.22 o
-5 0 8 2846.20 2864.98 64.81 o
-4 0 8 10946.50 10642.20 184.90 o
-3 0 8 1354.10 1332.41 40.03 o
-2 0 8 373.57 426.98 26.69 o
-1 0 8 3192.53 3179.50 104.84 o
0 0 8 4738.29 4807.37 139.15 o
-8 1 8 417.07 438.42 19.06 o
-7 1 8 1348.23 1322.88 40.03 o
-6 1 8 2808.13 2803.98 45.75 o
-5 1 8 2659.61 2539.02 41.94 o
-4 1 8 917.87 892.09 24.78 o
-3 1 8 715.76 705.28 26.69 o
-2 1 8 8471.71 8375.72 123.90 o
-1 1 8 1911.46 2018.64 78.15 o
0 1 8 344.01 331.67 36.22 o
-8 2 8 3465.06 3514.98 55.28 o
-7 2 8 24.36 47.65 11.44 o
-6 2 8 473.64 463.20 19.06 o
-5 2 8 51.39 91.50 15.25 o
-4 2 8 6872.14 6936.56 89.59 o
-3 2 8 7.04 3.81 11.44 <
-2 2 8 0.12 1.91 13.34 <
-1 2 8 171.75 182.99 30.50 o
0 2 8 800.85 743.41 49.56 o
-8 3 8 24.18 47.65 13.34 o
-7 3 8 890.60 859.68 28.59 o
-6 3 8 25.90 45.75 11.44 o
-5 3 8 1640.12 1715.55 32.40 o
-4 3 8 46.88 55.28 11.44 o
-3 3 8 444.92 447.95 20.97 o
-2 3 8 225.68 242.08 24.78 o
-1 3 8 1046.51 1054.11 55.28 o
0 3 8 62.84 59.09 19.06 o
-8 4 8 6026.88 5937.73 81.97 o
-7 4 8 3118.56 3078.47 49.56 o
-6 4 8 12.22 -3.81 15.25 <
-5 4 8 1964.59 1921.42 34.31 o
-4 4 8 7341.97 7254.89 93.40 o
-3 4 8 901.86 909.24 24.78 o
-2 4 8 160.71 162.02 17.16 o
-1 4 8 2303.72 2266.44 57.19 o
0 4 8 1288.38 1427.72 45.75 o
-8 5 8 229.11 259.24 19.06 o
-7 5 8 681.70 699.57 22.87 o
-6 5 8 2817.81 2823.04 45.75 o
-5 5 8 3565.66 3383.46 51.47 o
-4 5 8 7.24 17.16 11.44 <
-3 5 8 100.56 93.40 11.44 o
-2 5 8 4737.62 4748.27 78.15 o
-1 5 8 3418.59 3337.71 74.34 o
0 5 8 70.20 47.65 28.59 <
-8 6 8 86.20 70.53 17.16 o
-7 6 8 497.18 594.73 20.97 o
-6 6 8 35.86 15.25 11.44 <
-5 6 8 283.26 312.61 20.97 o
-4 6 8 8.55 5.72 15.25 <
-3 6 8 192.53 200.15 15.25 o
-2 6 8 24.41 49.56 13.34 o
-1 6 8 324.77 385.05 26.69 o
0 6 8 4.95 -1.91 19.06 <
-8 7 8 1.68 -7.62 15.25 <
-7 7 8 137.77 141.06 19.06 o
-6 7 8 1702.30 1690.77 34.31 o
-5 7 8 404.98 390.77 19.06 o
-4 7 8 28.65 41.94 11.44 o
-3 7 8 4.50 7.62 11.44 <
-2 7 8 2720.54 2645.77 51.47 o
-1 7 8 280.53 301.17 38.12 o
0 7 8 37.03 28.59 19.06 <
-8 8 8 6525.00 6641.10 123.90 o
-7 8 8 1620.56 1757.49 43.84 o
-6 8 8 156.29 188.71 19.06 o
-5 8 8 1132.12 1141.80 26.69 o
-4 8 8 10238.10 10224.70 125.81 o
-3 8 8 595.82 600.44 20.97 o
-2 8 8 2.37 0.00 19.06 <
-1 8 8 1902.70 1822.30 61.00 o
0 8 8 1216.88 1223.76 74.34 o
-8 9 8 106.45 125.81 22.87 o
-7 9 8 1024.64 1025.52 68.62 o
-6 9 8 757.63 705.28 30.50 o
-5 9 8 3371.05 3270.99 49.56 o
-4 9 8 350.37 345.02 17.16 o
-3 9 8 345.62 367.89 17.16 o
-2 9 8 5159.76 5188.60 101.03 o
-1 9 8 2999.22 3049.88 89.59 o
0 9 8 103.51 87.68 20.97 o
-8 10 8 868.97 836.81 61.00 o
-7 10 8 1143.55 1143.70 34.31 o
-6 10 8 389.64 386.95 19.06 o
-5 10 8 794.40 810.12 26.69 o
-4 10 8 2251.88 2218.78 47.65 o
-3 10 8 279.71 301.17 19.06 o
-2 10 8 29.15 41.94 17.16 <
-1 10 8 802.29 884.46 30.50 o
0 10 8 495.59 571.85 32.40 o
-7 11 8 3.38 9.53 17.16 <
-6 11 8 1.30 15.25 11.44 <
-5 11 8 73.94 62.90 11.44 o
-4 11 8 347.01 341.20 17.16 o
-3 11 8 21.39 30.50 17.16 <
-2 11 8 3.57 -13.34 17.16 <
-1 11 8 107.92 122.00 17.16 o
0 11 8 211.99 163.93 24.78 o
-7 12 8 1085.54 1092.24 32.40 o
-6 12 8 54.70 28.59 13.34 <
-5 12 8 813.73 787.25 22.87 o
-4 12 8 407.83 411.73 19.06 o
-3 12 8 315.80 346.92 20.97 o
-2 12 8 181.65 192.52 22.87 o
-1 12 8 1000.37 1023.61 30.50 o
0 12 8 362.61 394.58 30.50 o
-7 13 8 1401.05 1361.01 40.03 o
-6 13 8 1095.10 1101.77 32.40 o
-5 13 8 3093.80 3185.21 53.37 o
-4 13 8 36.72 30.50 13.34 <
-3 13 8 338.74 320.24 24.78 o
-2 13 8 3865.03 3922.90 70.53 o
-1 13 8 2096.02 2138.73 45.75 o
0 13 8 0.77 20.97 24.78 <
-7 14 8 1588.59 1477.28 38.12 o
-6 14 8 69.70 62.90 17.16 o
-5 14 8 745.39 773.91 43.84 o
-4 14 8 5090.59 5106.64 70.53 o
-3 14 8 281.30 268.77 19.06 o
-2 14 8 270.91 270.68 24.78 o
-1 14 8 663.76 695.75 34.31 o
-7 15 8 1.89 3.81 15.25 <
-6 15 8 504.46 522.29 28.59 o
-5 15 8 50.82 59.09 13.34 o
-4 15 8 67.24 66.72 13.34 o
-3 15 8 4.76 3.81 15.25 <
-2 15 8 272.42 272.58 20.97 o
-1 15 8 227.98 221.12 28.59 o
-7 16 8 207.79 175.37 45.75 o
-6 16 8 5.17 1.91 15.25 <
-5 16 8 191.54 202.05 17.16 o
-4 16 8 2671.69 2485.65 95.31 o
-3 16 8 5.23 17.16 13.34 <
-2 16 8 16.56 11.44 15.25 <
-1 16 8 266.12 285.93 20.97 o
-7 17 8 648.90 590.91 30.50 o
-6 17 8 51.42 64.81 15.25 o
-5 17 8 1432.54 1494.44 47.65 o
-4 17 8 12.13 13.34 11.44 <
-3 17 8 86.95 120.09 17.16 o
-2 17 8 978.66 939.74 36.22 o
-1 17 8 1027.80 1033.15 32.40 o
-6 18 8 43.70 55.28 15.25 o
-5 18 8 199.93 238.27 19.06 o
-4 18 8 95.60 112.46 17.16 o
-3 18 8 211.88 232.55 19.06 o
-2 18 8 215.25 194.43 20.97 o
-1 18 8 392.89 375.52 22.87 o
-6 19 8 1420.94 1418.19 57.19 o
-5 19 8 169.56 131.53 17.16 o
-4 19 8 0.45 -28.59 17.16 <
-3 19 8 59.62 53.37 15.25 o
-2 19 8 457.08 459.39 34.31 o
-6 20 8 0.19 -9.53 15.25 <
-5 20 8 15.06 7.62 15.25 <
-4 20 8 377.88 379.33 28.59 o
-3 20 8 1.96 -7.62 15.25 <
-2 20 8 255.29 224.93 20.97 o
-6 21 8 404.35 417.45 26.69 o
-5 21 8 926.59 873.03 30.50 o
-4 21 8 1.21 17.16 19.06 <
-3 21 8 3.92 -17.16 15.25 <
-2 21 8 1684.76 1711.74 53.37 o
-5 22 8 518.68 526.10 34.31 o
-4 22 8 2847.40 2927.88 74.34 o
-3 22 8 26.65 28.59 20.97 <
-5 23 8 230.23 213.49 20.97 o
-4 23 8 178.09 135.34 28.59 o
-3 23 8 1.90 17.16 19.06 <
-4 24 8 0.78 -1.91 19.06 <
-7 1 9 4015.46 3863.81 59.09 o
-6 1 9 1383.49 1319.07 30.50 o
-5 1 9 30.48 43.84 13.34 o
-4 1 9 783.51 819.65 24.78 o
-3 1 9 4885.50 4904.58 127.71 o
-2 1 9 247.91 251.62 28.59 o
-7 2 9 77.50 81.97 13.34 o
-6 2 9 1610.41 1534.47 45.75 o
-5 2 9 1305.05 1380.07 30.50 o
-4 2 9 3471.32 3446.36 64.81 o
-3 2 9 26.79 5.72 26.69 <
-2 2 9 379.91 306.89 72.43 o
-7 3 9 1119.11 1170.39 30.50 o
-6 3 9 2092.90 2131.10 40.03 o
-5 3 9 15.35 36.22 13.34 <
-4 3 9 752.51 777.72 32.40 o
-3 3 9 885.91 907.34 36.22 o
-2 3 9 692.96 701.47 38.12 o
-7 4 9 66.07 87.68 15.25 o
-6 4 9 5.37 22.87 13.34 <
-5 4 9 197.01 160.12 15.25 o
-4 4 9 196.07 188.71 15.25 o
-3 4 9 46.41 62.90 19.06 o
-2 4 9 22.06 -7.62 20.97 <
-7 5 9 1263.85 1223.76 45.75 o
-6 5 9 588.55 524.20 24.78 o
-5 5 9 90.26 91.50 13.34 o
-4 5 9 359.42 406.02 19.06 o
-3 5 9 1476.38 1448.69 38.12 o
-2 5 9 161.25 160.12 24.78 o
-6 6 9 924.72 890.18 26.69 o
-5 6 9 1868.77 1797.52 36.22 o
-4 6 9 2869.90 2794.45 64.81 o
-3 6 9 104.97 137.24 30.50 o
-2 6 9 320.91 299.27 28.59 o
-6 7 9 2003.90 2123.48 40.03 o
-5 7 9 152.46 158.21 15.25 o
-4 7 9 1193.00 1162.77 28.59 o
-3 7 9 7564.70 7643.75 141.06 o
-2 7 9 598.15 590.91 34.31 o
-6 8 9 170.31 148.68 15.25 o
-5 8 9 1795.99 1801.33 36.22 o
-4 8 9 709.17 709.10 30.50 o
-3 8 9 161.52 152.49 32.40 o
-2 8 9 19.35 38.12 22.87 <
-6 9 9 16.70 19.06 13.34 <
-5 9 9 87.06 97.21 15.25 o
-4 9 9 38.22 62.90 17.16 o
-3 9 9 2.82 40.03 30.50 <
-6 10 9 470.37 465.11 20.97 o
-5 10 9 692.84 697.66 22.87 o
-4 10 9 1632.45 1593.56 40.03 o
-3 10 9 27.23 24.78 17.16 <
-6 11 9 2114.38 2119.66 40.03 o
-5 11 9 1.02 -15.25 13.34 <
-4 11 9 1179.14 1195.17 45.75 o
-3 11 9 3044.37 3179.50 61.00 o
-6 12 9 531.63 547.07 22.87 o
-5 12 9 318.01 264.96 17.16 o
-4 12 9 953.27 987.40 32.40 o
-3 12 9 0.91 22.87 17.16 <
-5 13 9 115.52 99.12 15.25 o
-4 13 9 17.03 28.59 15.25 <
-3 13 9 2244.41 2117.76 57.19 o
-5 14 9 1851.63 1807.05 61.00 o
-4 14 9 781.69 779.62 30.50 o
