#------------------------------------------------------------------------------
#$Date: 2019-11-11 02:37:43 +0200 (Mon, 11 Nov 2019) $
#$Revision: 226200 $
#$URL: file:///home/coder/svn-repositories/cod/cif/4/00/30/4003090.cif $
#------------------------------------------------------------------------------
#
# This file is available in the Crystallography Open Database (COD),
# http://www.crystallography.net/
#
# All data on this site have been placed in the public domain by the
# contributors.
#
data_4003090
loop_
_publ_author_name
'Maak, Christian'
'Durach, Dajana'
'Martiny, Christoph'
'Schmidt, Peter J.'
'Schnick, Wolfgang'
_publ_section_title
;
 Narrow-Band Yellow-Orange Emitting La3--xCa1.5xSi6N11:Eu2+ (x &#x2248;
 0.77): A Promising Phosphor for Next-Generation Amber pcLEDs
;
_journal_issue                   10
_journal_name_full               'Chemistry of Materials'
_journal_page_first              3552
_journal_paper_doi               10.1021/acs.chemmater.8b01401
_journal_volume                  30
_journal_year                    2018
_chemical_formula_sum            'Ca1.16 La2.23 N11 Si6'
_chemical_formula_weight         678.42
_chemical_name_common            La2.23Ca1.16Si6N11
_space_group_crystal_system      tetragonal
_space_group_IT_number           100
_space_group_name_Hall           'P 4 -2ab'
_space_group_name_H-M_alt        'P 4 b m'
_audit_creation_method           SHELXL-2014
_cell_angle_alpha                90
_cell_angle_beta                 90
_cell_angle_gamma                90
_cell_formula_units_Z            2
_cell_length_a                   10.1142(6)
_cell_length_b                   10.1142(6)
_cell_length_c                   4.8988(3)
_cell_measurement_reflns_used    1582
_cell_measurement_temperature    295(2)
_cell_measurement_theta_max      34.8315
_cell_measurement_theta_min      2.8481
_cell_volume                     501.13(5)
_computing_cell_refinement       'SAINT V8.37A (Bruker AXS Inc., 2015)'
_computing_data_collection       'Bruker Instrument Service v3.0.21'
_computing_data_reduction        'SAINT V8.37A (Bruker AXS Inc., 2015)'
_computing_molecular_graphics    'DIAMOND (Brandenburg, 2012)'
_computing_publication_material  SHELXL-2014
_computing_structure_refinement  'SHELXL-2014 (Sheldrick, 2014)'
_computing_structure_solution    'SHELXS-2014 (Sheldrick, 2014)'
_diffrn_ambient_temperature      295(2)
_diffrn_detector_area_resol_mean 7.4074
_diffrn_measured_fraction_theta_full 0.957
_diffrn_measured_fraction_theta_max 0.978
_diffrn_measurement_device_type  'D8 Venture'
_diffrn_measurement_method       'mix of omega and phi scans'
_diffrn_radiation_type           MoK\a
_diffrn_radiation_wavelength     0.71073
_diffrn_reflns_av_R_equivalents  0.0307
_diffrn_reflns_av_unetI/netI     0.0196
_diffrn_reflns_Laue_measured_fraction_full 0.957
_diffrn_reflns_Laue_measured_fraction_max 0.978
_diffrn_reflns_limit_h_max       15
_diffrn_reflns_limit_h_min       -15
_diffrn_reflns_limit_k_max       15
_diffrn_reflns_limit_k_min       -15
_diffrn_reflns_limit_l_max       7
_diffrn_reflns_limit_l_min       -7
_diffrn_reflns_number            11086
_diffrn_reflns_point_group_measured_fraction_full 0.953
_diffrn_reflns_point_group_measured_fraction_max 0.975
_diffrn_reflns_theta_full        25.242
_diffrn_reflns_theta_max         32.469
_diffrn_reflns_theta_min         4.030
_diffrn_source                   'rotating anode generator'
_exptl_absorpt_coefficient_mu    10.663
_exptl_absorpt_correction_T_max  1.000
_exptl_absorpt_correction_T_min  0.912
_exptl_absorpt_correction_type   multi-scan
_exptl_absorpt_process_details   'SADABS V2016/2 (Bruker AXS Inc.)'
_exptl_crystal_colour            'translucent yellow'
_exptl_crystal_density_diffrn    4.496
_exptl_crystal_density_method    'not measured'
_exptl_crystal_description       cuboid
_exptl_crystal_F_000             622
_exptl_crystal_size_max          0.03
_exptl_crystal_size_mid          0.02
_exptl_crystal_size_min          0.02
_refine_diff_density_max         0.855
_refine_diff_density_min         -1.751
_refine_diff_density_rms         0.196
_refine_ls_abs_structure_details
;
 Flack x determined using 419 quotients [(I+)-(I-)]/[(I+)+(I-)]
 (Parsons, Flack and Wagner, Acta Cryst. B69 (2013) 249-259).
;
_refine_ls_abs_structure_Flack   0.010(8)
_refine_ls_extinction_method     none
_refine_ls_goodness_of_fit_ref   1.176
_refine_ls_hydrogen_treatment    undef
_refine_ls_matrix_type           full
_refine_ls_number_parameters     68
_refine_ls_number_reflns         947
_refine_ls_number_restraints     4
_refine_ls_restrained_S_all      1.173
_refine_ls_R_factor_all          0.0162
_refine_ls_R_factor_gt           0.0162
_refine_ls_shift/su_max          0.001
_refine_ls_shift/su_mean         0.000
_refine_ls_structure_factor_coef Fsqd
_refine_ls_weighting_details
'w=1/[\s^2^(Fo^2^)+(0.0158P)^2^+0.7849P] where P=(Fo^2^+2Fc^2^)/3'
_refine_ls_weighting_scheme      calc
_refine_ls_wR_factor_gt          0.0372
_refine_ls_wR_factor_ref         0.0372
_reflns_Friedel_coverage         0.814
_reflns_Friedel_fraction_full    0.949
_reflns_Friedel_fraction_max     0.973
_reflns_number_gt                943
_reflns_number_total             947
_reflns_threshold_expression     'I > 2\s(I)'
_cod_data_source_file            cm8b01401_si_002.cif
_cod_data_source_block           shelxl
_cod_original_cell_volume        501.13(7)
_cod_database_code               4003090
_shelx_space_group_comment
;
The symmetry employed for this shelxl refinement is uniquely defined
by the following loop, which should always be used as a source of
symmetry information in preference to the above space-group names.
They are only intended as comments.
;
_shelxl_version_number           2014-3
_shelx_res_file
;
TITL P4bm in P4bm
CELL 0.71073  10.1142  10.1142   4.8988  90.000  90.000  90.000
ZERR    2.00   0.0006   0.0006   0.0003   0.000   0.000   0.000
LATT -1
SYMM -X, -Y, Z
SYMM -Y, X, Z
SYMM Y, -X, Z
SYMM 0.5+X, 0.5-Y, Z
SYMM 0.5-X, 0.5+Y, Z
SYMM 0.5-Y, 0.5-X, Z
SYMM 0.5+Y, 0.5+X, Z
SFAC N SI CA LA
UNIT 22 12 2.33 4.45
L.S. 20
OMIT 0 0 -1
OMIT 0 0 1
OMIT 1 1 0
OMIT 3 3 0
OMIT 2 2 0
OMIT 0 65
BOND
FMAP 2
PLAN 20
EADP LA1A LA1B
EADP LA1A CA1A
EADP LA1B CA1B
EADP LA2 CA2
EXYZ LA2 CA2
EXYZ LA1A CA1A
EXYZ LA1B CA1B
SUMP 1.0 0.001 1.0 2 1.0 3 1.0 4 1.0 5
SUMP 1.0 0.001 1.0 6 1.0 7
SUMP 18 0.001  12 2 8 3 12 4 8 5 6 6 4 7 8 8
ACTA

WGHT    0.015800    0.784900
FVAR       0.17483   0.58475   0.26808   0.03520   0.11254   0.97408   0.02617
FVAR       0.19580
LA1A  4    0.179820    0.679820    0.974214    20.50000    0.00492    0.00492 =
         0.02147    0.00103    0.00103   -0.00069
CA1A  3    0.179820    0.679820    0.974214    30.50000    0.00492    0.00492 =
         0.02147    0.00103    0.00103   -0.00069
LA1B  4    0.174599    0.674599    0.800577    40.50000    0.00492    0.00492 =
         0.02147    0.00103    0.00103   -0.00069
CA1B  3    0.174599    0.674599    0.800577    50.50000    0.00492    0.00492 =
         0.02147    0.00103    0.00103   -0.00069
LA2   4    0.000000    0.000000   -0.000004    60.25000    0.00484    0.00484 =
         0.00493    0.00000    0.00000    0.00000
CA2   3    0.000000    0.000000   -0.000004    70.25000    0.00484    0.00484 =
         0.00493    0.00000    0.00000    0.00000
CA3   3    0.070932    0.570932    0.433086    80.50000    0.00747    0.00747 =
         0.00412   -0.00025   -0.00025    0.00119
SI1   2    0.079790    0.208156    0.463725    11.00000    0.00557    0.00555 =
         0.00373   -0.00021    0.00024   -0.00314
SI2   2    0.618795    0.118795    0.954612    10.50000    0.00484    0.00484 =
         0.00351    0.00027    0.00027    0.00007
N1    1    0.075071    0.231760    0.812769    11.00000    0.00768    0.00611 =
         0.00532   -0.00027    0.00054   -0.00236
N2    1    0.180489    0.080001    0.357024    11.00000    0.00907    0.00500 =
         0.00796    0.00054   -0.00294    0.00079
N3    1    0.650470    0.150470    0.304289    10.50000    0.00359    0.00359 =
         0.00551   -0.00001   -0.00001    0.00027
N4    1    0.500000    0.000000    0.928086    10.25000    0.01154    0.01154 =
         0.03048    0.00000    0.00000   -0.00871
HKLF 4

REM  P4bm in P4bm
REM R1 =  0.0162 for     943 Fo > 4sig(Fo)  and  0.0162 for all     947 data
REM     68 parameters refined using      4 restraints

END

WGHT      0.0158      0.7851

REM Highest difference peak  0.855,  deepest hole -1.751,  1-sigma level  0.196
Q1    1   0.1985  0.6985  1.1021  10.50000  0.05    0.86
Q2    1  -0.0379  0.1790  1.0003  11.00000  0.05    0.63
Q3    1   0.6833  0.1833  0.4877  10.50000  0.05    0.59
Q4    1   0.7001  0.1567  0.3629  11.00000  0.05    0.50
Q5    1   0.1214  0.7609  0.9775  11.00000  0.05    0.49
Q6    1   0.6431  0.1094  0.4765  11.00000  0.05    0.45
Q7    1   0.0182  0.0139  0.4430  11.00000  0.05    0.44
Q8    1   0.1457  0.2256  1.0331  11.00000  0.05    0.43
Q9    1   0.1582  0.0217  0.0734  11.00000  0.05    0.41
Q10   1   0.2022  0.7022  0.8562  10.50000  0.05    0.40
Q11   1   0.2788  0.7788  0.6119  10.50000  0.05    0.40
Q12   1   0.4513  0.0487  0.9833  10.50000  0.05    0.38
Q13   1   0.0400  0.6664  0.4704  11.00000  0.05    0.38
Q14   1   0.1776  0.2844  0.6040  11.00000  0.05    0.37
Q15   1   0.7505  0.1967  0.3307  11.00000  0.05    0.36
Q16   1   0.1582  0.2207  0.9064  11.00000  0.05    0.36
Q17   1   0.1158  0.6379  0.5471  11.00000  0.05    0.35
Q18   1   0.1389  0.0377  0.2448  11.00000  0.05    0.34
Q19   1  -0.0189  0.1744  0.6232  11.00000  0.05    0.34
Q20   1   0.2093  0.1630  0.4205  11.00000  0.05    0.34
;
_shelx_res_checksum              84915
_shelx_hkl_file
;
   0   1   0    0.35    0.47
   1   1   0    2.05    0.24
   1  -1   0    2.75    0.22
   1  -1   0    1.78    0.21
   1  -1   0    3.07    0.25
  -2  -1   0   20.71    0.94
  -2  -1   0   20.61    0.91
  -2  -1   0   20.02    0.96
  -2  -1   0   21.17    1.02
   2   1   0   20.90    1.02
   1  -2   0   19.98    0.94
   1  -2   0   19.70    0.85
   1  -2   0   20.14    0.87
  -1   2   0   21.31    0.85
   2   1   0   21.12    0.90
   2   1   0   21.90    0.97
   2   1   0   20.17    0.93
  -1   2   0   20.11    0.86
  -1   2   0   20.94    0.96
  -1   2   0   21.54    0.95
   0  -2   0    3.00    0.30
  -2   0   0    2.56    0.33
  -2   0   0    2.72    0.29
  -2   0   0    2.23    0.26
  -2   0   0    3.09    0.35
   0   2   0    3.01    0.30
   0  -2   0    2.50    0.19
   0   2   0    2.43    0.32
   0  -2   0    2.30    0.27
   2   0   0    2.86    0.36
   0   2   0    2.75    0.18
   0   2   0    2.32    0.23
   2   0   0    2.22    0.31
  -1  -2   0   19.11    0.97
  -1  -2   0   21.29    0.79
   2  -1   0   19.39    0.94
  -1  -2   0   19.85    0.99
   2  -1   0   20.69    0.90
   1   2   0   20.84    1.00
   1   2   0   21.99    0.94
  -2   1   0   20.16    0.92
   2  -1   0   19.61    0.94
  -2   1   0   20.72    0.90
  -2   1   0   18.88    0.87
   1   2   0   20.55    0.79
  -2   1   0   20.22    0.94
   2   2   0  145.95   12.66
   3   2   0    2.87    0.48
   2  -3   0    3.80    0.39
  -3  -2   0    2.72    0.47
  -3  -2   0    3.36    0.43
   2  -3   0    3.06    0.39
   2  -3   0    2.92    0.36
   2  -3   0    3.65    0.49
  -3  -2   0    3.49    0.40
   3   1   0  402.04   24.41
  -1   3   0  432.97   19.46
   1  -3   0  442.34   18.97
   3   0   0    0.09    0.25
   0   3   0    0.14    0.11
  -3   0   0    0.10    0.20
   0  -3   0   -0.15    0.21
   0  -3   0    0.15    0.12
   3   0   0   -0.04    0.20
  -3   0   0    0.00    0.20
   3   0   0    0.42    0.30
   0   3   0    0.13    0.20
   0  -3   0   -0.31    0.30
   3  -1   0  405.59   18.84
  -3   1   0  370.64   18.37
   1   3   0  394.22   22.82
   3  -2   0    3.57    0.42
   3  -2   0    3.22    0.41
  -2  -3   0    3.76    0.56
   3  -2   0    3.08    0.42
  -2  -3   0    3.36    0.33
   3  -2   0    3.39    0.46
   2   3   0    2.87    0.46
  -2  -3   0    3.88    0.50
  -3  -3   0   75.95   10.52
   3  -4   0   72.34    2.85
   3  -4   0   72.58    2.97
   4   3   0   70.52    3.17
   3  -4   0   72.65    2.83
  -4  -3   0   71.21    3.04
   3  -4   0   73.78    3.02
  -4  -3   0   79.24    3.04
  -4  -3   0   71.34    2.83
  -2   4   0  629.82   24.65
   4   2   0  601.90   36.37
   2  -4   0  636.28   24.49
   1  -4   0  696.52   29.50
  -1   4   0  634.19   29.56
   4   1   0  659.76   36.12
  -4   0   0    8.22    0.60
   0   4   0    8.76    0.67
   4   0   0    8.83    0.79
   0  -4   0    9.72    0.82
   0  -4   0    8.65    0.61
   4   0   0    8.64    0.70
   0  -4   0    8.32    0.43
  -4   0   0    7.94    0.61
  -4   1   0  679.10   29.46
   1   4   0  534.18   32.11
   4  -1   0  631.19   29.15
  -4   2   0  653.29   26.64
  -2  -4   0  572.44   33.86
   4  -2   0  669.60   26.74
   2   4   0  597.96   35.75
   4  -3   0   71.26    3.00
  -3  -4   0   72.86    3.14
  -3  -4   0   72.75    2.72
   3   4   0   75.52    3.16
   4  -3   0   71.60    2.93
   4  -3   0   72.69    2.89
  -3  -4   0   75.37    2.98
   4  -3   0   72.13    2.95
   4   4   0  276.27   25.62
  -4  -4   0  356.87   26.88
   4  -5   0   30.28    1.65
   4  -5   0   29.63    1.51
  -5  -4   0   29.69    1.73
  -5  -4   0   31.00    1.51
   4  -5   0   32.46    1.59
   4  -5   0   29.43    1.68
  -5  -3   0  817.42   46.35
   5   2   0   39.57    2.05
  -2   5   0   38.26    1.87
  -5  -2   0   35.38    1.82
   2  -5   0   39.39    1.97
   2  -5   0   40.01    1.71
  -5  -2   0   37.18    1.86
  -5  -2   0   40.43    1.82
   2  -5   0   37.18    1.61
   5   1   0  272.29   22.01
   1  -5   0  310.70   25.96
  -5  -1   0  257.20   20.66
  -5   0   0    0.15    0.36
  -5   0   0    0.38    0.26
   0  -5   0   -0.02    0.20
   0  -5   0    0.27    0.16
   0  -5   0   -0.19    0.27
   5   0   0    0.11    0.30
   5   0   0    0.59    0.33
   0   5   0   -0.18    0.12
   0   5   0   -0.01    0.33
  -5   1   0  255.01   17.21
   1   5   0  262.55   21.05
  -5   2   0   38.72    1.78
   2   5   0   37.33    1.49
  -5   2   0   40.94    1.78
  -2  -5   0   39.21    2.03
  -2  -5   0   38.25    1.50
   5  -2   0   40.52    1.99
  -2  -5   0   37.50    1.80
   5  -2   0   37.92    1.86
   2   5   0   38.85    1.97
  -5   3   0  934.18   33.91
  -3  -5   0  767.03   45.85
   5  -4   0   27.80    1.57
  -4  -5   0   29.08    1.78
  -4  -5   0   28.30    1.62
   5  -4   0   30.94    1.55
  -4  -5   0   28.80    1.35
   5  -4   0   31.62    1.63
   5  -4   0   28.61    1.65
   4   5   0   28.24    1.90
   5  -5   0  262.97    9.37
   5  -5   0  263.44    9.61
  -5  -5   0  266.59    9.58
   5  -5   0  262.47    9.46
   5   5   0  273.17    9.91
   5  -5   0  267.17    9.59
  -5  -5   0  254.49    9.22
   6   5   0   34.41    2.15
   5  -6   0   33.91    1.91
   5  -6   0   31.59    1.91
  -6  -5   0   34.12    2.03
  -6  -5   0   31.20    1.66
  -6  -5   0   34.22    1.96
  -6  -4   0   34.33    1.96
  -6  -4   0   33.65    1.72
   6   4   0   36.49    2.13
   4  -6   0   35.63    1.90
   4  -6   0   32.10    1.68
  -6  -4   0   33.71    1.91
   4  -6   0   34.45    1.74
   3  -6   0  106.74    3.85
   3  -6   0   93.99    3.73
  -6  -3   0   96.61    4.04
   3  -6   0   98.58    4.15
   3  -6   0   96.91    4.02
  -3   6   0  100.01    4.04
  -6  -3   0   98.49    3.91
  -6  -3   0   92.96    4.02
   6   3   0   99.99    4.30
  -2   6   0   97.16    3.88
  -6  -2   0   89.63    3.74
   2  -6   0   96.43    3.99
   2  -6   0   95.53    3.51
  -6  -2   0   91.72    3.80
   2  -6   0   94.39    3.64
   1  -6   0  216.79    7.87
  -1   6   0  239.49    8.38
   1  -6   0  232.41    8.54
   6   1   0  237.61    8.60
  -6  -1   0  227.06    8.30
   6   0   0  423.64   28.33
   0   6   0  434.79   27.74
  -6   0   0  431.05   27.90
   0  -6   0  465.63   27.70
  -1  -6   0  228.13    8.04
  -6   1   0  219.93    8.00
   1   6   0  223.50    7.61
  -1  -6   0  226.48    8.44
   1   6   0  236.65    8.31
   6  -1   0  215.67    8.19
  -6   1   0  230.78    8.12
   6  -1   0  228.40    8.36
   2   6   0   89.80    3.87
  -6   2   0   89.66    3.59
  -6   2   0   91.12    3.65
   6  -2   0   92.91    3.90
  -2  -6   0   97.40    3.28
   2   6   0   87.73    3.22
  -2  -6   0   92.77    3.66
  -6   3   0   92.13    3.80
  -6   3   0   94.04    3.82
  -3  -6   0   94.60    4.03
   6  -3   0  107.53    4.15
  -3  -6   0   96.77    4.22
  -3  -6   0   96.05    3.47
   6  -3   0   96.49    3.98
   6  -4   0   35.11    1.92
   6  -4   0   31.21    1.76
  -4  -6   0   34.94    2.08
   6  -4   0   31.40    2.00
   6  -4   0   34.74    1.88
  -4  -6   0   34.22    1.86
   4   6   0   34.64    2.06
  -4  -6   0   33.69    1.49
   6  -5   0   33.43    1.75
   6  -5   0   33.33    1.86
   5   6   0   32.82    2.08
  -5  -6   0   31.16    1.52
  -5  -6   0   31.25    1.98
  -5  -6   0   30.53    1.81
   6  -5   0   31.45    1.82
   6  -5   0   31.39    1.89
   6  -7   0    7.96    0.88
   7   6   0    7.88    1.12
   6  -7   0    7.48    0.92
   6  -7   0    6.41    0.95
  -7  -6   0    7.56    0.80
   6  -7   0    8.04    0.92
  -7  -6   0    7.86    1.06
  -7  -6   0    6.97    1.04
   5  -7   0  100.74    4.10
  -7  -5   0  103.72    4.38
   5  -7   0  102.19    4.08
   5  -7   0  101.82    4.36
  -7  -5   0   95.58    4.37
   5  -7   0   96.10    4.37
  -7  -5   0  100.28    4.05
   7   5   0  101.69    4.66
   4  -7   0  164.50    6.20
  -7  -4   0  156.25    5.95
  -7  -4   0  149.24    6.18
   4  -7   0  156.22    6.27
   4  -7   0  153.22    5.84
  -7  -4   0  157.83    6.17
   7   4   0  161.17    6.52
   7   3   0  311.44   11.77
  -7  -3   0  316.13   11.34
  -7  -3   0  333.19   11.52
  -7  -3   0  311.04   11.47
   3  -7   0  329.07   11.22
  -3   7   0  320.98   11.70
   3  -7   0  313.95   11.07
  -7  -2   0  326.30   11.38
   2  -7   0  326.82   11.66
   2  -7   0  323.98   10.96
   7   2   0  300.61   11.67
  -1   7   0    4.30    0.62
   1  -7   0    3.79    0.55
   1  -7   0    4.06    0.39
  -7  -1   0    5.38    0.67
  -7  -1   0    4.08    0.59
  -7  -1   0    4.16    0.62
   7   1   0    4.74    0.74
   1  -7   0    5.44    0.76
   0   7   0    0.15    0.15
   0  -7   0    0.45    0.38
   7   0   0   -0.32    0.41
   0   7   0   -0.35    0.33
   0  -7   0    0.00    0.47
   7   0   0   -0.05    0.37
  -7   0   0    0.52    0.36
  -7   0   0    0.20    0.32
  -7   1   0    3.80    0.54
   1   7   0    4.85    0.32
  -7   1   0    5.00    0.69
   7  -1   0    4.20    0.68
  -1  -7   0    4.04    0.30
  -1  -7   0    4.05    0.59
  -1  -7   0    3.88    0.79
   7  -1   0    4.42    0.64
  -2  -7   0  340.68   11.92
  -2  -7   0  325.74   12.17
  -3  -7   0  320.10   11.56
  -7   3   0  332.30   11.55
  -3  -7   0  324.80   10.99
   7  -3   0  323.00   11.72
  -7   3   0  328.54   11.50
   3   7   0  327.56   11.92
   4   7   0  162.02    6.48
   7  -4   0  155.38    6.19
  -4  -7   0  159.33    6.50
  -4  -7   0  153.13    6.09
  -4  -7   0  157.09    5.57
  -7   4   0  163.10    6.03
   7  -4   0  153.04    6.27
  -7   4   0  160.58    6.03
  -7   5   0  101.21    4.11
   7  -5   0   94.57    4.23
   5   7   0  103.11    4.63
   7  -5   0  101.99    4.39
  -5  -7   0   98.30    4.26
  -5  -7   0   96.39    4.51
   7  -5   0   96.21    4.10
  -5  -7   0  101.22    3.76
   7  -6   0    7.26    0.95
   7  -6   0    6.84    0.86
   7  -6   0    6.64    0.90
   6   7   0    7.06    1.23
   7  -6   0    7.16    0.94
  -6  -7   0    7.93    0.76
  -6  -7   0    5.80    0.96
  -6  -7   0    7.08    1.10
  -7  -7   0  227.69    9.13
   7  -7   0  234.49    8.98
  -7  -7   0  235.03    8.55
  -7  -7   0  240.46    8.95
   7  -7   0  222.05    8.74
   7  -7   0  227.22    8.91
   7   7   0  237.68    9.40
   7  -7   0  234.41    8.65
   7  -8   0   24.19    1.87
   7  -8   0   23.96    1.70
   8   7   0   25.33    2.12
   7  -8   0   26.17    1.92
  -8  -7   0   25.27    2.02
  -8  -7   0   24.56    1.57
  -8  -7   0   26.14    1.89
   7  -8   0   23.92    1.64
   6  -8   0    2.04    0.68
   6  -8   0    3.32    0.68
  -8  -6   0    2.80    0.89
   6  -8   0    2.18    0.60
  -8  -6   0    3.45    0.77
   8   6   0    2.88    0.85
   6  -8   0    2.45    0.83
  -8  -6   0    3.30    0.66
   5  -8   0   21.38    1.60
   8   5   0   20.52    1.79
  -5   8   0   19.81    1.51
   5  -8   0   19.48    1.62
  -8  -5   0   20.27    1.41
  -8  -5   0   23.64    1.72
   5  -8   0   20.19    1.38
  -8  -5   0   20.85    1.64
   5  -8   0   19.47    1.37
  -8  -4   0   70.44    3.40
   8   4   0   65.07    3.58
  -8  -4   0   73.98    3.24
   4  -8   0   69.10    3.08
  -8  -4   0   71.33    3.40
  -4   8   0   71.67    3.39
   4  -8   0   69.93    3.00
   4  -8   0   74.74    3.54
  -8  -3   0   95.82    4.11
  -3   8   0   99.05    4.26
   3  -8   0   91.14    3.90
   3  -8   0   98.12    3.78
   3  -8   0  101.33    4.45
  -8  -3   0   96.27    4.22
  -8  -3   0   94.45    4.16
   8   3   0  102.12    4.63
  -8  -1   0   38.37    2.10
   8   1   0   39.83    2.36
  -8  -1   0   39.68    2.04
   1  -8   0   39.24    1.94
  -1   8   0   35.37    2.12
  -8  -1   0   37.86    2.10
   1  -8   0   37.82    1.58
   1  -8   0   39.40    2.33
   8   0   0   58.41    2.85
   8   0   0   61.18    3.09
  -8   0   0   55.81    2.77
  -8   0   0   59.71    2.88
   0   8   0   58.89    2.15
   0   8   0   55.65    2.84
   0  -8   0   60.95    3.11
  -8   0   0   61.32    2.70
   0  -8   0   56.89    2.62
  -8   1   0   35.36    1.89
  -1  -8   0   41.24    2.39
   8  -1   0   36.22    2.13
   1   8   0   37.49    2.15
  -1  -8   0   37.18    1.95
  -8   1   0   36.63    2.01
   8  -1   0   38.92    2.28
  -1  -8   0   38.47    1.39
  -3  -8   0   93.52    4.47
  -8   3   0   95.00    4.03
   8  -3   0   97.39    4.25
  -8   3   0   97.61    3.98
   8  -3   0   91.20    4.28
  -3  -8   0  101.03    3.45
  -3  -8   0   96.74    4.06
   3   8   0   94.63    4.36
   4   8   0   69.98    3.59
  -4  -8   0   70.42    3.29
   8  -4   0   76.74    3.57
  -4  -8   0   71.44    2.67
  -8   4   0   73.73    3.25
  -8   4   0   67.61    3.14
   8  -4   0   70.51    3.38
  -4  -8   0   67.97    3.62
   8  -5   0   23.45    1.63
   5   8   0   21.86    1.81
   8  -5   0   21.04    1.62
  -8   5   0   20.25    1.45
  -5  -8   0   21.58    1.83
  -5  -8   0   20.27    1.09
  -8   5   0   20.89    1.46
  -5  -8   0   21.48    1.58
  -8   6   0    2.00    0.68
   8  -6   0    2.43    0.78
  -8   6   0    2.81    0.74
  -6  -8   0    2.44    0.95
  -6  -8   0    2.89    0.54
  -6  -8   0    3.00    0.84
   6   8   0    2.70    0.93
   8  -6   0    3.32    0.85
  -7  -8   0   26.30    2.10
   8  -7   0   28.00    1.91
  -8   7   0   21.17    1.58
   8  -7   0   27.07    1.92
  -7  -8   0   26.19    1.86
   8  -7   0   26.61    1.86
   8  -7   0   24.60    1.69
   7   8   0   24.02    2.09
  -8  -8   0  646.37   22.04
  -8  -8   0  605.86   22.64
   8  -8   0  684.19   22.47
   8  -8   0  639.26   22.56
  -8  -8   0  649.68   23.08
   8  -8   0  633.85   22.80
   8   8   0  650.43   23.34
   8  -9   0    0.47    0.52
   8  -9   0    0.71    0.73
   8  -9   0    0.30    0.61
  -9  -8   0    0.06    0.45
   9   8   0    1.82    1.03
  -9  -8   0   -0.30    0.69
   8  -9   0    0.82    0.60
   7  -9   0   22.56    1.64
  -9  -7   0   20.23    1.83
   7  -9   0   19.75    1.78
   9   7   0   21.23    2.13
   7  -9   0   24.66    1.91
  -9  -7   0   21.11    1.88
  -9  -7   0   21.57    1.56
   7  -9   0   22.13    1.60
   6  -9   0   34.75    2.05
   6  -9   0   39.71    2.13
   6  -9   0   37.13    2.45
  -9  -6   0   36.01    2.11
  -9  -6   0   38.37    2.46
  -9  -6   0   35.08    2.56
  -6   9   0   35.42    2.28
   9   6   0   32.77    2.77
  -9  -5   0  261.26   10.14
   9   5   0  266.66   10.62
  -9  -5   0  262.36    9.84
   5  -9   0  266.63   10.32
  -9  -5   0  259.42   10.13
   5  -9   0  271.18    9.78
   5  -9   0  264.83    9.67
  -5   9   0  283.23   10.22
  -4   9   0  156.90    6.63
   4  -9   0  166.73    6.16
  -9  -4   0  168.37    6.68
   4  -9   0  165.77    6.87
   4  -9   0  157.16    6.28
  -9  -4   0  154.49    6.42
  -9  -4   0  170.48    6.74
   9   4   0  178.14    7.23
   3  -9   0    2.45    0.89
  -9  -3   0    3.38    0.77
   9   3   0    2.74    0.80
  -3   9   0    3.70    0.82
  -9  -3   0    4.08    0.77
  -9  -3   0    3.46    0.87
   3  -9   0    3.32    0.53
   3  -9   0    3.41    0.64
  -9  -2   0  126.95    5.38
   2  -9   0  126.31    5.65
   2  -9   0  126.51    4.71
  -2   9   0  125.18    5.41
   9   2   0  131.67    5.79
  -9  -2   0  131.88    5.29
   2  -9   0  137.52    5.15
  -9  -2   0  129.00    5.35
  -9  -1   0  230.72    8.69
  -9  -1   0  235.87    8.91
  -1   9   0  248.19    9.02
   1  -9   0  233.48    8.58
   1  -9   0  224.93    8.05
  -9  -1   0  237.05    8.89
   1  -9   0  235.71    9.24
   9   1   0  237.18    9.28
   9   0   0    0.20    0.45
  -9   0   0    0.18    0.42
  -9   0   0    0.29    0.44
   0  -9   0    0.19    0.43
   0   9   0    0.18    0.15
   0   9   0    0.04    0.37
  -9   0   0   -0.14    0.49
   0  -9   0    0.58    0.16
   0  -9   0    2.52    0.71
   9  -1   0  225.51    8.84
  -9   1   0  215.25    8.67
  -9   1   0  232.31    8.89
  -9   1   0  248.78    8.60
   1   9   0  247.79    9.01
  -1  -9   0  229.39    9.21
   9  -1   0  233.43    9.11
  -1  -9   0  230.48    8.57
   9  -2   0  123.43    5.31
   9  -2   0  115.95    5.42
  -9   2   0  127.44    5.18
  -2  -9   0  128.01    5.11
   2   9   0  129.91    5.47
  -2  -9   0  129.22    5.69
  -9   2   0  126.62    5.02
   3   9   0    4.05    0.84
  -3  -9   0    3.55    0.23
   9  -3   0    3.47    0.72
  -9   3   0    3.33    0.72
   9  -3   0    3.45    0.76
  -9   3   0    3.37    0.75
  -3  -9   0    3.78    0.75
  -3  -9   0    4.07    0.98
  -4  -9   0  161.90    7.04
  -4  -9   0  169.05    6.58
   9  -4   0  163.95    6.75
   9  -4   0  171.16    6.91
  -9   4   0  168.65    6.46
  -9   4   0  160.47    6.49
   4   9   0  169.69    7.03
  -4  -9   0  161.30    5.74
  -5  -9   0  280.49   10.03
   9  -5   0  265.02   10.11
  -9   5   0  260.28    9.81
   5   9   0  267.76   10.48
   9  -5   0  269.01   10.25
  -5  -9   0  262.94    9.10
  -9   5   0  253.59    9.79
  -5  -9   0  263.27   10.46
  -9   6   0   34.04    2.10
  -6  -9   0   37.06    2.29
   9  -6   0   34.10    2.27
  -6  -9   0   34.36    2.52
   9  -6   0   35.85    2.39
  -9   6   0   36.36    2.12
   6   9   0   32.19    2.46
  -6  -9   0   34.91    1.62
   9  -7   0   24.11    1.86
  -9   7   0   20.50    1.64
   9  -7   0   21.92    1.86
  -7  -9   0   19.41    2.02
  -7  -9   0   23.76    1.98
  -9   7   0   22.01    1.60
  -7  -9   0   19.38    1.22
   7   9   0   21.71    2.04
  -9   8   0    0.14    0.51
  -8  -9   0    0.16    0.73
  -9   8   0    0.90    0.62
   8   9   0    0.32    0.68
   9  -8   0    0.13    0.63
  -8  -9   0    0.28    0.41
  -8  -9   0    0.95    0.66
  -9  -9   0   17.03    1.83
   9  -9   0   14.85    1.61
  -9   9   0   15.67    1.52
  -9  -9   0   16.36    1.26
  -9  -9   0   17.43    1.67
  -9   9   0   17.34    1.58
   9  -9   0   16.84    1.74
   9   9   0   15.71    1.88
   9 -10   0    6.74    1.13
   9 -10   0    8.57    1.31
 -10  -9   0    6.47    1.28
 -10  -9   0    7.40    0.99
  10   9   0    6.99    1.39
  -9  10   0    5.74    1.00
  -9  10   0    8.07    1.20
 -10  -9   0    8.94    1.44
 -10  -8   0   15.50    1.33
  10   8   0   15.84    1.89
 -10  -8   0   15.35    1.72
   8 -10   0   15.45    1.68
 -10  -8   0   17.45    1.81
   8 -10   0   17.70    1.49
  -8  10   0   16.33    1.61
  -8  10   0   14.77    1.39
 -10  -7   0  107.88    5.10
   7 -10   0  109.98    4.64
  10   7   0  100.40    5.35
   7 -10   0  103.01    5.34
  -7  10   0  102.04    4.91
 -10  -7   0  102.52    4.95
   7 -10   0  104.29    4.57
 -10  -7   0  100.69    4.48
 -10  -6   0   72.28    3.44
  -6  10   0   77.16    3.81
 -10  -6   0   67.01    3.68
 -10  -6   0   76.28    3.85
   6 -10   0   69.15    3.29
   6 -10   0   71.50    3.85
  10   6   0   69.50    4.09
   6 -10   0   67.51    3.32
  -5  10   0  186.02    7.51
  10   5   0  182.25    7.95
 -10  -5   0  180.54    7.48
   5 -10   0  183.31    7.69
 -10  -5   0  171.88    7.11
 -10  -5   0  191.65    7.50
   5 -10   0  184.34    7.07
   5 -10   0  177.39    6.85
  10   4   0   48.62    3.14
   4 -10   0   50.07    3.02
   4 -10   0   49.03    2.54
 -10  -4   0   48.02    3.10
 -10  -4   0   51.35    2.75
  -4  10   0   49.56    2.86
 -10  -4   0   54.89    2.91
  -3  10   0    0.32    0.53
   3 -10   0    0.32    0.45
   3 -10   0    0.88    0.72
   3 -10   0    0.03    0.28
 -10  -3   0    0.15    0.69
 -10  -3   0   -0.08    0.44
  10   3   0    0.24    0.53
 -10  -3   0    0.45    0.57
 -10  -2   0   69.16    3.49
  10   2   0   73.17    3.94
   2 -10   0   69.53    3.79
 -10  -2   0   70.20    3.52
   2 -10   0   72.47    2.78
  -2  10   0   67.66    3.52
 -10  -2   0   74.61    3.43
   2 -10   0   71.17    3.24
  10   1   0   97.99    4.61
 -10  -1   0   85.08    3.89
 -10  -1   0   86.12    4.10
   1 -10   0   85.15    4.38
 -10  -1   0   85.97    4.07
  -1  10   0   87.85    4.17
   1 -10   0   86.73    3.48
   1 -10   0   90.46    3.84
 -10   0   0  350.64   12.84
  10   0   0  374.34   13.62
   0  10   0  383.13   13.38
 -10   0   0  350.02   13.18
   0 -10   0  358.03   13.64
   0 -10   0  354.55   12.84
 -10   0   0  351.24   13.11
 -10   1   0   92.80    4.06
  -1 -10   0   82.45    4.37
 -10   1   0   87.42    4.15
  10  -1   0   90.18    4.39
  -1 -10   0   89.98    3.86
   1  10   0   83.81    4.15
 -10   1   0   84.58    3.99
   2  10   0   68.35    3.64
 -10   2   0   68.53    3.42
 -10   2   0   72.01    3.27
  -2 -10   0   71.28    3.88
  10  -2   0   74.00    3.82
 -10   2   0   68.02    3.53
  -2 -10   0   74.70    3.38
  -3 -10   0    0.24    0.48
  10  -3   0    0.51    0.50
 -10   3   0   -0.31    0.40
 -10   3   0    0.35    0.67
  -3 -10   0    0.74    0.77
   3  10   0    0.55    0.72
  10  -3   0    0.02    0.57
 -10   3   0    0.59    0.58
 -10   4   0   47.41    2.55
  10  -4   0   52.75    3.03
 -10   4   0   48.75    2.83
  10  -4   0   53.71    2.98
  -4 -10   0   50.04    3.14
  -4 -10   0   48.16    2.68
   4  10   0   46.64    2.98
 -10   4   0   51.64    2.74
   5  10   0  192.30    7.96
  -5 -10   0  178.68    7.33
 -10   5   0  181.56    7.27
  10  -5   0  183.29    7.68
 -10   5   0  184.71    7.21
 -10   6   0   72.03    3.48
  -6 -10   0   71.24    2.70
  10  -6   0   70.88    3.71
 -10   6   0   72.54    3.68
  10  -6   0   71.11    3.79
 -10   6   0   71.95    3.49
   6  10   0   63.88    3.89
  -6 -10   0   70.89    4.00
  -6 -10   0   65.33    3.78
   7  10   0   99.39    5.31
  -7 -10   0  101.17    3.95
 -10   7   0  107.77    4.77
  10  -7   0  102.44    4.92
  -7 -10   0  110.92    4.93
  -7 -10   0  108.34    5.37
 -10   7   0  102.61    4.88
 -10   7   0  103.48    4.66
  10  -7   0  106.86    5.11
  -8 -10   0   16.83    1.10
  -8 -10   0   15.94    1.66
  10  -8   0   16.46    1.77
 -10   8   0   15.53    1.54
 -10   8   0   16.74    1.63
  -8 -10   0   18.53    1.96
   8  10   0   17.39    1.96
 -10   8   0   16.69    1.48
  -9 -10   0    7.95    1.41
  -9 -10   0    8.66    0.87
 -10   9   0    7.71    1.24
   9  10   0    7.03    1.39
  -9 -10   0    6.81    1.26
 -10   9   0    7.31    1.05
  10  -9   0    7.52    1.19
  10 -10   0  129.85    6.03
  10  10   0  123.96    6.48
 -10  10   0  127.83    5.84
 -10  10   0  125.97    5.67
 -10 -10   0  117.54    5.79
 -10  10   0  121.72    5.42
 -10 -10   0  120.09    6.09
 -10  11   0   -0.54    0.46
 -11 -10   0   -0.26    0.88
 -10  11   0    1.02    0.60
 -11 -10   0    0.01    0.59
 -11 -10   0    0.33    0.71
  11  10   0    0.14    0.75
 -10  11   0    0.06    0.61
 -10  11   0    0.48    0.64
  11   9   0  269.36   11.28
 -11  -9   0  258.73   10.68
  -9  11   0  262.88    9.94
 -11  -9   0  250.06   10.44
   9 -11   0  265.22   10.60
  -9  11   0  249.47   10.43
 -11  -9   0  251.99    9.91
  -9  11   0  260.82   10.05
  11   8   0   35.36    3.05
 -11  -8   0   34.67    2.65
  -8  11   0   38.86    2.69
   8 -11   0   36.67    2.32
 -11  -8   0   37.29    2.72
   8 -11   0   34.46    2.70
  11   7   0   52.87    3.68
 -11  -7   0   51.43    3.21
 -11  -7   0   52.22    3.04
  -7  11   0   51.44    2.72
  -7  11   0   50.54    3.12
   7 -11   0   50.26    2.80
   7 -11   0   56.42    3.40
 -11  -7   0   49.18    3.13
   6 -11   0    2.25    0.73
   6 -11   0    1.00    0.83
  11   6   0    2.20    0.99
  -6  11   0    2.84    0.63
 -11  -6   0    1.75    0.82
 -11  -6   0    1.41    0.77
 -11  -6   0    2.43    1.09
   5 -11   0    2.01    0.71
  -5  11   0    1.26    0.75
 -11  -5   0    1.52    0.78
  11   5   0    2.29    0.93
   5 -11   0    1.64    0.88
 -11  -5   0    1.09    0.95
 -11  -5   0    1.43    0.76
   4 -11   0    1.81    0.92
  -4  11   0    1.15    0.73
 -11  -4   0    1.28    0.73
   4 -11   0    0.87    0.60
 -11  -4   0    1.25    0.71
 -11  -4   0    1.38    0.77
  11   4   0    1.57    0.83
 -11  -3   0  260.02    9.75
  -3  11   0  259.89    9.91
 -11  -3   0  245.54    9.82
  11   3   0  246.26   10.29
 -11  -3   0  248.17    9.61
   3 -11   0  251.00    9.38
   2 -11   0   70.49    3.44
  -2  11   0   71.62    3.70
 -11  -2   0   72.85    3.47
 -11  -2   0   68.04    3.63
  11   2   0   68.60    3.99
 -11  -2   0   64.12    3.74
 -11  -1   0   19.93    1.85
  -1  11   0   15.40    1.58
   1 -11   0   17.53    1.37
 -11  -1   0   17.81    1.47
 -11   0   0   -0.12    0.63
   0 -11   0    0.23    0.46
 -11   0   0   -0.42    0.41
  11   0   0   -0.31    0.44
   0  11   0   -0.05    0.43
   1  11   0   20.77    1.85
 -11   1   0   19.11    1.66
 -11   1   0   18.78    1.46
  -1 -11   0   17.49    2.13
  11  -1   0   20.30    1.86
 -11   1   0   17.98    1.87
  -1 -11   0   19.42    1.49
   2  11   0   69.35    3.77
 -11   2   0   74.93    3.60
 -11   2   0   70.35    3.32
 -11   2   0   68.05    3.68
  11  -2   0   77.80    4.35
  -2 -11   0   67.34    3.96
  -2 -11   0   66.92    3.37
  -3 -11   0  257.92    9.66
 -11   3   0  253.93    9.74
   3  11   0  267.15   10.24
 -11   3   0  243.81    9.91
  -3 -11   0  244.84   10.36
 -11   3   0  256.17    9.49
 -11   4   0    1.24    0.85
 -11   4   0    0.98    0.57
  -4 -11   0    0.94    0.70
  11  -4   0    0.81    0.82
  -4 -11   0    0.81    0.54
  -5 -11   0    1.94    0.82
   5  11   0    1.70    0.85
 -11   5   0    1.80    0.90
  -5 -11   0    1.63    0.83
 -11   5   0    0.93    0.66
 -11   5   0    2.15    0.91
  11  -5   0    1.76    0.76
 -11   6   0    2.08    0.80
 -11   6   0    3.44    0.98
   6  11   0    1.96    0.96
 -11   6   0    1.69    0.68
  11  -6   0    2.70    1.01
  -6 -11   0    2.61    0.96
  -6 -11   0    2.35    0.94
  -7 -11   0   49.07    3.05
  -7 -11   0   55.09    3.61
   7  11   0   52.97    3.56
 -11   7   0   53.10    2.96
 -11   7   0   50.93    2.93
  11  -7   0   57.88    3.48
 -11   7   0   50.50    3.13
 -11   8   0   35.71    2.35
  -8 -11   0   32.22    2.70
  -8 -11   0   35.83    2.55
 -11   8   0   37.46    2.43
   8  11   0   35.36    2.99
 -11   8   0   37.05    2.57
  11  -8   0   34.68    2.61
  -9 -11   0  268.41   11.02
 -11   9   0  260.48   10.38
  11  -9   0  261.02   10.69
  -9 -11   0  254.85   10.44
 -11   9   0  265.35   10.29
 -11   9   0  257.81   10.08
   9  11   0  255.46   11.12
  11 -10   0    0.16    0.55
 -11  10   0    0.36    0.66
 -10 -11   0    0.08    0.58
  10  11   0    0.08    1.05
 -11  10   0   -0.01    0.60
 -10 -11   0   -0.22    0.78
 -11  10   0   -0.67    0.47
 -11  11   0   14.09    1.64
 -11  11   0   13.73    1.60
 -11 -11   0   11.82    1.68
 -11  11   0   13.04    1.60
  11  11   0   14.10    2.00
 -11  11   0   12.34    1.39
 -12 -11   0    0.60    0.77
  12  11   0    0.73    1.07
 -11  12   0    1.16    0.63
 -11  12   0    1.43    0.68
 -11  12   0    1.43    0.60
 -11  12   0    0.67    0.54
 -12 -11   0    0.89    0.76
  12  10   0   69.64    4.68
 -12 -10   0   63.37    4.05
 -10  12   0   65.48    3.58
 -10  12   0   59.21    3.85
 -12 -10   0   67.60    3.70
 -10  12   0   69.91    4.00
 -12 -10   0   67.63    4.09
 -10  12   0   65.55    3.47
 -12  -9   0    8.76    1.42
 -12  -9   0    7.43    1.20
 -12  -9   0    7.73    1.50
  12   9   0    7.92    1.78
  -9  12   0    9.83    1.14
  -9  12   0    9.11    1.19
   9 -12   0    7.51    1.43
  -9  12   0    8.66    1.34
  12   8   0    1.95    1.06
   8 -12   0    1.33    0.92
   8 -12   0    1.01    0.64
 -12  -8   0    0.70    0.82
 -12  -8   0    2.04    1.12
  -8  12   0    1.52    0.65
  -8  12   0    1.81    0.84
 -12  -8   0    1.26    0.88
  12   7   0   88.19    5.14
  -7  12   0   92.71    4.06
  -7  12   0   85.30    4.57
 -12  -7   0   90.30    4.69
   7 -12   0   85.79    4.17
   7 -12   0   87.00    4.78
 -12  -7   0   85.01    4.59
 -12  -7   0   90.05    4.24
  -6  12   0  261.04    9.40
   6 -12   0  232.73    9.85
 -12  -6   0  255.10    9.84
  -6  12   0  259.01   10.25
 -12  -6   0  256.10   10.30
   6 -12   0  257.47   10.54
 -12  -6   0  247.19   10.08
  12   6   0  259.08   10.90
   5 -12   0   41.65    2.92
 -12  -5   0   39.95    2.71
 -12  -5   0   41.44    2.57
  -5  12   0   36.25    1.98
   5 -12   0   39.45    2.37
 -12  -5   0   37.66    2.59
  12   5   0   37.13    3.05
  -5  12   0   40.75    2.75
 -12  -4   0  156.48    6.71
   4 -12   0  151.34    6.12
  -4  12   0  159.88    7.09
   4 -12   0  144.00    6.87
  -4  12   0  126.91    5.56
 -12  -4   0  155.01    6.44
 -12  -4   0  150.52    6.43
  12   4   0  156.40    7.19
 -12  -3   0   44.98    2.66
 -12  -3   0   43.29    2.73
   3 -12   0   46.59    2.50
  12   3   0   45.58    3.18
   3 -12   0   41.13    3.04
  -3  12   0   42.73    1.85
 -12  -3   0   42.85    2.78
  -3  12   0   40.33    2.99
 -12  -2   0    1.63    0.73
  12   2   0    2.30    0.94
 -12  -2   0    2.42    1.02
 -12  -2   0    2.23    0.94
   2 -12   0    1.55    0.72
  -2  12   0    2.22    0.90
   2 -12   0    1.41    0.95
 -12  -1   0   79.58    4.01
  -1  12   0   73.63    4.01
 -12  -1   0   76.63    4.00
   1 -12   0   74.12    3.58
   1 -12   0   79.73    4.46
  12   1   0   75.37    4.30
   0  12   0  253.40    9.88
   0 -12   0  238.04    9.22
 -12   0   0  237.62    9.62
  12   0   0  248.27   10.19
 -12   0   0  243.51    9.73
 -12   0   0  252.12    9.30
   0 -12   0  237.66   10.19
  -1 -12   0   76.06    3.65
  12  -1   0   75.33    4.25
 -12   1   0   74.87    3.55
  -1 -12   0   79.22    4.46
 -12   1   0   72.43    3.96
 -12   1   0   76.73    3.90
 -12   2   0    2.60    0.74
  12  -2   0    1.61    0.80
 -12   2   0    1.60    0.76
  -2 -12   0    2.82    0.86
  -2 -12   0    1.79    0.99
   2  12   0    1.55    0.75
 -12   2   0    2.80    0.76
  12  -3   0   48.33    3.15
 -12   3   0   44.27    2.74
 -12   3   0   46.08    2.94
   3  12   0   40.37    2.90
  -3 -12   0   42.19    2.58
 -12   3   0   43.35    2.47
  -3 -12   0   46.06    3.21
  -4 -12   0  148.95    7.20
 -12   4   0  159.90    6.32
  12  -4   0  150.62    6.97
   4  12   0  162.66    7.16
 -12   4   0  152.07    6.78
 -12   4   0  155.99    6.60
  -4 -12   0  150.36    6.47
  12  -5   0   40.42    2.85
 -12   5   0   40.35    2.60
  -5 -12   0   42.07    2.62
  -5 -12   0   39.05    2.99
 -12   5   0   37.78    2.35
   5  12   0   36.26    2.94
 -12   5   0   42.04    2.76
 -12   6   0  260.34   10.10
   6  12   0  283.97   11.08
 -12   6   0  255.10    9.88
  -6 -12   0  258.16   10.17
  12  -6   0  254.37   10.57
  -6 -12   0  244.89   10.80
 -12   6   0  256.03   10.37
  12  -7   0   87.15    4.74
  -7 -12   0   84.41    4.41
 -12   7   0   91.91    4.65
  -7 -12   0   89.18    5.04
   7  12   0   86.14    4.98
 -12   7   0   85.49    4.30
   8  12   0    0.91    1.01
  -8 -12   0    1.44    0.86
 -12   8   0    0.46    0.71
 -12   8   0    1.53    0.80
 -12   8   0    2.00    0.91
  -8 -12   0    2.03    1.07
  12  -8   0    0.95    0.86
 -12   9   0    8.27    1.25
  12  -9   0    7.75    1.30
 -12   9   0    8.54    1.27
  -9 -12   0    9.24    1.50
  -9 -12   0    9.50    1.44
 -12   9   0    8.57    1.36
   9  12   0    6.97    1.58
 -10 -12   0   63.70    4.28
 -12  10   0   66.89    3.90
 -10 -12   0   69.27    4.06
 -12  10   0   68.09    3.82
  10  12   0   69.54    4.65
  12 -10   0   69.34    4.20
 -12  10   0   70.24    3.69
 -11 -12   0    1.07    0.94
 -12  11   0    0.67    0.76
 -12  11   0    0.45    0.58
  12 -11   0    0.91    0.80
 -12  11   0    0.51    0.68
  11  12   0    1.50    0.96
 -11 -12   0    0.18    0.79
 -12  11   0    0.96    0.64
 -12  12   0   58.09    3.90
 -12  12   0   59.96    3.49
 -12  12   0   55.86    3.67
 -12 -12   0   53.53    3.84
 -12 -12   0   52.73    3.61
  12  12   0   50.41    4.02
 -12  12   0   53.77    3.15
 -12  13   0   29.70    2.51
 -13 -12   0   27.43    2.60
  13  11   0   59.51    4.43
 -11  13   0   60.54    3.85
 -11  13   0   61.97    3.85
 -13 -11   0   60.38    3.87
 -11  13   0   57.16    3.27
 -10  13   0   66.41    3.51
  13  10   0   63.07    4.54
 -10  13   0   67.46    4.50
 -13 -10   0   62.35    4.05
 -13 -10   0   72.22    4.28
 -10  13   0   67.52    4.08
  -9  13   0   38.48    2.43
  -9  13   0   40.67    2.91
  13   9   0   37.99    3.42
 -13  -9   0   38.13    2.91
   9 -13   0   38.34    3.02
 -13  -9   0   35.22    2.79
 -13  -9   0   36.04    2.46
  -9  13   0   40.77    2.48
   8 -13   0    0.68    0.71
 -13  -8   0    1.49    0.78
  13   8   0    0.70    0.78
  -8  13   0    1.23    0.67
  -8  13   0    0.66    0.57
   8 -13   0    0.22    0.70
 -13  -8   0    0.00    0.89
 -13  -8   0    0.55    0.73
   7 -13   0   20.05    2.15
   7 -13   0   19.49    1.74
 -13  -7   0   18.04    1.74
  13   7   0   15.75    2.32
  -7  13   0   20.11    1.97
  -7  13   0   18.65    1.45
 -13  -7   0   19.41    1.95
   6 -13   0   14.71    1.88
  13   6   0   16.90    2.10
 -13  -6   0   12.73    1.66
 -13  -6   0   17.29    1.79
   6 -13   0   15.00    1.47
  -6  13   0   17.49    1.74
  -6  13   0   17.14    1.85
 -13  -6   0   17.54    1.71
   5 -13   0  159.35    7.63
  13   5   0  157.99    7.87
 -13  -5   0  166.96    7.14
   5 -13   0  168.32    6.81
 -13  -5   0  162.87    7.05
  -5  13   0  172.96    7.42
 -13  -5   0  168.93    7.41
   4 -13   0   45.81    2.62
 -13  -4   0   44.86    2.90
  13   4   0   43.49    3.34
 -13  -4   0   47.92    2.87
   4 -13   0   45.41    3.33
  -4  13   0   46.51    3.06
 -13  -4   0   44.79    3.09
   3 -13   0    3.17    1.21
 -13  -3   0    5.15    1.02
   3 -13   0    4.74    0.96
 -13  -3   0    4.56    1.05
  -3  13   0    6.94    1.26
 -13  -3   0    6.39    1.22
  13   3   0    3.85    1.11
 -13  -2   0  125.23    5.84
   2 -13   0  128.48    5.65
   2 -13   0  119.21    6.23
 -13  -2   0  125.43    5.44
  13   2   0  117.12    6.18
 -13  -2   0  126.59    5.78
  -2  13   0  125.39    5.88
 -13  -1   0  122.67    5.84
  13   1   0  113.76    6.13
   1 -13   0  137.42    5.83
 -13  -1   0  131.79    5.94
 -13  -1   0  126.84    5.45
   1 -13   0  122.67    6.33
  -1  13   0  128.24    5.98
  13   0   0   -0.07    0.58
 -13   0   0   -0.01    0.53
   0 -13   0    0.13    0.49
   0  13   0    0.18    0.74
   0 -13   0    0.57    0.91
 -13   0   0    0.40    0.79
 -13   0   0   -0.20    0.51
  13  -1   0  138.39    6.53
  -1 -13   0  129.71    5.59
 -13   1   0  124.66    5.90
 -13   1   0  135.93    5.55
   1  13   0  125.84    6.11
 -13   1   0  130.12    6.07
  -1 -13   0  125.59    6.45
 -13   2   0  127.49    5.74
  13  -2   0  108.58    5.90
   2  13   0  123.45    5.97
  -2 -13   0  125.99    6.36
  -2 -13   0  125.62    5.43
 -13   2   0  126.80    5.90
  -3 -13   0    5.25    1.01
 -13   3   0    3.42    0.94
   3  13   0    4.28    1.09
 -13   3   0    4.69    0.90
 -13   3   0    4.45    1.09
  -3 -13   0    4.26    1.14
  13  -3   0    3.50    0.99
  -4 -13   0   43.36    3.40
 -13   4   0   47.30    3.14
  13  -4   0   45.78    3.26
   4  13   0   47.99    3.39
  -4 -13   0   42.68    2.76
 -13   4   0   46.87    2.94
 -13   4   0   45.79    2.58
 -13   5   0  164.03    7.33
   5  13   0  165.82    7.68
  -5 -13   0  163.95    7.01
  -5 -13   0  164.55    7.86
 -13   5   0  167.80    7.09
  13  -5   0  155.62    7.43
 -13   6   0   14.67    1.77
 -13   6   0   15.64    1.63
   6  13   0   15.33    1.93
  -6 -13   0   18.97    2.11
  13  -6   0   16.16    1.83
 -13   6   0   14.49    1.47
  -6 -13   0   13.88    1.60
  -7 -13   0   16.43    2.15
  13  -7   0   17.60    1.95
  -7 -13   0   19.33    1.88
 -13   7   0   20.95    1.91
 -13   7   0   15.50    1.67
   7  13   0   20.53    2.38
 -13   7   0   20.86    1.95
  -8 -13   0    1.10    0.80
 -13   8   0    3.66    0.98
 -13   8   0    0.49    0.65
  13  -8   0    1.70    0.99
  -8 -13   0    0.65    1.07
 -13   9   0   35.16    2.73
 -13   9   0   39.89    2.63
  -9 -13   0   41.69    2.94
  -9 -13   0   42.86    3.37
   9  13   0   37.56    3.36
 -13   9   0   33.75    2.72
 -10 -13   0   73.31    4.64
  13 -10   0   71.63    4.36
 -10 -13   0   66.01    4.03
 -13  10   0   74.48    4.24
 -13  10   0   62.08    3.94
  10  13   0   72.39    4.83
 -11 -13   0   60.49    4.14
  13 -11   0   58.37    3.89
 -11 -13   0   61.02    3.84
 -13  11   0   53.29    3.49
 -13  11   0   56.44    3.79
  11  13   0   59.08    4.29
 -13  11   0   61.94    3.45
 -13  12   0   32.42    2.50
 -13  12   0   33.51    2.71
 -13  12   0   31.24    2.27
 -12 -13   0   29.57    2.83
 -13 -13   0    1.46    0.84
 -13 -13   0    0.28    0.69
  13  13   0    2.81    1.22
  14  12   0    5.89    1.50
 -14 -12   0    6.44    1.52
 -14 -11   0    0.91    0.61
 -11  14   0   -0.13    0.67
  14  11   0    0.73    0.70
 -14 -11   0    1.12    0.84
 -14 -10   0   12.68    1.65
 -10  14   0   13.24    1.78
 -10  14   0   13.21    1.63
  14  10   0   15.52    2.14
 -14 -10   0   12.76    1.85
  -9  14   0    4.13    0.82
  -9  14   0    3.30    0.97
   9 -14   0    2.66    1.15
 -14  -9   0    2.49    1.25
  14   9   0    2.99    1.41
 -14  -9   0    4.59    1.13
   8 -14   0  123.71    5.55
  14   8   0  132.65    7.05
   8 -14   0  129.92    6.56
 -14  -8   0  128.40    5.73
 -14  -8   0  124.33    6.04
 -14  -8   0  120.67    6.15
  -8  14   0  106.92    6.27
  -7  14   0    5.49    1.20
  14   7   0    5.79    1.40
 -14  -7   0    3.70    1.38
 -14  -7   0    4.56    1.03
   7 -14   0    5.15    1.08
 -14  -7   0    4.50    1.25
 -14  -6   0    7.74    1.31
   6 -14   0    8.04    1.54
 -14  -6   0    7.11    1.29
  14   6   0    7.85    1.73
   6 -14   0    8.73    1.23
  -6  14   0    8.12    1.38
 -14  -6   0    6.14    1.51
 -14  -5   0    1.39    0.78
   5 -14   0    0.86    0.99
 -14  -5   0    1.04    0.82
   5 -14   0    0.80    0.60
  -5  14   0    0.25    0.68
  -4  14   0  114.54    5.63
 -14  -4   0  111.30    5.57
 -14  -4   0  110.94    5.21
   4 -14   0  108.96    5.94
 -14  -4   0  108.39    5.35
  14   4   0  113.84    6.15
   4 -14   0  108.76    4.98
   3 -14   0    8.25    1.09
 -14  -3   0    7.11    1.36
  14   3   0    6.97    1.40
  -3  14   0    6.43    1.31
   3 -14   0    6.44    1.50
 -14  -3   0    6.24    1.24
 -14  -3   0    8.51    1.19
 -14  -2   0  139.88    6.46
 -14  -2   0  140.33    5.98
 -14  -2   0  139.00    6.41
   2 -14   0  138.45    6.97
  14   2   0  130.10    6.83
  -2  14   0  140.81    6.52
   2 -14   0  134.77    5.87
 -14  -1   0    1.38    0.89
 -14  -1   0    0.94    0.63
   1 -14   0    1.26    0.75
  14   1   0    2.22    1.03
 -14  -1   0    0.43    0.79
   1 -14   0    0.80    0.82
  -1  14   0    1.00    0.90
 -14   0   0    5.15    1.25
 -14   0   0    5.20    0.93
   0 -14   0    4.70    1.22
  14   0   0    3.78    1.13
   0  14   0    5.19    1.13
 -14   0   0    4.25    1.05
   0 -14   0    5.09    0.93
 -14   1   0    2.37    0.76
  -1 -14   0    0.64    1.03
  -1 -14   0    2.25    0.79
   1  14   0    1.67    1.01
 -14   1   0    2.11    1.00
 -14   1   0    1.23    0.97
  14  -1   0    0.93    0.82
 -14   2   0  136.90    6.44
  14  -2   0  132.48    6.73
  -2 -14   0  131.62    6.88
 -14   2   0  137.26    5.73
 -14   2   0  135.87    6.29
   2  14   0  135.04    6.61
  -2 -14   0  140.38    5.99
  14  -3   0    6.94    1.33
 -14   3   0    6.22    1.02
  -3 -14   0    6.38    1.09
  -3 -14   0    8.03    1.64
   3  14   0    6.54    1.33
 -14   3   0    5.57    1.32
 -14   3   0    5.43    1.24
  14  -4   0  111.49    5.84
 -14   4   0  110.89    4.90
 -14   4   0  111.86    5.65
 -14   4   0  111.33    5.40
  -4 -14   0  115.62    6.21
   4  14   0  111.02    5.91
  -4 -14   0  106.18    5.17
 -14   5   0    0.67    0.75
  14  -5   0    1.24    0.79
  -5 -14   0    0.50    0.76
 -14   5   0    1.57    0.92
   5  14   0    0.45    0.82
 -14   6   0    7.21    1.27
  14  -6   0    7.43    1.45
   6  14   0    7.71    1.73
  -6 -14   0    6.19    1.17
  -6 -14   0    8.33    1.55
 -14   6   0    8.75    1.50
  14  -7   0    4.76    1.52
   7  14   0    3.54    1.29
  -7 -14   0    5.63    1.55
  -7 -14   0    4.99    1.24
 -14   7   0    4.86    1.14
 -14   7   0    5.80    1.27
 -14   8   0  120.80    6.10
  -8 -14   0  124.80    5.98
   8  14   0  128.31    6.79
  -8 -14   0  132.36    6.83
 -14   8   0  103.73    5.93
  14  -8   0  128.77    6.41
  -9 -14   0    3.35    1.26
 -14   9   0    4.49    1.18
   9  14   0    2.05    1.28
  14  -9   0    2.54    0.98
 -14   9   0    2.51    0.91
  -9 -14   0    3.82    1.30
 -14  10   0   13.97    1.71
 -14  10   0   15.21    1.63
 -10 -14   0   12.13    1.68
  10  14   0   15.52    2.14
 -10 -14   0   11.61    1.87
  14 -10   0   13.28    1.85
 -11 -14   0    2.19    1.13
 -14  11   0    1.28    0.76
  14 -11   0    3.87    1.10
 -14  11   0    1.80    0.53
 -14  11   0    1.16    0.74
 -12 -14   0    6.78    1.46
 -12 -14   0    7.72    1.32
  12  14   0    8.64    1.70
 -14  12   0    8.37    1.12
 -14  12   0    6.84    1.20
 -10  15   0  131.73    6.38
 -10  15   0  131.91    6.51
 -15 -10   0  107.04    6.17
 -15 -10   0  129.67    6.54
  15  10   0  135.12    7.35
  15   9   0   17.93    2.32
  -9  15   0   18.35    1.90
   9 -15   0   17.73    2.16
 -15  -9   0   18.78    1.97
 -15  -9   0   15.95    2.05
 -15  -8   0   23.18    2.13
   8 -15   0   22.65    2.42
  -8  15   0   22.94    2.21
 -15  -8   0   20.19    2.13
 -15  -8   0   22.11    2.40
  15   8   0   24.02    2.79
 -15  -7   0   19.48    1.91
 -15  -7   0   17.17    2.12
  15   7   0   20.79    2.57
  -7  15   0   17.51    1.98
   7 -15   0   18.51    1.82
 -15  -7   0   18.44    2.04
   7 -15   0   18.80    2.26
  15   6   0   14.00    2.22
 -15  -6   0   14.67    1.63
  -6  15   0   14.17    1.93
   6 -15   0   13.23    1.94
 -15  -6   0   14.68    1.97
 -15  -6   0   14.11    1.77
   6 -15   0   14.80    1.52
   5 -15   0   89.13    4.34
   5 -15   0   91.57    5.39
  -5  15   0   95.56    5.03
  15   5   0   83.83    5.37
 -15  -5   0   90.11    5.06
 -15  -5   0   88.55    4.74
  -4  15   0   34.05    2.70
   4 -15   0   36.91    2.41
 -15  -4   0   38.11    2.89
   4 -15   0   35.57    3.15
  15   4   0   33.26    3.07
 -15  -3   0    4.59    1.49
  15   3   0    3.32    1.26
  -3  15   0    3.37    1.00
   3 -15   0    5.10    1.06
 -15  -3   0    6.14    1.04
   3 -15   0    3.79    1.52
   2 -15   0   37.21    3.79
   2 -15   0   43.55    2.63
  -2  15   0   44.10    3.20
 -15  -2   0   40.59    3.10
  15   2   0   41.84    3.45
   1 -15   0   60.46    3.25
   1 -15   0   55.85    4.70
  -1  15   0   55.55    3.73
   0 -15   0    0.49    0.62
   0  15   0    0.05    0.60
 -15   0   0    0.21    0.70
   0 -15   0   -0.42    0.97
 -15   1   0   57.73    3.96
  -1 -15   0   61.99    3.32
 -15   1   0   56.02    3.72
  -1 -15   0   55.87    4.08
   1  15   0   62.07    4.00
 -15   2   0   44.66    3.37
  -2 -15   0   41.73    2.70
  -2 -15   0   42.71    3.57
   2  15   0   45.00    3.37
 -15   2   0   41.15    3.12
  -3 -15   0    3.92    0.96
  -3 -15   0    4.26    1.52
   3  15   0    2.93    1.16
 -15   3   0    5.17    1.18
  15  -3   0    3.50    1.53
   4  15   0   27.08    3.11
  -4 -15   0   36.47    2.54
  -4 -15   0   35.73    3.25
  15  -4   0   34.71    2.93
 -15   4   0   36.44    2.92
 -15   5   0   88.29    4.74
 -15   5   0   91.73    5.05
   5  15   0   89.06    5.26
  15  -5   0   88.21    5.14
  -5 -15   0   90.07    5.51
  -6 -15   0   13.21    1.63
  15  -6   0   17.30    1.99
   6  15   0   13.88    2.19
 -15   6   0   14.31    1.91
 -15   6   0   13.42    1.68
  -6 -15   0   15.21    2.22
  -7 -15   0   17.80    2.32
  -7 -15   0   17.61    1.89
  15  -7   0   17.42    2.08
 -15   7   0   16.80    1.91
 -15   7   0   18.57    2.08
   7  15   0   19.05    2.44
 -15   8   0   24.54    2.15
  -8 -15   0   19.52    2.45
  -8 -15   0   24.38    2.20
   8  15   0   27.68    2.75
  15  -8   0   22.53    2.32
 -15   8   0   23.60    2.31
  -9 -15   0   18.43    1.96
  15  -9   0   17.41    2.06
 -15   9   0   18.04    1.85
  -9 -15   0   13.40    2.05
 -15   9   0   18.21    1.96
   9  15   0   18.78    2.40
 -10 -15   0  120.00    6.80
 -15  10   0  120.79    5.90
 -10 -15   0  131.82    6.94
  15 -10   0  134.80    6.72
 -15  11   0   53.28    3.52
 -11 -15   0   55.28    4.39
 -11 -15   0   45.48    3.65
 -16  -9   0    7.28    1.53
  16   9   0    9.67    1.74
   8 -16   0    5.10    1.45
 -16  -8   0    8.26    1.61
  -8  16   0   10.46    1.44
 -16  -8   0    2.67    1.45
  16   8   0    7.67    1.59
  16   7   0   42.44    3.75
   7 -16   0   41.46    3.44
 -16  -7   0   41.94    3.59
  -7  16   0   43.11    3.17
 -16  -7   0   41.39    3.02
 -16  -6   0   92.32    5.27
  16   6   0   95.10    5.86
 -16  -6   0   89.71    4.83
  -6  16   0   91.18    5.09
 -16  -5   0    8.24    1.65
   5 -16   0    9.19    1.73
   5 -16   0    8.62    1.59
  -5  16   0   10.10    1.58
 -16  -5   0    7.03    1.61
  16   5   0    9.45    1.67
  16   4   0   17.40    2.23
  -4  16   0   16.02    1.97
   4 -16   0   17.31    1.75
 -16  -4   0   16.85    2.12
   4 -16   0   18.11    2.35
 -16  -4   0   12.81    1.84
 -16  -3   0   39.14    3.10
  16   3   0   35.04    3.30
   3 -16   0   34.74    3.23
 -16  -3   0   38.50    2.95
   3 -16   0   37.31    2.50
  -3  16   0   31.13    3.06
   2 -16   0    9.47    1.85
 -16  -2   0    7.95    1.66
   2 -16   0    9.05    1.27
 -16  -2   0    8.57    1.56
  16   2   0   11.89    1.97
   1 -16   0   38.45    3.43
  16   1   0   35.09    3.16
 -16  -1   0   32.18    2.81
 -16  -1   0   35.61    2.94
   1 -16   0   38.18    2.52
 -16   0   0  162.11    7.51
 -16   0   0  155.56    7.48
  16   0   0  157.86    8.00
   0 -16   0  162.94    8.22
  -1 -16   0   33.41    2.47
  16  -1   0   39.43    3.34
   1  16   0   37.80    3.08
  -1 -16   0   37.88    3.45
 -16   1   0   39.08    3.10
 -16   1   0   42.28    3.13
 -16   2   0    6.22    1.46
  -2 -16   0    7.07    1.79
 -16   2   0    6.79    1.54
   2  16   0    5.94    1.59
  16  -2   0    8.74    1.55
  -3 -16   0   41.49    3.53
   3  16   0   36.02    3.21
 -16   3   0   33.64    2.77
 -16   3   0   36.34    2.98
  -3 -16   0   36.83    2.56
  16  -3   0   36.48    3.22
 -16   4   0   17.74    2.08
  -4 -16   0   13.96    2.17
   4  16   0   15.14    2.09
  -4 -16   0   17.25    1.81
 -16   4   0   14.83    1.85
  16  -4   0   16.86    2.08
   5  16   0    9.06    1.72
 -16   5   0   11.09    1.73
  -5 -16   0   10.31    1.92
 -16   5   0    8.91    1.53
  16  -5   0    9.64    1.56
  -5 -16   0    9.50    1.37
   6  16   0   92.32    5.60
 -16   6   0   88.33    4.87
  -6 -16   0   91.13    4.83
  -6 -16   0   92.96    5.73
  16  -6   0   90.10    5.38
 -16   6   0   96.05    5.25
 -16   7   0   45.41    3.08
  16  -7   0   40.64    3.33
 -16   7   0   44.27    3.29
   7  16   0   36.98    3.45
  -7 -16   0   46.69    3.06
  -7 -16   0   43.06    3.64
 -16   8   0    8.13    1.66
  16  -8   0    9.51    1.57
  -8 -16   0    9.58    1.74
 -16   8   0   10.63    1.47
  -9 -16   0    8.59    1.68
  -9 -16   0   11.84    1.56
 -16   9   0   11.29    1.64
  16  -9   0   10.41    1.65
 -17  -7   0   38.95    3.17
  17   7   0   39.79    3.67
   7 -17   0   40.36    3.41
  -6  17   0   12.04    1.60
  17   6   0   10.03    1.89
 -17  -6   0    8.37    1.69
   5 -17   0   -0.52    0.76
 -17  -5   0   -0.04    0.86
  17   5   0    0.52    0.87
 -17  -5   0    0.46    0.94
  17   4   0    4.10    1.23
  -4  17   0    4.17    1.20
 -17  -4   0    4.58    1.29
 -17  -4   0    3.57    1.49
   4 -17   0    3.47    1.40
  17   3   0  200.18    9.59
   3 -17   0  181.64    9.27
 -17  -3   0  192.09    8.77
  -3  17   0  194.35    8.83
   2 -17   0   14.68    2.09
 -17  -2   0   11.07    1.74
   2 -17   0   13.98    1.69
  17   2   0   12.68    1.95
  -2  17   0   14.26    1.94
 -17  -2   0   11.65    1.74
   1 -17   0    2.19    0.82
  -1  17   0   -0.96    0.75
 -17  -1   0    0.56    1.03
   1 -17   0    0.20    1.00
  17   1   0    1.13    0.89
 -17  -1   0    0.73    1.02
   0 -17   0    1.63    1.05
 -17   0   0    0.02    0.89
   0  17   0    0.05    0.95
 -17   0   0    0.49    0.97
  17   0   0   -0.05    0.63
   0 -17   0    2.27    0.93
  -1 -17   0    0.46    1.02
 -17   1   0    0.11    0.87
   1  17   0   -0.38    0.87
 -17   1   0    1.02    1.16
  17  -1   0    0.39    0.67
  -1 -17   0    0.95    0.80
  -2 -17   0   10.82    1.86
   2  17   0   10.26    1.74
 -17   2   0   12.86    1.86
  17  -2   0   14.08    2.07
  -2 -17   0   11.29    1.46
 -17   2   0   11.83    1.87
 -17   3   0  182.05    8.49
  -3 -17   0  195.24    9.57
 -17   3   0  197.17    8.85
  17  -3   0  192.49    9.15
   3  17   0  185.64    8.96
  17  -4   0    2.82    1.18
   4  17   0    2.02    1.25
  -4 -17   0    1.95    0.98
 -17   4   0    3.03    1.26
 -17   4   0    4.07    1.52
  17  -5   0    0.20    0.40
 -17   5   0    1.23    0.84
  -5 -17   0    1.21    0.77
  -5 -17   0   -0.12    0.99
   5  17   0   -0.83    1.00
 -17   5   0    0.13    0.79
  -6 -17   0    9.60    1.85
 -17   6   0   10.70    1.69
   7  17   0   33.34    3.29
  -7 -17   0   41.24    3.58
  17  -7   0   43.62    3.38
  -7 -17   0   41.75    2.95
 -17   7   0   38.76    2.94
 -17   7   0   37.70    3.11
 -17   8   0    1.31    0.92
 -18  -4   0   12.55    1.95
   4 -18   0   13.93    2.07
  18   4   0   11.76    2.17
 -18  -4   0    9.72    1.95
 -18  -3   0    4.67    1.32
   3 -18   0    9.49    1.87
 -18  -3   0    7.71    1.54
  -3  18   0    3.81    1.31
  18   3   0    7.91    1.69
 -18  -2   0   48.96    3.62
  18   2   0   47.88    3.90
 -18  -2   0   49.31    3.59
  -2  18   0   42.63    3.45
   2 -18   0   50.74    4.11
 -18  -1   0   21.81    2.42
   1 -18   0   25.07    2.86
  18   1   0   25.07    2.80
 -18  -1   0   22.31    2.46
  -1  18   0   20.87    2.39
 -18   0   0   25.93    2.63
 -18   0   0   25.49    2.60
  18   0   0   27.25    2.85
   0  18   0   26.82    2.73
   0 -18   0   26.55    2.97
 -18   1   0   23.60    2.38
  -1 -18   0   23.97    2.87
  18  -1   0   22.70    2.58
 -18   1   0   19.35    2.28
   1  18   0   21.69    2.54
 -18   2   0   44.48    3.36
  18  -2   0   48.26    3.77
  -2 -18   0   47.30    4.00
   2  18   0   33.28    3.59
  -2 -18   0   46.96    3.11
 -18   2   0   46.20    3.52
  -3 -18   0    8.84    1.51
 -18   3   0    6.01    1.59
 -18   3   0    6.83    1.37
  -3 -18   0    8.67    1.79
  18  -3   0   10.28    1.66
  18  -4   0   13.09    1.91
   4  18   0    7.05    1.84
  -4 -18   0   11.16    2.21
 -18   4   0    9.38    1.97
 -18   4   0    9.42    1.69
   5  18   0   29.72    3.02
  -5 -18   0   31.40    2.46
   0   0  -1    0.07    0.41
   0   0   1    0.28    0.43
   0   1  -1    0.06    0.17
  -1   0  -1    0.19    0.21
   1   0  -1    0.07    0.15
   0   1  -1    0.02    0.20
   1   0  -1    0.20    0.16
   0  -1  -1    0.00    0.10
  -1   0  -1   -0.13    0.22
   1   0  -1    0.05    0.14
   1   0  -1    0.35    0.20
  -1   0  -1    0.03    0.18
   0  -1  -1    0.04    0.17
   0  -1  -1    0.24    0.24
   0   1  -1    0.02    0.17
   1   0  -1    0.48    0.20
   0   1  -1    0.01    0.08
   0   1   1    0.17    0.11
   1   0   1   -0.13    0.21
   0  -1   1    0.10    0.18
  -1   0   1   -0.03    0.14
  -1   0   1    0.49    0.21
   0  -1   1   -0.04    0.09
   0   1   1    0.20    0.18
   1   0   1    0.11    0.19
   0   1   1    0.12    0.16
  -1   0   1    0.07    0.19
   0   1   1    0.04    0.22
   1   0   1    0.22    0.17
  -1  -1  -1   23.54    1.01
  -1  -1  -1   22.87    1.17
   1  -1  -1   24.16    1.02
   1  -1  -1   24.05    0.90
   1   1  -1   23.57    1.05
  -1  -1  -1   22.54    0.99
   1  -1  -1   21.79    1.12
   1   1  -1   22.35    1.05
  -1   1  -1   23.65    0.89
   1   1  -1   24.92    1.05
  -1  -1  -1   22.87    1.10
  -1  -1  -1   22.43    1.02
  -1  -1   1   29.93    1.09
  -1  -1   1   31.18    1.10
  -1   1   1   30.29    1.22
  -1  -1   1   31.52    1.17
  -2   0  -1   37.64    1.55
  -2   0  -1   41.23    1.72
   2   0  -1   40.26    1.52
   0   2  -1   42.92    1.41
   2   0  -1   40.17    1.33
   0  -2  -1   39.83    1.66
   0  -2  -1   39.73    1.36
   0  -2  -1   39.09    1.46
   2   0  -1   38.84    1.64
   0  -2   1   38.07    1.66
   0  -2   1   37.20    1.56
   2   0   1   36.65    1.56
  -2   0   1   38.34    1.61
   2   0   1   38.49    1.63
   2   0   1   35.96    1.56
   0  -2   1   36.47    1.39
   0   2   1   36.70    1.64
   0   2   1   36.08    1.35
   0  -2   1   35.81    1.53
   0   2   1   37.12    1.42
  -2   1  -1  194.43   12.48
  -2   1   1  203.45   12.94
   1   2   1  198.89   14.72
  -1  -2   1  195.60   14.16
  -1  -2   1  195.58   14.16
   2  -1   1  197.29   12.52
   2   2  -1  774.60   40.35
  -2  -2  -1  874.95   41.53
   2   2   1  898.89   42.52
  -2   2   1 1000.00   38.28
   2  -2   1  945.25   36.93
  -2  -2   1  889.51   41.80
   3   2  -1  201.29   16.87
  -3  -2  -1  198.82   16.73
   2  -3   1  202.48   11.97
   3   2   1  206.28   17.00
  -3  -2   1  229.74   18.25
  -2   3   1  176.32   12.45
  -1   3  -1  940.44   37.60
  -3  -1  -1  837.72   40.45
   3   1  -1  833.60   40.47
   1  -3  -1  891.38   38.03
   1  -3   1  900.23   36.96
  -3  -1   1  862.68   41.10
   3   1   1  831.81   40.97
  -1   3   1  844.03   37.46
   3   0  -1   -0.13    0.30
   0  -3  -1    0.40    0.37
  -3   0  -1    0.10    0.33
   0  -3  -1    0.00    0.15
   0  -3  -1    0.19    0.14
   0   3  -1    0.53    0.20
   0  -3   1   -0.05    0.26
   3   0   1    0.04    0.29
   3   0   1   -0.02    0.21
   0   3   1    0.28    0.16
   0   3   1    0.07    0.12
   0  -3   1   -0.03    0.17
  -3   0   1    0.06    0.24
   0  -3   1   -0.15    0.12
  -3   0   1    0.63    0.24
   0  -3   1    0.31    0.27
   3   0   1    0.14    0.27
   0   3   1    0.16    0.26
   1   3  -1  849.78   39.69
  -1  -3  -1  879.63   40.35
   3  -1   1  875.23   37.00
  -3   1   1  873.08   37.51
  -1  -3   1  868.87   40.14
   1   3   1  746.61   39.49
  -3   2  -1  198.44    6.77
  -3   2   1  188.19    6.60
   3   3  -1   44.37    2.19
  -3  -3  -1   49.94    2.37
  -3  -3  -1   47.81    2.10
   3  -3  -1   48.23    2.01
   3  -3  -1   50.79    2.30
  -3   3   1   51.29    2.10
   3  -3   1   50.83    2.14
  -3  -3   1   51.89    2.20
  -3   3   1   49.02    1.89
  -3  -3   1   50.65    2.17
   3  -3   1   52.61    2.35
   3  -3   1   51.30    2.02
   3  -3   1   52.70    2.17
  -3   3   1   51.34    1.91
   3   3   1   50.41    1.97
  -3  -3   1   51.77    2.12
   3   3   1   52.01    2.36
   3  -4  -1    8.42    0.55
   3  -4  -1    7.53    0.77
  -4  -3  -1    7.55    0.75
   4   3  -1    8.64    0.83
  -4  -3  -1    8.43    0.85
   3  -4  -1    8.50    0.69
  -4  -3   1    9.88    0.76
   3  -4   1   10.04    0.88
   4   3   1    9.57    0.91
   3  -4   1    8.12    0.62
   4   3   1    8.81    0.64
   3  -4   1    9.38    0.73
  -4  -3   1    9.78    0.78
   3  -4   1    8.94    0.74
  -3   4   1    8.61    0.66
  -4  -3   1   10.10    0.88
   2  -4  -1  208.47    7.23
  -2   4   1  195.19    6.68
  -4  -2   1  196.22    7.03
  -4  -2   1  200.42    6.90
   4   2   1  183.94    7.18
  -4  -2   1  197.06    7.05
   4   2   1  193.44    6.92
  -4  -1  -1  371.90   24.19
   1  -4  -1  370.81   21.03
   4   1  -1  347.32   23.76
   1  -4  -1  370.93   21.03
  -1   4  -1  376.66   20.28
  -4  -1   1  352.69   24.23
   4   1   1  359.38   23.80
   1  -4   1  338.32   19.90
   0  -4  -1   89.15    3.48
   4   0  -1   89.52    2.91
   0  -4  -1   93.46    3.08
  -4   0  -1   90.09    3.30
   4   0  -1   95.15    3.50
  -4   0  -1   93.30    3.45
   0   4  -1   87.80    3.16
   0   4   1   78.54    3.02
   0  -4   1   81.34    3.26
   0   4   1   81.37    2.85
   0  -4   1   83.72    3.14
   0   4   1   82.43    3.42
  -4   0   1   79.21    2.91
   0  -4   1   80.24    3.42
   0   4   1   79.18    2.86
   4   0   1   77.20    3.25
  -4   0   1   82.08    3.31
  -4   0   1   81.45    3.21
   4   0   1   80.49    3.33
  -1  -4  -1  365.26   23.49
  -4   1  -1  359.22   20.64
   1   4  -1  337.91   22.61
   4  -1  -1  355.91   20.83
   1   4   1  349.45   23.36
  -1  -4   1  352.37   23.52
   4  -1   1  311.98   19.98
  -4   2   1  201.33    7.14
  -2  -4   1  202.94    7.15
   2   4   1  205.96    7.35
   4  -2   1  196.30    7.05
  -4   2   1  187.84    6.78
  -2  -4   1  206.20    7.26
   4  -2   1  194.98    7.22
  -3  -4  -1    9.23    0.89
  -3  -4  -1    9.04    0.76
   3   4  -1    9.40    0.89
  -3  -4  -1    8.73    0.56
   4  -3  -1    8.23    0.61
   4  -3  -1    8.44    0.81
   4  -3   1    9.19    0.89
  -4   3   1    8.77    0.71
   4  -3   1    9.58    0.76
   4  -3   1    9.24    0.80
  -3  -4   1    9.63    0.84
  -4   3   1    8.90    0.61
   4  -3   1    9.07    0.69
  -3  -4   1    9.34    0.72
  -3  -4   1   11.12    0.83
   3   4   1    9.18    0.56
   3   4   1    9.73    0.91
   4   4  -1  346.10   28.46
  -4  -4  -1  407.86   30.66
   4  -4   1  393.96   17.85
  -4   4   1  436.59   20.51
  -4  -4   1  388.82   31.23
   4  -4   1  404.10   17.75
  -4  -4   1  388.72   31.23
   4  -5  -1  168.13    6.45
   4  -5  -1  158.58    6.15
   4  -5  -1  160.65    5.90
  -5  -4  -1  170.65    6.57
  -5  -4   1  167.02    6.26
  -4   5   1  171.70    6.11
   4  -5   1  165.32    6.19
   4  -5   1  159.45    6.07
   5   4   1  167.95    6.02
  -5  -4   1  169.10    6.34
   5   4   1  176.03    6.66
  -5  -4   1  166.29    6.15
   3  -5  -1  308.44   11.06
  -5  -2  -1   56.45    2.59
   2  -5  -1   56.19    2.56
  -2   5  -1   54.83    2.23
   2  -5  -1   55.03    2.46
  -5  -2  -1   55.16    2.41
   2  -5  -1   53.54    2.06
   5   2  -1   54.99    2.59
  -5  -2   1   53.61    2.41
  -5  -2   1   52.09    2.22
   2  -5   1   52.24    2.26
   5   2   1   53.83    2.59
  -2   5   1   55.43    2.55
   2  -5   1   52.28    2.36
  -2   5   1   52.93    2.09
  -5  -2   1   53.03    2.40
   5   2   1   51.89    2.31
   2  -5   1   54.12    2.58
   1  -5  -1   28.75    1.21
  -5  -1  -1   27.52    1.46
   5   1  -1   26.35    1.60
   5   1  -1   24.66    1.21
   1  -5  -1   26.86    1.58
  -1   5  -1   25.94    1.32
  -5  -1  -1   27.46    1.59
  -5  -1   1   33.38    1.36
   1  -5   1   28.76    1.68
  -1   5   1   29.93    1.13
  -5  -1   1   28.51    1.54
   5   1   1   29.56    1.63
  -1   5   1   28.12    1.60
   1  -5   1   27.61    1.46
   5   1   1   29.07    1.46
   1  -5   1   29.37    1.36
  -1   5   1   27.75    1.12
  -5  -1   1   28.32    1.47
   0   5  -1    0.39    0.27
   5   0  -1    0.18    0.16
   0  -5  -1    0.48    0.46
   5   0  -1   -0.09    0.27
  -5   0  -1    0.16    0.37
   0  -5  -1    0.06    0.21
  -5   0  -1    0.32    0.39
   0  -5   1   -0.13    0.25
  -5   0   1   -0.16    0.33
   0   5   1   -0.20    0.39
   0  -5   1    0.12    0.26
  -5   0   1    0.11    0.17
   5   0   1    0.17    0.34
   5   0   1    0.17    0.30
   0  -5   1    0.44    0.43
  -5   0   1    0.10    0.28
  -5   1  -1   26.10    1.54
   5  -1  -1   27.25    1.62
  -1  -5  -1   26.24    1.67
  -1  -5  -1   27.81    1.31
   1   5  -1   28.38    1.47
  -5   1  -1   25.89    1.44
  -1  -5   1   30.60    1.53
   5  -1   1   29.90    1.53
  -1  -5   1   30.69    1.69
   1   5   1   28.17    1.62
  -5   1   1   28.56    1.13
  -5   1   1   30.76    1.41
  -5   1   1   28.27    1.51
  -1  -5   1   28.90    1.31
   5  -1   1   28.28    1.50
   5  -2  -1   52.08    2.52
   2   5  -1   57.37    2.45
  -2  -5  -1   56.48    2.26
  -5   2  -1   60.89    2.54
  -2  -5  -1   55.05    2.63
   2   5   1   52.20    2.55
  -2  -5   1   54.41    2.55
  -5   2   1   54.23    2.22
  -5   2   1   50.53    2.39
   5  -2   1   52.53    2.39
  -5   2   1   52.04    2.03
  -2  -5   1   52.28    2.39
   5  -2   1   53.88    2.40
  -2  -5   1   52.31    2.17
   5  -2   1   51.59    2.35
  -5   2   1   50.84    2.01
  -3  -5  -1  315.02   10.57
   5  -4  -1  166.14    6.50
   5  -4  -1  166.19    6.08
   4   5  -1  170.90    6.51
  -4  -5  -1  169.50    6.63
  -4  -5  -1  163.12    6.22
  -4  -5  -1  165.13    5.88
   5  -4   1  181.78    6.52
  -4  -5   1  163.07    6.10
  -4  -5   1  161.31    6.40
   5  -4   1  167.44    6.20
   5  -4   1  175.41    6.53
   4   5   1  175.64    6.67
  -4  -5   1  168.00    6.37
  -5   4   1  161.41    6.24
  -5   4   1  169.77    6.02
   5  -5  -1   45.02    2.36
  -5  -5  -1   46.25    2.23
   5  -5  -1   44.52    2.08
  -5  -5  -1   44.25    1.89
  -5  -5  -1   44.99    2.45
   5   5  -1   47.07    2.43
   5  -5   1   42.65    2.16
  -5  -5   1   42.77    2.07
  -5  -5   1   45.81    2.30
  -5   5   1   41.71    2.09
   5  -5   1   42.10    2.15
   5  -5   1   40.71    2.05
   5   5   1   44.27    2.49
   5  -5   1   41.42    2.34
  -5   5   1   42.03    1.90
  -5  -5   1   41.70    2.23
  -6  -5  -1   86.01    3.36
   5  -6  -1   80.09    3.54
   5  -6  -1   83.31    3.30
  -6  -5  -1   83.72    3.64
  -6  -5  -1   84.40    3.96
   6   5  -1   77.30    3.84
   5  -6  -1   88.54    3.89
   5  -6   1   87.86    3.91
   5  -6   1   77.42    3.55
  -6  -5   1   86.93    3.76
   5  -6   1   84.45    3.52
   5  -6   1   79.66    3.54
  -6  -5   1   83.83    3.51
   6   5   1   84.07    4.01
  -5   6   1   83.83    3.48
   4  -6  -1  177.01    6.94
  -6  -4  -1  188.08    6.81
   6   4  -1  179.84    7.04
  -6  -4  -1  178.41    7.03
   4  -6  -1  177.15    6.35
   4  -6  -1  187.57    6.77
   4  -6   1  175.19    6.67
   4  -6   1  175.78    6.99
   4  -6   1  172.54    6.56
  -6  -4   1  177.61    6.70
  -4   6   1  173.22    6.47
   6   4   1  176.20    6.53
   6   4   1  179.29    7.12
  -6  -4   1  178.13    6.83
  -6  -4   1  179.35    6.67
  -3   6  -1   12.52    0.88
   6   3  -1   10.42    1.06
  -6  -3  -1   11.62    1.24
   3  -6  -1   10.92    0.72
   3  -6  -1    9.93    0.98
   3  -6  -1   11.18    0.99
  -6  -3  -1    9.79    0.91
   6   3   1   11.66    1.22
   6   3   1   12.59    0.93
  -3   6   1   11.63    0.77
  -6  -3   1   11.87    1.00
  -6  -3   1   12.26    1.05
  -6  -3   1   12.66    0.94
   3  -6   1   11.63    1.08
   3  -6   1   12.15    0.89
   3  -6   1   11.20    0.94
  -6  -2  -1    9.20    0.97
   2  -6  -1    8.64    0.91
  -2   6  -1    7.94    0.71
   2  -6  -1    7.70    0.60
   6   2  -1    8.55    0.94
  -6  -2  -1    8.91    0.87
   2  -6   1   11.23    1.03
   2  -6   1   12.00    0.81
  -6  -2   1   11.16    0.78
   6   2   1   11.68    1.15
  -2   6   1   10.98    0.63
   6   2   1   12.34    0.89
  -2   6   1   10.85    1.06
  -6  -2   1   12.84    1.13
   6   1  -1   73.37    3.61
  -6  -1  -1   74.54    3.37
   1  -6  -1   79.53    2.91
   1  -6  -1   80.31    3.44
  -6  -1  -1   77.39    3.36
  -1   6  -1   76.16    3.08
   1  -6   1   80.82    3.73
   6   1   1   74.22    3.21
   1  -6   1   79.46    3.03
   6   1   1   77.69    3.42
  -1   6   1   75.90    2.69
  -6  -1   1   74.04    3.21
  -1   6   1   76.52    2.69
   1  -6   1   74.05    3.18
  -6  -1   1   75.64    2.93
   0   6  -1  845.02   44.44
   6   0  -1  897.10   46.79
  -6   0  -1  948.42   47.21
   0   6   1  973.29   47.16
   0  -6   1  915.94   47.10
   6  -1  -1   76.54    3.48
  -6   1  -1   81.82    3.44
  -6   1  -1   74.17    3.29
   1   6  -1   77.28    3.22
  -1  -6  -1   77.50    2.99
  -6   1   1   74.44    2.79
  -6   1   1   71.32    2.83
   6  -1   1   77.07    3.33
  -1  -6   1   78.80    2.97
  -6   1   1   81.61    3.17
  -6   1   1   76.26    3.47
   6  -1   1   76.38    3.42
  -1  -6   1   76.66    3.36
   6  -2  -1    7.98    0.97
  -6   2  -1    8.99    0.88
  -2  -6  -1    9.04    0.99
  -6   2  -1    8.72    0.90
   2   6  -1    9.13    0.86
  -2  -6  -1    8.14    0.75
   2   6   1   11.73    1.06
  -6   2   1   12.01    0.67
  -2  -6   1   11.16    0.90
   6  -2   1   12.65    1.01
   6  -2   1   11.28    0.92
  -6   2   1   11.47    0.69
  -2  -6   1   11.16    0.73
  -6   2   1   12.06    0.85
   6  -2   1   11.59    0.92
  -6   2   1   11.87    0.95
  -3  -6  -1   10.58    0.88
   6  -3  -1   12.15    1.09
  -3  -6  -1   11.13    1.10
  -6   3  -1   10.67    0.95
   3   6  -1    9.31    1.01
  -3  -6  -1   10.74    0.50
  -6   3   1   11.14    0.72
  -6   3   1   11.33    0.96
  -3  -6   1   12.08    0.82
  -3  -6   1   11.66    1.01
   6  -3   1   13.18    1.01
   6  -3   1   11.32    1.00
  -6   3   1   12.34    0.85
  -3  -6   1   11.44    1.10
   3   6   1    8.76    1.00
   6  -3   1   12.30    0.98
  -4  -6  -1  177.12    7.04
   4   6  -1  194.33    6.99
  -4  -6  -1  178.67    6.11
  -6   4  -1  176.32    6.80
   6  -4  -1  175.02    6.38
  -4  -6  -1  188.74    6.85
   6  -4  -1  179.97    6.93
  -4  -6   1  170.82    6.86
  -6   4   1  158.74    6.61
   6  -4   1  177.58    6.70
   4   6   1  179.97    7.07
   6  -4   1  174.20    6.70
  -4  -6   1  175.76    6.74
  -6   4   1  168.33    6.37
   6  -4   1  180.82    6.64
  -4  -6   1  171.35    6.38
  -5  -6  -1   85.72    3.60
   5   6  -1   87.00    3.90
  -5  -6  -1   81.36    3.93
   6  -5  -1   80.20    3.41
  -5  -6  -1   82.27    3.16
   6  -5  -1   80.01    3.81
  -6   5   1   84.28    3.60
  -5  -6   1   85.51    3.73
   6  -5   1   87.42    3.87
  -5  -6   1   80.51    3.37
  -5  -6   1   83.52    3.79
   5   6   1   81.19    4.00
  -6   5   1   79.96    3.31
   6  -5   1   82.89    3.61
   6  -5   1   81.95    3.59
   6  -5   1   86.10    3.56
   6   6   1  565.86   20.21
   6  -7  -1   17.26    1.23
  -7  -6  -1   17.31    1.45
  -7  -6  -1   15.97    1.59
  -7  -6  -1   16.72    1.13
   7   6  -1   14.53    1.56
   6  -7  -1   14.10    1.38
   6  -7  -1   15.03    1.26
   6  -7   1   18.48    1.39
  -7  -6   1   17.00    1.34
   6  -7   1   17.28    1.35
   6  -7   1   17.81    1.58
  -7  -6   1   16.71    1.42
   7   6   1   15.97    1.61
  -6   7   1   18.24    1.31
  -7  -6   1   17.28    1.42
   6  -7   1   18.21    1.29
   5  -7  -1  188.26    7.48
   5  -7  -1  204.58    7.83
  -7  -5  -1  203.67    7.61
   5  -7  -1  198.93    7.12
  -7  -5  -1  212.77    7.96
   7   5  -1  205.03    7.97
   5  -7   1  197.75    7.41
  -7  -5   1  195.47    7.63
   5  -7   1  193.74    7.46
   5  -7   1  187.94    7.78
  -5   7   1  190.51    7.41
   5  -7   1  192.92    7.52
  -7  -5   1  193.68    7.53
  -7  -5   1  197.66    7.40
  -7  -4  -1  218.51    8.34
   7   4  -1  220.37    8.66
  -4   7  -1  225.68    8.15
  -7  -4  -1  211.69    8.53
  -7  -4  -1  218.51    8.24
   4  -7  -1  217.06    8.50
   4  -7  -1  211.78    7.83
   4  -7  -1  227.86    8.38
  -4   7   1  226.52    7.96
  -7  -4   1  210.48    8.17
   4  -7   1  236.92    8.17
   4  -7   1  225.89    8.23
   7   4   1  222.96    8.27
  -7  -4   1  223.35    8.23
   4  -7   1  237.06    8.70
   7   4   1  221.10    8.73
  -7  -4   1  223.01    8.39
  -7  -3  -1   52.37    2.74
  -7  -3  -1   54.46    2.90
   3  -7  -1   50.62    2.32
  -3   7  -1   54.50    2.57
   3  -7  -1   55.08    2.81
   7   3  -1   52.79    2.95
  -7  -3   1   62.15    2.84
   3  -7   1   61.14    2.72
  -3   7   1   62.00    2.97
   7   3   1   62.88    2.73
   3  -7   1   61.05    2.59
  -7  -3   1   60.83    2.64
   7   3   1   59.93    3.06
  -3   7   1   58.49    2.36
  -7  -3   1   61.67    2.77
   3  -7   1   59.82    3.02
   7   2  -1  343.72   12.40
  -2   7  -1  380.84   11.94
  -7  -2  -1  326.88   12.00
  -2   7   1  332.87   12.24
  -2   7   1  330.86   11.42
  -7  -2   1  329.40   12.02
  -7  -2   1  330.24   11.72
   7   2   1  325.99   12.31
   7   1  -1  207.76    7.93
   1  -7  -1  200.65    7.80
  -7  -1  -1  199.38    7.57
   1  -7  -1  205.51    7.19
  -1   7  -1  221.04    7.49
  -1   7   1  202.59    7.79
  -1   7   1  202.44    6.82
  -7  -1   1  204.75    7.21
   1  -7   1  200.18    7.24
   7   1   1  201.28    7.57
  -7  -1   1  195.77    7.59
   7   1   1  200.22    7.81
  -7  -1   1  208.84    7.59
   1  -7   1  205.62    7.51
   1  -7   1  200.12    7.88
  -7   0  -1    0.07    0.43
   0  -7  -1    0.05    0.30
   0   7  -1    0.32    0.28
   7   0  -1    0.17    0.35
   0  -7  -1   -0.12    0.32
  -7   0  -1    0.10    0.32
  -7   0   1    0.12    0.33
   0  -7   1   -0.17    0.44
   7   0   1   -0.06    0.26
   0   7   1   -0.05    0.32
   0  -7   1   -0.17    0.24
  -7   0   1   -0.49    0.39
   7   0   1    0.44    0.38
  -7   0   1    0.27    0.24
   0  -7   1   -0.25    0.36
  -1  -7  -1  192.55    7.19
   1   7  -1  214.03    7.54
  -7   1  -1  212.30    7.85
  -7   1  -1  203.53    7.52
   7  -1  -1  200.85    7.83
  -1  -7  -1  200.41    7.85
   7  -1   1  195.89    7.55
  -1  -7   1  205.17    7.84
  -7   1   1  196.66    7.00
  -1  -7   1  206.75    7.13
  -1  -7   1  197.93    7.48
  -7   1   1  205.81    7.62
   1   7   1  203.11    7.77
   7  -1   1  194.50    7.84
   2   7  -1  346.40   11.90
  -2  -7  -1  331.94   12.21
  -2  -7   1  327.14   12.11
   2   7   1  325.28   12.08
   7  -2   1  324.62   11.86
  -7   3  -1   51.84    2.73
  -7   3  -1   55.20    2.70
   7  -3  -1   51.06    2.85
  -3  -7  -1   52.17    2.96
   3   7  -1   55.74    2.82
   3   7   1   59.85    3.03
  -3  -7   1   59.87    2.76
  -3  -7   1   62.72    3.03
  -7   3   1   57.64    2.55
  -7   3   1   58.96    2.82
  -7   3   1   56.35    2.33
   7  -3   1   59.19    2.79
   7  -3   1   60.15    2.78
  -3  -7   1   60.65    2.41
   7  -4  -1  217.23    8.58
  -4  -7  -1  216.53    7.54
  -4  -7  -1  220.63    8.76
  -7   4  -1  222.37    8.43
   4   7  -1  233.01    8.60
  -4  -7  -1  225.64    8.21
   7  -4   1  217.43    8.30
  -4  -7   1  210.39    8.54
   7  -4   1  237.27    8.42
  -4  -7   1  220.66    8.36
  -7   4   1  222.98    8.37
  -4  -7   1  219.59    7.93
   4   7   1  220.14    8.72
   7  -4   1  221.39    8.38
  -7   4   1  233.71    7.96
  -7   4   1  233.76    8.26
  -7   5  -1  194.94    7.62
   7  -5  -1  200.82    7.22
  -5  -7  -1  209.58    7.49
   5   7  -1  192.53    7.78
   7  -5  -1  203.81    7.83
  -5  -7  -1  197.66    6.81
  -5  -7  -1  191.54    7.90
   7  -5   1  188.73    7.41
   5   7   1  191.75    7.92
  -5  -7   1  199.88    7.59
  -7   5   1  201.23    7.53
  -5  -7   1  191.56    7.11
   7  -5   1  194.17    7.48
   7  -5   1  195.59    7.53
  -5  -7   1  186.58    7.70
   6   7  -1   16.34    1.61
   7  -6  -1   15.17    1.51
  -6  -7  -1   16.10    1.62
   7  -6  -1   15.50    1.23
  -6  -7  -1   16.74    1.41
  -6  -7  -1   16.40    1.00
  -7   6  -1   16.54    1.47
   7  -6   1   17.89    1.33
   7  -6   1   17.04    1.53
  -7   6   1   17.49    1.18
   7  -6   1   18.86    1.44
  -6  -7   1   18.76    1.47
  -6  -7   1   17.82    1.21
  -6  -7   1   17.44    1.47
   7  -6   1   19.83    1.48
   6   7   1   16.45    1.63
  -7   6   1   20.21    1.45
  -7  -7  -1   10.06    0.82
   7  -7  -1    8.82    1.13
  -7  -7  -1   11.09    1.30
   7  -7  -1    9.54    1.04
   7   7  -1   11.65    1.33
  -7  -7  -1   10.93    1.13
   7   7   1    8.46    1.26
  -7  -7   1    8.08    1.16
   7  -7   1    7.25    0.93
  -7   7   1    7.08    0.95
   7  -7   1    8.13    1.04
   7  -7   1    8.28    1.20
   7  -7   1    8.71    1.06
  -7   7   1    6.92    0.77
  -7  -7   1    8.44    1.13
  -7  -7   1    7.81    0.96
  -8  -7  -1    9.10    1.33
   7  -8  -1    8.08    1.02
  -8  -7  -1    8.20    1.19
   7  -8  -1    8.01    1.12
  -8  -7  -1    8.52    0.85
   8   7  -1    9.03    1.41
  -7   8   1    6.90    0.81
   7  -8   1    6.43    0.86
   7  -8   1    6.65    0.99
   7  -8   1    7.18    1.19
   7  -8   1    9.05    1.09
   8   7   1    6.64    1.32
  -8  -7   1    5.88    1.01
  -8  -7   1    6.96    0.93
  -7   8   1    6.87    0.92
   6  -8  -1   35.26    2.34
   6  -8  -1   33.53    1.83
   8   6  -1   33.18    2.41
  -8  -6  -1   36.35    2.22
   6  -8  -1   41.08    2.26
  -8  -6  -1   32.45    2.39
  -8  -6  -1   34.35    1.87
  -8  -6   1   36.64    2.07
   6  -8   1   33.50    2.09
   8   6   1   32.85    2.47
   6  -8   1   36.58    2.45
  -6   8   1   39.28    2.04
  -8  -6   1   34.54    2.19
   6  -8   1   34.22    2.07
  -8  -6   1   35.23    2.28
   6  -8   1   37.20    2.10
   5  -8  -1   10.05    1.16
  -8  -5  -1   11.06    1.24
  -8  -5  -1   12.61    1.05
   8   5  -1   12.34    1.37
  -8  -5  -1   11.51    1.28
   5  -8  -1   10.80    0.91
   5  -8  -1   10.99    1.16
  -5   8  -1   11.98    1.07
  -8  -5   1   11.52    1.20
   5  -8   1   12.03    1.14
   5  -8   1   10.64    1.03
  -8  -5   1   11.07    1.11
   8   5   1   10.35    1.32
   5  -8   1   10.78    1.24
  -8  -5   1   10.46    1.10
  -8  -4  -1   74.92    3.46
   4  -8  -1   79.87    3.77
   4  -8  -1   74.70    3.21
  -8  -4  -1   75.91    3.86
  -8  -4  -1   77.74    3.72
   8   4  -1   76.00    3.96
   4  -8   1   82.47    3.59
  -4   8   1   88.09    3.98
   4  -8   1   81.06    3.45
  -8  -4   1   84.57    3.60
  -8  -4   1   82.44    3.76
   8   4   1   83.75    4.09
  -4   8   1   79.41    3.24
  -8  -4   1   83.32    3.63
   4  -8   1   83.72    4.02
  -8  -3  -1   33.55    2.01
   3  -8  -1   36.41    1.67
  -8  -3  -1   34.05    2.16
   8   3  -1   33.49    2.25
   3  -8  -1   33.62    2.11
  -3   8  -1   34.14    1.87
  -8  -3   1   33.46    1.84
   3  -8   1   33.60    2.20
  -3   8   1   35.63    2.18
  -8  -3   1   35.16    2.05
   3  -8   1   33.04    1.91
   8   3   1   32.90    1.94
   8   3   1   34.36    2.27
  -3   8   1   31.67    1.52
  -8  -3   1   32.07    1.97
   3  -8   1   37.19    1.95
  -8  -2  -1  389.35   14.67
   2  -8  -1  430.34   14.89
  -8  -2  -1  421.40   14.63
  -2   8   1  420.70   14.86
   8   2   1  406.30   14.93
   2  -8   1  411.02   14.48
  -2   8   1  401.38   13.80
  -8  -2   1  406.54   14.22
  -8  -2   1  415.84   14.62
   8   1  -1   51.41    2.88
   1  -8  -1   55.83    2.91
  -1   8  -1   55.58    2.55
  -8  -1  -1   53.49    2.67
  -8  -1  -1   53.40    2.72
   1  -8  -1   53.12    2.27
  -1   8   1   50.98    2.81
   8   1   1   52.64    2.83
  -8  -1   1   52.08    2.27
  -8  -1   1   52.99    2.61
   8   1   1   52.31    2.64
   1  -8   1   51.78    2.26
  -8  -1   1   50.69    2.62
   1  -8   1   52.50    2.90
   1  -8   1   46.64    2.48
   0  -8  -1  101.66    4.49
   0   8  -1  103.03    4.10
  -8   0  -1  100.15    4.15
   8   0  -1   97.09    4.44
   0  -8  -1  105.70    3.81
  -8   0  -1   98.26    4.20
  -8   0   1   91.75    4.13
   0  -8   1   95.33    3.68
   0   8   1   96.13    4.33
  -8   0   1   99.50    4.09
   0  -8   1   91.85    4.39
   8   0   1   93.39    4.14
  -8   0   1   89.59    3.63
   0  -8   1   89.53    4.00
   8   0   1   92.63    4.28
  -8   1  -1   54.09    2.68
  -1  -8  -1   53.28    2.93
  -8   1  -1   55.84    2.66
  -1  -8  -1   58.58    2.39
   8  -1  -1   55.00    2.95
  -8   1   1   49.29    2.65
   8  -1   1   48.30    2.70
  -1  -8   1   48.76    2.51
   8  -1   1   49.12    2.60
   1   8   1   48.17    2.75
  -8   1   1   52.88    2.54
  -8   1   1   49.96    2.12
  -1  -8   1   52.43    2.19
  -1  -8   1   50.79    2.88
  -8   2  -1  399.19   14.47
  -2  -8  -1  421.22   14.94
   8  -2   1  396.93   14.51
   8  -2   1  420.90   14.61
  -2  -8   1  401.21   14.40
  -2  -8   1  411.42   14.85
  -2  -8   1  405.43   13.89
  -8   2   1  398.91   14.25
   2   8   1  408.80   14.78
   8  -3  -1   29.22    2.08
  -8   3  -1   35.55    2.06
  -3  -8  -1   33.48    1.83
  -8   3  -1   32.19    1.92
   3   8  -1   35.04    2.15
  -3  -8  -1   34.02    2.27
   8  -3   1   32.42    2.02
  -3  -8   1   33.96    1.59
  -3  -8   1   34.93    2.03
   3   8   1   30.66    2.21
  -8   3   1   35.78    2.07
  -3  -8   1   32.76    2.18
  -8   3   1   32.54    1.56
  -8   3   1   33.92    1.84
   8  -3   1   34.37    2.07
  -8   4  -1   81.31    3.65
  -8   4  -1   73.98    3.65
  -4  -8  -1   76.80    4.00
   8  -4  -1   68.44    3.75
  -4  -8  -1   76.53    3.47
   4   8  -1   74.51    3.75
  -8   4   1   79.98    3.42
   8  -4   1   78.38    3.71
  -8   4   1   88.19    3.28
  -8   4   1   86.66    3.79
  -4  -8   1   82.60    3.71
  -4  -8   1   83.68    3.99
   8  -4   1   79.09    3.65
   4   8   1   81.09    4.05
  -4  -8   1   79.25    3.18
  -5  -8  -1   11.06    1.41
  -5  -8  -1   12.59    1.17
   5   8  -1   10.12    1.21
   8  -5  -1   11.60    1.25
  -8   5  -1   11.67    1.21
  -8   5   1   11.49    1.21
  -5  -8   1    9.62    1.07
  -8   5   1   10.23    0.91
  -5  -8   1    9.06    1.22
   8  -5   1   10.27    1.04
   5   8   1    9.71    1.28
  -5  -8   1   10.17    0.88
   8  -5   1   10.49    1.18
  -8   5   1    9.43    0.92
   8  -5   1   11.57    1.18
   8  -6  -1   35.80    2.39
  -6  -8  -1   33.51    2.48
   6   8  -1   37.60    2.45
  -8   6  -1   33.39    2.23
  -6  -8  -1   34.08    1.55
  -6  -8  -1   31.81    2.08
  -8   6   1   32.42    2.13
  -8   6   1   36.65    1.95
  -6  -8   1   34.20    2.18
   8  -6   1   34.95    2.13
   6   8   1   36.33    2.57
  -8   6   1   39.81    1.99
   8  -6   1   32.55    2.08
  -6  -8   1   35.88    1.84
   8  -6   1   37.71    2.26
  -6  -8   1   34.57    2.36
   8  -7  -1    8.60    1.16
  -7  -8  -1    8.44    1.23
   8  -7  -1    9.26    1.04
  -8   7  -1    7.18    1.11
  -7  -8  -1    7.80    0.72
  -7  -8  -1    8.99    1.16
   7   8  -1    8.88    1.24
   8  -7   1    7.66    1.08
   8  -7   1    5.57    0.95
   7   8   1    6.12    1.28
   8  -7   1    6.84    0.95
  -7  -8   1    7.67    1.15
  -7  -8   1    6.61    1.07
  -8   7   1    5.87    0.96
  -8   7   1    6.67    0.83
  -7  -8   1    6.59    0.84
   8  -8  -1  331.21   11.86
  -8  -8  -1  314.42   11.37
   8   8  -1  310.63   12.95
  -8  -8  -1  276.71   12.75
  -8  -8   1  322.74   12.13
  -8   8   1  313.58   11.81
   8  -8   1  337.11   11.95
  -8   8   1  323.22   11.48
  -8  -8   1  322.57   12.23
   8  -8   1  346.98   12.03
   8  -8   1  305.57   11.90
  -8  -8   1  330.12   11.57
   8  -8   1  326.36   12.35
   8  -9  -1   11.44    1.54
  -9  -8  -1   10.97    1.30
  -9  -8  -1   11.99    1.62
   8  -9  -1   11.72    1.28
   9   8  -1   11.10    1.52
  -9  -8  -1   11.16    1.05
   8  -9   1   12.48    1.47
  -8   9   1   12.49    1.07
  -8   9   1   12.46    1.31
   8  -9   1    9.31    1.44
  -9  -8   1   12.21    1.41
  -9  -8   1   12.80    1.46
   9   8   1   12.63    1.68
   8  -9   1   13.54    1.35
  -9  -8   1   12.54    1.22
   8  -9   1   14.46    1.43
  -9  -7  -1   51.72    2.62
  -7   9  -1   55.19    2.92
   9   7  -1   47.42    3.27
  -9  -7  -1   50.58    3.01
   7  -9  -1   54.38    3.02
  -9  -7   1   57.18    3.14
   7  -9   1   52.96    2.92
  -7   9   1   62.27    2.70
   7  -9   1   58.50    3.00
   9   7   1   59.14    3.60
  -7   9   1   58.67    2.85
   7  -9   1   53.68    3.32
  -9  -7   1   56.49    2.90
  -9  -7   1   57.18    3.23
   9   6  -1    1.17    0.72
   6  -9  -1    1.91    0.74
  -9  -6  -1    1.28    0.82
   6  -9  -1    1.94    0.55
   6  -9  -1    1.81    0.74
  -6   9  -1    1.44    0.55
  -9  -6  -1    2.36    0.70
  -9  -6  -1    1.68    0.90
   9   6   1    0.48    0.71
   6  -9   1    0.65    0.61
  -9  -6   1    1.21    0.68
  -9  -6   1    1.02    0.58
  -9  -6   1    0.95    0.70
  -6   9   1    1.70    0.86
   6  -9   1    0.83    0.59
   6  -9   1    1.03    0.83
  -6   9   1    0.19    0.44
  -9  -5  -1  443.40   15.78
   5  -9  -1  436.88   16.15
  -5   9  -1  416.61   15.83
  -9  -5  -1  435.76   16.12
   9   5  -1  455.18   16.65
   5  -9  -1  458.10   15.52
  -9  -5  -1  478.15   16.51
   9   5   1  456.40   16.70
   5  -9   1  451.32   15.94
   5  -9   1  463.96   15.80
  -9  -5   1  428.92   15.89
  -5   9   1  469.71   16.43
  -5   9   1  420.81   15.67
   5  -9   1  464.02   16.57
  -9  -5   1  448.15   16.21
  -9  -5   1  442.58   15.95
   4  -9  -1   22.75    1.75
  -9  -4  -1   22.39    1.80
  -9  -4  -1   21.22    1.62
  -4   9  -1   19.16    1.43
  -9  -4  -1   21.07    1.50
   9   4  -1   20.19    1.80
   4  -9   1   16.73    1.27
  -4   9   1   19.88    1.72
   4  -9   1   16.39    1.61
  -9  -4   1   15.86    1.45
  -9  -4   1   19.70    1.66
  -9  -4   1   19.01    1.42
   4  -9   1   19.28    1.47
   9   4   1   20.11    1.81
  -4   9   1   17.99    1.13
  -9  -3  -1    5.21    0.95
  -9  -3  -1    5.58    0.87
   3  -9  -1    3.07    0.83
   3  -9  -1    4.94    0.62
  -9  -3  -1    3.68    0.78
   9   3  -1    4.35    1.04
  -3   9  -1    4.62    0.68
  -3   9   1    4.20    0.82
   3  -9   1    3.89    0.84
  -9  -3   1    4.54    0.83
  -9  -3   1    5.40    0.82
  -3   9   1    4.85    0.50
  -9  -3   1    4.29    0.71
   9   3   1    5.46    0.86
   3  -9   1    4.30    0.62
   3  -9   1    3.29    0.72
   9   3   1    4.01    0.90
  -2   9  -1   78.33    3.58
   2  -9  -1   75.54    3.26
  -9  -2  -1   80.40    3.84
   9   2  -1   83.26    4.15
   2  -9  -1   83.02    4.02
  -9  -2  -1   81.80    3.81
   2  -9   1   82.09    3.34
   2  -9   1   79.93    3.63
  -2   9   1   80.03    3.94
  -9  -2   1   89.31    3.85
   9   2   1   85.82    4.12
   9   2   1   73.20    3.66
  -9  -2   1   80.07    3.38
   2  -9   1   84.66    4.12
  -9  -2   1   80.78    3.75
  -9  -1  -1   77.07    3.62
   1  -9  -1   73.53    3.18
  -1   9  -1   74.97    3.49
  -9  -1  -1   74.77    3.66
   1  -9  -1   80.10    3.94
   9   1  -1   82.42    4.03
   9   1   1   79.95    3.69
  -1   9   1   79.65    3.85
   1  -9   1   74.28    3.12
  -9  -1   1   76.38    3.19
  -9  -1   1   83.56    3.69
   1  -9   1   79.03    3.53
  -9  -1   1   73.89    3.61
   9   1   1   81.27    3.93
   1  -9   1   79.90    4.00
  -9   0  -1    0.51    0.48
   9   0  -1    0.51    0.66
   0   9  -1   -0.09    0.42
  -9   0  -1    0.90    0.54
   0  -9  -1    0.42    0.64
   0  -9   1   -0.43    0.30
   9   0   1    0.38    0.54
  -9   0   1   -0.05    0.27
   0   9   1    0.34    0.64
   9   0   1   -0.16    0.55
  -9   0   1    0.86    0.63
   0  -9   1    0.81    0.71
   0  -9   1    0.18    0.31
  -9   0   1    0.40    0.62
  -9   1  -1   79.21    3.64
  -1  -9  -1   81.62    4.02
   1   9  -1   80.38    3.64
  -9   1  -1   80.64    3.71
   9  -1  -1   71.63    3.87
  -1  -9  -1   83.50    3.35
  -9   1   1   80.07    3.11
   9  -1   1   77.48    3.72
  -1  -9   1   78.46    3.58
  -9   1   1   79.23    3.75
  -9   1   1   75.37    3.54
   9  -1   1   73.63    3.75
  -1  -9   1   80.08    4.03
   1   9   1   77.54    3.87
  -1  -9   1   77.92    3.08
  -2  -9  -1   80.47    4.12
  -9   2  -1   86.78    3.83
   9  -2  -1   81.99    4.08
  -2  -9  -1   79.09    3.43
  -9   2  -1   77.93    3.68
   2   9  -1   82.28    3.82
   2   9   1   77.58    3.96
  -9   2   1   83.08    3.18
  -9   2   1   78.07    3.58
   9  -2   1   75.27    3.79
  -2  -9   1   79.98    3.68
  -9   2   1   84.10    3.89
  -2  -9   1   82.05    3.15
   9  -2   1   81.13    3.82
  -2  -9   1   78.77    4.04
  -3  -9  -1    4.92    0.74
  -9   3  -1    6.04    0.91
   9  -3  -1    4.77    0.88
  -9   3  -1    4.40    0.87
  -3  -9  -1    5.72    1.00
   3   9  -1    4.33    0.83
  -9   3   1    4.47    0.92
  -9   3   1    4.02    0.56
  -3  -9   1    4.69    0.85
   9  -3   1    4.64    0.81
  -3  -9   1    4.29    0.51
   9  -3   1    4.00    0.75
   3   9   1    4.23    0.90
  -3  -9   1    3.81    0.97
  -9   3   1    4.12    0.74
  -4  -9  -1   18.73    1.84
  -9   4  -1   21.36    1.63
   9  -4  -1   19.14    1.69
  -9   4  -1   18.29    1.52
   4   9  -1   22.91    1.85
  -4  -9  -1   20.10    1.46
   9  -4   1   20.19    1.62
   4   9   1   19.54    1.78
  -4  -9   1   19.53    1.15
  -9   4   1   18.15    1.53
  -9   4   1   18.44    1.18
  -9   4   1   19.38    1.40
  -4  -9   1   17.72    1.47
  -4  -9   1   17.19    1.71
   9  -4   1   18.09    1.59
  -5  -9  -1  446.11   16.66
   5   9  -1  454.61   16.46
   9  -5  -1  440.64   16.46
  -9   5  -1  484.42   16.29
  -5  -9  -1  458.08   15.94
  -9   5  -1  447.49   16.04
   9  -5   1  422.25   16.12
   5   9   1  466.93   16.74
  -9   5   1  442.94   16.16
  -5  -9   1  439.70   16.49
   9  -5   1  456.97   16.16
  -5  -9   1  431.62   16.09
  -9   5   1  454.64   15.79
  -5  -9   1  435.01   15.41
  -9   6  -1    1.66    0.75
  -6  -9  -1    1.55    0.76
  -9   6  -1    1.21    0.68
   9  -6  -1    1.92    0.78
   6   9  -1    1.84    0.94
  -9   6   1    1.19    0.73
  -6  -9   1    0.34    0.69
   9  -6   1    0.89    0.53
   9  -6   1    0.67    0.55
  -9   6   1    0.93    0.60
  -6  -9   1    1.10    0.45
  -7  -9  -1   53.02    3.19
  -9   7  -1   52.75    3.10
  -7  -9  -1   50.85    2.20
  -7  -9  -1   52.95    3.42
   9  -7  -1   47.56    3.16
  -7  -9   1   60.54    2.64
  -7  -9   1   55.33    3.28
  -7  -9   1   55.00    3.12
   9  -7   1   55.46    3.22
   9  -7   1   55.58    3.01
  -9   7   1   57.42    3.07
  -9   7   1   50.62    2.65
   7   9   1   59.84    3.61
  -9   7   1   56.51    2.76
   8   9  -1   11.45    1.67
  -8  -9  -1   11.30    0.91
  -8  -9  -1   12.78    1.71
  -9   8  -1   11.83    1.57
   9  -8  -1    9.55    1.34
  -8  -9  -1   12.11    1.32
   9  -8   1   10.99    1.30
  -8  -9   1   13.10    1.14
   9  -8   1   11.53    1.29
   8   9   1   11.23    1.63
  -8  -9   1   13.07    1.52
  -9   8   1   10.59    1.10
  -9   8   1   13.62    1.25
   9  -8   1   12.61    1.43
  -9   8   1   12.99    1.38
   9   9  -1    6.82    1.28
  -9  -9  -1    5.22    1.28
  -9  -9  -1    6.06    1.18
   9  -9  -1    6.80    1.19
  -9  -9  -1    5.03    0.78
   9  -9  -1    6.77    1.07
  -9   9  -1    5.53    1.16
  -9  -9   1    8.46    1.34
   9  -9   1    9.40    1.23
  -9   9   1    9.24    1.00
   9  -9   1    6.81    1.18
   9   9   1    8.06    1.65
  -9  -9   1    8.71    1.07
  -9  -9   1    8.24    1.30
   9  -9   1    8.19    1.15
  10   9  -1   65.11    4.09
   9 -10  -1   65.34    3.93
   9 -10  -1   65.16    3.55
  -9  10  -1   62.11    3.79
 -10  -9  -1   63.73    4.01
 -10  -9  -1   60.65    3.62
 -10  -9  -1   60.64    2.93
  -9  10  -1   67.16    3.80
 -10  -9   1   62.11    3.20
  -9  10   1   66.05    3.13
  -9  10   1   65.86    3.43
  10   9   1   65.46    4.22
   9 -10   1   65.91    3.56
 -10  -9   1   65.65    3.77
 -10  -9   1   62.69    3.71
   9 -10   1   67.29    3.59
  10   8  -1   76.28    4.49
 -10  -8  -1   82.60    3.56
  -8  10  -1   77.56    3.90
 -10  -8  -1   81.95    4.49
   8 -10  -1   80.84    4.33
 -10  -8  -1   80.44    4.16
   8 -10  -1   83.82    4.08
  -8  10   1   73.94    3.68
 -10  -8   1   78.26    4.21
  10   8   1   75.31    4.57
  -8  10   1   73.72    3.45
 -10  -8   1   76.12    3.69
   8 -10   1   76.58    3.88
   8 -10   1   76.96    4.35
  -8  10   1   79.70    4.35
   8 -10   1   74.03    3.90
  -7  10  -1   53.42    3.06
 -10  -7  -1   58.78    3.58
  10   7  -1   59.54    3.73
 -10  -7  -1   63.94    2.96
 -10  -7  -1   60.43    3.41
   7 -10  -1   59.54    2.82
   7 -10  -1   58.93    3.33
 -10  -7   1   59.64    3.10
  -7  10   1   61.50    3.54
   7 -10   1   55.33    3.04
  -7  10   1   58.41    2.93
   7 -10   1   59.13    3.19
  10   7   1   60.22    3.81
 -10  -7   1   60.42    3.30
   7 -10   1   58.58    3.56
 -10  -7   1   55.26    3.31
 -10  -6  -1  208.73    9.01
 -10  -6  -1  203.70    7.89
   6 -10  -1  211.36    7.70
 -10  -6  -1  210.99    8.40
  -6  10  -1  207.50    8.12
   6 -10  -1  206.50    8.37
  10   6  -1  210.49    8.91
  10   6   1  199.29    8.86
  -6  10   1  195.35    8.46
   6 -10   1  205.53    7.96
 -10  -6   1  208.81    8.44
   6 -10   1  201.34    8.66
 -10  -6   1  201.74    8.16
 -10  -6   1  215.64    8.12
   6 -10   1  209.06    8.16
   5 -10  -1   57.83    3.21
 -10  -5  -1   54.86    2.85
  -5  10  -1   55.16    2.91
 -10  -5  -1   58.40    3.28
 -10  -5  -1   54.92    3.13
  10   5  -1   53.42    3.40
   5 -10  -1   52.46    2.54
  -5  10   1   59.57    2.69
 -10  -5   1   56.30    2.91
  -5  10   1   56.55    3.25
   5 -10   1   52.79    2.71
  10   5   1   52.75    3.46
 -10  -5   1   57.11    3.15
   5 -10   1   53.04    2.90
 -10  -5   1   50.64    2.90
 -10  -4  -1   66.04    3.27
  -4  10  -1   63.80    3.22
   4 -10  -1   65.79    2.89
 -10  -4  -1   63.64    3.53
   4 -10  -1   61.93    3.51
  -4  10   1   65.60    2.70
  -4  10   1   71.33    3.70
 -10  -4   1   65.69    3.35
   4 -10   1   63.08    3.22
   4 -10   1   67.56    3.77
 -10  -4   1   69.16    3.20
   4 -10   1   63.09    2.99
 -10  -3  -1    1.27    0.70
   3 -10  -1    0.98    0.44
 -10  -3  -1    1.19    0.68
  10   3  -1    0.97    0.68
  -3  10  -1    1.21    0.58
   3 -10  -1    1.19    0.77
 -10  -3  -1    1.45    0.85
  -3  10   1    2.23    0.35
 -10  -3   1    2.39    0.80
   3 -10   1    2.34    0.57
  10   3   1    2.10    0.98
   3 -10   1    2.26    0.85
  -3  10   1    2.38    0.90
   3 -10   1    2.03    0.72
 -10  -3   1    1.74    0.76
  10   2  -1   44.06    2.90
   2 -10  -1   44.69    2.79
   2 -10  -1   46.31    2.18
  -2  10  -1   42.27    2.44
 -10  -2  -1   46.32    2.69
 -10  -2  -1   44.59    2.68
 -10  -2   1   46.98    2.67
  10   2   1   46.17    2.89
   2 -10   1   40.90    2.80
  10   2   1   44.96    2.57
   2 -10   1   47.41    2.53
  -2  10   1   45.44    2.82
   2 -10   1   45.18    2.14
 -10  -2   1   47.56    2.27
 -10  -2   1   45.86    2.65
   1 -10  -1  269.96   10.73
  -1  10  -1  282.83   10.25
 -10  -1  -1  272.26   10.38
  10   1  -1  277.83   10.87
   1 -10  -1  278.42    9.82
 -10  -1  -1  274.83   10.41
   1 -10   1  269.68   10.84
  10   1   1  285.35   10.45
  10   1   1  270.63   10.70
  -1  10   1  268.73   10.61
   1 -10   1  270.41    9.66
   1 -10   1  273.62   10.20
 -10  -1   1  275.53   10.33
   0 -10  -1  114.05    4.48
   0 -10  -1  115.42    5.35
 -10   0  -1  110.76    4.93
 -10   0  -1  109.33    4.93
  10   0  -1  104.91    5.23
   0  10  -1  112.52    4.84
 -10   0   1  113.83    5.00
   0 -10   1  112.29    5.37
  10   0   1  116.70    5.26
 -10   0   1  110.50    4.31
 -10   0   1  116.76    4.93
   0 -10   1  112.30    4.23
   0 -10   1  109.77    4.79
   0  10   1  115.63    5.21
  10   0   1  105.31    4.90
 -10   1  -1  255.14   10.06
  -1 -10  -1  270.28    9.68
  10  -1  -1  265.09   10.58
 -10   1  -1  266.37   10.12
   1  10  -1  285.02   10.19
 -10   1   1  253.49    9.94
   1  10   1  279.63   10.52
  -1 -10   1  275.18    9.34
  -1 -10   1  270.81   10.64
 -10   1   1  269.48    9.41
  10  -1   1  260.33   10.33
  -1 -10   1  269.54   10.02
 -10   1   1  263.43   10.20
  10  -1   1  263.08   10.20
   2  10  -1   42.99    2.63
  -2 -10  -1   44.19    2.29
 -10   2  -1   46.64    2.64
  10  -2  -1   46.85    2.91
 -10   2  -1   44.70    2.59
  -2 -10  -1   44.32    2.90
 -10   2   1   47.39    2.71
  -2 -10   1   47.83    2.57
  10  -2   1   46.30    2.74
  10  -2   1   42.71    2.61
   2  10   1   40.88    2.75
  -2 -10   1   46.48    1.97
  -2 -10   1   46.14    2.96
 -10   2   1   47.70    2.55
 -10   2   1   43.53    2.01
  -3 -10  -1    1.80    0.92
 -10   3  -1    1.34    0.74
   3  10  -1    0.71    0.57
 -10   3  -1    1.02    0.64
  10  -3  -1    1.71    0.77
  -3 -10  -1    1.32    0.57
  10  -3   1    2.67    0.89
 -10   3   1    2.38    0.89
 -10   3   1    2.57    0.77
 -10   3   1    2.11    0.50
  -3 -10   1    2.56    0.42
  -3 -10   1    1.73    0.91
   3  10   1    1.97    0.80
  10  -3   1    3.07    0.85
  -3 -10   1    1.17    0.64
   4  10  -1   73.03    3.68
  10  -4  -1   65.60    3.72
 -10   4  -1   67.71    3.42
  -4 -10  -1   61.62    3.13
 -10   4  -1   65.64    3.42
  -4 -10   1   72.38    3.47
  10  -4   1   69.35    3.54
  -4 -10   1   64.38    2.71
   4  10   1   67.27    3.79
 -10   4   1   67.62    3.23
 -10   4   1   66.40    3.49
 -10   4   1   60.53    2.80
  -4 -10   1   64.47    3.72
  -5 -10  -1   52.53    2.82
   5  10  -1   55.11    3.22
 -10   5  -1   55.46    3.06
  10  -5  -1   57.18    3.31
  -5 -10  -1   55.42    3.47
 -10   5   1   53.25    2.75
  10  -5   1   50.17    2.99
 -10   5   1   52.99    2.48
  -5 -10   1   51.30    2.96
   5  10   1   48.31    3.25
  10  -5   1   53.65    3.01
  -5 -10   1   51.40    2.32
 -10   6  -1  227.40    8.44
 -10   6  -1  211.10    8.51
  10  -6  -1  224.90    8.96
  -6 -10  -1  220.61    8.33
  -6 -10  -1  203.27    8.94
 -10   6   1  198.82    8.40
 -10   6   1  210.89    8.06
 -10   6   1  217.48    8.11
  10  -6   1  197.64    8.46
  10  -6   1  215.21    8.48
  -6 -10   1  198.01    8.75
   6  10   1  213.35    9.11
  -6 -10   1  202.90    8.42
  10  -7  -1   54.64    3.47
  -7 -10  -1   59.88    3.25
   7  10  -1   62.08    3.72
 -10   7  -1   64.33    3.30
 -10   7  -1   59.25    3.39
  -7 -10  -1   61.88    3.82
  10  -7   1   59.68    3.31
 -10   7   1   55.73    3.26
   7  10   1   57.49    3.84
 -10   7   1   55.92    2.85
  -7 -10   1   59.46    2.69
  -7 -10   1   59.64    3.61
  10  -7   1   58.44    3.37
  -7 -10   1   60.37    3.35
 -10   7   1   58.73    2.98
 -10   8  -1   83.31    4.25
  -8 -10  -1   82.31    4.09
  10  -8  -1   84.57    4.46
   8  10  -1   83.90    4.55
 -10   8  -1   87.05    4.07
  -8 -10  -1   83.19    4.58
 -10   8   1   78.90    3.67
  -8 -10   1   71.73    4.01
 -10   8   1   75.91    3.98
  -8 -10   1   77.37    4.29
  10  -8   1   74.28    4.05
 -10   8   1   71.15    3.61
  10  -8   1   69.27    4.07
  -8 -10   1   77.54    3.42
   8  10   1   76.25    4.65
  10  -9  -1   66.17    3.98
  -9 -10  -1   65.28    3.66
  -9 -10  -1   70.26    4.15
   9  10  -1   62.31    4.04
 -10   9  -1   67.50    3.82
 -10   9  -1   61.26    3.45
  -9 -10   1   55.61    3.53
  -9 -10   1   64.09    3.05
 -10   9   1   57.72    3.11
   9  10   1   66.29    4.25
  -9 -10   1   67.77    3.92
  10  -9   1   63.08    3.63
 -10   9   1   65.91    3.55
 -10   9   1   65.40    3.34
  10  -9   1   67.79    3.62
 -10  10  -1   40.60    2.92
 -10 -10  -1   36.56    2.75
 -10  10  -1   37.85    2.60
 -10 -10  -1   39.93    3.08
  10  10  -1   36.13    3.04
  10 -10  -1   37.72    3.02
  10 -10   1   42.31    2.78
 -10  10   1   41.90    2.79
 -10 -10   1   41.25    2.49
  10 -10   1   41.87    2.73
 -10 -10   1   41.11    2.86
 -10 -10   1   38.55    2.92
 -10  10   1   44.00    2.70
  10 -10   1   43.93    2.76
  10  10   1   42.47    3.36
 -11 -10  -1    5.48    1.60
 -10  11  -1    6.31    1.32
 -10  11  -1    7.50    1.12
 -11 -10  -1    8.42    1.54
  11  10  -1    8.08    1.68
 -10  11  -1    5.72    1.10
 -10  11   1    6.56    1.13
 -11 -10   1    6.46    1.07
 -10  11   1    7.31    0.97
 -11 -10   1    5.45    1.45
  10 -11   1    6.24    1.17
  11  10   1    5.60    1.67
 -10  11   1    7.58    1.21
 -11 -10   1    5.55    1.18
  10 -11   1    6.88    1.19
 -10  11   1    6.52    1.26
  -9  11  -1  175.52    7.49
 -11  -9  -1  175.91    7.74
 -11  -9  -1  176.09    8.11
 -11  -9  -1  183.27    6.91
  -9  11  -1  185.43    8.07
  11   9  -1  195.08    8.57
   9 -11  -1  174.99    7.57
  11   9   1  178.41    8.50
 -11  -9   1  174.09    7.72
   9 -11   1  172.18    7.43
   9 -11   1  169.55    7.96
 -11  -9   1  174.61    7.81
 -11  -9   1  180.89    7.17
  -9  11   1  174.09    7.97
  -9  11   1  172.40    7.20
  -9  11   1  172.38    6.92
   9 -11   1  181.79    7.55
 -11  -8  -1   13.79    1.72
   8 -11  -1   17.01    1.73
  11   8  -1   14.98    1.90
 -11  -8  -1   15.36    1.87
 -11  -8  -1   15.28    1.39
   8 -11   1   14.54    1.50
 -11  -8   1   15.09    1.65
   8 -11   1   13.50    1.82
  -8  11   1   15.05    1.42
  -8  11   1   17.85    1.92
  -8  11   1   16.57    1.29
 -11  -8   1   13.43    1.62
  11   8   1   16.53    2.19
   8 -11   1   16.31    1.62
 -11  -8   1   13.92    1.55
 -11  -7  -1   92.10    4.73
  -7  11  -1   91.97    4.46
 -11  -7  -1   96.49    4.26
   7 -11  -1   89.88    4.02
 -11  -7  -1  103.48    5.08
  11   7  -1   96.86    5.23
   7 -11  -1   96.79    4.76
   7 -11   1   96.77    4.53
  11   7   1   95.44    5.33
 -11  -7   1   92.81    4.57
 -11  -7   1   92.85    4.41
   7 -11   1   94.32    5.04
   7 -11   1   94.81    4.60
  -7  11   1   91.38    4.85
  -7  11   1   88.47    4.06
 -11  -7   1   89.31    4.70
  11   6  -1   24.35    2.36
 -11  -6  -1   23.20    1.71
 -11  -6  -1   22.14    2.07
   6 -11  -1   21.22    2.14
  -6  11  -1   21.04    1.73
   6 -11  -1   21.59    1.48
 -11  -6  -1   23.31    1.96
  -6  11   1   23.51    1.50
 -11  -6   1   19.97    1.74
 -11  -6   1   22.66    1.83
   6 -11   1   19.32    2.05
 -11  -6   1   22.66    2.04
  -6  11   1   19.40    1.89
   6 -11   1   22.65    1.82
  11   6   1   21.06    2.16
   6 -11   1   20.94    1.59
 -11  -5  -1   21.90    1.72
  11   5  -1   20.31    2.08
   5 -11  -1   19.93    1.41
  -5  11  -1   22.30    1.73
 -11  -5  -1   21.59    1.88
  -5  11   1   24.81    2.05
 -11  -5   1   22.78    1.92
 -11  -5   1   23.60    1.87
 -11  -5   1   23.26    1.75
  11   5   1   22.11    2.16
   5 -11   1   26.30    2.08
   5 -11   1   19.24    2.05
   5 -11   1   22.43    1.58
  11   4  -1   24.62    2.23
  -4  11  -1   23.95    1.80
 -11  -4  -1   25.11    2.06
   4 -11  -1   24.46    1.51
   4 -11  -1   24.57    2.26
 -11  -4  -1   27.31    2.13
 -11  -4  -1   24.22    1.83
   4 -11   1   23.53    1.52
  -4  11   1   23.02    1.22
  -4  11   1   23.44    2.00
   4 -11   1   22.28    1.74
 -11  -4   1   22.10    1.64
 -11  -4   1   23.67    2.01
  11   4   1   21.69    2.10
   4 -11   1   24.84    2.23
 -11  -4   1   24.01    1.91
 -11  -3  -1  449.93   16.02
   3 -11  -1  431.78   16.58
 -11  -3  -1  438.52   15.92
 -11  -3  -1  461.36   15.80
   3 -11  -1  459.33   15.17
  -3  11  -1  438.58   15.64
  11   3  -1  422.45   16.40
   3 -11   1  410.82   15.04
 -11  -3   1  411.50   15.71
   3 -11   1  421.32   15.56
 -11  -3   1  432.98   15.29
   3 -11   1  433.30   16.36
 -11  -3   1  432.27   15.86
  11   3   1  420.57   16.30
 -11  -2  -1    3.59    0.94
  -2  11  -1    4.13    0.84
 -11  -2  -1    3.13    1.00
   2 -11  -1    3.65    1.11
   2 -11  -1    3.15    0.60
  11   2  -1    4.15    1.00
 -11  -2  -1    3.70    1.01
   2 -11   1    3.62    1.09
 -11  -2   1    2.68    0.96
 -11  -2   1    3.06    0.96
 -11  -2   1    2.61    0.63
   2 -11   1    2.87    0.79
  -2  11   1    2.59    0.80
  11   2   1    2.82    1.10
 -11  -1  -1   17.97    1.70
 -11  -1  -1   18.27    1.63
   1 -11  -1   18.10    1.34
  -1  11  -1   16.77    1.55
  11   1  -1   19.61    1.91
  -1  11   1   19.92    1.82
  11   1   1   21.92    2.14
   1 -11   1   21.58    1.21
   1 -11   1   22.57    1.69
   1 -11   1   19.87    2.01
 -11  -1   1   22.74    1.36
 -11  -1   1   22.18    1.81
 -11  -1   1   22.01    1.77
  11   0  -1    0.03    0.53
 -11   0  -1    1.17    0.74
   0 -11  -1    0.14    0.37
   0  11  -1    0.71    0.63
 -11   0  -1    0.82    0.60
   0 -11   1    0.37    0.28
 -11   0   1   -0.25    0.56
 -11   0   1    0.21    0.64
  11   0   1    0.40    0.69
   0 -11   1    0.17    0.56
   0  11   1   -0.12    0.49
  11   0   1   -0.10    0.46
   0 -11   1    0.28    0.64
 -11   0   1    0.30    0.34
 -11   1  -1   18.54    1.65
   1  11  -1   17.11    1.63
  11  -1  -1   19.31    1.88
  -1 -11  -1   18.69    1.37
 -11   1  -1   17.94    1.60
  -1 -11  -1   19.93    1.92
  -1 -11   1   21.30    1.09
  -1 -11   1   20.24    1.64
   1  11   1   21.15    1.88
  11  -1   1   21.00    1.81
  -1 -11   1   20.66    1.96
 -11   1   1   22.46    1.88
 -11   1   1   21.25    1.22
  11  -1   1   20.51    1.89
 -11   1   1   20.69    1.63
  11  -2  -1    4.12    0.97
  -2 -11  -1    3.47    0.94
 -11   2  -1    4.27    0.98
   2  11  -1    3.43    0.81
  -2 -11  -1    3.86    0.73
 -11   2  -1    4.21    0.91
  -2 -11   1    2.62    0.69
  11  -2   1    2.99    0.81
 -11   2   1    2.47    0.81
  11  -2   1    2.59    0.86
  -2 -11   1    2.90    0.42
 -11   2   1    2.36    0.65
 -11   2   1    2.51    0.51
  -2 -11   1    2.07    1.01
  11  -3  -1  419.53   15.96
   3  11  -1  433.43   15.69
  -3 -11  -1  447.79   15.13
 -11   3  -1  428.14   15.47
  -3 -11  -1  416.64   16.07
 -11   3  -1  435.32   15.48
  -3 -11   1  417.72   16.02
  11  -3   1  430.42   15.70
  -3 -11   1  416.54   15.76
 -11   3   1  423.84   15.62
 -11   3   1  413.68   14.56
  11  -3   1  415.82   15.59
 -11   3   1  414.38   15.24
   3  11   1  408.17   15.90
  11  -4  -1   26.05    2.25
  -4 -11  -1   24.02    2.26
 -11   4  -1   25.41    1.93
 -11   4  -1   25.19    1.89
   4  11  -1   27.39    2.19
  -4 -11  -1   26.56    1.77
  -4 -11   1   22.98    2.19
  11  -4   1   23.36    1.92
 -11   4   1   21.75    1.36
 -11   4   1   23.70    1.94
  -4 -11   1   23.80    1.23
  -4 -11   1   23.65    1.92
  11  -4   1   21.86    1.89
 -11   4   1   24.07    1.79
   4  11   1   20.51    2.15
  11  -5  -1   20.88    1.99
 -11   5  -1   19.31    1.76
  -5 -11  -1   21.19    2.18
 -11   5  -1   21.33    1.82
  -5 -11  -1   20.99    1.67
   5  11  -1   22.18    2.19
 -11   5   1   21.95    1.70
 -11   5   1   20.34    1.37
  -5 -11   1   22.64    2.19
  -5 -11   1   22.43    1.21
 -11   5   1   25.94    2.00
  11  -5   1   21.98    1.89
   5  11   1   22.85    2.17
  -5 -11   1   21.97    1.80
  11  -5   1   22.15    1.86
  -6 -11  -1   22.35    2.27
 -11   6  -1   23.20    1.97
  11  -6  -1   20.87    2.03
 -11   6  -1   22.25    1.88
  -6 -11  -1   22.83    1.83
   6  11  -1   22.21    2.08
 -11   6   1   21.60    1.72
 -11   6   1   22.60    1.57
 -11   6   1   21.92    1.89
   6  11   1   24.03    2.30
  11  -6   1   21.84    1.99
  -6 -11   1   22.19    1.93
  -6 -11   1   21.66    2.16
   7  11  -1   92.30    5.01
  -7 -11  -1   94.61    5.20
  11  -7  -1   98.76    5.08
  -7 -11  -1   94.02    4.51
 -11   7  -1   97.61    4.61
 -11   7  -1   96.32    4.73
  -7 -11   1   87.95    4.92
 -11   7   1   97.81    4.73
  11  -7   1   92.15    4.68
  11  -7   1   90.73    4.71
 -11   7   1  100.89    4.60
 -11   7   1   88.52    4.03
   7  11   1   90.66    5.21
  -7 -11   1   91.23    4.66
  -7 -11   1   96.63    3.83
   8  11  -1   14.21    1.78
  -8 -11  -1   16.49    2.03
 -11   8  -1   13.57    1.62
  11  -8  -1   15.20    1.89
 -11   8  -1   13.96    1.54
  -8 -11  -1   17.92    1.71
  -8 -11   1   15.60    1.87
   8  11   1   12.26    1.82
  -8 -11   1   16.13    1.18
 -11   8   1   15.24    1.57
  11  -8   1   15.89    1.66
  -8 -11   1   14.96    1.72
 -11   8   1   13.69    1.28
 -11   8   1   14.96    1.62
  11  -8   1   15.87    1.75
 -11   9  -1  176.61    7.80
 -11   9  -1  189.90    7.60
  -9 -11  -1  181.46    8.32
  11  -9  -1  186.07    8.19
  -9 -11  -1  172.87    7.57
   9  11  -1  176.62    8.22
  11  -9   1  181.60    7.65
  -9 -11   1  174.80    6.77
  -9 -11   1  159.73    7.60
  -9 -11   1  176.74    8.03
 -11   9   1  179.62    7.15
  11  -9   1  182.01    7.75
 -11   9   1  171.57    7.11
   9  11   1  173.16    8.42
 -11   9   1  180.76    7.61
 -11  10  -1    7.35    1.17
  11 -10  -1    6.62    1.30
 -11  10  -1    5.61    1.30
 -10 -11  -1    6.87    1.47
 -10 -11  -1    6.82    1.31
  10  11  -1    6.31    1.53
 -10 -11   1    6.36    1.30
 -11  10   1    6.95    0.99
  11 -10   1    6.07    1.20
  11 -10   1    8.22    1.29
 -11  10   1    6.05    1.25
  10  11   1    5.33    1.89
 -10 -11   1    6.77    1.13
 -11 -11  -1   17.44    1.92
 -11  11  -1   16.26    1.64
  11 -11  -1   15.14    1.86
 -11  11  -1   15.11    1.78
  11  11  -1   19.79    2.35
 -11  11  -1   14.64    1.90
 -11 -11  -1   14.52    2.01
 -11 -11   1   18.56    2.06
 -11 -11   1   14.44    1.76
  11  11   1   14.36    2.10
  11 -11   1   15.41    1.74
 -11  11   1   15.91    1.99
 -11  11   1   16.85    1.69
 -11  11   1   15.56    1.70
 -11  11   1   16.12    1.42
 -11  12  -1    8.95    1.49
 -12 -11  -1   10.53    1.72
 -11  12  -1    8.81    1.31
 -11  12  -1   10.16    1.32
 -11  12  -1   11.68    1.37
  12  11  -1    7.72    1.55
 -12 -11  -1    9.72    1.61
 -12 -11   1    9.12    1.50
 -11  12   1   10.40    1.63
 -12 -11   1    6.78    1.47
 -11  12   1   10.71    1.33
  12  11   1    7.41    1.90
 -12 -10  -1   31.84    2.93
  12  10  -1   31.71    2.96
 -12 -10  -1   30.35    2.65
 -10  12  -1   33.21    2.43
 -10  12  -1   34.72    2.48
 -10  12   1   35.11    2.35
 -10  12   1   33.35    2.86
 -10  12   1   31.14    2.39
 -12 -10   1   36.13    2.77
 -12 -10   1   35.29    2.84
  10 -12   1   34.63    2.55
  12  10   1   35.09    3.20
 -12 -10   1   35.34    2.29
  10 -12   1   35.27    2.52
  12   9  -1   29.10    3.19
 -12  -9  -1   30.25    2.72
   9 -12  -1   31.44    2.53
 -12  -9  -1   31.34    2.05
  -9  12  -1   30.74    2.35
  -9  12   1   29.62    1.92
 -12  -9   1   33.36    2.28
   9 -12   1   31.43    2.79
  -9  12   1   28.83    2.04
   9 -12   1   32.03    2.34
 -12  -9   1   30.41    2.46
  12   9   1   33.22    3.10
  -9  12   1   33.95    2.78
 -12  -9   1   30.85    2.53
   9 -12   1   30.89    2.34
  12   8  -1    1.84    1.16
   8 -12  -1    0.67    0.73
  -8  12  -1    0.88    0.67
 -12  -8  -1    1.02    0.80
 -12  -8  -1    0.45    0.66
 -12  -8  -1    2.14    1.16
  -8  12   1    2.54    1.03
   8 -12   1    1.89    0.85
  -8  12   1    1.61    0.62
  12   8   1    1.29    0.97
 -12  -8   1    0.39    0.95
   8 -12   1    2.03    1.08
 -12  -8   1    1.45    0.82
   8 -12   1    1.79    0.78
 -12  -8   1    2.05    0.83
   7 -12  -1   81.77    3.71
  -7  12  -1   88.43    4.28
 -12  -7  -1   77.76    4.36
 -12  -7  -1   86.72    4.69
  12   7  -1   82.59    4.97
   7 -12  -1   82.10    4.47
 -12  -7  -1   79.44    3.95
  -7  12   1   79.92    4.53
 -12  -7   1   79.34    4.47
   7 -12   1   83.75    4.80
  12   7   1   78.16    4.88
  -7  12   1   86.57    3.70
   7 -12   1   80.75    3.95
 -12  -7   1   83.74    4.51
 -12  -7   1   88.18    4.22
   7 -12   1   82.19    4.18
 -12  -6  -1   95.00    4.98
 -12  -6  -1   99.07    4.53
   6 -12  -1   95.63    4.14
  12   6  -1   94.69    5.37
   6 -12  -1   95.17    4.95
 -12  -6  -1   95.14    4.91
  -6  12  -1   94.31    4.60
   6 -12   1   99.41    5.29
  -6  12   1   98.95    5.09
  -6  12   1   92.90    3.92
   6 -12   1   98.06    4.65
 -12  -6   1  100.18    4.68
 -12  -6   1   95.59    4.55
 -12  -6   1   98.64    4.98
  12   6   1   92.60    5.32
   6 -12   1   98.95    4.35
   5 -12  -1   13.26    1.66
   5 -12  -1   12.84    1.14
 -12  -5  -1   15.51    1.77
 -12  -5  -1   11.98    1.60
 -12  -5  -1   13.73    1.44
  12   5  -1   12.91    1.74
  -5  12  -1   13.07    1.40
 -12  -5   1   14.40    1.59
  12   5   1   13.20    1.89
   5 -12   1   13.63    1.45
   5 -12   1   13.78    1.81
  -5  12   1   14.49    1.71
  -5  12   1   14.71    1.30
   5 -12   1   15.56    1.27
 -12  -5   1   14.57    1.61
 -12  -5   1   14.34    1.37
 -12  -4  -1   59.84    3.29
 -12  -4  -1   62.97    3.95
   4 -12  -1   63.11    2.87
  12   4  -1   59.32    3.84
  -4  12  -1   65.64    3.35
 -12  -4  -1   61.18    3.49
   4 -12  -1   67.33    3.82
 -12  -4   1   57.53    2.98
 -12  -4   1   56.06    3.27
 -12  -4   1   56.19    3.38
  12   4   1   56.19    3.73
   4 -12   1   57.31    3.19
  -4  12   1   57.60    3.54
   4 -12   1   57.03    2.77
   4 -12   1   52.88    3.62
  12   3  -1    9.96    1.61
 -12  -3  -1    6.83    1.31
   3 -12  -1    6.38    0.83
  -3  12  -1    7.98    1.10
 -12  -3  -1    8.32    1.29
   3 -12  -1    5.83    1.25
 -12  -3  -1    7.97    1.21
  -3  12   1    6.06    1.26
   3 -12   1    6.84    0.97
   3 -12   1    6.87    0.76
  12   3   1    5.73    1.20
 -12  -3   1    5.91    1.04
 -12  -3   1    6.40    0.88
 -12  -3   1    5.85    1.23
   3 -12   1    5.91    1.36
 -12  -2  -1   68.22    3.68
 -12  -2  -1   67.84    3.75
   2 -12  -1   70.22    3.19
   2 -12  -1   67.88    4.06
  12   2  -1   72.80    4.23
  -2  12  -1   71.47    3.65
 -12  -2  -1   73.73    3.83
   2 -12   1   73.12    3.61
 -12  -2   1   70.13    3.79
  -2  12   1   71.24    3.98
 -12  -2   1   68.58    3.77
   2 -12   1   70.50    4.23
  12   2   1   67.74    4.11
   1 -12  -1   47.53    2.43
 -12  -1  -1   48.88    2.97
 -12  -1  -1   49.55    3.03
 -12  -1  -1   44.93    2.89
  12   1  -1   49.82    3.34
  -1  12  -1   46.78    2.82
   1 -12  -1   46.01    3.22
  -1  12   1   47.24    3.11
   1 -12   1   48.78    2.78
 -12  -1   1   48.78    2.31
   1 -12   1   50.29    2.12
  12   1   1   46.43    3.16
 -12  -1   1   48.83    2.97
   1 -12   1   48.58    3.32
 -12  -1   1   45.96    2.90
 -12   0  -1  108.82    5.31
   0 -12  -1  113.78    5.75
 -12   0  -1  116.00    5.37
   0  12  -1  115.68    5.27
  12   0  -1  110.17    5.77
   0 -12  -1  113.89    4.76
 -12   0  -1  115.33    5.26
   0 -12   1  116.09    5.14
 -12   0   1  113.50    5.41
   0 -12   1  120.14    4.28
   0  12   1  113.28    5.61
  12   0   1  114.01    5.61
  12   0   1  118.27    5.43
 -12   0   1  122.22    5.36
 -12   0   1  117.37    4.51
   0 -12   1  115.51    5.86
  -1 -12  -1   47.45    3.27
 -12   1  -1   49.13    2.94
   1  12  -1   52.46    2.99
  -1 -12  -1   43.94    2.46
  12  -1  -1   48.78    3.28
 -12   1  -1   48.84    2.92
  -1 -12   1   49.87    2.82
  -1 -12   1   48.20    1.97
 -12   1   1   51.84    2.97
  -1 -12   1   51.64    3.47
  12  -1   1   46.12    2.98
   1  12   1   46.45    3.19
 -12   1   1   47.81    2.19
  12  -1   1   45.41    3.07
 -12   1   1   48.56    3.05
  -2 -12  -1   68.31    4.18
 -12   2  -1   68.87    3.71
   2  12  -1   75.64    3.86
  -2 -12  -1   71.13    3.35
  12  -2  -1   69.42    4.09
 -12   2  -1   76.86    3.76
   2  12   1   64.58    4.00
 -12   2   1   65.67    2.87
  12  -2   1   67.59    3.93
  12  -2   1   63.46    3.71
 -12   2   1   78.58    3.76
  -2 -12   1   64.55    4.12
 -12   2   1   68.97    3.80
  -2 -12   1   73.34    3.69
  12  -3  -1    5.07    1.13
 -12   3  -1    6.02    1.03
  -3 -12  -1    6.13    0.93
   3  12  -1    5.28    1.14
  -3 -12  -1    5.51    1.33
 -12   3  -1    6.65    1.18
   3  12   1    6.14    1.37
  12  -3   1    6.14    1.09
 -12   3   1    7.20    1.15
 -12   3   1    5.69    0.65
  -3 -12   1    4.87    1.30
 -12   3   1    5.38    1.19
  -3 -12   1    6.49    0.99
  12  -3   1    5.93    1.21
  12  -4  -1   58.92    3.73
  -4 -12  -1   61.13    3.93
 -12   4  -1   63.78    3.47
   4  12  -1   62.85    3.69
 -12   4  -1   67.20    3.54
  12  -4   1   63.61    3.64
 -12   4   1   55.48    2.60
   4  12   1   57.93    3.82
  -4 -12   1   55.89    3.73
  -4 -12   1   63.79    3.45
 -12   4   1   60.76    3.27
 -12   4   1   56.33    3.43
  12  -4   1   58.24    3.48
  -5 -12  -1   13.72    1.88
  12  -5  -1   13.55    1.68
 -12   5  -1   12.59    1.63
   5  12  -1   13.69    1.79
 -12   5  -1   14.29    1.58
  -5 -12  -1   12.39    1.36
  -5 -12   1   13.51    1.73
  12  -5   1   15.58    1.64
  12  -5   1   15.10    1.68
 -12   5   1   14.53    1.58
 -12   5   1   16.35    1.52
  -5 -12   1   15.89    1.66
   5  12   1   12.83    1.75
 -12   5   1   14.06    1.16
 -12   6  -1   98.66    4.81
  -6 -12  -1   92.37    5.32
  -6 -12  -1  100.63    4.64
   6  12  -1   93.91    5.09
  12  -6  -1   99.50    5.25
 -12   6  -1   95.51    4.76
 -12   6   1   87.43    4.32
  12  -6   1   99.49    4.90
  -6 -12   1  103.48    5.42
 -12   6   1   98.83    4.91
   6  12   1  101.64    5.48
 -12   6   1   99.02    4.55
  -6 -12   1   94.27    4.80
  12  -6   1   98.74    5.00
  12  -7  -1   80.05    4.71
 -12   7  -1   88.75    4.40
 -12   7  -1   78.02    4.32
   7  12  -1   90.11    4.91
  -7 -12  -1   80.61    4.18
  -7 -12  -1   82.05    4.93
 -12   7   1   83.74    4.45
  -7 -12   1   82.71    4.40
 -12   7   1   83.83    4.06
  12  -7   1   88.12    4.52
   7  12   1   88.34    5.08
  12  -7   1   80.29    4.49
  -7 -12   1   88.40    4.93
  -8 -12  -1    2.57    1.15
   8  12  -1    1.33    1.04
 -12   8  -1    1.18    0.82
  12  -8  -1    1.67    0.87
  -8 -12  -1    1.49    0.89
 -12   8  -1    0.65    0.72
 -12   8   1    2.71    0.86
  12  -8   1    1.75    0.92
 -12   8   1    1.85    0.92
  12  -8   1    1.53    0.69
  -8 -12   1    2.00    1.10
   8  12   1    1.53    1.27
  -8 -12   1    2.09    1.00
  12  -9  -1   31.73    2.79
   9  12  -1   31.75    2.80
 -12   9  -1   31.73    2.41
 -12   9  -1   30.43    2.48
  -9 -12  -1   31.54    2.47
   9  12   1   32.67    3.02
  -9 -12   1   31.58    2.75
 -12   9   1   34.49    2.54
  12  -9   1   30.17    2.51
 -12   9   1   32.28    2.20
  12  -9   1   29.59    2.40
  10  12  -1   33.84    3.08
 -12  10  -1   31.64    2.55
  12 -10  -1   32.96    2.93
 -12  10  -1   36.41    2.78
 -10 -12  -1   33.88    3.04
 -10 -12  -1   34.35    2.66
 -12  10   1   34.70    2.66
  10  12   1   35.63    3.33
  12 -10   1   37.53    2.71
 -12  10   1   36.09    2.29
 -10 -12   1   35.66    2.79
 -12  11  -1    9.27    1.23
 -11 -12  -1    8.00    1.33
 -12  11  -1    8.97    1.36
 -12  11  -1    7.99    1.28
 -12  11  -1    9.12    1.64
  11  12  -1    8.20    1.74
  12 -11  -1    7.72    1.59
 -11 -12  -1    9.74    1.74
 -11 -12   1    9.14    1.55
 -12  11   1    9.51    1.49
  11  12   1    9.33    1.74
 -12  11   1    9.96    1.40
 -11 -12   1    9.65    1.57
 -12 -12  -1  132.16    6.57
  12  12  -1  145.69    7.45
 -12  12  -1  139.27    6.38
 -12  12  -1  134.67    6.43
 -12  12  -1  136.16    6.46
 -12 -12  -1  136.28    7.13
  12  12   1  141.26    7.58
 -12 -12   1  139.04    6.85
 -12 -12   1  141.98    6.81
 -12  12   1  132.90    6.26
 -12  13  -1   37.94    2.65
 -13 -12  -1   37.61    3.16
 -12  13  -1   39.09    3.00
 -12  13  -1   38.37    2.62
  13  12   1   35.18    3.36
 -12  13   1   30.81    2.80
 -13 -12   1   33.55    2.79
 -11  13  -1   82.83    4.88
  13  11  -1   75.66    5.08
 -13 -11  -1   82.49    4.99
 -11  13  -1   78.89    4.27
 -13 -11  -1   79.27    4.67
 -11  13  -1   69.50    4.13
 -13 -11   1   82.46    4.79
 -13 -11   1   83.00    4.68
  13  11   1   90.29    5.59
 -11  13   1   87.24    5.01
 -10  13  -1   14.19    1.58
  13  10  -1   16.15    2.12
 -13 -10  -1   14.43    1.92
 -10  13  -1   16.64    1.68
 -10  13  -1   13.73    1.90
 -13 -10  -1   13.67    1.97
 -10  13   1   16.49    2.06
 -10  13   1   14.45    1.63
 -13 -10   1   16.71    1.73
  13  10   1   16.08    2.37
 -13 -10   1   18.88    2.08
  13   9  -1    9.63    1.67
  -9  13  -1    8.63    1.24
 -13  -9  -1    6.67    1.50
 -13  -9  -1    8.06    1.55
 -13  -9  -1    8.83    1.56
  -9  13  -1   11.41    1.26
   9 -13  -1    7.96    1.51
 -13  -9   1   11.53    1.46
  13   9   1    8.42    1.67
   9 -13   1    8.02    1.63
 -13  -9   1    8.37    1.42
  -9  13   1   10.99    1.69
 -13  -9   1    6.61    1.33
 -13  -8  -1   24.13    2.40
   8 -13  -1   22.48    2.22
  -8  13  -1   23.09    1.97
 -13  -8  -1   25.04    1.95
  13   8  -1   25.14    2.68
 -13  -8  -1   21.86    2.16
 -13  -8   1   24.21    2.25
   8 -13   1   21.68    1.99
   8 -13   1   22.83    1.87
  -8  13   1   20.78    2.24
 -13  -8   1   22.51    1.99
 -13  -8   1   23.31    2.06
  13   8   1   26.32    2.81
   7 -13  -1   64.50    3.92
 -13  -7  -1   64.00    3.96
 -13  -7  -1   57.76    3.35
  -7  13  -1   69.43    3.71
   7 -13   1   60.68    3.54
 -13  -7   1   64.39    3.54
   7 -13   1   61.06    4.12
 -13  -7   1   62.47    3.57
  -7  13   1   66.02    4.01
   7 -13   1   63.57    3.28
 -13  -6  -1    5.30    1.17
   6 -13  -1    6.26    1.27
  -6  13  -1    6.50    1.11
  13   6  -1    5.22    1.52
   6 -13  -1    6.95    0.89
 -13  -6  -1    7.95    1.50
 -13  -6  -1    5.84    1.09
   6 -13   1    4.02    1.27
  -6  13   1    6.27    1.32
   6 -13   1    6.94    0.94
  13   6   1    6.11    1.59
 -13  -6   1    7.88    1.34
 -13  -6   1    6.65    1.04
   6 -13   1    7.07    1.15
 -13  -6   1    5.71    1.36
 -13  -5  -1   19.41    1.85
   5 -13  -1   21.31    1.56
   5 -13  -1   21.16    2.17
  -5  13  -1   19.97    1.86
 -13  -5  -1   18.97    2.09
  13   5  -1   19.62    2.26
 -13  -5  -1   21.16    2.12
 -13  -5   1   30.11    1.96
   5 -13   1   28.16    2.53
  -5  13   1   29.13    2.46
   5 -13   1   27.31    1.71
   5 -13   1   27.52    2.06
 -13  -5   1   27.38    2.37
  13   5   1   28.70    2.61
 -13  -5   1   28.02    2.21
 -13  -4  -1   99.16    5.14
 -13  -4  -1  104.48    4.98
  13   4  -1  104.18    5.74
   4 -13  -1  104.59    4.42
 -13  -4  -1  104.58    5.21
   4 -13  -1  105.08    5.47
  13   4   1  103.33    5.67
   4 -13   1  104.69    4.90
 -13  -4   1  103.63    4.56
 -13  -4   1   99.79    5.03
   4 -13   1  106.30    5.70
 -13  -4   1  100.37    5.18
   4 -13   1  110.60    4.34
  -4  13   1  102.39    5.38
  -3  13  -1    7.78    1.20
 -13  -3  -1    5.89    1.20
 -13  -3  -1    6.34    1.21
   3 -13  -1    7.69    0.91
 -13  -3  -1    5.30    1.32
   3 -13  -1    5.31    1.27
  13   3  -1    5.61    1.26
   3 -13   1    9.02    0.84
 -13  -3   1    6.30    1.31
 -13  -3   1    7.17    1.35
   3 -13   1    7.39    1.15
  -3  13   1    7.34    1.42
   3 -13   1    7.68    1.52
 -13  -3   1    7.88    0.93
  13   3   1    7.89    1.53
   2 -13  -1   21.72    2.24
  -2  13  -1   21.33    1.89
 -13  -2  -1   22.88    2.11
  13   2  -1   22.64    2.29
   2 -13  -1   22.92    1.55
 -13  -2  -1   19.32    1.91
 -13  -2  -1   21.28    2.19
 -13  -2   1   24.15    2.11
 -13  -2   1   25.24    2.05
   2 -13   1   20.79    1.80
   2 -13   1   23.04    2.29
 -13  -2   1   22.19    2.04
  -2  13   1   22.00    2.10
  13   2   1   20.87    2.25
  -1  13  -1  177.99    7.01
 -13  -1  -1  159.06    6.97
 -13  -1  -1  154.56    6.96
   1 -13  -1  159.98    7.46
  13   1  -1  153.80    7.46
   1 -13  -1  162.85    6.27
 -13  -1  -1  159.96    7.24
   1 -13   1  149.67    7.43
  -1  13   1  156.25    7.25
 -13  -1   1  146.93    6.73
   1 -13   1  158.00    6.69
 -13  -1   1  170.71    7.03
  13   1   1  147.56    7.24
 -13  -1   1  151.09    6.93
   0 -13  -1    0.38    0.86
  13   0  -1    0.17    0.77
 -13   0  -1   -0.38    0.65
   0 -13  -1    0.21    0.46
 -13   0  -1   -0.18    0.55
 -13   0  -1   -0.18    0.49
 -13   0   1   -0.50    0.71
   0 -13   1   -0.44    0.51
 -13   0   1    0.66    0.89
   0 -13   1   -0.16    0.59
  13   0   1    0.22    0.83
   0  13   1   -0.35    0.75
  -1 -13  -1  158.45    7.53
  -1 -13  -1  152.79    6.34
  13  -1  -1  163.83    7.56
 -13   1  -1  159.69    6.84
 -13   1  -1  167.99    7.13
   1  13  -1  160.36    7.36
 -13   1  -1  160.66    7.00
  -1 -13   1  152.08    7.56
   1  13   1  169.92    7.49
 -13   1   1  159.90    6.90
  13  -1   1  152.03    7.26
  -1 -13   1  160.46    6.79
 -13   1   1  154.45    7.07
 -13   2  -1   24.41    1.97
  -2 -13  -1   21.80    2.34
   2  13  -1   20.83    1.94
 -13   2  -1   21.15    1.92
  -2 -13  -1   22.42    1.83
  13  -2  -1   21.34    2.18
 -13   2  -1   23.77    2.14
  13  -2   1   22.62    2.16
 -13   2   1   24.16    2.02
   2  13   1   20.93    2.13
  -2 -13   1   23.11    1.93
  13  -2   1   22.64    2.03
 -13   2   1   24.19    2.09
  -2 -13   1   24.01    2.36
 -13   3  -1    7.03    1.27
  -3 -13  -1    7.46    1.04
 -13   3  -1    7.02    1.27
   3  13  -1    7.78    1.46
  -3 -13  -1    6.77    1.34
 -13   3  -1    8.66    1.29
  13  -3  -1    7.61    1.53
 -13   3   1    8.02    1.25
  13  -3   1    7.14    1.22
  -3 -13   1    8.58    1.27
  -3 -13   1    6.79    1.54
  13  -3   1    9.88    1.48
   3  13   1    9.26    1.64
 -13   3   1    8.04    1.42
 -13   4  -1  107.45    5.16
  13  -4  -1  105.02    5.58
 -13   4  -1  109.09    5.44
  -4 -13  -1  105.29    4.77
   4  13  -1  110.18    5.45
  -4 -13  -1  102.46    5.69
 -13   4   1  109.64    5.35
 -13   4   1  100.09    4.90
  -4 -13   1   95.13    4.94
   4  13   1  102.78    5.58
  13  -4   1  102.12    5.23
  13  -4   1  104.03    5.32
  -4 -13   1  104.46    5.71
   5  13  -1   20.28    2.20
  13  -5  -1   19.05    2.11
  -5 -13  -1   21.23    1.79
 -13   5  -1   19.48    1.87
 -13   5  -1   19.10    1.93
  -5 -13  -1   17.63    2.25
  -5 -13   1   28.55    2.22
   5  13   1   27.89    2.56
 -13   5   1   29.07    2.11
  -5 -13   1   28.24    2.65
  13  -5   1   26.12    2.22
 -13   6  -1    6.61    1.26
  -6 -13  -1    7.60    1.49
  13  -6  -1    7.36    1.36
   6  13  -1    7.01    1.51
  -6 -13  -1    7.05    1.14
 -13   6  -1    6.98    1.26
  -6 -13   1    6.94    1.50
 -13   6   1    7.36    1.17
  13  -6   1    6.27    1.33
  -6 -13   1    5.34    1.08
  13  -6   1    7.52    1.33
 -13   6   1    8.11    1.41
   6  13   1    7.16    1.72
 -13   7  -1   62.10    3.66
  13  -7  -1   60.99    4.04
   7  13  -1   56.90    3.94
  -7 -13  -1   63.12    3.53
 -13   7  -1   62.31    3.64
 -13   7  -1   55.47    3.62
  -7 -13   1   65.00    3.80
  13  -7   1   60.94    3.77
  13  -7   1   62.34    3.87
 -13   7   1   63.84    3.80
  -7 -13   1   66.10    4.25
 -13   7   1   63.57    3.41
   7  13   1   65.36    4.74
  -8 -13  -1   24.29    2.58
 -13   8  -1   25.75    2.28
 -13   8  -1   20.83    2.20
 -13   8  -1   21.10    2.04
  13  -8  -1   18.26    2.41
  -8 -13  -1   22.37    2.03
   8  13  -1   22.56    2.34
   8  13   1   24.61    2.63
  13  -8   1   25.05    2.22
  -8 -13   1   23.68    2.22
  13  -8   1   25.05    2.25
 -13   8   1   24.11    1.92
 -13   9  -1    9.82    1.44
  -9 -13  -1   10.11    1.65
   9  13  -1   11.24    1.70
 -13   9  -1   10.27    1.44
  13  -9  -1    8.83    1.53
 -13   9  -1    8.82    1.41
  -9 -13  -1    8.65    1.39
  -9 -13   1    8.29    1.67
  -9 -13   1    8.63    1.37
  13  -9   1   11.78    1.55
   9  13   1    8.89    1.94
 -13   9   1    9.11    1.16
 -13   9   1   10.28    1.62
 -10 -13  -1   14.61    2.08
 -13  10  -1   17.45    1.80
  10  13  -1   16.80    2.21
  13 -10  -1   16.78    2.04
 -13  10  -1   16.95    1.85
 -10 -13  -1   15.61    1.81
 -13  10   1   15.19    1.54
 -13  10   1   14.71    1.86
 -10 -13   1   18.63    2.02
 -10 -13   1   18.02    2.17
  10  13   1   15.80    2.19
 -13  11  -1   76.81    4.45
 -13  11  -1   79.21    4.33
 -13  11  -1   78.77    4.40
  13 -11  -1   72.83    4.74
 -11 -13  -1   77.81    4.48
 -13  11  -1   73.91    4.53
 -11 -13  -1   85.74    5.18
  11  13  -1   78.03    5.08
 -13  11   1   87.05    4.53
  11  13   1   84.66    5.47
 -11 -13   1   84.92    4.93
 -11 -13   1   85.80    4.76
 -13  12  -1   41.03    2.85
 -13  12  -1   38.97    2.66
 -12 -13  -1   31.64    3.29
 -13  12  -1   38.01    2.93
 -13  12   1   37.01    3.05
 -12 -13   1   28.99    3.02
 -12 -13   1   35.94    2.97
  12  13   1   25.94    3.49
 -13  12   1   38.56    2.73
 -13  13  -1   18.32    1.70
  13  13  -1   20.95    2.38
 -13 -13  -1   19.23    2.21
 -13 -13  -1   18.55    2.21
 -13 -13   1   13.13    1.93
 -13  13   1   13.81    1.79
 -12  14  -1    4.60    1.36
 -14 -12  -1    4.03    1.35
 -14 -12  -1    7.62    1.34
  14  12  -1    5.17    1.37
 -11  14  -1    4.34    0.94
 -14 -11  -1    8.65    1.64
  14  11  -1    4.56    1.19
 -14 -11  -1    3.80    1.24
 -11  14  -1    2.65    1.11
 -14 -11   1    3.96    1.38
  14  11   1    6.95    1.66
 -14 -10  -1    4.66    1.18
  14  10  -1    7.70    1.52
 -14 -10  -1    4.65    1.45
 -10  14  -1    2.56    1.03
 -10  14  -1    6.43    1.06
  14  10   1    3.49    1.26
 -10  14   1    6.48    1.30
 -10  14   1    3.17    1.19
 -14 -10   1    6.23    1.43
   9 -14  -1    0.83    0.98
 -14  -9  -1    1.36    0.80
 -14  -9  -1    0.26    0.72
  14   9  -1    0.36    0.63
 -14  -9   1    0.37    0.89
   9 -14   1    0.10    0.69
 -14  -9   1   -1.09    0.76
  -9  14   1    1.65    0.85
  14   9   1    0.79    0.86
   9 -14   1    0.55    0.92
 -14  -8  -1  215.40    9.43
 -14  -8  -1  233.27    9.51
  -8  14  -1  209.10    8.83
  14   8  -1  232.31   10.27
 -14  -8  -1  225.72    8.62
 -14  -8   1  182.74    8.65
   8 -14   1  177.68    8.97
  14   8   1  216.49   10.11
   8 -14   1  220.20    9.82
 -14  -8   1  213.92    9.37
  -8  14   1  215.37    9.51
 -14  -7  -1   10.35    1.55
  14   7  -1    8.89    1.74
 -14  -7  -1    7.94    1.43
  -7  14  -1    8.76    1.26
   7 -14  -1    5.16    1.30
 -14  -7  -1    5.07    1.24
   7 -14   1    6.00    1.51
 -14  -7   1    6.98    1.33
   7 -14   1    6.56    1.19
  14   7   1    7.27    1.56
  -7  14   1    7.30    1.61
 -14  -7   1    4.74    1.46
  14   6  -1    9.31    1.79
   6 -14  -1   10.87    1.66
 -14  -6  -1    7.92    1.40
  -6  14  -1   11.17    1.40
 -14  -6  -1   11.42    1.75
 -14  -6  -1   10.23    1.44
  14   6   1    8.29    1.61
 -14  -6   1    9.23    1.51
   6 -14   1   10.11    1.34
  -6  14   1    8.38    1.54
 -14  -6   1    8.06    1.37
   6 -14   1    7.98    1.48
   5 -14  -1    0.64    0.87
 -14  -5  -1    0.53    0.67
  14   5  -1    0.19    0.78
 -14  -5  -1    0.47    1.02
  -5  14  -1    0.62    0.59
 -14  -5  -1    0.96    0.81
   5 -14   1    0.75    1.06
   5 -14   1    0.43    0.65
  14   5   1    0.06    0.79
 -14  -5   1   -0.24    0.81
 -14  -5   1    1.32    0.96
  -5  14   1    0.21    0.62
 -14  -4  -1  114.67    5.52
  -4  14  -1  109.27    5.21
  14   4  -1  105.16    5.94
   4 -14  -1  111.90    4.63
 -14  -4  -1  112.43    5.30
 -14  -4  -1  106.12    5.45
   4 -14  -1  107.77    5.76
  14   4   1   97.25    5.76
   4 -14   1  102.74    5.88
 -14  -4   1  108.25    5.36
  -4  14   1  107.00    5.60
   4 -14   1  105.92    5.08
 -14  -4   1  102.25    5.37
 -14  -3  -1    8.43    1.42
  -3  14  -1    8.26    1.32
   3 -14  -1    9.36    1.03
  14   3  -1    8.07    1.52
   3 -14  -1    9.69    1.52
 -14  -3  -1    8.62    1.53
 -14  -3  -1    8.30    1.37
   3 -14   1    8.83    1.56
  14   3   1   10.17    1.78
   3 -14   1    9.69    1.25
 -14  -3   1    7.71    1.48
  -3  14   1    9.69    1.46
 -14  -3   1    8.52    1.37
   2 -14  -1  166.88    8.08
  14   2  -1  174.19    8.28
 -14  -2  -1  177.05    7.56
 -14  -2  -1  168.89    7.56
   2 -14  -1  169.71    6.77
 -14  -2  -1  166.70    7.66
  -2  14  -1  177.31    7.50
   2 -14   1  174.41    7.29
  -2  14   1  182.90    8.07
 -14  -2   1  174.88    7.64
 -14  -2   1  177.98    7.66
  14   2   1  163.26    8.03
   2 -14   1  168.97    8.25
   1 -14  -1    8.21    1.63
 -14  -1  -1   10.59    1.40
 -14  -1  -1    9.49    1.33
  14   1  -1    8.85    1.56
   1 -14  -1    7.32    1.01
 -14  -1  -1   10.29    1.60
  -1  14  -1   10.32    1.48
  14   1   1    9.30    1.51
   1 -14   1   10.41    1.65
 -14  -1   1    9.59    1.56
 -14  -1   1    9.38    1.51
   1 -14   1    8.50    1.23
  -1  14   1   10.23    1.71
   0 -14  -1   72.68    4.62
 -14   0  -1   79.73    4.35
   0  14  -1   73.20    4.08
   0 -14  -1   76.30    3.84
 -14   0  -1   76.48    4.09
 -14   0  -1   73.25    4.19
  14   0  -1   73.57    4.61
  14   0   1   75.93    4.57
   0 -14   1   75.70    3.95
   0  14   1   73.26    4.44
 -14   0   1   73.97    4.26
 -14   0   1   78.03    4.20
   0 -14   1   77.41    4.84
 -14   1  -1    9.40    1.35
  -1 -14  -1    9.59    1.16
  14  -1  -1    7.88    1.49
 -14   1  -1    8.89    1.48
   1  14  -1   10.29    1.55
 -14   1  -1    7.63    1.30
  -1 -14  -1    9.22    1.71
  14  -1   1    8.81    1.43
   1  14   1   11.74    1.79
 -14   1   1   10.49    1.63
 -14   1   1    9.12    1.34
  -1 -14   1   13.53    1.98
  -1 -14   1    8.80    1.31
 -14   2  -1  186.87    7.83
 -14   2  -1  181.68    7.57
  -2 -14  -1  180.12    8.47
  14  -2  -1  171.59    8.26
  -2 -14  -1  175.82    7.12
 -14   2  -1  172.61    7.83
   2  14  -1  168.60    7.76
  -2 -14   1  179.62    8.53
  14  -2   1  175.34    8.03
   2  14   1  171.26    8.14
  -2 -14   1  171.48    7.48
 -14   2   1  182.97    7.94
 -14   2   1  179.75    7.65
 -14   3  -1    9.12    1.29
   3  14  -1    6.86    1.46
 -14   3  -1    7.86    1.42
 -14   3  -1    8.12    1.45
  -3 -14  -1   10.84    1.71
  14  -3  -1    8.61    1.50
  -3 -14  -1   10.16    1.25
 -14   3   1    9.48    1.61
  -3 -14   1    8.67    1.31
 -14   3   1    7.46    1.32
   3  14   1    8.47    1.51
  14  -3   1    8.91    1.38
  -3 -14   1    8.17    1.53
  14  -4  -1  105.27    5.79
  -4 -14  -1  107.13    4.91
 -14   4  -1  108.03    5.19
  -4 -14  -1   98.68    6.26
 -14   4  -1  104.00    5.28
   4  14  -1  108.72    5.56
 -14   4  -1  122.68    6.19
   4  14   1  106.48    5.91
  -4 -14   1  111.12    6.02
 -14   4   1  105.09    5.49
  -4 -14   1  102.47    5.16
  14  -4   1   99.37    5.42
 -14   4   1  111.39    5.21
   5  14  -1    0.31    0.94
 -14   5  -1   -0.48    0.64
  -5 -14  -1    0.77    0.66
 -14   5  -1    0.81    0.86
 -14   5  -1    1.03    1.07
  14  -5  -1    0.71    0.94
  -5 -14  -1    0.18    0.69
  14  -5   1    0.65    0.76
  -5 -14   1    0.24    0.55
   5  14   1   -0.24    0.76
 -14   5   1    1.43    0.78
 -14   6  -1    7.95    1.36
  14  -6  -1    9.83    1.74
   6  14  -1    9.83    1.57
  -6 -14  -1   10.87    1.37
  -6 -14  -1   10.39    1.84
 -14   6  -1   10.45    1.61
 -14   6   1    7.57    1.23
   6  14   1   10.26    1.98
  14  -6   1    7.91    1.30
  -6 -14   1    9.28    1.73
 -14   6   1   10.27    1.59
  -6 -14   1    7.23    1.47
  -7 -14  -1    7.18    1.71
 -14   7  -1    8.02    1.39
 -14   7  -1    7.18    1.30
  -7 -14  -1    6.45    1.30
   7  14  -1    6.38    1.50
  14  -7  -1    6.61    1.59
 -14   7  -1    7.53    1.46
 -14   7   1    6.97    1.41
  -7 -14   1    7.58    1.42
  -7 -14   1    8.24    1.53
 -14   7   1    9.49    1.34
  14  -7   1    5.79    1.29
   7  14   1    5.95    1.50
 -14   8  -1  213.85    9.27
  -8 -14  -1  223.31    9.20
   8  14  -1  220.06    9.97
  -8 -14  -1  223.87   10.27
 -14   8  -1  224.28    9.59
   8  14   1  231.94   10.46
 -14   8   1  219.62    9.49
  -8 -14   1  210.96    9.95
  -8 -14   1  221.53    9.49
 -14   8   1  224.53    8.98
  14  -9  -1    1.48    0.89
  -9 -14  -1    0.88    0.67
 -14   9  -1    1.30    0.86
   9  14  -1    1.25    1.04
  -9 -14  -1    0.16    0.82
 -14   9  -1    0.62    0.71
  -9 -14   1    1.68    0.99
 -14   9   1    0.26    0.78
  14  -9   1    0.87    0.80
  -9 -14   1    0.47    0.88
   9  14   1    0.07    0.83
 -10 -14  -1    5.93    1.43
  10  14  -1    9.63    1.70
 -14  10  -1    5.26    1.22
 -10 -14  -1    6.25    1.15
  14 -10  -1    6.15    1.28
 -14  10  -1    4.09    1.01
 -10 -14   1    6.34    1.34
  10  14   1    6.22    1.71
  14 -10   1    5.48    1.36
 -10 -14   1    6.54    1.36
 -14  10   1    5.20    1.31
 -14  11  -1    6.09    1.08
  14 -11  -1    6.46    1.42
 -14  11   1    6.14    1.18
  11  14   1    3.55    1.59
 -11 -14   1    5.40    1.37
 -11 -14   1    4.47    1.05
  12  14  -1    4.03    1.09
 -14  12  -1    8.31    1.22
 -14  12  -1    5.76    1.08
 -12 -14  -1    7.47    1.33
 -14  12   1    7.32    1.35
 -11  15  -1   31.89    3.20
 -15 -11  -1   35.76    3.26
 -11  15   1   37.77    3.03
 -15 -10  -1   31.60    2.76
 -10  15  -1   30.23    2.31
  15  10  -1   35.81    3.30
 -15 -10   1   34.28    2.90
  15  10   1   33.27    3.25
  15   9  -1    5.31    1.48
   9 -15  -1    7.23    1.66
 -15  -9  -1    7.88    1.50
  -9  15   1   11.22    1.57
 -15  -9   1    2.97    1.33
   9 -15   1    7.08    1.33
   9 -15   1   10.37    1.75
  15   8  -1    5.04    1.55
 -15  -8  -1    7.63    1.35
   8 -15  -1    5.68    1.49
 -15  -8  -1    3.86    1.34
 -15  -8  -1    6.82    1.55
 -15  -8   1    7.92    1.58
   8 -15   1    6.97    1.61
  -8  15   1    6.73    1.35
 -15  -8   1    6.37    1.37
  15   8   1    7.01    1.71
   8 -15   1    5.77    1.23
 -15  -7  -1   43.16    3.13
 -15  -7  -1   42.82    2.89
  15   7  -1   46.83    3.77
   7 -15  -1   39.93    3.19
 -15  -7  -1   37.55    3.15
  15   7   1   39.17    3.49
 -15  -7   1   41.32    2.96
   7 -15   1   42.07    2.86
   7 -15   1   42.39    3.51
  -7  15   1   39.04    3.17
 -15  -7   1   40.48    3.18
   6 -15  -1   47.24    3.46
 -15  -6  -1   43.06    3.33
  15   6  -1   46.48    3.81
 -15  -6  -1   44.13    3.00
  -6  15  -1   44.02    2.93
   6 -15   1   42.71    3.59
   6 -15   1   45.95    2.96
 -15  -6   1   42.40    3.26
  15   6   1   43.47    3.63
 -15  -6   1   46.50    3.18
  -6  15   1   42.72    3.27
 -15  -5  -1   79.74    4.44
   5 -15  -1   85.74    4.94
  15   5  -1   83.10    5.20
 -15  -5  -1   77.68    4.25
  -5  15  -1   76.60    4.22
 -15  -5  -1   79.32    4.65
 -15  -5   1   71.18    4.46
   5 -15   1   75.44    4.97
 -15  -5   1   74.96    4.32
  -5  15   1   73.68    4.61
  15   5   1   77.15    5.08
 -15  -4  -1  111.08    5.89
   4 -15  -1  107.00    6.07
 -15  -4  -1  116.75    5.75
  15   4  -1  116.91    6.47
  -4  15  -1  115.96    5.59
   4 -15   1  117.79    6.49
   4 -15   1  116.93    5.46
 -15  -4   1  116.36    5.80
  15   4   1  113.82    6.36
 -15  -4   1  117.60    5.94
  -3  15  -1   22.35    2.05
  15   3  -1   18.97    2.47
 -15  -3  -1   18.83    2.06
   3 -15  -1   18.45    1.56
 -15  -3  -1   22.51    2.05
   3 -15  -1   25.12    2.94
  15   3   1   18.77    2.23
  -3  15   1   18.98    2.46
   3 -15   1   20.79    1.88
 -15  -3   1   18.70    2.03
 -15  -3   1   20.13    2.15
   3 -15   1   20.04    2.46
  15   2  -1    8.69    1.61
   2 -15  -1    7.97    1.84
   2 -15  -1   10.68    1.16
 -15  -2  -1    6.04    1.31
 -15  -2  -1    5.98    1.32
  -2  15  -1    9.18    1.53
 -15  -2  -1    9.25    1.73
 -15  -2   1   12.93    1.79
 -15  -2   1   11.29    1.69
  -2  15   1   13.09    1.87
  15   2   1   12.82    1.93
   2 -15   1   13.48    1.50
   2 -15   1    9.18    1.82
   1 -15  -1   27.67    3.17
 -15  -1  -1   33.57    2.72
 -15  -1  -1   35.50    2.66
  -1  15  -1   33.84    2.64
   1 -15  -1   32.97    2.13
  15   1  -1   33.41    3.03
   1 -15   1   37.38    3.22
   1 -15   1   35.07    2.49
 -15  -1   1   37.67    2.90
  -1  15   1   37.04    3.07
   0 -15  -1    0.37    0.57
 -15   0  -1   -0.49    0.81
 -15   0  -1    1.02    0.76
   0  15  -1    0.41    0.76
  15   0  -1    0.32    0.64
 -15   0  -1   -0.01    0.85
   0 -15  -1   -0.72    0.79
   0 -15   1   -0.40    0.86
   0  15   1    0.32    0.68
  15   0   1    0.78    0.74
 -15   0   1    0.63    0.91
 -15   0   1    0.35    0.69
   0 -15   1    0.15    0.63
  -1 -15  -1   29.09    2.07
   1  15  -1   31.20    2.63
  -1 -15  -1   29.31    2.93
 -15   1  -1   32.81    2.51
  15  -1  -1   31.79    3.01
 -15   1  -1   33.84    2.77
 -15   1  -1   35.01    2.77
  -1 -15   1   32.15    3.01
   1  15   1   34.21    3.01
 -15   1   1   35.81    2.77
 -15   1   1   36.10    2.73
  -1 -15   1   35.51    2.53
  15  -1   1   37.02    3.02
 -15   2  -1    8.17    1.37
  -2 -15  -1    9.76    1.23
 -15   2  -1    6.51    1.29
   2  15  -1    9.38    1.59
 -15   2  -1    8.59    1.56
  15  -2  -1    9.92    1.81
  -2 -15  -1    8.60    1.72
   2  15   1   11.22    2.08
 -15   2   1   13.87    1.85
  -2 -15   1   11.81    2.02
  15  -2   1   11.30    1.76
 -15   2   1   11.26    1.60
  -2 -15   1   13.76    1.53
 -15   3  -1   20.05    1.93
 -15   3  -1   19.81    2.18
  15  -3  -1   17.95    2.20
   3  15  -1   19.61    2.21
 -15   3  -1   19.03    2.06
  -3 -15  -1   22.29    2.46
  -3 -15  -1   21.06    1.75
 -15   3   1   21.52    2.06
 -15   3   1   21.28    2.27
   3  15   1   18.51    2.25
  15  -3   1   18.56    2.06
  -3 -15   1   20.45    2.51
   4  15  -1  115.86    5.92
 -15   4  -1  115.23    5.90
  -4 -15  -1  107.49    6.30
 -15   4  -1  117.48    5.48
 -15   4  -1  106.78    5.62
  -4 -15  -1  116.82    5.25
  15  -4  -1  107.90    6.13
   4  15   1  117.15    6.38
  -4 -15   1  115.85    6.48
 -15   4   1  111.09    5.84
 -15   4   1  114.79    5.55
  -4 -15   1  109.68    5.51
  -5 -15  -1   82.36    5.13
 -15   5  -1   77.97    4.42
 -15   5  -1   80.62    4.62
 -15   5  -1   76.35    4.17
  15  -5  -1   73.60    4.75
  -5 -15  -1   73.20    3.94
  -5 -15   1   80.84    5.11
 -15   5   1   69.41    4.41
  -5 -15   1   76.84    4.32
  15  -5   1   75.09    4.52
   5  15   1   78.62    5.00
 -15   6  -1   39.61    2.83
 -15   6  -1   42.00    3.04
  -6 -15  -1   33.76    2.84
 -15   6  -1   47.67    3.35
  15  -6  -1   47.22    3.57
   6  15  -1   39.42    3.26
  -6 -15  -1   44.64    3.70
  -6 -15   1   45.11    3.65
 -15   6   1   42.22    3.17
  15  -6   1   45.76    3.25
  -6 -15   1   41.55    3.02
   6  15   1   46.36    3.80
   7  15  -1   41.36    3.35
  15  -7  -1   39.54    3.36
  -7 -15  -1   42.64    2.89
 -15   7  -1   44.76    3.25
 -15   7  -1   41.87    3.04
  -7 -15  -1   49.50    3.84
 -15   7   1   37.94    3.04
  -7 -15   1   36.85    3.35
 -15   7   1   40.26    2.79
  -7 -15   1   44.03    3.09
  15  -7   1   40.85    3.10
   7  15   1   38.44    3.55
  -8 -15  -1    7.28    1.25
   8  15  -1    7.42    1.46
  -8 -15  -1    7.77    1.69
 -15   8  -1    8.74    1.45
 -15   8  -1    6.34    1.25
  15  -8  -1    7.26    1.50
 -15   8   1    6.29    1.24
 -15   8   1    7.30    1.42
  -8 -15   1    8.15    1.39
   8  15   1    6.66    1.57
  15  -8   1    8.86    1.48
  -8 -15   1    8.47    1.58
 -15   9  -1    8.63    1.42
   9  15  -1    7.31    1.40
  15  -9  -1   11.79    1.80
  -9 -15  -1    9.02    1.35
 -15   9  -1    9.38    1.40
   9  15   1    6.56    1.99
  15  -9   1   10.54    1.58
 -15   9   1    8.45    1.48
  -9 -15   1    6.21    1.32
  -9 -15   1    9.74    1.69
 -10 -15  -1   26.87    2.67
 -15  10  -1   33.97    2.72
  15 -10  -1   32.68    3.02
 -10 -15  -1   33.68    3.14
  10  15  -1   32.50    3.02
  15 -10   1   35.75    3.46
 -10 -15   1   22.93    2.94
 -10 -15   1   36.64    2.85
  10  15   1   34.20    3.22
 -15  10   1   32.27    2.93
 -15  11  -1   31.87    2.73
 -15  11   1   32.04    2.62
  16   9  -1   28.92    3.32
  -9  16  -1   33.70    2.96
 -16  -9  -1   30.70    2.88
  -9  16   1   27.80    2.63
  16   9   1   28.31    3.37
 -16  -8  -1    2.71    1.02
 -16  -8  -1    1.81    0.97
  16   8  -1    5.64    1.47
   8 -16  -1    4.53    1.24
  -8  16   1    2.80    1.16
   8 -16   1    2.18    1.13
 -16  -8   1    4.45    1.26
 -16  -8   1    1.05    1.09
  16   8   1    6.01    1.59
 -16  -7  -1   24.74    2.35
   7 -16  -1   25.91    2.55
 -16  -7  -1   23.94    2.24
   7 -16   1   22.92    2.64
   7 -16   1   24.83    2.17
 -16  -7   1   22.49    2.26
  -7  16   1   25.89    2.54
   6 -16  -1   98.01    5.70
  16   6  -1  102.14    6.14
 -16  -6  -1   99.92    5.14
 -16  -6  -1  105.08    5.72
 -16  -6   1  101.84    5.58
 -16  -6   1  100.37    5.28
   6 -16   1  102.25    6.05
   6 -16   1  103.43    5.11
  -6  16   1   95.54    5.56
  16   6   1  107.81    6.31
 -16  -5  -1    3.55    1.48
 -16  -5  -1    2.59    1.10
   5 -16  -1    2.73    1.17
  16   5  -1    2.59    1.22
 -16  -5  -1    1.92    0.86
 -16  -5   1    3.80    1.47
  -5  16   1    2.63    1.13
 -16  -5   1    1.49    1.03
   5 -16   1    3.86    1.42
  16   5   1    3.86    1.20
   5 -16   1    4.85    1.13
   4 -16  -1    7.85    1.67
 -16  -4  -1   11.34    1.69
 -16  -4  -1   11.31    1.70
  -4  16  -1   10.84    1.52
 -16  -4  -1   12.63    1.93
  16   4  -1   12.41    2.08
  16   4   1   11.42    1.80
   4 -16   1   11.06    1.96
 -16  -4   1   11.11    1.81
   4 -16   1   12.74    1.65
  -4  16   1   11.90    1.71
 -16  -4   1   10.44    1.74
  -3  16  -1    1.68    0.90
 -16  -3  -1    1.34    1.01
  16   3  -1    1.53    1.03
   3 -16  -1    0.99    0.92
 -16  -3  -1    1.00    0.78
 -16  -3  -1    3.19    1.33
 -16  -3   1    2.35    1.07
 -16  -3   1    1.02    1.03
   3 -16   1    2.41    0.94
   3 -16   1    3.02    1.33
  16   3   1    2.32    1.10
  -3  16   1    2.03    1.11
  -2  16  -1    6.16    1.33
 -16  -2  -1    6.73    1.60
   2 -16  -1    9.48    1.75
 -16  -2  -1    6.14    1.37
  16   2  -1    7.13    1.52
 -16  -2  -1    7.72    1.30
  16   2   1    8.07    1.64
   2 -16   1    8.64    1.66
   2 -16   1    8.38    1.27
 -16  -2   1    7.79    1.62
 -16  -2   1    8.66    1.64
  -2  16   1    7.79    1.68
 -16  -1  -1   24.15    2.34
   1 -16  -1   21.81    2.57
 -16  -1  -1   20.71    2.01
  -1  16  -1   23.32    2.26
  16   1  -1   22.35    2.67
 -16  -1  -1   26.18    2.54
   1 -16   1   23.02    2.73
  -1  16   1   21.13    2.44
  16   1   1   23.88    2.56
 -16  -1   1   21.13    2.21
 -16  -1   1   22.37    2.27
   1 -16   1   19.72    1.97
   0  16  -1  212.64    8.97
 -16   0  -1  192.38    8.51
   0 -16  -1  209.86    9.74
  16   0  -1  206.25    9.71
 -16   0  -1  205.47    9.07
 -16   0  -1  208.88    9.08
   0 -16   1  199.54    9.74
   0  16   1  201.49    9.37
 -16   0   1  203.95    9.05
   0 -16   1  197.38    8.52
  16   0   1  203.72    9.43
 -16   0   1  201.67    8.88
  -1 -16  -1   27.03    2.84
 -16   1  -1   20.47    2.28
  -1 -16  -1   25.95    1.90
  16  -1  -1   24.62    2.69
   1  16  -1   19.96    2.22
 -16   1  -1   25.65    2.49
  16  -1   1   22.55    2.38
   1  16   1   23.09    2.48
 -16   1   1   20.28    2.21
  -1 -16   1   23.96    2.11
  -1 -16   1   20.19    2.61
 -16   1   1   21.69    2.37
   2  16  -1    5.78    1.55
  -2 -16  -1    8.32    1.18
 -16   2  -1    7.86    1.40
  -2 -16  -1    6.21    1.48
  16  -2  -1    5.98    1.40
 -16   2  -1    6.72    1.28
  -2 -16   1    8.74    1.69
  -2 -16   1    7.73    1.29
 -16   2   1    7.02    1.48
   2  16   1    4.67    1.37
 -16   2   1    6.70    1.55
  16  -2   1    8.56    1.54
 -16   3  -1    2.18    1.16
  -3 -16  -1    1.25    1.02
 -16   3  -1    3.13    1.19
   3  16  -1    0.88    0.99
  16  -3  -1    0.86    0.72
  -3 -16  -1    3.91    1.02
 -16   3   1    2.04    1.17
   3  16   1    2.56    1.34
  16  -3   1    1.49    1.01
  -3 -16   1    1.25    0.91
  -3 -16   1    1.76    0.96
 -16   3   1    3.04    1.11
   4  16  -1   10.13    1.77
  -4 -16  -1    7.65    1.72
  16  -4  -1   10.57    1.84
 -16   4  -1   12.27    1.75
 -16   4  -1   11.49    1.68
  -4 -16   1   11.92    1.92
 -16   4   1   13.05    1.74
   4  16   1   10.53    1.82
  16  -4   1   10.21    1.63
  -4 -16   1   11.79    1.60
 -16   4   1   10.86    1.63
 -16   5  -1    2.26    1.04
  -5 -16  -1    1.20    0.91
   5  16  -1    0.48    1.00
 -16   5  -1    4.24    1.15
  -5 -16  -1    3.80    1.01
  16  -5  -1    2.05    0.96
  -5 -16   1    2.00    1.26
 -16   5   1    2.18    1.16
   5  16   1    2.36    1.22
  -5 -16   1    1.74    0.91
 -16   5   1    1.37    1.00
  16  -5   1    5.44    1.25
   6  16  -1  105.74    5.81
  16  -6  -1   95.94    5.92
 -16   6  -1  114.55    5.64
  -6 -16  -1  112.33    6.41
 -16   6  -1  105.44    5.68
  -6 -16   1  102.22    6.18
  -6 -16   1   96.03    5.31
 -16   6   1   98.55    5.20
   6  16   1  103.75    6.22
 -16   6   1  105.33    5.67
  16  -6   1  106.92    5.74
 -16   7  -1   23.56    2.62
  16  -7  -1   24.64    2.62
  -7 -16  -1   24.03    2.95
   7  16  -1   26.35    2.65
 -16   7  -1   25.24    2.35
  -7 -16  -1   24.15    2.15
  16  -7   1   27.96    2.50
   7  16   1   24.43    2.92
  -7 -16   1   30.10    2.95
 -16   7   1   24.92    2.42
 -16   7   1   23.54    2.11
  -7 -16   1   23.52    2.25
  16  -8  -1    3.62    1.09
   8  16  -1    5.10    1.49
 -16   8  -1    6.05    1.23
  -8 -16  -1    3.18    1.35
  -8 -16  -1    4.06    0.99
   8  16   1    1.39    1.02
  16  -8   1    4.03    1.17
  -8 -16   1    4.94    1.08
  -8 -16   1    2.86    1.15
 -16   8   1    0.88    0.98
 -16   9  -1   31.32    2.67
  16  -9  -1   30.69    2.85
 -16   9  -1   28.48    2.50
  -9 -16  -1   33.35    3.47
   9  16  -1   27.97    2.79
  -9 -16  -1   34.00    2.53
  -9 -16   1   30.30    2.95
 -16   9   1   26.76    2.51
  -9 -16   1   32.99    2.67
   9  16   1   28.15    3.43
  16  -9   1   25.08    2.88
   7 -17  -1    5.62    1.53
   7 -17   1    9.65    1.84
  -7  17   1    8.81    1.50
 -17  -7   1    7.05    1.56
 -17  -6  -1   -1.60    0.89
  17   6  -1    0.32    0.68
   6 -17   1    1.63    0.94
 -17  -6   1    0.15    0.90
   6 -17   1    1.55    1.13
 -17  -6   1   -1.08    0.98
  17   6   1    1.38    0.89
  17   5  -1    4.06    1.22
   5 -17  -1    0.77    1.00
 -17  -5  -1    2.58    1.00
 -17  -5  -1    1.32    1.31
 -17  -5   1    0.60    1.21
  -5  17   1    1.94    0.93
  17   5   1    1.57    0.85
   5 -17   1    1.62    0.92
 -17  -4  -1    8.22    1.46
   4 -17  -1    6.19    1.51
 -17  -4   1    6.87    1.77
  17   4   1    9.03    1.96
  -4  17   1    8.81    1.55
   4 -17   1    7.04    1.23
 -17  -4   1    8.18    1.71
   4 -17   1    7.48    1.75
   3 -17  -1  155.13    7.90
  17   3  -1  159.47    8.15
 -17  -3  -1  154.00    7.22
 -17  -3  -1  150.65    7.44
  -3  17   1  144.09    7.47
   3 -17   1  151.64    6.79
  17   3   1  146.86    7.82
 -17  -3   1  150.04    7.30
   3 -17   1  142.51    7.94
 -17  -3   1  150.60    7.27
   2 -17  -1    1.78    1.22
  17   2  -1    0.72    0.94
 -17  -2  -1    0.16    0.75
 -17  -2  -1    1.47    1.01
   2 -17   1    0.33    0.94
 -17  -2   1   -0.69    0.96
  17   2   1    2.21    1.06
   2 -17   1    1.49    0.80
 -17  -2   1    3.72    1.43
  -2  17   1    0.39    0.61
 -17  -1  -1   11.02    1.84
  17   1  -1    8.61    1.68
  -1  17  -1    7.19    1.56
   1 -17  -1    9.89    1.89
 -17  -1  -1   10.40    1.69
  17   1   1   11.20    1.86
   1 -17   1    9.53    1.40
 -17  -1   1    6.17    1.57
 -17  -1   1    6.93    1.57
   1 -17   1    7.00    1.81
  -1  17   1    8.32    1.73
   0 -17  -1   -0.33    0.85
 -17   0  -1   -0.27    0.95
  17   0  -1    0.42    0.63
 -17   0  -1    1.27    0.93
   0 -17   1    0.95    0.73
   0 -17   1    0.80    0.77
   0  17   1    0.79    1.05
  17   0   1   -0.54    0.79
 -17   0   1   -0.67    0.89
 -17   0   1   -0.13    0.92
 -17   1  -1    8.96    1.60
  17  -1  -1    9.12    1.70
  -1 -17  -1    9.43    1.88
   1  17  -1    7.90    1.61
 -17   1  -1   10.01    1.71
 -17   1   1    7.41    1.56
   1  17   1    9.16    1.87
  -1 -17   1    8.36    1.85
  -1 -17   1   10.94    1.40
 -17   1   1    9.33    1.74
  17  -1   1    8.89    1.51
   2  17  -1   -0.40    0.91
  17  -2  -1    0.65    0.77
 -17   2  -1    1.24    0.96
 -17   2  -1   -0.40    0.55
  -2 -17  -1    0.73    0.86
   2  17   1    1.19    0.89
  17  -2   1    1.26    0.84
  -2 -17   1    0.33    0.90
 -17   2   1    0.77    0.82
  -2 -17   1    1.86    0.88
 -17   2   1   -0.22    0.90
  -3 -17  -1  151.46    7.97
  17  -3  -1  140.81    7.64
 -17   3  -1  168.34    7.58
 -17   3  -1  151.50    7.22
   3  17  -1  139.99    7.17
   3  17   1  142.18    7.64
 -17   3   1  165.11    7.18
  17  -3   1  136.98    7.29
  -3 -17   1  153.27    8.07
  -3 -17   1  141.06    6.77
 -17   3   1  138.42    7.19
  17  -4  -1    8.21    1.71
   4  17  -1    5.29    1.42
 -17   4  -1    8.93    1.54
 -17   4   1    7.72    1.47
  17  -4   1    7.74    1.37
  -4 -17   1    8.12    1.31
   4  17   1    4.95    1.47
 -17   5  -1    2.17    1.03
  -5 -17  -1    1.77    1.06
  -5 -17  -1    1.17    1.15
   5  17  -1    0.83    0.96
  17  -5   1    1.01    0.82
  -5 -17   1    1.40    0.83
 -17   5   1    1.17    0.88
 -17   5   1    1.04    0.97
  -5 -17   1    1.59    0.97
  -6 -17  -1    0.88    1.02
 -17   6  -1    0.72    0.77
  -6 -17  -1   -0.43    0.82
  17  -6  -1    0.97    0.92
 -17   6  -1    1.50    1.02
   6  17  -1    2.19    1.08
   6  17   1   -1.76    0.86
 -17   6   1   -1.61    0.72
  -6 -17   1    0.31    0.78
  -6 -17   1    0.46    0.71
 -17   6   1    0.44    0.86
  -7 -17  -1    8.09    1.64
   7  17  -1    4.37    1.29
 -17   7  -1    8.40    1.40
  17  -7  -1    6.28    1.28
 -17   7   1    8.55    1.77
   7  17   1    7.31    1.62
  17  -8   1    7.63    1.96
  -5  18   1    5.03    1.34
 -18  -4  -1   19.41    2.12
   4 -18  -1   15.80    2.40
  -4  18   1   20.83    2.27
 -18  -4   1   14.11    2.30
  18   3  -1    2.70    1.18
 -18  -3  -1    1.53    1.39
   3 -18  -1    2.04    1.10
 -18  -3  -1    1.81    0.88
 -18  -3   1    2.52    1.31
  18   3   1    2.48    1.00
   3 -18   1    2.67    1.34
 -18  -3   1    0.58    0.98
  -3  18   1    2.19    1.01
 -18  -2  -1   11.95    1.97
  18   2  -1   13.56    2.05
 -18  -2  -1   14.12    1.89
   2 -18  -1   11.15    1.95
 -18  -2   1   12.62    1.95
  18   2   1   16.41    2.16
   2 -18   1   16.39    1.91
 -18  -2   1   15.76    2.15
  -2  18   1   13.99    2.07
   2 -18   1   14.61    2.30
   1 -18  -1   36.78    3.47
 -18  -1  -1   39.01    3.18
  18   1  -1   39.88    3.59
 -18  -1  -1   40.45    3.28
  18   1   1   41.66    3.44
  -1  18   1   29.45    3.24
 -18  -1   1   32.61    2.96
   1 -18   1   36.23    3.56
 -18  -1   1   39.38    3.24
 -18   0  -1   78.38    4.89
 -18   0  -1   82.48    4.91
  18   0  -1   88.43    5.57
   0 -18  -1   77.01    5.33
   0 -18   1   85.06    5.61
   0 -18   1   69.96    4.55
  18   0   1   84.76    5.26
 -18   0   1   81.85    4.78
 -18   0   1   78.72    4.88
 -18   1  -1   38.43    3.21
 -18   1  -1   38.90    3.20
  18  -1  -1   36.76    3.47
  -1 -18  -1   36.11    3.48
  -1 -18   1   44.26    3.86
 -18   1   1   43.47    3.31
 -18   1   1   33.73    2.92
  18  -1   1   39.81    3.35
  18  -2  -1   14.01    2.13
 -18   2  -1   15.40    2.02
  -2 -18  -1   15.98    2.37
 -18   2  -1   14.83    2.05
 -18   2   1   12.29    1.83
  -2 -18   1   16.02    2.28
   2  18   1   13.64    2.28
 -18   2   1   11.40    1.98
  18  -2   1   16.03    2.00
 -18   3  -1    0.95    1.02
  18  -3  -1    3.41    1.31
 -18   3  -1    2.34    1.29
  -3 -18   1    3.18    1.40
 -18   3   1    0.85    1.02
  18  -3   1    4.92    1.16
   3  18   1   -0.29    1.17
  -3 -18   1    4.87    1.09
 -18   4  -1   13.30    2.08
  18  -4  -1   19.23    2.66
 -18   4   1   20.94    2.17
  -4 -18   1   22.31    2.01
  18  -4   1   18.71    2.17
   4  18   1   19.14    2.63
   5  18  -1    6.21    1.45
  18  -5   1    6.53    1.47
   0  -1  -2    0.09    0.16
  -1   0  -2    0.60    0.31
   0   1  -2    0.12    0.15
   0  -1  -2   -0.25    0.28
   1   0  -2    0.20    0.23
   1   0  -2   -0.14    0.21
   0   1  -2   -0.02    0.30
  -1   0   2    0.01    0.22
   0   1   2    0.33    0.23
   1   0   2   -0.04    0.22
   0  -1   2    0.17    0.16
   1   0   2    0.22    0.21
   1   0   2   -0.05    0.18
   0  -1   2    0.07    0.24
  -1   0   2    0.22    0.20
   0   1   2    0.47    0.30
   0  -1   2    0.19    0.24
   1   0   2   -0.07    0.20
  -1  -1  -2   92.04    3.79
   1  -1  -2   99.76    3.62
   1  -1  -2   96.46    3.39
   1   1  -2   93.21    3.63
  -1   1  -2  103.79    3.84
   1   1  -2   95.45    3.54
   1  -1  -2   99.02    3.73
  -1  -1   2   98.92    3.58
   1   1   2   99.70    3.52
   1   1   2   94.78    3.65
   1  -1   2   97.95    3.71
  -1   1   2   99.70    3.40
  -1  -1   2   98.70    3.71
  -1  -1   2   97.25    3.60
   1  -1   2   97.92    3.63
   1   1   2   95.09    3.62
  -1   1   2  100.22    3.66
   1  -1   2   96.54    3.39
   2   1  -2   59.33    2.50
   1  -2  -2   56.94    2.61
   1  -2  -2   58.06    2.14
   1  -2  -2   59.27    2.52
  -1   2  -2   55.09    2.63
  -2  -1  -2   56.31    2.70
  -2  -1   2   66.04    2.48
   2   1   2   66.50    2.54
   1  -2   2   66.48    2.77
   2   1   2   64.40    2.47
   1  -2   2   64.15    2.60
   2   1   2   65.91    2.58
  -1   2   2   66.67    2.49
  -1   2   2   65.15    2.14
   1  -2   2   69.72    2.59
  -2  -1   2   67.52    2.62
   2   0  -2   57.29    2.35
   0  -2  -2   54.31    2.03
  -2   0  -2   60.22    2.53
   0  -2  -2   57.24    2.01
   2   0  -2   55.16    2.13
   0  -2  -2   54.51    2.39
   0   2  -2   56.52    1.99
   0  -2   2   58.04    2.46
   0   2   2   55.10    2.39
   0  -2   2   55.98    2.00
   2   0   2   55.59    2.23
   2   0   2   55.83    2.33
   2   0   2   54.33    2.26
  -2   0   2   57.85    2.16
  -2   0   2   57.00    2.36
   0  -2   2   56.58    2.31
   0  -2   2   55.54    2.36
   0   2   2   56.76    2.22
   2  -1  -2   57.42    2.27
   2  -1  -2   58.77    2.40
  -2   1  -2   55.41    2.66
  -1  -2  -2   58.00    2.33
   2  -1  -2   54.57    2.56
  -2   1  -2   53.27    2.25
  -1  -2  -2   58.42    2.67
  -1  -2  -2   56.32    2.29
   2  -1   2   69.41    2.63
   1   2   2   67.70    2.46
  -1  -2   2   68.66    2.63
  -1  -2   2   66.01    2.59
   2  -1   2   67.75    2.33
  -1  -2   2   66.54    2.54
  -2   1   2   62.21    2.33
  -2   1   2   67.81    2.34
  -1  -2   2   64.31    2.37
   1   2   2   66.42    2.64
  -2   1   2   67.79    2.59
   2  -1   2   68.39    2.57
  -2  -2  -2  381.69   26.31
  -2   2   2  389.29   24.19
   2  -2   2  363.36   23.21
   2   2   2  332.58   24.57
  -2  -2   2  338.57   24.93
   2  -3  -2    1.80    0.44
  -3  -2  -2    1.95    0.40
   3   2  -2    1.46    0.44
  -3  -2  -2    1.92    0.62
   2  -3  -2    1.54    0.42
   2  -3   2    1.36    0.47
   2  -3   2    1.74    0.48
  -2   3   2    1.00    0.40
  -3  -2   2    1.75    0.48
   3   2   2    1.64    0.44
  -3  -2   2    1.54    0.42
   2  -3   2    1.57    0.38
   3   2   2    1.43    0.37
  -3  -2   2    1.59    0.36
   3   1  -2  313.36   23.75
  -3  -1  -2  278.64   22.60
   3   1   2  334.67   23.90
  -3  -1   2  340.07   24.02
  -1   3   2  298.71   21.85
   0   3  -2    0.22    0.10
  -3   0  -2    0.53    0.48
   0  -3  -2   -0.11    0.26
   3   0  -2    0.05    0.15
   0  -3  -2    0.02    0.10
   0  -3  -2    0.24    0.14
   3   0  -2    0.03    0.25
  -3   0   2    0.16    0.38
   0  -3   2    0.06    0.09
   3   0   2    0.03    0.28
   0  -3   2    0.09    0.34
   3   0   2   -0.22    0.21
   0  -3   2    0.13    0.33
   0  -3   2   -0.34    0.34
   3   0   2   -0.36    0.30
  -3   0   2    1.09    0.35
   0   3   2    0.11    0.21
   0   3   2   -0.09    0.27
   1   3  -2  299.53   23.13
  -3   1  -2  318.34   21.93
   3  -1   2  321.83   22.09
   1   3   2  329.83   23.94
  -1  -3   2  333.71   23.45
  -3   1   2  301.85   21.78
  -2  -3  -2    2.40    0.53
   3  -2  -2    2.05    0.46
  -3   2  -2    1.75    0.61
   3  -2  -2    1.68    0.24
  -2  -3  -2    2.13    0.38
  -3   2  -2    1.80    0.29
   2   3  -2    1.73    0.37
   3  -2  -2    1.88    0.30
  -2  -3   2    1.39    0.49
   2   3   2    1.68    0.46
  -3   2   2    1.37    0.27
   3  -2   2    1.84    0.49
  -2  -3   2    1.91    0.52
  -3   2   2    1.82    0.49
   3  -2   2    1.67    0.27
  -2  -3   2    1.62    0.44
   2   3   2    1.36    0.34
  -3   2   2    2.00    0.27
   3  -2   2    1.75    0.47
  -3   3  -2   97.70    4.09
   3   3  -2   97.53    3.85
   3  -3  -2   86.66    3.96
  -3   3  -2   97.04    3.44
   3  -3  -2   99.69    3.62
  -3  -3  -2   98.70    3.71
  -3  -3  -2  101.98    4.16
  -3   3   2   99.01    3.35
   3  -3   2   95.43    3.41
   3  -3   2  101.93    4.15
  -3   3   2  100.87    3.79
   3   3   2   97.74    3.65
  -3  -3   2   90.97    3.76
   3   3   2  100.15    4.05
  -3  -3   2  100.60    3.88
  -3  -3   2   98.50    3.86
   3  -3   2   98.19    3.88
   3  -3   2   98.30    3.90
  -3   3   2   98.38    3.34
  -4  -3  -2   18.17    1.09
  -4  -3  -2   18.57    1.35
  -3   4  -2   18.32    0.79
   3  -4  -2   17.88    1.02
   3  -4  -2   18.71    1.31
   4   3  -2   17.86    1.22
   3  -4   2   15.39    1.13
  -4  -3   2   15.28    1.23
  -3   4   2   16.06    0.61
  -4  -3   2   15.71    1.00
  -4  -3   2   16.14    1.11
  -3   4   2   15.74    1.00
   3  -4   2   14.97    1.20
   4   3   2   16.35    0.99
   4   3   2   17.85    1.28
   3  -4   2   16.43    1.29
  -4  -2  -2  299.46   24.54
   2  -4   2  268.20   19.14
   4   2   2  310.36   25.23
  -4  -2   2  261.17   23.19
  -2   4   2  265.29   20.33
   4   1  -2  414.93   28.59
  -4  -1  -2  407.14   28.80
  -4  -1   2  422.05   29.06
   1  -4   2  414.38   25.55
   4   1   2  359.18   27.17
   0  -4  -2   80.36    3.02
  -4   0  -2   83.27    3.70
   0  -4  -2   82.75    3.64
   0   4  -2   79.25    3.10
   0   4   2   89.31    3.72
   0  -4   2   92.62    3.51
  -4   0   2   90.18    3.60
   0  -4   2   86.12    3.10
   4   0   2   93.89    3.56
   0  -4   2   91.57    3.55
  -4   0   2   94.19    3.39
   4   0   2   88.74    3.50
   0  -4   2   90.67    3.73
   4   0   2   89.67    3.53
   0   4   2   90.91    3.21
  -4   1  -2  420.04   27.55
   1   4  -2  431.37   29.22
  -1  -4  -2  451.00   30.21
   1   4   2  465.85   30.74
   4  -1   2  431.09   27.34
  -2  -4  -2  268.40   23.32
   2   4  -2  286.61   23.29
  -4   2   2  272.04   20.16
   4  -2   2  259.89   19.31
   2   4   2  254.55   23.17
  -2  -4   2  267.93   23.00
   4  -3  -2   17.88    1.28
  -3  -4  -2   18.46    1.35
   3   4  -2   18.56    1.14
  -3  -4  -2   18.05    1.01
  -4   3  -2   17.61    1.43
  -4   3   2   15.33    1.07
  -3  -4   2   15.71    1.09
  -3  -4   2   15.91    1.11
  -4   3   2   14.65    0.80
   4  -3   2   15.28    1.09
  -4   3   2   14.82    0.77
   3   4   2   14.52    1.29
  -4   3   2   15.56    0.78
   4  -3   2   16.07    1.11
   4  -3   2   15.22    0.83
   3   4   2   15.54    0.87
  -4  -4  -2  239.23    8.52
  -4  -4  -2  243.88    9.06
   4   4  -2  254.86    8.78
   4  -4  -2  242.32    8.34
   4  -4  -2  236.38    8.92
  -4  -4   2  239.92    8.70
  -4  -4   2  237.41    8.61
   4  -4   2  234.64    8.69
   4   4   2  251.08    8.38
   4  -4   2  238.06    9.01
  -4   4   2  227.37    8.06
  -4   4   2  214.98    8.47
   4   4   2  251.21    9.01
   4  -4   2  235.26    8.22
   4  -4   2  239.66    8.69
   4  -5  -2   49.66    2.70
  -5  -4  -2   49.74    2.80
  -5  -4  -2   50.41    2.43
   5   4  -2   48.60    2.74
   4  -5  -2   49.63    2.30
  -5  -4   2   56.64    2.45
   4  -5   2   51.49    2.54
   4  -5   2   55.22    2.86
   4  -5   2   53.13    2.12
   4  -5   2   51.68    2.50
   5   4   2   52.52    2.77
  -4   5   2   56.25    2.38
  -5  -4   2   53.09    2.50
  -5  -4   2   54.05    2.56
   5   4   2   55.21    2.31
  -4   5   2   51.14    1.92
  -5  -2  -2   11.63    0.88
  -5  -2  -2   12.20    1.18
   5   2  -2    9.88    0.95
  -2   5  -2   11.37    0.58
   2  -5  -2   12.12    1.00
  -2   5  -2   10.76    0.56
  -5  -2   2   10.96    0.94
   2  -5   2   11.05    0.97
  -2   5   2   11.15    1.04
   2  -5   2   11.81    1.09
   2  -5   2   10.15    0.89
   5   2   2    9.64    0.96
  -2   5   2   11.18    0.72
  -5  -2   2   10.86    0.69
   5   2   2   11.68    0.89
  -5  -2   2   10.90    1.00
  -5  -1  -2  171.99    6.34
  -1   5  -2  173.20    5.87
  -5  -1  -2  184.87    6.73
   1  -5  -2  182.28    6.55
   5   1  -2  177.96    6.61
  -1   5  -2  183.82    5.91
   1  -5   2  163.51    6.28
  -5  -1   2  160.18    6.26
   1  -5   2  170.10    6.65
  -5  -1   2  175.65    6.47
   5   1   2  164.47    6.46
   5   1   2  160.76    6.30
  -1   5   2  175.40    6.66
  -1   5   2  170.79    5.95
   1  -5   2  164.56    6.37
  -5  -1   2  162.96    5.79
   5   0  -2   -0.11    0.26
  -5   0  -2    0.64    0.54
   0  -5  -2    0.17    0.18
   0   5  -2    0.15    0.19
   0  -5  -2   -0.13    0.41
   0  -5  -2   -0.03    0.13
   5   0   2   -0.14    0.32
  -5   0   2    0.08    0.34
   0  -5   2    0.51    0.36
   0   5   2    0.31    0.17
   5   0   2    0.20    0.37
   0  -5   2    0.06    0.44
  -5   0   2    0.28    0.44
   0  -5   2    0.13    0.15
   0   5   2    0.30    0.35
   0  -5   2    0.13    0.30
  -5   1  -2  177.86    6.60
  -1  -5  -2  175.08    5.89
   1   5  -2  174.59    6.05
  -1  -5  -2  172.35    6.58
  -1  -5  -2  173.52    5.79
  -1  -5   2  167.19    6.32
   5  -1   2  173.68    6.36
  -1  -5   2  160.35    6.17
  -5   1   2  170.04    6.55
  -1  -5   2  164.73    6.48
  -5   1   2  161.52    6.05
   5  -1   2  165.95    6.32
   5  -1   2  157.40    6.16
   1   5   2  170.50    6.56
  -2  -5  -2   11.34    0.77
  -5   2  -2   11.94    1.06
  -2  -5  -2   11.78    1.17
  -2  -5  -2   11.44    0.62
   5  -2  -2   10.51    1.01
   2   5  -2   11.25    0.87
   5  -2   2   10.93    0.96
  -5   2   2   10.73    1.05
  -2  -5   2   11.15    1.03
   2   5   2   11.03    0.62
  -5   2   2   10.89    0.76
   2   5   2    9.71    1.00
   5  -2   2   11.38    0.99
   5  -2   2   10.89    0.80
  -2  -5   2   11.10    0.89
  -2  -5   2   10.18    0.89
   5  -4  -2   44.72    2.64
  -4  -5  -2   48.58    2.33
  -4  -5  -2   52.04    2.82
   5  -4  -2   48.15    2.08
   4   5  -2   49.19    2.52
  -5   4  -2   49.62    2.68
   5  -4   2   54.46    2.57
   5  -4   2   51.45    2.52
  -5   4   2   58.33    2.68
  -4  -5   2   56.16    2.59
  -4  -5   2   53.26    2.55
   5  -4   2   51.55    2.18
  -4  -5   2   53.86    2.46
  -5   4   2   54.20    2.08
   4   5   2   51.64    2.12
   4   5   2   55.51    2.83
  -5  -5  -2  166.57    6.52
  -5  -5  -2  167.65    7.06
   5   5  -2  171.51    6.79
  -5   5  -2  164.73    6.91
   5  -5  -2  165.50    6.30
   5  -5  -2  170.47    6.95
   5  -5   2  179.49    6.75
  -5   5   2  171.10    6.52
  -5   5   2  173.11    6.07
   5   5   2  183.17    6.31
   5  -5   2  173.64    6.25
  -5  -5   2  181.52    6.78
  -5  -5   2  173.44    6.64
   5   5   2  174.05    7.05
  -5  -5   2  179.07    6.63
   5  -5   2  180.76    6.73
   5  -5   2  184.93    7.12
  -6  -5  -2   11.19    1.02
   5  -6  -2   10.82    0.94
   6   5  -2   12.67    1.21
  -6  -5  -2   12.49    1.41
   5  -6  -2   12.47    1.25
   5  -6   2   10.50    1.20
   6   5   2    9.43    1.33
   6   5   2   10.78    0.87
  -6  -5   2   11.18    1.09
   5  -6   2   11.30    1.14
  -6  -5   2   10.48    1.06
  -5   6   2   10.86    0.95
   5  -6   2    9.86    0.79
   5  -6   2    9.92    0.99
  -5   6   2   10.54    0.66
  -6  -5   2   10.02    1.01
  -6  -4  -2   99.78    4.70
   4  -6  -2   95.74    4.56
   4  -6  -2  103.09    4.21
  -6  -4  -2   99.90    4.28
   6   4  -2  109.09    4.62
  -4   6  -2   97.71    3.87
  -4   6   2  108.15    4.08
  -6  -4   2  108.11    4.45
  -6  -4   2  105.26    4.17
   6   4   2  106.61    4.71
   4  -6   2  105.14    4.38
   4  -6   2  102.50    4.69
  -6  -4   2  111.65    4.42
  -4   6   2  104.34    3.68
   6   4   2  102.93    4.13
   4  -6   2  105.51    4.34
   6   3  -2   53.24    2.83
  -6  -3  -2   56.74    2.96
   3  -6  -2   58.92    2.95
  -6  -3  -2   55.02    2.64
  -3   6  -2   56.46    2.23
   3  -6  -2   55.01    2.64
  -3   6   2   58.66    2.37
  -6  -3   2   55.14    2.39
   3  -6   2   57.31    2.65
   3  -6   2   60.09    3.03
  -3   6   2   54.48    2.89
   6   3   2   53.66    2.67
   3  -6   2   56.73    2.72
   6   3   2   60.06    3.01
  -3   6   2   56.28    2.01
  -6  -3   2   56.19    2.69
  -6  -3   2   57.63    2.73
   2  -6  -2   62.81    2.03
  -6  -2  -2   62.72    3.05
  -6  -2  -2   59.58    2.69
  -2   6  -2   63.64    2.28
   2  -6  -2   63.33    2.81
   2  -6   2   57.93    2.97
   6   2   2   54.20    2.82
   2  -6   2   56.23    2.70
  -6  -2   2   56.39    2.26
  -2   6   2   55.51    2.89
  -6  -2   2   53.40    2.71
  -2   6   2   53.87    2.25
   2  -6   2   54.81    2.57
   6   2   2   51.91    2.56
  -6  -2   2   53.11    2.64
  -6  -1  -2  126.65    5.02
   6   1  -2  131.10    4.33
   1  -6  -2  120.19    5.34
   1  -6  -2  125.05    4.40
   6   1  -2  135.90    5.38
  -6  -1  -2  126.45    5.33
  -1   6  -2  140.02    4.66
   1  -6   2  125.22    5.05
  -6  -1   2  126.37    4.33
  -6  -1   2  131.13    5.16
   1  -6   2  129.19    5.37
   6   1   2  130.31    5.05
  -1   6   2  119.44    4.40
   6   1   2  130.56    5.19
   1  -6   2  129.03    5.11
  -6  -1   2  128.08    5.15
  -1   6   2  129.79    5.34
  -1   6   2  129.75    4.50
   6   0  -2  327.25   12.11
   0  -6  -2  333.06   12.11
  -6   0  -2  325.35   12.11
  -6   0   2  361.42   11.75
  -6   0   2  326.82   11.92
   0   6   2  327.05   11.16
   0  -6   2  337.77   11.87
   6  -1  -2  134.79    5.38
  -6   1  -2  135.58    5.37
   1   6  -2  131.53    4.84
  -1  -6  -2  130.77    5.38
  -6   1  -2  135.06    5.13
  -1  -6  -2  129.14    4.61
  -6   1   2  123.59    4.85
  -1  -6   2  120.62    4.87
   6  -1   2  128.12    5.11
   6  -1   2  130.97    5.13
  -1  -6   2  130.77    5.12
   1   6   2  126.01    4.33
  -6   1   2  123.28    5.10
   6  -1   2  119.50    4.97
  -1  -6   2  129.12    5.32
   1   6   2  132.80    5.38
   6  -2  -2   68.65    3.11
  -2  -6  -2   59.78    3.05
  -6   2  -2   60.81    2.99
  -2  -6  -2   63.73    2.47
   2   6  -2   66.61    2.69
  -6   2   2   52.41    2.71
   2   6   2   61.99    3.05
  -2  -6   2   53.94    2.72
   6  -2   2   55.17    2.77
   6  -2   2   55.99    2.75
  -6   2   2   58.46    2.50
   2   6   2   57.72    2.08
  -2  -6   2   59.54    2.62
   6  -2   2   57.69    2.62
  -2  -6   2   56.50    2.91
  -3  -6  -2   57.17    3.04
  -3  -6  -2   54.75    2.11
  -3  -6  -2   58.88    2.53
   6  -3  -2   56.14    2.97
   3   6  -2   57.76    2.69
  -6   3  -2   60.51    3.00
  -6   3   2   60.32    2.79
   6  -3   2   57.07    2.80
  -3  -6   2   56.67    2.73
  -3  -6   2   53.22    2.74
  -6   3   2   58.53    2.43
   6  -3   2   59.13    2.57
   6  -3   2   57.70    2.80
  -3  -6   2   63.95    2.97
   3   6   2   59.01    3.07
  -6   4  -2  101.67    4.53
   6  -4  -2  101.49    3.71
   6  -4  -2   94.15    4.50
  -4  -6  -2   98.19    4.64
   4   6   2  103.00    3.72
  -6   4   2  107.35    4.30
  -6   4   2  102.40    3.86
   4   6   2  108.83    4.72
   6  -4   2  100.89    4.34
  -4  -6   2  108.35    4.20
   6  -4   2  103.75    4.36
  -4  -6   2   92.29    4.32
   6  -4   2  103.37    4.02
  -4  -6   2  105.56    4.37
   5   6  -2   11.31    1.19
  -5  -6  -2   10.86    1.02
  -5  -6  -2   12.52    1.33
   6  -5  -2   12.41    0.83
  -6   5  -2   10.45    1.16
   6  -5  -2   12.49    1.25
   6  -5   2   10.15    1.03
   5   6   2   10.83    0.77
   5   6   2    9.30    1.20
   6  -5   2    9.71    0.84
  -5  -6   2    9.46    0.98
  -5  -6   2    8.86    1.08
   6  -5   2   11.89    1.09
  -5  -6   2    9.90    1.06
  -6   5   2   10.20    1.02
  -6   5   2    9.65    0.74
   6  -6  -2  342.20   11.51
   6  -6  -2  333.22   12.30
  -6   6  -2  338.47   12.30
  -6  -6  -2  336.91   12.47
   6   6  -2  322.87   12.11
  -6  -6  -2  338.26   11.80
   6  -6   2  330.22   11.46
  -6   6   2  315.54   11.20
   6  -6   2  340.37   12.39
  -6  -6   2  317.11   11.95
   6  -6   2  352.60   12.03
  -6   6   2  314.45   11.67
  -6  -6   2  323.16   11.73
   6   6   2  287.99   12.23
   6   6   2  327.05   11.37
   6  -6   2  311.39   11.86
  -6  -6   2  317.29   11.87
   6  -7  -2    0.90    0.49
  -7  -6  -2    1.00    0.58
  -7  -6  -2    0.75    0.78
   7   6  -2    0.79    0.72
   6  -7  -2    0.40    0.67
   6  -7   2    1.30    0.71
  -6   7   2    0.67    0.50
  -7  -6   2    0.90    0.53
  -7  -6   2    1.95    0.82
   6  -7   2    1.41    0.63
  -7  -6   2    1.86    0.68
   6  -7   2    1.30    0.43
  -6   7   2    1.13    0.37
   7   6   2    0.74    0.67
   6  -7   2    1.14    0.64
   5  -7  -2  122.36    5.52
   7   5  -2  119.09    5.44
  -7  -5  -2  125.05    5.66
  -7  -5  -2  125.16    5.19
  -5   7  -2  118.93    4.73
   7   5   2  126.41    4.92
   5  -7   2  127.03    5.25
   7   5   2  112.04    5.50
  -7  -5   2  123.49    5.27
  -7  -5   2  126.33    5.27
  -5   7   2  124.71    4.47
  -7  -5   2  134.87    5.24
   5  -7   2  123.82    5.60
  -5   7   2  130.71    4.91
   5  -7   2  130.76    5.22
   4  -7  -2  131.87    5.89
  -7  -4  -2  140.52    5.62
  -4   7  -2  135.07    5.12
  -7  -4  -2  136.04    6.01
   4  -7  -2  136.57    5.74
   7   4  -2  134.69    5.87
   4  -7   2  138.97    5.63
   7   4   2  142.93    5.43
   4  -7   2  134.98    5.51
  -4   7   2  141.82    5.21
  -4   7   2  147.26    6.01
  -7  -4   2  138.43    5.68
  -7  -4   2  140.27    5.65
  -4   7   2  136.82    4.85
  -7  -4   2  135.99    5.34
   7   4   2  147.62    6.08
   4  -7   2  143.06    6.06
  -3   7  -2  155.94    5.24
   7   3  -2  144.45    6.01
  -7  -3  -2  151.04    6.12
   3  -7  -2  155.56    5.80
  -7  -3  -2  148.35    5.71
  -7  -3   2  138.84    5.71
  -7  -3   2  139.54    5.28
  -3   7   2  142.45    6.01
   7   3   2  132.48    5.52
   3  -7   2  139.91    6.06
   7   3   2  141.30    6.01
  -3   7   2  140.70    5.19
   3  -7   2  141.20    5.70
   3  -7   2  142.76    5.59
  -3   7   2  133.08    4.94
  -7  -3   2  138.65    5.70
  -2   7  -2  158.07    5.70
   2  -7  -2  159.08    6.30
   7   2  -2  161.74    6.50
  -7  -2  -2  170.29    6.58
  -7  -2  -2  165.81    6.20
  -7  -2   2  163.67    6.19
   2  -7   2  157.92    6.20
   7   2   2  152.61    6.08
   2  -7   2  159.32    6.58
  -2   7   2  158.35    5.55
  -7  -2   2  154.66    5.58
  -7  -2   2  157.79    6.24
   2  -7   2  152.18    6.00
  -2   7   2  149.79    5.44
   7   2   2  153.75    6.39
  -2   7   2  160.09    6.52
  -7  -1  -2   71.33    3.43
  -7  -1  -2   70.00    3.67
   1  -7  -2   69.48    2.85
   7   1  -2   68.83    3.68
  -1   7  -2   71.72    3.09
   1  -7  -2   74.82    3.66
  -7  -1   2   85.38    3.65
  -1   7   2   85.16    2.83
  -1   7   2   80.86    2.84
   7   1   2   86.00    3.76
  -1   7   2   85.52    3.88
  -7  -1   2   84.34    3.51
   1  -7   2   88.11    3.60
   1  -7   2   85.46    3.91
   1  -7   2   87.49    3.43
   7   1   2   80.59    3.50
   7   0  -2   -0.01    0.37
   0  -7  -2   -0.24    0.34
   0   7  -2    0.24    0.34
   0  -7  -2    0.12    0.21
  -7   0  -2    0.79    0.50
  -7   0  -2   -0.14    0.33
   7   0   2    0.02    0.45
  -7   0   2    0.83    0.55
  -7   0   2    0.15    0.45
   0  -7   2    0.13    0.38
   7   0   2   -0.05    0.31
   0   7   2    0.53    0.47
   0  -7   2    0.22    0.49
   1   7  -2   74.38    3.22
  -7   1  -2   68.86    3.58
   7  -1  -2   74.58    3.69
  -1  -7  -2   70.43    3.65
  -1  -7  -2   68.52    2.93
  -7   1  -2   70.18    3.40
   1   7   2   83.69    3.80
  -1  -7   2   85.81    3.83
  -7   1   2   84.66    3.60
   7  -1   2   82.54    3.55
   7  -1   2   78.61    3.62
  -1  -7   2   83.28    3.54
  -7   1   2   86.10    3.52
  -2  -7  -2  164.08    6.68
  -7   2  -2  174.10    6.39
  -2  -7  -2  159.56    5.85
   2   7  -2  172.81    6.19
  -7   2  -2  167.72    6.58
   7  -2  -2  165.28    6.65
   7  -2   2  159.53    6.33
   7  -2   2  164.32    6.20
  -2  -7   2  163.47    6.34
  -7   2   2  151.41    5.97
  -7   2   2  150.33    6.27
   7  -2   2  155.91    6.31
  -2  -7   2  151.97    6.50
  -2  -7   2  151.99    6.13
  -3  -7  -2  145.40    5.42
  -7   3  -2  155.70    6.10
   7  -3  -2  144.31    6.07
  -3  -7  -2  153.01    6.22
   3   7  -2  153.35    5.75
   7  -3   2  138.11    5.77
   7  -3   2  133.18    5.53
  -7   3   2  134.79    5.37
  -3  -7   2  141.53    5.78
  -3  -7   2  139.43    5.49
  -7   3   2  137.86    5.75
   3   7   2  146.51    6.14
   7  -3   2  142.11    5.80
  -3  -7   2  150.73    6.04
   4   7  -2  136.76    5.61
   7  -4  -2  131.15    5.85
  -4  -7  -2  139.92    5.35
  -4  -7  -2  135.34    6.02
  -7   4  -2  140.87    5.86
  -4  -7  -2  128.46    4.71
  -7   4   2  137.80    4.81
   7  -4   2  138.35    5.66
   7  -4   2  143.81    5.69
   4   7   2  137.40    5.99
   7  -4   2  139.70    5.35
  -4  -7   2  128.43    5.30
  -7   4   2  141.03    5.60
  -4  -7   2  139.78    5.65
  -4  -7   2  144.95    5.84
  -7   4   2  138.64    5.16
  -5  -7  -2  123.36    5.00
   7  -5  -2  115.25    5.45
  -7   5  -2  122.32    5.43
   5   7  -2  130.37    5.36
   7  -5  -2  121.68    4.55
  -5  -7  -2  120.29    4.42
  -5  -7  -2  121.06    5.63
  -7   5   2  124.26    4.68
   7  -5   2  123.88    4.87
  -7   5   2  122.84    5.12
   7  -5   2  124.77    5.26
  -5  -7   2  131.63    5.39
   5   7   2  125.59    5.65
   7  -5   2  125.93    5.27
  -5  -7   2  120.50    4.95
  -5  -7   2  128.04    5.30
   6   7  -2    0.97    0.70
  -7   6  -2    0.34    0.68
  -6  -7  -2    1.07    0.34
  -6  -7  -2    0.77    0.61
  -6  -7  -2    0.54    0.64
   7  -6  -2    0.59    0.34
   7  -6  -2    0.96    0.73
   6   7   2    1.44    0.91
  -6  -7   2    0.66    0.56
  -7   6   2    1.16    0.60
  -7   6   2    0.88    0.38
   7  -6   2    0.87    0.43
   7  -6   2    0.93    0.56
   7  -6   2    0.86    0.64
  -6  -7   2    0.73    0.60
  -6  -7   2    1.27    0.62
   7  -7  -2  185.41    7.69
  -7  -7  -2  184.86    7.16
  -7   7  -2  194.54    7.72
   7   7  -2  192.37    7.62
   7  -7  -2  188.36    6.84
  -7  -7  -2  182.15    6.58
  -7  -7  -2  179.97    7.78
  -7  -7   2  172.12    7.21
   7   7   2  186.03    7.88
  -7  -7   2  168.95    7.28
  -7   7   2  174.96    7.00
   7  -7   2  171.95    7.22
   7  -7   2  180.21    7.24
  -7  -7   2  176.10    7.00
  -7   7   2  171.04    6.50
  -8  -7  -2   24.25    2.23
  -8  -7  -2   23.64    1.45
   7  -8  -2   23.94    1.64
  -8  -7  -2   25.23    1.91
   7  -8  -2   25.51    2.12
  -7   8  -2   22.95    1.53
   8   7  -2   24.17    2.11
   7  -8   2   24.59    1.88
  -8  -7   2   26.11    1.88
  -7   8   2   27.65    1.75
   7  -8   2   22.35    1.97
  -8  -7   2   26.75    1.98
  -7   8   2   25.15    1.35
  -8  -7   2   26.17    1.82
   8   7   2   27.98    2.43
  -8  -6  -2    8.13    0.84
   6  -8  -2    9.08    1.23
   6  -8  -2    9.24    1.02
   8   6  -2    8.97    1.21
  -8  -6  -2    7.14    1.08
  -8  -6  -2    7.51    1.31
  -6   8  -2    8.94    0.84
  -8  -6   2    6.32    0.96
   6  -8   2    5.43    1.19
  -6   8   2    8.36    0.94
   8   6   2    5.91    1.34
   6  -8   2    5.92    1.01
  -8  -6   2    6.39    0.98
   6  -8   2    6.79    1.01
  -8  -6   2    7.97    1.09
  -6   8   2    6.92    0.62
   5  -8  -2   27.95    1.83
   5  -8  -2   28.27    2.26
   8   5  -2   26.49    2.05
  -8  -5  -2   26.34    1.89
  -8  -5  -2   26.13    2.11
  -5   8  -2   26.15    1.51
  -5   8   2   27.89    2.09
   8   5   2   26.98    1.69
   5  -8   2   27.76    1.91
   8   5   2   28.07    2.19
  -8  -5   2   27.35    1.85
  -5   8   2   27.73    1.28
   5  -8   2   30.43    2.30
  -8  -5   2   24.63    1.90
   5  -8   2   23.67    1.74
  -5   8   2   28.08    1.58
  -8  -5   2   28.57    1.91
   8   4  -2   75.61    4.10
  -8  -4  -2   83.38    4.28
  -8  -4  -2   78.10    3.84
  -4   8  -2   86.05    3.47
   4  -8  -2   85.26    3.90
  -4   8   2   88.65    4.27
   8   4   2   90.46    3.82
   4  -8   2   82.91    4.27
  -8  -4   2   88.45    3.63
  -4   8   2   86.41    3.42
   4  -8   2   82.18    3.90
   4  -8   2   90.62    3.85
  -8  -4   2   94.27    4.04
  -8  -4   2   89.07    4.03
   8   4   2   85.70    4.29
  -8  -3  -2   35.53    2.44
  -8  -3  -2   37.62    2.19
   8   3  -2   40.78    2.51
   3  -8  -2   40.86    2.35
   3  -8  -2   38.24    1.56
  -3   8  -2   38.53    1.83
  -8  -3   2   39.73    2.26
   3  -8   2   35.95    2.45
   8   3   2   41.33    2.19
  -3   8   2   37.22    1.68
   8   3   2   37.88    2.44
  -8  -3   2   37.64    2.21
   3  -8   2   36.46    2.20
  -3   8   2   37.94    2.45
  -8  -3   2   38.47    1.82
   3  -8   2   37.55    2.07
   2  -8  -2  307.26   10.58
   2  -8  -2  319.35   11.61
  -2   8  -2  318.62   10.93
  -8  -2  -2  331.57   11.84
   8   2  -2  305.99   11.77
  -8  -2  -2  298.29   11.37
   2  -8   2  313.65   11.18
   2  -8   2  301.88   11.82
   8   2   2  312.02   11.70
  -8  -2   2  303.64   10.65
  -2   8   2  315.42   11.79
  -8  -2   2  301.76   11.44
  -2   8   2  307.35   10.54
   2  -8   2  311.67   11.42
  -8  -2   2  323.62   11.43
   8   2   2  326.62   11.40
  -1   8  -2   43.85    2.09
  -8  -1  -2   44.98    2.62
   1  -8  -2   44.28    2.56
   8   1  -2   43.76    2.65
  -8  -1  -2   44.28    2.43
   1  -8  -2   42.39    1.80
   1  -8   2   42.28    2.39
  -8  -1   2   48.06    2.52
   1  -8   2   46.22    2.23
  -1   8   2   44.43    2.69
   1  -8   2   43.75    2.67
   8   1   2   45.58    2.40
  -8  -1   2   46.93    2.40
   8   1   2   43.36    2.57
  -8   0  -2   42.24    2.56
  -8   0  -2   40.34    2.34
   0   8  -2   44.17    2.12
   8   0  -2   43.17    2.61
   0  -8  -2   45.96    2.62
   0  -8  -2   44.11    1.84
   8   0   2   42.86    2.45
  -8   0   2   41.92    2.44
   0  -8   2   46.58    2.72
   8   0   2   43.00    2.38
   0  -8   2   40.67    2.10
   0  -8   2   42.66    2.34
  -8   0   2   43.42    2.27
   0   8   2   43.37    2.60
   1   8  -2   42.42    2.21
   8  -1  -2   42.70    2.62
  -8   1  -2   44.34    2.60
  -8   1  -2   42.51    2.36
  -1  -8  -2   42.43    2.65
  -1  -8  -2   41.71    1.91
  -1  -8   2   46.17    2.45
   8  -1   2   43.79    2.42
  -1  -8   2   46.39    2.16
  -8   1   2   42.18    2.22
   8  -1   2   42.83    2.40
   1   8   2   44.75    2.66
  -8   1   2   42.69    2.47
  -1  -8   2   47.17    2.74
  -2  -8  -2  313.13   11.88
   8  -2  -2  319.89   11.86
  -8   2  -2  323.35   11.72
  -2  -8  -2  308.27   10.90
  -8   2  -2  309.74   11.44
   2   8  -2  325.53   11.31
   8  -2   2  305.66   11.46
   8  -2   2  313.79   11.37
  -2  -8   2  296.69   11.72
  -2  -8   2  309.05   11.06
  -2  -8   2  315.68   11.47
  -8   2   2  313.46   11.52
   2   8   2  314.63   11.85
  -8   2   2  306.81   11.13
   3   8  -2   37.47    2.19
  -8   3  -2   37.23    2.36
  -3  -8  -2   41.57    2.65
   8  -3  -2   37.91    2.46
  -3  -8  -2   41.78    2.10
  -8   3  -2   36.13    2.22
  -3  -8   2   38.92    2.47
  -8   3   2   37.18    2.27
  -8   3   2   36.66    1.95
   8  -3   2   37.50    2.28
   8  -3   2   36.81    2.23
  -3  -8   2   38.55    1.99
   3   8   2   39.23    2.53
  -3  -8   2   36.79    2.26
   8  -3   2   38.89    2.12
  -4  -8  -2   82.18    4.28
  -4  -8  -2   81.20    3.61
   4   8  -2   82.04    3.92
   8  -4  -2   80.66    4.17
  -8   4  -2   82.04    4.12
  -8   4   2   85.22    3.96
  -4  -8   2   93.03    3.68
  -4  -8   2   87.75    4.02
  -4  -8   2   84.21    4.14
   4   8   2   87.21    4.35
   8  -4   2   86.01    4.00
   8  -4   2   84.51    3.97
   8  -4   2   89.25    3.77
  -5  -8  -2   25.39    0.98
   5   8  -2   24.29    1.83
  -5  -8  -2   24.93    2.08
  -8   5  -2   24.24    1.91
  -5  -8  -2   25.60    1.67
   8  -5  -2   25.56    2.04
  -5  -8   2   25.04    1.89
  -8   5   2   27.74    1.88
   8  -5   2   26.90    1.65
   5   8   2   22.23    2.01
  -5  -8   2   28.23    2.04
   8  -5   2   27.23    2.01
  -5  -8   2   24.81    1.59
   8  -5   2   26.38    1.90
  -8   5   2   26.72    1.22
  -6  -8  -2    9.10    0.59
  -6  -8  -2    6.56    1.34
  -8   6  -2    8.26    1.25
   6   8  -2   10.06    1.19
  -6  -8  -2    8.79    1.06
   8  -6  -2    8.54    1.19
  -6  -8   2    7.18    0.90
   8  -6   2    7.15    0.86
   8  -6   2    7.04    1.09
   6   8   2    5.55    1.24
  -8   6   2    5.74    0.65
  -6  -8   2    7.29    1.11
  -8   6   2    7.30    1.04
   8  -6   2    7.29    1.08
  -7  -8  -2   22.77    1.78
  -7  -8  -2   24.64    2.16
   7   8  -2   24.26    2.06
   8  -7  -2   21.37    1.98
  -7  -8  -2   25.60    1.29
   8  -7  -2   23.21    1.47
  -8   7  -2   28.14    2.38
  -7  -8   2   25.22    1.96
   8  -7   2   24.16    1.59
  -7  -8   2   26.44    2.02
   7   8   2   28.26    2.46
   8  -7   2   24.40    1.93
  -7  -8   2   25.27    1.75
  -8   7   2   25.34    1.85
   8  -8  -2  498.98   18.26
  -8  -8  -2  497.35   18.37
  -8   8  -2  508.64   18.21
   8   8  -2  490.04   18.59
  -8  -8   2  497.52   17.37
   8   8   2  490.16   18.48
   8  -8   2  475.15   17.65
   8  -8   2  506.95   17.81
   8  -8   2  490.05   17.22
  -8  -8   2  474.15   17.71
  -8  -8   2  465.83   17.76
  -8   8   2  484.55   17.42
  -8   9  -2    3.44    1.08
  -8   9  -2    2.41    0.63
  -9  -8  -2    2.93    0.62
   8  -9  -2    1.44    0.60
   8  -9  -2    2.49    1.10
   9   8  -2    2.10    0.90
  -9  -8  -2    1.88    1.07
  -9  -8  -2    1.39    0.90
   9   8   2    3.51    1.19
   8  -9   2    2.08    0.91
   8  -9   2    3.58    0.97
  -8   9   2    2.89    0.88
  -9  -8   2    2.89    1.04
  -9  -8   2    3.24    0.95
  -7   9  -2   16.60    1.33
  -9  -7  -2   17.52    1.97
   7  -9  -2   15.86    1.44
  -9  -7  -2   16.30    1.66
   9   7  -2   14.94    1.80
  -9  -7  -2   18.05    1.30
   7  -9  -2   16.45    1.76
  -9  -7   2   18.52    1.69
  -7   9   2   20.11    1.15
  -9  -7   2   20.74    1.69
   7  -9   2   21.14    1.78
  -7   9   2   18.90    1.46
   7  -9   2   19.04    1.99
  -9  -7   2   19.21    1.63
   9   7   2   17.95    2.09
   6  -9  -2   28.72    1.91
  -6   9  -2   28.33    1.68
  -9  -6  -2   31.60    1.81
  -9  -6  -2   25.57    2.29
   6  -9   2   24.92    1.87
   6  -9   2   27.93    2.38
  -9  -6   2   26.55    2.03
  -9  -6   2   27.95    1.86
   9   6   2   28.39    2.38
  -6   9   2   29.17    2.28
  -6   9   2   26.91    1.36
  -9  -6   2   25.37    1.93
   6  -9   2   25.56    1.93
  -6   9   2   29.77    1.72
   9   5  -2  211.05    8.86
  -5   9  -2  203.98    7.86
  -9  -5  -2  209.87    8.89
  -9  -5  -2  211.12    8.44
   5  -9  -2  221.75    8.42
   9   5   2  188.43    9.10
  -5   9   2  232.43    8.02
  -5   9   2  204.97    7.46
  -9  -5   2  210.66    8.06
   9   5   2  222.74    8.18
  -9  -5   2  217.27    8.39
   5  -9   2  225.48    8.49
   5  -9   2  222.89    8.29
  -4   9  -2  137.96    5.43
  -9  -4  -2  156.53    6.48
   4  -9  -2  137.04    5.08
   9   4  -2  139.98    6.35
   4  -9  -2  135.34    5.94
  -9  -4  -2  143.27    6.00
   9   4   2  148.66    5.85
  -9  -4   2  146.09    6.05
   9   4   2  150.62    6.46
   4  -9   2  136.47    5.73
   4  -9   2  143.18    5.97
  -4   9   2  137.72    6.30
  -9  -4   2  143.22    5.98
   4  -9   2  143.74    6.44
  -9  -4   2  138.13    5.48
  -9  -3  -2   29.16    1.94
  -9  -3  -2   27.59    2.16
   3  -9  -2   28.69    1.29
   3  -9  -2   32.94    2.13
  -3   9  -2   30.03    1.61
   9   3  -2   29.00    2.18
   3  -9   2   26.73    1.71
   3  -9   2   27.64    1.91
   9   3   2   27.98    2.14
  -9  -3   2   27.18    1.45
  -9  -3   2   26.40    1.94
  -3   9   2   28.95    2.15
   3  -9   2   26.03    2.20
  -3   9   2   26.35    1.26
   9   3   2   25.67    1.81
  -9  -3   2   26.52    1.94
   9   2  -2   53.09    3.14
   2  -9  -2   52.16    2.07
   2  -9  -2   53.23    2.96
  -2   9  -2   57.60    2.46
  -9  -2  -2   50.79    2.76
  -9  -2  -2   56.17    3.12
   9   2   2   49.98    2.71
  -9  -2   2   47.47    2.79
   9   2   2   50.85    2.97
  -9  -2   2   50.47    2.76
   2  -9   2   52.09    2.53
  -2   9   2   46.84    2.95
  -2   9   2   48.82    1.77
   2  -9   2   48.65    3.04
   2  -9   2   50.19    2.75
  -9  -2   2   51.17    2.09
  -9  -1  -2  137.56    5.85
  -1   9  -2  143.88    5.48
  -9  -1  -2  134.08    6.08
   1  -9  -2  138.65    6.11
   1  -9  -2  140.25    5.09
   9   1  -2  136.60    6.21
  -9  -1   2  146.72    5.99
   1  -9   2  145.75    6.34
   9   1   2  138.15    5.82
  -1   9   2  147.69    6.28
   1  -9   2  141.10    5.51
   9   1   2  143.65    6.08
   1  -9   2  143.86    5.84
  -9  -1   2  142.31    5.77
   0  -9  -2    0.10    0.58
   0  -9  -2    0.46    0.29
   9   0  -2   -0.07    0.46
  -9   0  -2   -0.19    0.55
   0   9  -2   -0.09    0.45
  -9   0  -2    0.92    0.69
  -9   0   2    0.03    0.54
   9   0   2   -0.05    0.38
   0  -9   2   -0.14    0.39
   9   0   2   -0.03    0.53
   0  -9   2    0.39    0.46
   0  -9   2    0.10    0.65
  -9   0   2   -0.16    0.60
   0   9   2   -0.23    0.44
  -9   1  -2  149.38    5.96
   9  -1  -2  141.75    6.27
  -1  -9  -2  146.59    6.30
  -9   1  -2  139.64    6.11
   1   9  -2  141.96    5.85
  -1  -9  -2  142.78    5.27
  -9   1   2  147.94    6.02
  -1  -9   2  143.01    6.30
   9  -1   2  139.33    5.91
   9  -1   2  140.99    5.94
   1   9   2  138.68    6.24
  -1  -9   2  139.01    5.45
  -9   1   2  137.89    5.66
  -1  -9   2  138.86    5.87
  -9   2  -2   53.45    2.81
   2   9  -2   52.06    2.68
  -9   2  -2   50.44    2.94
  -2  -9  -2   53.31    3.14
  -2  -9   2   51.72    3.11
  -2  -9   2   49.08    2.76
   2   9   2   48.95    3.02
   9  -2   2   50.07    2.81
  -9   2   2   52.44    2.89
  -2  -9   2   49.83    2.39
   9  -2   2   50.06    2.75
  -9   2   2   52.64    2.59
  -9   3  -2   28.55    2.11
  -3  -9  -2   27.71    2.27
  -9   3  -2   29.01    1.99
   9  -3  -2   31.20    2.25
  -3  -9  -2   30.48    1.64
   3   9  -2   30.72    1.98
  -9   3   2   26.98    1.73
  -3  -9   2   26.74    1.62
  -9   3   2   25.98    1.96
   9  -3   2   27.16    1.85
   3   9   2   26.74    2.16
   9  -3   2   27.00    1.98
  -3  -9   2   26.48    2.14
  -3  -9   2   25.57    1.92
  -9   4  -2  130.48    5.87
  -9   4  -2  139.64    6.16
   9  -4  -2  136.79    6.28
  -4  -9  -2  144.63    5.57
   4   9  -2  141.61    5.96
  -4  -9  -2  136.77    6.38
  -4  -9   2  143.48    6.02
   9  -4   2  141.72    5.76
  -4  -9   2  154.69    6.40
  -9   4   2  145.57    5.56
  -4  -9   2  134.35    5.45
   4   9   2  148.37    6.49
   9  -4   2  134.92    5.96
  -9   4   2  138.48    5.97
  -5  -9  -2  205.01    8.98
   5   9  -2  218.96    8.61
  -5  -9  -2  216.59    8.16
  -9   5  -2  213.29    8.75
   9  -5  -2  206.34    8.86
  -5  -9   2  219.14    8.04
  -5  -9   2  208.90    8.54
  -5  -9   2  225.21    8.86
  -9   5   2  226.51    8.57
   9  -5   2  215.10    8.23
   5   9   2  212.02    9.03
  -9   5   2  217.86    8.00
  -6  -9  -2   24.56    2.29
   9  -6  -2   28.31    2.28
   6   9  -2   25.57    2.04
  -9   6  -2   29.33    2.26
  -6  -9  -2   28.20    1.89
  -6  -9   2   27.21    2.09
  -6  -9   2   26.19    1.70
  -9   6   2   30.01    1.69
   9  -6   2   26.01    1.77
  -9   6   2   27.42    1.36
   9  -6   2   27.01    2.07
  -9   6   2   29.29    2.06
  -6  -9   2   27.07    2.16
   9  -6   2   25.41    2.03
   6   9   2   26.13    2.33
   9  -7  -2   18.24    1.88
   7   9  -2   17.52    2.01
  -9   7  -2   18.67    1.88
  -7  -9  -2   17.25    1.11
  -7  -9  -2   17.84    2.02
  -7  -9  -2   16.93    1.58
  -7  -9   2   21.95    1.58
  -7  -9   2   21.76    1.90
  -7  -9   2   20.03    1.84
   9  -7   2   20.32    1.81
  -9   7   2   21.32    1.37
   7   9   2   20.86    2.13
   9  -7   2   20.85    1.51
   9  -7   2   18.18    1.66
  -9   7   2   19.27    1.67
  -9   7   2   20.42    1.24
  -8  -9  -2    1.31    0.44
  -8  -9  -2    0.92    0.91
  -9   8  -2    0.22    0.78
   8   9  -2    1.89    0.98
  -8  -9  -2    1.78    0.88
   9  -8  -2    1.77    0.86
  -8  -9   2    3.08    0.76
   9  -8   2    2.52    0.67
   9  -8   2    1.32    0.86
   9  -8   2    2.74    0.99
  -9   8   2    2.82    0.61
  -8  -9   2    2.97    1.09
   8   9   2    2.81    1.09
  -9   8   2    2.38    0.62
  -9   9  -2   21.73    2.19
  -9   9  -2   22.61    1.66
   9  -9  -2   23.23    1.64
  -9  -9  -2   25.16    1.99
   9   9  -2   22.82    2.26
  -9  -9  -2   19.97    1.90
  -9  -9  -2   22.66    2.34
   9  -9  -2   21.89    2.18
  -9   9   2   25.46    1.51
  -9  -9   2   26.03    2.14
  -9  -9   2   26.04    2.07
  -9   9   2   26.06    1.92
  -9  -9   2   24.19    2.15
   9   9   2   23.58    2.43
   9  -9   2   24.92    2.03
   9  -9   2   29.40    2.19
  10   9  -2    4.89    1.15
 -10  -9  -2    4.28    1.18
  -9  10  -2    6.48    0.87
 -10  -9  -2    5.70    1.43
 -10  -9  -2    4.99    0.95
   9 -10  -2    4.22    1.11
  -9  10  -2    4.91    1.26
   9 -10  -2    5.46    0.97
 -10  -9   2    5.59    1.16
  10   9   2    6.68    1.44
 -10  -9   2    6.70    1.08
 -10  -9   2    6.78    1.34
   9 -10   2    6.88    1.25
  -9  10   2    6.50    1.13
   9 -10   2    7.20    1.19
 -10  -8  -2   20.05    1.91
   8 -10  -2   18.34    1.95
 -10  -8  -2   17.92    1.98
  -8  10  -2   18.55    1.48
 -10  -8  -2   17.19    1.34
  10   8  -2   17.57    1.96
  -8  10  -2   18.58    2.05
   8 -10  -2   19.86    1.62
 -10  -8   2   20.14    1.97
   8 -10   2   16.15    1.67
  -8  10   2   21.11    1.63
  10   8   2   19.31    2.17
   8 -10   2   19.07    1.84
  -8  10   2   18.20    1.95
 -10  -8   2   20.24    1.80
 -10  -8   2   18.86    1.69
  -8  10   2   20.82    1.76
 -10  -7  -2   37.29    2.10
  -7  10  -2   40.53    2.17
   7 -10  -2   40.04    2.42
  10   7  -2   41.20    2.91
 -10  -7  -2   38.78    2.94
 -10  -7  -2   38.80    2.59
 -10  -7   2   36.85    2.35
 -10  -7   2   34.09    2.53
   7 -10   2   33.60    2.80
   7 -10   2   35.24    2.42
  -7  10   2   31.55    2.01
 -10  -7   2   38.68    2.44
   7 -10   2   32.19    2.28
  -7  10   2   32.94    2.64
  -7  10   2   32.95    1.70
  10   7   2   31.52    2.84
 -10  -6  -2   83.26    4.12
 -10  -6  -2   76.82    3.66
 -10  -6  -2   82.93    4.55
  -6  10  -2   76.20    3.57
  10   6  -2   81.33    4.52
   6 -10  -2   78.71    3.96
 -10  -6   2   84.44    4.05
   6 -10   2   83.14    3.93
  -6  10   2   78.10    3.45
  -6  10   2   79.74    3.17
  10   6   2   82.61    4.60
   6 -10   2   87.75    4.67
   6 -10   2   78.57    4.06
 -10  -6   2   78.49    3.76
  -6  10   2   78.94    4.38
 -10  -6   2   86.47    4.28
 -10  -5  -2   77.10    3.97
  10   5  -2   88.69    4.50
  -5  10  -2   82.80    3.50
 -10  -5  -2   80.74    3.68
   5 -10  -2   85.93    4.05
 -10  -5  -2   85.23    4.40
 -10  -5   2   75.49    3.85
 -10  -5   2   76.39    3.51
   5 -10   2   73.19    3.67
  -5  10   2   74.21    3.00
  10   5   2   71.52    4.24
 -10  -5   2   75.52    3.97
   5 -10   2   78.48    3.89
  -5  10   2   69.49    4.11
   5 -10   2   72.02    4.24
 -10  -4  -2   26.15    2.09
  10   4  -2   27.86    2.32
   4 -10  -2   28.60    2.18
   4 -10  -2   29.11    1.40
  -4  10   2   30.24    1.44
 -10  -4   2   29.02    2.09
   4 -10   2   32.53    2.55
   4 -10   2   31.96    2.14
  10   4   2   29.77    2.38
   4 -10   2   29.68    1.94
  -4  10   2   33.28    2.42
 -10  -4   2   31.08    1.72
  10   4   2   32.14    2.07
 -10  -4   2   27.63    2.31
   3 -10  -2    2.29    0.85
  10   3  -2    1.71    0.84
   3 -10  -2    2.50    0.37
  -3  10  -2    1.84    0.59
 -10  -3  -2    1.86    0.88
 -10  -3  -2    2.17    0.92
  -3  10   2    1.41    0.79
   3 -10   2    1.84    0.86
  10   3   2    1.93    0.77
  10   3   2    1.50    0.78
   3 -10   2    2.93    0.75
 -10  -3   2    2.94    0.49
   3 -10   2    1.64    0.70
 -10  -3   2    2.45    0.84
   2 -10  -2   57.95    2.41
 -10  -2  -2   65.24    3.51
  -2  10  -2   56.06    2.88
   2 -10  -2   60.11    3.40
   2 -10   2   63.14    3.21
   2 -10   2   57.84    2.82
  10   2   2   55.13    3.33
  10   2   2   62.88    3.22
 -10  -2   2   58.43    3.16
  10   1  -2   66.64    4.20
   1 -10  -2   69.70    2.85
 -10  -1  -2   76.78    3.91
   1 -10  -2   70.22    3.85
 -10  -1   2   69.53    3.49
  10   1   2   69.66    3.75
   1 -10   2   70.55    3.20
   1 -10   2   74.38    3.60
  10   1   2   76.36    3.68
  -1  10   2   71.41    3.95
 -10  -1   2   71.64    3.96
  10   0  -2  346.20   14.08
 -10   0  -2  384.24   13.55
   0  10  -2  375.44   12.88
   0 -10  -2  382.44   13.71
   0 -10  -2  362.41   12.38
 -10   0  -2  365.04   13.58
  10   0   2  345.15   13.18
   0 -10   2  352.72   14.11
   0 -10   2  356.05   12.64
   0  10   2  349.49   13.58
   0 -10   2  353.72   13.13
 -10   0   2  335.36   13.58
 -10   0   2  337.82   12.95
  10   0   2  357.70   13.39
 -10   1  -2   66.46    3.67
   1  10  -2   74.41    3.44
  -1 -10  -2   68.84    3.91
  10  -1   2   70.00    3.60
  10  -1   2   73.33    3.67
 -10   1   2   72.29    3.43
   1  10   2   65.47    4.10
  -1 -10   2   72.45    4.01
  -1 -10   2   72.13    3.14
  -1 -10   2   72.58    3.57
  -2 -10  -2   59.03    2.61
  10  -2  -2   64.76    3.97
 -10   2  -2   55.95    3.26
  -2 -10  -2   51.63    3.61
   2  10  -2   55.22    2.95
 -10   2   2   57.84    2.90
  -2 -10   2   54.36    3.37
  10  -2   2   58.99    3.14
  -2 -10   2   54.27    2.59
   3  10  -2    2.16    0.76
  10  -3  -2    0.98    0.83
 -10   3  -2    3.26    0.96
  -3 -10  -2    2.41    0.57
  -3 -10  -2    2.31    0.91
 -10   3  -2    2.70    0.92
  -3 -10   2    1.74    0.56
 -10   3   2    1.79    0.97
  -3 -10   2    1.66    0.68
 -10   3   2    2.25    0.72
  10  -3   2    1.92    0.73
   3  10   2    2.04    1.06
  -3 -10   2    2.99    1.15
  10  -3   2    1.94    0.71
  10  -4  -2   28.38    2.39
 -10   4  -2   30.50    2.18
  -4 -10  -2   29.96    2.43
  -4 -10  -2   28.93    1.79
 -10   4  -2   29.86    2.28
   4  10  -2   30.13    2.16
  10  -4   2   30.38    2.22
   4  10   2   29.62    2.42
  10  -4   2   30.13    2.02
 -10   4   2   29.73    1.90
  -4 -10   2   30.20    2.19
 -10   4   2   31.22    2.25
  -4 -10   2   29.57    1.73
  -5 -10  -2   84.06    3.67
   5  10  -2   76.54    3.98
 -10   5  -2   78.36    3.96
  10  -5  -2   78.95    4.38
  -5 -10  -2   81.27    4.47
 -10   5   2   85.92    3.60
  -5 -10   2   74.74    3.97
 -10   5   2   74.76    3.95
  -5 -10   2   69.31    4.07
  -5 -10   2   74.86    3.42
   5  10   2   83.80    4.53
  10  -5   2   74.94    4.01
  10  -5   2   75.81    3.74
  -6 -10  -2   79.76    4.57
 -10   6  -2   82.47    4.15
  10  -6  -2   75.31    4.46
  -6 -10  -2   81.76    3.85
   6  10  -2   79.68    4.27
 -10   6  -2   87.43    4.45
  10  -6   2   83.45    4.22
   6  10   2   80.61    4.64
  -6 -10   2   80.28    4.20
  -6 -10   2   79.48    3.61
 -10   6   2   82.50    3.65
 -10   6   2   82.21    4.15
  -6 -10   2   82.74    4.42
  10  -6   2   83.72    3.91
  -7 -10  -2   40.90    2.45
   7  10  -2   39.16    2.76
  -7 -10  -2   37.86    2.99
 -10   7  -2   43.01    2.90
 -10   7  -2   37.83    2.55
  10  -7  -2   38.47    2.90
  10  -7   2   38.05    2.62
   7  10   2   34.70    2.91
  10  -7   2   32.49    2.16
  -7 -10   2   35.29    2.66
  -7 -10   2   35.66    2.12
  -7 -10   2   34.63    2.54
 -10   7   2   33.75    2.01
  10  -7   2   29.99    2.39
 -10   7   2   40.48    2.57
 -10   8  -2   18.99    2.00
  10  -8  -2   17.57    2.04
  -8 -10  -2   18.76    2.19
  -8 -10  -2   18.26    1.73
   8  10  -2   19.65    2.07
  10  -8   2   19.41    1.57
 -10   8   2   24.53    1.95
 -10   8   2   19.57    1.40
  -8 -10   2   18.09    1.88
  10  -8   2   19.69    1.89
  -8 -10   2   17.22    1.87
  10  -8   2   18.90    1.85
  -8 -10   2   19.28    1.54
   8  10   2   18.06    2.14
 -10   9  -2    6.51    1.34
   9  10  -2    5.40    1.35
  -9 -10  -2    6.71    1.21
  -9 -10  -2    6.25    1.47
  10  -9  -2    4.35    1.29
  10  -9   2    6.58    1.13
  -9 -10   2    8.61    1.15
 -10   9   2    6.72    0.85
  10  -9   2    6.15    0.93
  -9 -10   2    7.34    1.38
   9  10   2    6.52    1.49
  10  -9   2    7.41    1.29
 -10   9   2    6.71    1.17
  -9 -10   2    6.57    1.35
  10  10  -2   71.63    4.39
  10 -10  -2   68.88    4.34
 -10  10  -2   76.85    4.44
 -10  10  -2   72.36    3.56
 -10 -10  -2   71.58    3.94
 -10 -10  -2   76.62    4.65
 -10 -10   2   69.83    3.52
  10 -10   2   65.04    3.87
 -10 -10   2   61.92    4.25
 -10 -10   2   67.53    3.95
 -10  10   2   70.91    3.75
  10 -10   2   67.82    3.97
  10  10   2   62.39    4.84
 -11 -10  -2    1.32    1.04
  10 -11   2    0.50    0.75
 -10  11   2    1.25    0.78
 -11 -10   2    0.95    0.79
  11  10   2    1.26    1.27
 -11 -10   2    1.52    0.77
 -11 -10   2    3.24    0.85
 -10  11   2    1.69    0.99
 -11  -9  -2  198.90    8.25
 -11  -9  -2  190.20    8.79
  -9  11  -2  183.22    7.55
  -9  11  -2  197.22    8.75
  11   9  -2  189.21    8.72
   9 -11   2  188.15    8.16
  -9  11   2  196.47    8.79
  -9  11   2  183.50    7.58
   9 -11   2  188.83    8.02
 -11  -9   2  184.41    7.71
  -8  11  -2   21.27    1.60
 -11  -8  -2   22.58    2.12
  -8  11  -2   20.42    2.12
  11   8  -2   20.05    2.15
 -11  -8  -2   21.40    1.54
 -11  -8  -2   16.74    2.08
 -11  -8   2   19.72    1.79
  -8  11   2   18.94    1.55
 -11  -8   2   18.51    1.89
  11   8   2   19.20    2.39
   8 -11   2   21.27    1.87
   8 -11   2   18.95    2.21
  -8  11   2   21.57    2.25
   8 -11   2   17.68    1.85
 -11  -7  -2   42.91    2.46
 -11  -7  -2   45.49    3.32
 -11  -7  -2   47.19    3.03
  11   7  -2   43.05    3.21
   7 -11  -2   40.83    2.90
  -7  11  -2   42.03    2.42
 -11  -7   2   47.32    3.03
  -7  11   2   44.74    2.34
  11   7   2   41.23    3.35
 -11  -7   2   46.34    2.69
   7 -11   2   41.66    3.26
  -7  11   2   41.74    3.10
   7 -11   2   48.08    2.82
 -11  -7   2   45.46    2.81
   7 -11   2   46.32    2.88
 -11  -6  -2    0.07    0.85
   6 -11  -2    0.91    0.75
 -11  -6  -2    0.67    0.74
  11   6  -2    0.26    0.64
 -11  -6  -2    0.94    0.71
  -6  11  -2    0.93    0.46
  -6  11   2   -0.49    0.39
 -11  -6   2    0.67    0.53
  11   6   2   -0.66    0.86
 -11  -6   2    0.58    0.74
   6 -11   2    0.33    0.52
  -6  11   2    0.22    0.78
   6 -11   2    0.40    0.87
   6 -11   2    0.53    0.76
 -11  -6   2    0.88    0.73
   5 -11  -2    4.78    1.18
  11   5  -2    4.63    1.10
  -5  11  -2    4.82    0.74
 -11  -5  -2    4.40    1.05
 -11  -5  -2    5.87    1.22
 -11  -5   2    5.16    0.79
  -5  11   2    4.76    0.62
  -5  11   2    5.63    0.55
 -11  -5   2    3.42    1.11
 -11  -5   2    4.19    0.96
   5 -11   2    5.42    1.08
  -5  11   2    4.10    1.17
   5 -11   2    4.22    1.36
   5 -11   2    4.69    0.93
  11   5   2    4.60    1.14
 -11  -4  -2    1.93    0.99
  -4  11  -2    1.18    0.54
 -11  -4  -2    1.86    1.01
   4 -11  -2    2.00    0.40
   4 -11  -2    1.60    0.82
  11   4  -2    1.74    1.03
   4 -11   2    2.31    0.88
   4 -11   2    1.69    0.65
 -11  -4   2    2.14    0.86
 -11  -4   2    1.83    0.90
   4 -11   2    1.36    1.02
  -4  11   2    1.23    0.75
 -11  -4   2    1.99    0.49
  11   4   2    1.51    0.84
  -3  11  -2  226.79    8.52
 -11  -3  -2  228.27    9.14
  11   3  -2  226.44    9.62
 -11  -3  -2  219.03    9.35
 -11  -3   2  231.06    9.11
  11   3   2  239.44    9.39
  11   3   2  227.96    9.50
 -11  -3   2  230.01    9.07
   3 -11   2  226.68    9.00
  -3  11   2  215.93    9.40
   3 -11   2  228.31    9.66
   3 -11   2  228.50    8.58
  -2  11  -2   78.81    3.50
   2 -11  -2   71.66    2.99
  11   2  -2   73.28    4.29
 -11  -2  -2   78.48    3.97
 -11  -2   2   77.61    3.95
   2 -11   2   72.78    3.40
  11   2   2   76.48    4.15
   2 -11   2   72.62    3.76
 -11  -2   2   75.68    3.86
  11   2   2   84.17    3.98
  -2  11   2   74.08    4.17
   2 -11   2   70.07    4.25
   1 -11  -2   23.97    1.29
 -11  -1  -2   23.84    1.89
  11   1  -2   22.92    2.13
 -11  -1  -2   24.93    2.04
  -1  11  -2   22.51    1.60
   1 -11  -2   24.50    2.14
 -11  -1   2   23.05    2.00
   1 -11   2   23.80    1.53
   1 -11   2   22.69    1.85
  -1  11   2   20.95    2.09
 -11  -1   2   21.54    1.89
  11   1   2   23.13    1.86
   1 -11   2   22.23    2.17
 -11   0  -2   -0.16    0.64
   0 -11  -2    0.18    0.31
   0  11  -2   -0.08    0.51
   0 -11  -2    0.18    0.71
 -11   0  -2    0.25    0.68
  11   0  -2    0.48    0.56
   0 -11   2   -0.10    0.57
  11   0   2   -0.15    0.59
  11   0   2   -0.31    0.58
 -11   0   2   -0.09    0.65
   0 -11   2   -0.07    0.38
 -11   0   2    0.09    0.50
   0  11   2   -0.14    0.50
   0 -11   2   -0.31    0.68
  -1 -11  -2   25.00    1.46
  -1 -11  -2   24.29    2.15
   1  11  -2   26.06    1.84
  11  -1  -2   27.40    2.27
 -11   1  -2   28.32    2.19
 -11   1  -2   24.56    1.93
  -1 -11   2   22.80    1.89
  -1 -11   2   23.29    2.16
  11  -1   2   24.56    2.00
 -11   1   2   21.08    1.76
   1  11   2   22.87    2.10
  -1 -11   2   22.87    1.47
  11  -1   2   23.96    1.94
 -11   1   2   23.99    2.04
 -11   2  -2   81.14    4.17
  -2 -11  -2   77.36    4.35
 -11   2  -2   75.29    3.90
  -2 -11  -2   77.52    3.32
   2  11  -2   72.29    3.72
  11  -2  -2   72.19    4.22
  -2 -11   2   80.52    3.96
  11  -2   2   74.70    3.93
  -2 -11   2   75.32    4.34
 -11   2   2   76.38    4.02
 -11   2   2   77.14    3.69
  11  -2   2   76.34    3.92
  -2 -11   2   77.91    3.31
   2  11   2   69.11    4.15
 -11   3  -2  223.00    9.03
  -3 -11  -2  217.85    9.54
  -3 -11  -2  224.45    8.40
   3  11  -2  231.15    8.97
  11  -3  -2  214.33    9.48
 -11   3   2  232.89    9.19
  -3 -11   2  220.51    9.52
  -3 -11   2  222.81    9.02
  -3 -11   2  233.32    8.30
   3  11   2  227.72    9.62
  11  -3   2  237.56    9.23
 -11   3   2  231.95    8.71
  11  -3   2  220.81    8.96
  -4 -11  -2    1.40    1.05
 -11   4  -2    1.41    0.83
  -4 -11  -2    1.70    0.63
   4  11  -2    2.72    0.93
  11  -4  -2    1.35    0.78
 -11   4  -2    2.32    0.85
  -4 -11   2    1.97    0.50
  -4 -11   2    1.58    0.89
  11  -4   2    1.86    0.87
  -4 -11   2    1.75    0.85
   4  11   2    0.87    0.98
 -11   4   2    2.13    0.96
  11  -4   2    1.62    0.72
 -11   4   2    1.98    0.79
  -5 -11  -2    4.86    1.32
 -11   5  -2    5.85    1.13
 -11   5  -2    6.84    1.25
  11  -5  -2    4.37    1.07
   5  11  -2    6.35    1.21
  -5 -11  -2    6.51    0.92
   5  11   2    5.49    1.48
  -5 -11   2    5.18    1.25
 -11   5   2    4.07    1.18
  11  -5   2    5.47    1.15
 -11   5   2    5.08    0.96
  -5 -11   2    4.69    0.73
  -5 -11   2    5.38    1.17
  11  -5   2    4.82    0.93
  11  -6  -2    0.07    0.55
 -11   6  -2    0.43    0.71
   6  11  -2    0.01    0.54
  -6 -11  -2    0.95    0.68
  -6 -11  -2   -0.52    0.76
 -11   6  -2   -0.18    0.73
  -6 -11   2    1.86    0.88
   6  11   2   -0.32    1.00
  -6 -11   2    0.93    0.84
  -6 -11   2    0.83    0.48
  11  -6   2    0.34    0.71
  11  -6   2    0.83    0.54
 -11   6   2   -0.03    0.54
 -11   6   2    1.10    0.86
   7  11  -2   44.32    3.07
 -11   7  -2   43.03    2.81
 -11   7  -2   44.43    3.09
  -7 -11  -2   44.14    2.67
  11  -7  -2   40.30    3.10
  -7 -11  -2   38.49    3.23
  11  -7   2   44.52    2.65
  -7 -11   2   45.19    2.36
  11  -7   2   44.22    2.98
   7  11   2   45.38    3.52
 -11   7   2   44.83    2.90
 -11   7   2   44.68    2.43
  -7 -11   2   43.50    2.91
  -7 -11   2   40.25    3.04
  11  -8  -2   21.60    2.21
  -8 -11  -2   21.75    2.29
  -8 -11  -2   19.77    1.78
 -11   8  -2   23.51    2.04
   8  11  -2   20.62    2.14
 -11   8  -2   20.27    2.11
  -8 -11   2   18.34    1.51
  11  -8   2   19.17    1.97
  -8 -11   2   20.28    2.07
   8  11   2   20.16    2.33
 -11   8   2   21.64    2.02
 -11   8   2   17.34    1.45
  -8 -11   2   19.86    2.01
  11  -9  -2  177.15    8.52
 -11   9  -2  179.84    7.97
  -9 -11  -2  191.35    8.80
  -9 -11  -2  191.29    7.89
 -11   9  -2  194.88    8.50
   9  11  -2  185.32    8.47
  -9 -11   2  178.62    8.20
 -11   9   2  179.24    7.86
  11  -9   2  195.86    7.69
  11  -9   2  199.46    8.26
  -9 -11   2  177.99    7.30
  11 -10  -2    0.52    0.96
 -10 -11  -2    1.41    0.93
 -11  10  -2    1.96    0.56
 -11  10  -2    0.54    0.90
 -10 -11  -2    0.96    0.84
 -11  10  -2    0.89    0.88
  10  11  -2    1.02    1.00
 -10 -11   2    1.93    0.71
  10  11   2    2.37    1.21
 -11  10   2    0.86    0.81
 -10 -11   2    1.97    1.00
 -10 -11   2    2.61    0.94
 -11  11  -2    9.62    1.45
 -11  11  -2    4.95    1.41
  11  11  -2    7.74    1.50
 -11 -11  -2    6.71    1.38
 -11 -11  -2    9.60    1.77
 -11 -11   2   11.40    1.33
  11 -11   2    9.23    1.52
  11  11   2    7.24    1.64
 -11  11   2    9.93    1.42
 -11 -11   2   12.49    1.77
 -11 -11   2    8.35    1.40
 -11  11   2    9.92    1.60
 -12 -11  -2    0.11    0.93
 -11  12  -2   -0.35    0.69
 -11  12  -2    0.27    0.69
  12  11  -2    0.42    0.57
 -12 -11  -2   -0.46    0.72
  11 -12   2    0.59    0.75
 -12 -11   2    0.25    0.80
  12  11   2    0.64    0.87
 -11  12   2    0.55    0.85
 -11  12   2    0.45    0.74
 -12 -10  -2   72.53    4.16
  12  10  -2   73.43    4.64
 -10  12  -2   68.17    4.46
 -12 -10  -2   69.71    4.60
 -10  12   2   73.52    4.60
 -12 -10   2   64.37    4.11
 -10  12   2   62.88    3.50
  12  10   2   60.50    4.56
  10 -12   2   69.58    3.96
  10 -12   2   73.14    4.15
   9 -12  -2   32.30    2.44
  12   9  -2   31.14    2.87
  -9  12  -2   31.72    2.90
 -12  -9  -2   31.49    2.68
 -12  -9  -2   33.43    3.02
  12   9   2   35.90    3.33
  -9  12   2   29.80    2.09
   9 -12   2   35.92    2.55
   9 -12   2   36.96    3.02
 -12  -9   2   37.17    2.47
 -12  -9   2   35.41    2.82
  -9  12   2   38.21    3.06
  12   8  -2   14.13    1.99
   8 -12  -2   12.77    1.51
 -12  -8  -2   13.47    1.82
 -12  -8  -2   16.45    1.42
 -12  -8  -2   14.44    2.01
   8 -12   2   16.52    1.61
 -12  -8   2   12.44    1.97
   8 -12   2   15.40    1.74
  12   8   2   14.54    2.34
 -12  -8   2   14.95    1.55
 -12  -8   2   15.93    1.69
   8 -12   2   14.30    2.02
  -8  12   2   17.83    2.11
  12   7  -2   58.66    4.04
 -12  -7  -2   59.74    3.96
 -12  -7  -2   61.89    3.18
 -12  -7  -2   58.11    3.61
  -7  12  -2   57.19    3.03
   7 -12  -2   60.14    3.53
   7 -12   2   59.52    3.33
 -12  -7   2   64.77    3.53
   7 -12   2   61.77    3.56
  12   7   2   61.21    4.11
   7 -12   2   52.28    3.88
 -12  -7   2   59.13    3.68
  -7  12   2   56.64    3.82
 -12  -7   2   57.64    3.14
   6 -12  -2  189.32    7.93
  -6  12  -2  187.24    7.33
 -12  -6  -2  179.53    7.42
 -12  -6  -2  189.71    8.40
 -12  -6  -2  178.72    7.90
  12   6  -2  187.34    8.53
 -12  -6   2  186.51    8.02
   6 -12   2  188.88    7.51
  -6  12   2  180.07    8.30
 -12  -6   2  185.14    7.78
   6 -12   2  171.49    8.38
   6 -12   2  196.77    7.94
  12   6   2  171.36    8.40
 -12  -5  -2   13.29    1.76
   5 -12  -2   14.00    1.71
  12   5  -2   12.69    1.73
 -12  -5  -2   14.40    1.46
  -5  12  -2   13.95    1.27
 -12  -5  -2   15.31    1.78
 -12  -5   2   11.48    1.60
  12   5   2   12.55    1.87
 -12  -5   2   12.41    1.11
   5 -12   2   12.43    1.52
   5 -12   2   11.82    1.83
 -12  -5   2   12.54    1.62
  -5  12   2   11.32    1.58
 -12  -4  -2  140.86    6.49
 -12  -4  -2  145.57    6.27
 -12  -4  -2  136.31    5.87
   4 -12  -2  140.94    6.31
  -4  12  -2  131.43    5.45
  12   4  -2  134.78    6.58
  -4  12   2  120.68    6.26
 -12  -4   2  122.61    5.91
   4 -12   2  122.87    5.83
 -12  -4   2  130.42    5.99
   4 -12   2  128.00    5.46
   4 -12   2  131.14    6.61
  12   4   2  123.85    6.41
   3 -12  -2   19.33    1.13
 -12  -3  -2   20.38    2.03
 -12  -3  -2   21.14    1.75
 -12  -3  -2   18.89    1.89
  12   3  -2   19.09    2.04
   3 -12  -2   19.67    1.98
  -3  12  -2   20.60    1.53
 -12  -3   2   16.94    1.81
  12   3   2   21.26    1.86
 -12  -3   2   17.34    1.72
   3 -12   2   18.88    1.71
  -3  12   2   16.95    1.98
   3 -12   2   15.39    1.89
   3 -12   2   18.30    1.43
  12   3   2   17.94    2.05
 -12  -2  -2   15.03    1.62
  -2  12  -2   14.63    1.39
 -12  -2  -2   15.24    1.79
  12   2  -2   14.70    1.84
   2 -12  -2   16.15    1.86
   2 -12   2   21.12    1.43
  12   2   2   18.21    1.98
   2 -12   2   18.41    1.73
 -12  -2   2   21.35    1.89
 -12  -2   2   19.84    1.92
  -2  12   2   19.45    1.99
   2 -12   2   19.91    2.08
  12   2   2   24.00    1.96
   1 -12  -2   40.45    1.97
  12   1  -2   42.63    3.11
 -12  -1  -2   40.06    2.76
 -12  -1  -2   44.00    2.95
   1 -12  -2   39.20    2.97
  -1  12  -2   43.32    2.49
   1 -12   2   44.72    2.25
  12   1   2   40.14    2.94
 -12  -1   2   42.86    2.70
  -1  12   2   38.89    2.94
   1 -12   2   40.43    3.07
  12   1   2   42.49    2.78
   1 -12   2   40.85    2.68
 -12  -1   2   42.58    2.81
  12   0  -2   98.79    5.18
   0 -12  -2   95.52    5.06
   0  12  -2   97.89    4.39
 -12   0  -2   97.59    4.76
 -12   0  -2   99.69    4.88
   0 -12  -2  100.97    3.86
   0  12   2   91.99    5.00
 -12   0   2   89.16    4.69
 -12   0   2   88.29    4.43
  12   0   2   86.11    4.56
   0 -12   2   89.49    3.89
   0 -12   2   89.37    4.52
   0 -12   2   88.66    5.08
  12   0   2   94.46    4.85
 -12   1  -2   44.04    2.95
 -12   1  -2   41.50    2.74
   1  12  -2   36.75    2.46
  -1 -12  -2   44.26    2.16
  12  -1  -2   39.29    3.06
  -1 -12  -2   43.84    3.18
 -12   1   2   41.03    2.87
  -1 -12   2   42.98    2.75
  12  -1   2   45.16    2.93
   1  12   2   43.27    3.10
  12  -1   2   42.67    2.80
  -1 -12   2   42.16    3.18
  -1 -12   2   42.68    2.14
 -12   1   2   42.14    2.63
 -12   2  -2   15.39    1.77
  -2 -12  -2   15.09    1.93
  12  -2  -2   13.52    1.77
 -12   2  -2   14.54    1.58
  -2 -12  -2   15.20    1.23
   2  12  -2   16.06    1.62
  12  -2   2   21.42    1.93
  -2 -12   2   19.86    1.28
  -2 -12   2   20.72    2.19
  -2 -12   2   20.77    1.78
 -12   2   2   20.47    1.71
   2  12   2   20.45    2.20
 -12   2   2   19.65    1.85
  12  -2   2   16.99    1.80
   3  12  -2   18.82    1.77
 -12   3  -2   21.91    2.03
  -3 -12  -2   19.51    2.15
  12  -3  -2   20.89    2.11
 -12   3  -2   19.43    1.87
  -3 -12  -2   19.97    1.43
 -12   3   2   17.47    1.88
  -3 -12   2   17.60    1.78
  -3 -12   2   16.86    1.23
  12  -3   2   17.31    1.82
   3  12   2   18.15    2.14
  12  -3   2   18.90    1.73
  -3 -12   2   17.00    1.95
  -4 -12  -2  127.05    6.41
  12  -4  -2  130.62    6.43
 -12   4  -2  138.99    6.03
 -12   4  -2  142.83    6.23
  -4 -12  -2  124.93    5.29
   4  12  -2  127.93    6.21
  -4 -12   2  122.48    5.85
  -4 -12   2  129.32    5.01
  12  -4   2  119.07    5.92
 -12   4   2  125.96    5.98
  12  -4   2  125.17    5.79
  -4 -12   2  122.70    6.34
   4  12   2  115.90    6.27
  12  -5  -2   16.13    1.89
   5  12  -2   16.97    1.77
 -12   5  -2   14.63    1.73
  -5 -12  -2   14.15    1.36
 -12   5  -2   14.74    1.59
  -5 -12  -2   14.24    1.86
 -12   5   2   12.38    1.61
  -5 -12   2   13.51    1.64
  -5 -12   2   11.64    1.64
  12  -5   2   12.68    1.44
   5  12   2   12.49    1.82
  12  -5   2   11.69    1.62
  -5 -12   2   13.65    1.10
  -6 -12  -2  185.07    8.59
 -12   6  -2  191.89    8.16
  -6 -12  -2  182.79    7.39
 -12   6  -2  190.73    7.92
   6  12  -2  189.30    8.07
  12  -6  -2  185.76    8.49
   6  12   2  172.11    8.47
  12  -6   2  174.12    7.58
  -6 -12   2  182.97    7.96
  -6 -12   2  177.29    8.28
  12  -6   2  175.74    7.96
 -12   6   2  189.49    7.99
  -7 -12  -2   58.19    4.12
  -7 -12  -2   56.39    3.22
 -12   7  -2   62.84    3.83
 -12   7  -2   64.55    3.67
  12  -7  -2   61.66    4.01
   7  12  -2   58.35    3.68
  12  -7   2   62.92    3.42
  -7 -12   2   57.21    3.58
  -7 -12   2   58.33    3.87
   7  12   2   55.60    4.07
 -12   7   2   61.14    3.64
  12  -7   2   57.01    3.67
   8  12  -2   14.19    1.77
  -8 -12  -2   13.32    1.52
 -12   8  -2   14.64    1.92
  -8 -12  -2   12.39    2.34
 -12   8  -2   13.67    1.58
  12  -8   2   15.59    2.08
  12  -8   2   17.52    1.65
  -8 -12   2   17.32    1.97
   8  12   2   16.98    2.41
  -8 -12   2   18.09    1.62
 -12   8   2   15.93    1.82
  -8 -12   2   10.50    1.83
 -12   9  -2   29.85    2.73
  12  -9  -2   31.32    2.98
 -12   9  -2   29.28    2.49
  -9 -12  -2   35.61    3.19
  -9 -12  -2   31.56    2.43
   9  12  -2   28.37    2.66
  -9 -12   2   37.03    2.86
  -9 -12   2   39.83    2.99
  12  -9   2   35.40    2.80
 -12   9   2   39.15    2.75
  12  -9   2   40.56    2.53
   9  12   2   32.50    3.14
 -10 -12  -2   71.88    3.98
 -10 -12  -2   70.85    4.72
  12 -10  -2   69.52    4.56
  10  12  -2   65.93    4.34
 -12  10  -2   70.86    4.04
 -12  10  -2   70.53    4.39
  12 -10   2   68.87    4.15
 -10 -12   2   66.01    4.17
  10  12   2   67.43    4.76
  12 -11  -2    0.48    0.72
 -11 -12  -2    0.38    0.71
  11  12  -2   -0.06    0.52
 -12  11  -2   -0.09    0.73
 -12  11  -2    1.71    0.83
 -11 -12  -2    0.44    0.87
 -12  11   2   -0.69    0.75
  12 -11   2    0.69    0.84
 -11 -12   2    1.17    0.91
 -11 -12   2    0.73    0.80
  11  12   2    1.02    0.90
 -12  11   2    0.96    0.89
  12  12  -2   30.38    2.81
 -12  12  -2   28.14    2.37
 -12 -12  -2   28.23    2.41
 -12 -12  -2   26.33    2.77
 -12  12  -2   22.80    2.55
 -12  12   2   27.40    2.68
 -12 -12   2   27.01    2.41
 -12 -12   2   27.75    2.54
  12 -12   2   22.14    2.22
  12  12   2   21.46    2.69
 -13 -12  -2   19.91    2.13
 -13 -12  -2   25.29    2.69
  13  12  -2   25.33    2.63
 -12  13   2   23.06    2.44
 -13 -12   2   28.30    2.56
  13  12   2   23.42    2.88
 -11  13  -2   48.74    3.26
  13  11  -2   46.32    3.69
 -13 -11  -2   47.45    3.38
 -11  13  -2   47.67    3.65
 -13 -11  -2   47.47    3.74
  11 -13   2   47.74    3.28
 -11  13   2   50.77    3.80
 -13 -11   2   45.52    3.74
  13  11   2   58.30    4.87
  13  10  -2   42.57    3.52
 -13 -10  -2   43.01    3.44
 -10  13  -2   40.18    3.35
 -13 -10  -2   43.48    3.16
 -13 -10   2   39.09    3.09
  10 -13   2   43.26    2.99
  10 -13   2   37.99    2.96
 -10  13   2   42.22    3.38
 -13 -10   2   43.50    2.76
  13  10   2   39.29    3.64
  13   9  -2   25.45    2.63
 -13  -9  -2   28.97    2.81
  -9  13  -2   29.66    2.79
 -13  -9  -2   28.27    2.57
  -9  13   2   25.31    2.56
   9 -13   2   24.47    2.32
 -13  -9   2   23.57    2.41
  13   9   2   27.73    2.88
  13   8  -2   -0.22    0.86
   8 -13  -2    0.44    0.75
 -13  -8  -2    0.89    0.92
 -13  -8  -2    0.31    1.04
 -13  -8  -2   -0.07    0.75
 -13  -8   2    0.13    0.88
   8 -13   2    0.35    0.72
   8 -13   2   -0.16    0.70
 -13  -8   2   -1.52    0.77
   8 -13   2    0.00    0.56
  13   8   2    0.04    0.76
  -8  13   2   -0.19    0.56
 -13  -7  -2   48.76    2.94
 -13  -7  -2   54.69    3.58
  13   7  -2   53.56    3.93
 -13  -7  -2   46.03    3.58
   7 -13  -2   54.29    3.41
 -13  -7   2   57.10    3.41
  13   7   2   58.05    4.10
   7 -13   2   57.48    3.14
 -13  -7   2   58.78    3.68
   7 -13   2   61.88    3.87
  -7  13   2   46.50    4.01
   7 -13   2   55.39    4.00
 -13  -6  -2   12.43    1.83
 -13  -6  -2   14.55    2.05
 -13  -6  -2   15.19    1.50
  13   6  -2   11.51    2.09
   6 -13  -2   11.67    1.56
   6 -13   2   14.34    1.70
 -13  -6   2   14.63    1.76
  -6  13   2   14.74    1.83
 -13  -6   2   11.12    1.81
   6 -13   2   15.63    1.45
  13   6   2   12.61    2.06
   6 -13   2   13.88    1.89
 -13  -5  -2  118.86    5.94
  -5  13  -2  124.93    5.33
 -13  -5  -2  125.42    5.66
 -13  -5  -2  131.14    6.37
  13   5  -2  122.12    6.47
   5 -13  -2  124.55    6.09
   5 -13   2  134.10    5.44
   5 -13   2  126.13    5.86
  -5  13   2  123.61    6.34
 -13  -5   2  124.66    5.91
   5 -13   2  113.36    6.40
 -13  -5   2  119.27    5.89
  13   5   2  127.74    6.53
 -13  -4  -2   27.33    2.49
  13   4  -2   23.62    2.43
 -13  -4  -2   25.58    2.10
  -4  13  -2   24.86    1.83
 -13  -4  -2   26.58    2.38
   4 -13  -2   26.25    2.37
   4 -13   2   27.61    2.17
  -4  13   2   29.34    2.63
   4 -13   2   27.39    1.83
  13   4   2   26.57    2.51
 -13  -4   2   25.98    2.31
   4 -13   2   26.37    2.66
 -13  -4   2   25.76    2.27
 -13  -3  -2   12.93    1.55
 -13  -3  -2   14.03    1.81
   3 -13  -2   13.08    1.76
 -13  -3  -2   10.84    1.51
  13   3  -2   12.76    1.81
  -3  13  -2   12.60    1.31
  -3  13   2   16.45    2.02
 -13  -3   2   16.89    1.84
   3 -13   2   17.57    1.33
 -13  -3   2   16.14    1.83
  13   3   2   13.61    1.77
   3 -13   2   14.95    1.64
   3 -13   2   16.20    2.10
 -13  -2  -2   68.00    4.08
 -13  -2  -2   79.39    4.40
 -13  -2  -2   75.66    4.07
   2 -13  -2   76.80    4.43
  -2  13  -2   76.43    3.66
  13   2  -2   69.99    4.48
  13   2   2   73.03    4.35
  -2  13   2   74.07    4.42
 -13  -2   2   70.38    4.10
   2 -13   2   76.17    3.39
 -13  -2   2   77.63    4.11
  13   2   2   71.31    4.02
   2 -13   2   75.38    4.00
   2 -13   2   72.55    4.62
   1 -13  -2  100.48    5.48
   1 -13  -2   98.67    4.10
 -13  -1  -2  106.72    5.32
  -1  13  -2  105.46    4.73
 -13  -1  -2  108.47    5.28
  13   1  -2  101.52    5.60
  13   1   2  103.97    5.43
 -13  -1   2  106.53    5.27
  13   1   2  108.65    5.21
  -1  13   2  109.20    5.62
 -13  -1   2  103.94    5.03
   1 -13   2   99.47    4.25
   1 -13   2   95.29    4.92
   1 -13   2  100.19    5.67
 -13   0  -2    0.26    0.73
   0  13  -2   -0.39    0.63
 -13   0  -2    0.43    0.86
  13   0  -2    0.45    0.69
   0 -13  -2   -0.13    0.79
   0 -13   2   -0.01    0.65
  13   0   2    0.08    0.74
 -13   0   2   -0.32    0.77
  13   0   2   -0.01    0.65
   0  13   2   -0.04    0.60
 -13   0   2    0.20    0.80
   0 -13   2    0.04    0.58
   0 -13   2    0.18    0.36
   1  13  -2  112.27    5.00
  13  -1  -2  106.62    5.71
  -1 -13  -2  105.27    4.35
 -13   1  -2  105.02    5.35
 -13   1  -2  114.38    5.35
  -1 -13  -2  104.05    5.65
  13  -1   2  100.45    5.30
  -1 -13   2  102.35    5.74
  -1 -13   2  101.44    5.07
   1  13   2  108.86    5.69
 -13   1   2  104.39    4.99
  -1 -13   2  103.55    4.24
  13  -1   2  105.72    5.28
 -13   1   2  104.40    5.34
   2  13  -2   82.00    4.07
  -2 -13  -2   75.22    4.57
 -13   2  -2   76.20    4.26
 -13   2  -2   78.78    4.26
  13  -2  -2   75.39    4.59
  -2 -13  -2   77.19    3.43
  -2 -13   2   76.71    4.64
   2  13   2   74.12    4.53
 -13   2   2   79.31    4.36
  -2 -13   2   71.90    4.05
 -13   2   2   75.48    3.93
  13  -2   2   71.71    4.15
  -2 -13   2   69.30    3.18
  13  -2   2   72.77    4.19
  -3 -13  -2   11.64    1.86
  13  -3  -2   11.11    1.67
  -3 -13  -2   14.20    1.23
 -13   3  -2   14.07    1.74
 -13   3  -2   12.47    1.68
   3  13  -2   12.35    1.53
  -3 -13   2   14.77    1.69
  13  -3   2   18.93    1.85
  13  -3   2   13.86    1.63
   3  13   2   15.60    2.10
 -13   3   2   13.95    1.82
  -3 -13   2   14.83    1.89
 -13   3   2   16.42    1.70
  -4 -13  -2   25.78    1.82
   4  13  -2   24.41    2.20
 -13   4  -2   27.14    2.25
  -4 -13  -2   26.06    2.64
 -13   4  -2   24.96    2.36
  13  -4  -2   25.26    2.47
  13  -4   2   26.89    2.19
   4  13   2   27.44    2.64
  -4 -13   2   28.38    2.28
 -13   4   2   26.32    2.29
  13  -4   2   27.81    2.42
  -4 -13   2   29.11    2.72
 -13   4   2   33.96    2.28
   5  13  -2  122.34    5.94
 -13   5  -2  129.96    6.04
  13  -5  -2  128.48    6.57
  -5 -13  -2  119.43    5.32
  -5 -13  -2  128.41    6.65
 -13   5  -2  118.78    6.02
  -5 -13   2  127.14    6.49
  13  -5   2  122.77    5.79
  -5 -13   2  123.83    5.97
  13  -5   2  117.58    6.03
 -13   5   2  121.46    5.48
 -13   5   2  125.22    6.04
   5  13   2  131.05    6.69
 -13   6  -2   13.75    1.73
   6  13  -2   14.05    1.76
 -13   6  -2   13.89    1.77
  -6 -13  -2   13.56    1.44
 -13   6   2   13.34    1.48
  13  -6   2   13.48    1.53
  -6 -13   2   15.61    2.06
 -13   6   2   13.03    1.76
  13  -7  -2   55.85    3.90
  -7 -13  -2   52.09    3.04
   7  13  -2   55.92    3.64
  -7 -13  -2   48.42    3.85
 -13   7  -2   52.69    3.54
 -13   7  -2   53.09    3.45
  13  -7   2   53.91    3.26
 -13   7   2   56.58    3.05
  13  -7   2   52.82    3.58
  -7 -13   2   49.52    3.94
   7  13   2   53.29    4.01
  -7 -13   2   53.93    3.49
 -13   8  -2    0.03    0.82
 -13   8  -2   -0.07    0.69
   8  13  -2    1.03    0.93
  13  -8  -2    0.16    0.94
  -8 -13  -2   -0.42    0.51
  -8 -13  -2    0.08    0.59
  13  -8   2    0.05    0.78
  -8 -13   2    1.75    1.01
   8  13   2   -0.06    0.81
 -13   8   2   -0.20    0.78
  -8 -13   2    0.87    0.98
  13  -8   2    0.66    0.64
 -13   9  -2   28.21    2.59
  -9 -13  -2   29.29    2.94
 -13   9  -2   26.23    2.38
  -9 -13  -2   31.24    2.34
   9  13  -2   31.34    2.77
  13  -9  -2   26.68    2.70
  13  -9   2   28.48    2.70
  -9 -13   2   26.60    2.51
  -9 -13   2   24.43    2.52
   9  13   2   24.48    3.00
 -13   9   2   27.32    2.48
  13  -9   2   25.79    2.48
 -10 -13  -2   44.06    2.93
  10  13  -2   39.15    3.20
  13 -10  -2   38.45    3.35
 -13  10  -2   38.87    3.18
 -10 -13  -2   45.04    3.66
 -13  10  -2   43.66    3.03
 -13  10   2   42.78    3.01
 -10 -13   2   40.53    3.25
 -10 -13   2   40.02    3.08
  13 -10   2   40.62    3.09
  10  13   2   40.55    3.64
 -13  11  -2   46.64    3.55
 -11 -13  -2   50.90    3.90
  13 -11  -2   47.71    3.75
  11  13  -2   41.58    3.40
 -11 -13  -2   40.83    3.02
 -13  11  -2   48.93    3.28
 -11 -13   2   48.01    3.78
  13 -11   2   45.30    3.27
 -13  11   2   49.45    3.72
 -11 -13   2   46.25    3.37
  11  13   2   46.86    4.48
 -13  12  -2   16.26    2.07
 -12 -13  -2   24.59    2.64
 -12 -13  -2   21.94    2.38
  12  13  -2   22.32    2.35
 -13  12   2   23.12    2.42
 -12 -13   2   23.70    2.19
 -12 -13   2   20.85    2.18
  12  13   2   21.11    2.62
 -14 -11  -2    2.60    1.11
 -11  14  -2    1.69    0.68
  14  11  -2    1.28    0.70
 -14 -11  -2    2.24    1.09
 -11  14   2    3.74    1.09
  14  11   2    1.77    1.01
 -14 -11   2    4.25    1.19
  14  10  -2   22.98    2.51
 -10  14  -2   20.99    2.42
 -14 -10  -2   24.35    2.53
 -10  14   2   23.88    2.48
  10 -14   2   22.87    2.18
 -14 -10   2   23.47    2.26
  10 -14   2   22.10    2.19
 -14  -9  -2   13.36    1.92
  -9  14  -2   13.24    2.01
  14   9  -2   14.47    2.08
 -14  -9  -2   12.22    1.91
 -14  -9   2   13.35    1.76
  14   9   2   12.77    2.23
 -14  -9   2   13.69    1.87
   9 -14   2   15.20    1.80
   9 -14   2   13.02    1.66
  -9  14   2   13.17    1.94
 -14  -8  -2   69.33    4.64
  14   8  -2   74.43    4.96
 -14  -8  -2   73.26    4.49
   8 -14   2   76.32    4.05
   8 -14   2   78.00    5.02
 -14  -8   2   77.88    4.56
  -8  14   2   75.27    4.76
   8 -14   2   74.83    4.35
  14   8   2   85.19    5.34
 -14  -8   2   77.29    4.28
 -14  -7  -2    6.62    1.54
 -14  -7  -2    6.65    1.50
   7 -14  -2    6.34    1.42
  14   7  -2    6.38    1.36
 -14  -7  -2    5.98    1.24
   7 -14   2    5.98    1.28
  -7  14   2    4.78    1.22
   7 -14   2    7.05    1.21
   7 -14   2    5.85    1.62
 -14  -7   2    5.95    1.24
  14   7   2    6.06    1.48
 -14  -7   2    5.34    1.36
 -14  -6  -2    6.95    1.55
 -14  -6  -2    7.95    1.35
   6 -14  -2    8.44    1.43
  14   6  -2    7.52    1.53
   6 -14   2    9.74    1.87
  14   6   2   12.66    2.00
 -14  -6   2   10.48    1.54
   6 -14   2   10.18    1.47
   6 -14   2    9.22    1.34
 -14  -6   2   11.21    1.67
  -6  14   2   10.50    1.81
   5 -14  -2    2.83    1.06
 -14  -5  -2    1.73    1.13
  14   5  -2    4.53    1.40
 -14  -5  -2    2.62    1.07
 -14  -5  -2    1.81    0.91
 -14  -5   2    1.97    1.26
   5 -14   2    1.76    1.07
   5 -14   2    1.62    0.77
  -5  14   2    2.53    1.01
   5 -14   2    2.73    1.14
  14   5   2    2.51    1.28
 -14  -5   2    4.67    1.39
  14   4  -2   83.90    5.16
 -14  -4  -2   83.24    4.48
 -14  -4  -2   80.30    4.78
   4 -14  -2   90.94    4.96
 -14  -4  -2   84.45    4.75
   4 -14   2   82.66    4.46
   4 -14   2   86.21    5.23
  -3  14  -2    4.64    1.01
 -14  -3  -2    3.22    1.13
 -14  -3  -2    3.12    1.19
   3 -14  -2    3.00    1.24
  -3  14   2    2.75    1.05
 -14  -3   2    2.71    1.21
  14   3   2    2.64    1.08
 -14  -3   2    0.94    0.94
   3 -14   2    2.36    0.90
 -14  -2  -2  155.41    6.85
  14   2  -2  139.43    7.87
 -14  -2  -2  150.92    7.04
   2 -14  -2  146.14    7.20
  -2  14  -2  143.36    6.24
   2 -14   2  149.75    6.66
   2 -14   2  143.83    7.93
  -2  14   2  140.03    7.16
  14   2   2  153.22    7.28
 -14  -2   2  152.37    6.96
 -14  -2   2  149.09    6.78
  -1  14  -2    2.84    0.96
   1 -14  -2    1.28    1.03
 -14  -1  -2    3.93    0.98
  14   1  -2    3.19    1.22
 -14  -1  -2    3.63    1.03
 -14  -1  -2    2.38    1.15
 -14  -1   2    3.46    1.18
  14   1   2    4.03    1.26
  -1  14   2    2.84    1.11
 -14  -1   2    4.42    1.11
   1 -14   2    3.80    1.45
   1 -14   2    3.14    1.06
 -14   0  -2    2.71    1.01
  14   0  -2    2.48    1.11
   0 -14  -2    2.39    1.14
   0  14  -2    1.32    0.85
 -14   0  -2    2.11    0.99
  14   0   2    0.57    0.80
 -14   0   2    0.49    0.87
  14   0   2    1.14    0.76
   0 -14   2    0.98    0.90
   0  14   2    1.41    1.17
   0 -14   2    1.27    1.06
 -14   0   2    1.24    0.82
 -14   1  -2    4.05    1.14
 -14   1  -2    2.15    1.00
  14  -1  -2    3.80    1.17
  -1 -14  -2    4.61    1.36
   1  14  -2    3.91    1.13
  -1 -14  -2    5.92    0.86
  -1 -14   2    3.17    1.15
  14  -1   2    4.71    1.21
 -14   1   2    3.45    1.29
 -14   1   2    4.20    1.13
   1  14   2    3.40    1.24
  -1 -14   2    3.82    1.50
  14  -1   2    3.99    1.02
  -2 -14  -2  137.67    7.25
  14  -2  -2  148.91    8.01
 -14   2  -2  143.68    6.82
 -14   2  -2  144.14    7.22
   2  14  -2  146.46    6.56
  -2 -14   2  147.98    6.72
  14  -2   2  144.60    6.89
 -14   2   2  146.14    6.51
   2  14   2  125.37    7.04
  -2 -14   2  156.28    7.57
  14  -2   2  153.11    6.98
 -14   2   2  167.08    7.73
  -3 -14  -2    4.80    0.79
 -14   3  -2    2.61    1.03
   3  14  -2    2.07    0.96
  14  -3   2    2.71    1.02
  -3 -14   2    2.66    0.98
  -3 -14   2    2.59    1.24
   3  14   2    2.21    1.23
 -14   3   2    2.91    1.03
  14  -4  -2   87.22    5.15
 -14   4  -2   86.15    4.67
  -4 -14  -2   83.49    3.92
   4  14  -2   83.40    4.49
  -4 -14  -2   83.98    5.19
 -14   4  -2   89.54    4.77
   4  14   2   89.34    5.31
  14  -4   2   81.14    4.48
 -14   4   2   69.84    4.83
  14  -4   2   78.07    4.60
 -14   4   2   82.85    4.23
  -5 -14  -2    4.89    0.94
  14  -5  -2    2.56    1.13
   5  14  -2    3.79    1.09
 -14   5  -2    2.20    1.02
  -5 -14  -2    2.09    1.18
 -14   5  -2    2.55    1.07
   5  14   2    3.35    1.33
  -5 -14   2    1.89    1.02
  -5 -14   2    1.91    1.18
 -14   5   2    2.91    0.96
  14  -5   2    2.08    0.90
  14  -5   2    2.96    1.07
 -14   5   2    2.41    1.17
   6  14  -2    7.45    1.45
  -6 -14  -2    8.76    1.75
  14  -6  -2    9.86    1.68
  -6 -14  -2   10.78    1.26
 -14   6  -2    7.87    1.32
 -14   6  -2    9.12    1.46
 -14   6   2    7.94    1.30
   6  14   2    8.18    2.01
  14  -6   2   10.09    1.38
 -14   6   2    9.96    1.54
  -6 -14   2   11.12    1.60
  14  -6   2   11.16    1.67
  -6 -14   2    9.71    1.75
  14  -7  -2    6.60    1.42
 -14   7  -2    6.27    1.33
  -7 -14  -2    4.82    1.56
  -7 -14  -2    6.70    1.13
  14  -7   2    5.83    1.43
   7  14   2    5.50    1.53
  -7 -14   2    6.57    1.26
  14  -7   2    6.18    1.16
 -14   7   2    4.80    1.35
 -14   7   2    5.84    1.17
  -7 -14   2    9.08    1.70
  -8 -14  -2   73.91    5.02
  -8 -14  -2   77.64    4.12
  14  -8  -2   80.16    5.09
   8  14  -2   78.64    4.68
 -14   8  -2   79.76    4.51
 -14   8  -2   77.47    4.60
  14  -8   2   72.53    4.63
 -14   8   2   75.76    4.51
   8  14   2   76.25    5.25
  14  -8   2   79.87    4.28
  -8 -14   2   76.81    4.55
  -8 -14   2   80.13    4.93
   9  14  -2   16.07    1.96
 -14   9  -2   14.08    1.93
  14  -9  -2   14.06    1.93
  -9 -14  -2   15.01    1.61
 -14   9  -2   13.09    1.70
  -9 -14  -2   11.91    1.96
  14  -9   2   11.80    1.82
 -14   9   2   11.57    1.68
  -9 -14   2   11.94    1.76
  -9 -14   2   11.21    1.74
   9  14   2   13.43    2.14
 -14  10  -2   19.73    2.24
 -10 -14  -2   23.96    2.10
  10  14  -2   23.15    2.38
 -14  10  -2   22.56    2.15
  14 -10  -2   19.48    2.63
 -14  10   2   23.62    2.31
 -10 -14   2   22.46    2.34
  14 -10   2   23.87    2.32
 -14  11  -2    4.47    0.99
 -11 -14  -2    2.03    1.07
  14 -11  -2    0.96    0.97
  11  14  -2    4.15    1.12
  11  14   2    1.92    1.10
 -14  11   2    1.48    0.69
 -11 -14   2    1.97    1.05
 -15 -10  -2   76.43    4.89
 -15 -10  -2   73.75    4.58
  15  10  -2   79.56    5.16
 -10  15  -2   81.76    5.15
 -10  15   2   76.18    4.93
  -9  15  -2   13.54    2.32
 -15  -9  -2   12.14    2.08
  15   9  -2   20.99    2.42
   9 -15   2   15.88    2.03
  15   9   2   18.42    2.39
 -15  -9   2   16.58    1.93
 -15  -9   2   17.55    1.95
  15   8  -2   11.50    1.80
 -15  -8  -2    9.77    1.76
 -15  -8  -2    8.90    1.62
  15   8   2   11.17    1.87
   8 -15   2   10.14    1.49
  -8  15   2   13.01    1.87
   8 -15   2   10.64    1.92
 -15  -8   2    8.39    1.50
 -15  -8   2    9.88    1.71
 -15  -7  -2   11.06    1.48
  15   7  -2    7.88    1.54
   7 -15  -2   11.14    1.76
 -15  -7  -2   11.68    1.67
 -15  -7  -2    8.97    1.57
  -7  15   2   11.92    1.85
  15   7   2   12.80    2.07
 -15  -7   2   10.65    1.77
   7 -15   2    9.85    1.89
 -15  -7   2    8.73    1.59
   7 -15   2   12.93    1.67
 -15  -6  -2   15.04    1.98
 -15  -6  -2   17.51    2.20
   6 -15  -2   15.90    1.98
 -15  -6  -2   14.29    1.68
  15   6  -2   16.24    2.14
 -15  -6   2   13.33    1.89
  -6  15   2   15.99    2.02
   6 -15   2   14.40    1.77
 -15  -6   2   17.16    2.01
   6 -15   2   14.78    2.24
  15   6   2   18.77    2.29
 -15  -5  -2   49.84    3.55
  15   5  -2   50.91    3.87
 -15  -5  -2   50.98    3.55
   5 -15  -2   44.26    3.36
 -15  -5  -2   47.42    3.11
   5 -15   2   48.31    3.23
  15   5   2   40.91    3.50
  -5  15   2   44.79    3.57
   5 -15   2   45.88    3.82
 -15  -5   2   41.39    3.20
 -15  -5   2   44.77    3.29
   4 -15  -2   18.29    2.12
  15   4  -2   16.82    2.22
 -15  -4  -2   18.87    1.97
 -15  -4  -2   17.40    2.01
   4 -15   2   18.05    2.42
   4 -15   2   18.20    1.92
 -15  -4   2   17.98    2.14
  -4  15   2   16.69    2.10
  15   4   2   18.91    2.35
 -15  -4   2   19.51    2.10
 -15  -3  -2   23.37    2.20
   3 -15  -2   22.87    2.50
 -15  -3  -2   25.15    2.49
 -15  -3  -2   19.25    2.17
  15   3  -2   24.63    2.62
  15   3   2   22.77    2.53
   3 -15   2   23.60    2.72
  -3  15   2   22.33    2.41
   3 -15   2   21.32    2.04
 -15  -3   2   22.06    2.32
 -15  -3   2   21.42    2.23
  15   2  -2   11.71    2.01
 -15  -2  -2   12.07    1.67
 -15  -2  -2   15.55    1.92
 -15  -2  -2   16.38    2.06
   2 -15  -2   12.09    1.85
  15   2   2    9.99    1.75
 -15  -2   2   10.36    1.57
 -15  -2   2   11.02    1.52
   2 -15   2   10.63    1.51
   2 -15   2   10.85    1.98
  -2  15   2   10.97    1.72
 -15  -1  -2   67.78    3.97
  15   1  -2   63.99    4.44
 -15  -1  -2   64.10    4.04
   1 -15  -2   63.76    4.33
 -15  -1  -2   64.67    4.06
  -1  15   2   66.23    4.34
   1 -15   2   62.65    4.51
 -15  -1   2   63.73    4.06
  15   1   2   54.20    4.37
   1 -15   2   63.39    3.77
 -15   0  -2    0.66    0.77
 -15   0  -2    0.13    0.89
  15   0  -2    1.11    0.90
   0  15  -2   -0.96    0.68
   0 -15  -2   -0.58    0.80
 -15   0  -2    1.11    0.87
 -15   0   2    0.43    0.99
   0 -15   2    1.26    1.08
   0 -15   2    0.73    0.78
   0  15   2   -0.14    0.62
 -15   1  -2   64.61    3.98
  15  -1  -2   58.17    4.26
   1  15  -2   66.42    3.82
 -15   1  -2   65.32    4.01
  -1 -15  -2   56.54    4.23
 -15   1  -2   59.46    3.85
 -15   1   2   65.53    3.80
 -15   1   2   63.29    4.01
   1  15   2   63.93    4.41
  -1 -15   2   63.24    4.52
  15  -1   2   66.55    4.13
  -1 -15   2   65.95    3.86
  15  -2  -2   11.28    1.83
  -2 -15  -2   14.44    2.13
   2  15  -2   12.98    1.62
 -15   2  -2   14.90    1.92
 -15   2  -2   15.14    1.89
 -15   2  -2   13.25    1.74
 -15   2   2   11.85    1.89
  15  -2   2   10.35    1.62
 -15   2   2   12.10    1.63
   2  15   2   10.47    1.78
  -2 -15   2   11.77    2.06
  15  -2   2   14.32    1.74
  -2 -15   2   11.39    1.56
   3  15  -2   22.46    2.08
 -15   3  -2   21.85    2.19
 -15   3  -2   19.32    2.20
  -3 -15  -2   22.49    2.49
 -15   3  -2   21.41    2.16
  15  -3  -2   23.39    2.62
 -15   3   2   27.50    2.48
   3  15   2   22.87    2.59
 -15   3   2   22.46    2.04
  15  -3   2   21.38    2.18
  -3 -15   2   21.80    2.60
  -3 -15   2   24.73    2.27
  15  -3   2   27.01    2.52
 -15   4  -2   17.98    2.13
  -4 -15  -2   18.22    2.28
  -4 -15  -2   22.19    1.76
  15  -4  -2   23.58    2.51
   4  15  -2   20.96    2.02
 -15   4  -2   18.10    2.07
  15  -4   2   16.42    2.09
  -4 -15   2   18.00    2.36
  -4 -15   2   18.40    1.94
   4  15   2   18.20    2.53
  15  -4   2   20.45    2.24
 -15   4   2   18.89    2.24
 -15   4   2   18.54    1.92
   5  15  -2   51.38    3.37
 -15   5  -2   48.00    3.36
  15  -5  -2   46.32    3.70
  -5 -15  -2   51.94    3.96
  -5 -15  -2   49.67    2.82
  -5 -15   2   50.70    3.90
  -5 -15   2   42.94    3.19
 -15   5   2   42.75    3.35
   5  15   2   41.40    3.66
 -15   5   2   43.58    2.96
  15  -5   2   44.80    3.40
   6  15  -2   17.64    1.96
  -6 -15  -2   15.41    2.25
 -15   6  -2   15.36    1.98
  15  -6  -2   16.84    2.32
 -15   6  -2   16.66    1.97
 -15   6   2   16.62    2.04
  15  -6   2   13.17    1.94
  -6 -15   2   17.64    2.29
 -15   6   2   10.57    1.66
  15  -6   2   17.74    1.87
  -6 -15   2   14.53    1.86
   6  15   2   15.61    2.44
  -7 -15  -2   13.32    1.53
  15  -7  -2   10.24    1.75
 -15   7  -2   12.10    1.79
 -15   7  -2   11.56    1.69
   7  15  -2   12.16    1.69
 -15   7  -2   12.87    1.68
  -7 -15  -2   10.71    1.82
  -7 -15   2   11.36    1.71
  15  -7   2   10.37    1.71
 -15   7   2   12.52    1.77
  -7 -15   2   11.17    1.87
   7  15   2   11.49    1.99
  15  -7   2   12.43    1.63
  15  -8  -2   10.40    1.78
 -15   8  -2    9.33    1.61
  -8 -15  -2    9.06    1.84
  -8 -15  -2   13.47    1.55
 -15   8  -2   10.66    1.62
   8  15  -2   12.70    1.65
 -15   8  -2   11.55    1.62
  -8 -15   2    8.66    1.68
  -8 -15   2   10.71    1.50
   8  15   2    7.41    1.69
 -15   8   2   10.44    1.75
   9  15  -2   17.08    1.96
  -9 -15  -2   18.46    2.39
 -15   9  -2   20.37    2.13
 -15   9  -2   16.27    1.95
  15  -9  -2   20.73    2.46
  -9 -15   2   16.44    1.99
   9  15   2   15.17    2.47
 -15  10  -2   75.08    4.47
 -10 -15  -2   85.08    4.44
  15 -10  -2   75.86    5.08
 -10 -15   2   75.33    4.84
  -8  16  -2    8.91    1.67
 -16  -8  -2   11.89    1.66
  16   8  -2    9.91    1.69
 -16  -8  -2    8.52    1.69
 -16  -8   2    4.69    1.60
 -16  -8   2    8.97    1.50
   8 -16   2    6.53    1.69
  -8  16   2    9.41    1.62
  16   8   2    7.91    1.72
 -16  -7  -2   38.49    3.15
 -16  -7  -2   35.43    3.07
 -16  -7  -2   27.04    2.72
   7 -16  -2   36.37    3.14
  16   7  -2   35.47    3.32
  16   7   2   34.95    3.28
 -16  -7   2   37.03    3.11
 -16  -7   2   36.58    2.99
   7 -16   2   37.05    3.47
 -16  -6  -2   91.86    5.80
 -16  -6  -2  102.32    5.04
  16   6  -2   89.55    6.39
 -16  -6  -2   92.42    5.38
   6 -16   2  103.10    5.23
  -6  16   2   96.84    5.73
 -16  -6   2   94.14    5.73
  16   6   2   98.27    5.98
   6 -16   2   99.87    6.61
 -16  -6   2  106.83    5.39
 -16  -5  -2    8.52    1.77
 -16  -5  -2    6.13    1.41
   5 -16  -2    8.79    1.67
  16   5  -2    8.69    1.79
 -16  -5  -2    6.99    1.51
   5 -16   2    9.65    1.53
 -16  -5   2    7.90    1.62
 -16  -5   2    9.84    1.62
  -5  16   2    7.68    1.43
  16   5   2   10.37    1.82
   5 -16   2    9.67    1.88
  16   4  -2    9.62    1.75
 -16  -4  -2    9.28    1.68
 -16  -4  -2    9.97    1.52
   4 -16  -2   10.35    1.71
 -16  -4  -2    8.31    1.74
 -16  -4   2   10.95    1.85
   4 -16   2    7.55    1.83
  16   4   2   11.02    1.76
   4 -16   2   10.90    1.51
 -16  -4   2   11.44    1.74
  -4  16   2   10.53    1.82
   3 -16  -2   31.01    2.95
 -16  -3  -2   32.49    2.70
 -16  -3  -2   33.17    2.80
 -16  -3  -2   33.14    2.93
  16   3  -2   29.09    2.95
 -16  -3   2   29.68    2.63
   3 -16   2   30.61    3.20
   3 -16   2   31.38    2.57
  16   3   2   35.82    3.12
  -3  16   2   31.22    2.96
 -16  -3   2   33.90    2.91
 -16  -2  -2    7.97    1.51
 -16  -2  -2    8.13    1.59
 -16  -2  -2    7.40    1.63
   2 -16  -2    8.86    1.68
  16   2  -2    9.05    1.68
   2 -16   2    7.12    1.35
 -16  -2   2    6.97    1.50
  -2  16   2    7.85    1.58
   2 -16   2    6.79    1.75
  16   2   2    7.41    1.58
 -16  -2   2    7.73    1.68
  16   1  -2   14.76    2.15
 -16  -1  -2   14.04    1.86
 -16  -1  -2   14.12    1.81
   1 -16  -2   13.62    2.04
 -16  -1  -2   13.63    1.95
  16   1   2   14.28    2.02
   1 -16   2   12.05    1.62
 -16  -1   2   14.93    1.90
   1 -16   2   12.80    2.12
  -1  16   2   13.73    2.00
 -16  -1   2   16.09    2.08
  16   0  -2  121.73    7.19
 -16   0  -2  139.79    6.93
   0 -16  -2  140.31    7.43
 -16   0  -2  145.51    6.92
 -16   0   2  145.85    7.06
   0  16   2  145.64    7.45
  16   0   2  135.38    7.06
   0 -16   2  153.39    6.80
 -16   0   2  143.69    6.73
   0 -16   2  138.00    7.59
  16  -1  -2   14.96    2.09
  -1 -16  -2   16.03    2.23
 -16   1  -2   12.83    1.84
 -16   1  -2   15.30    1.88
   1  16   2   13.71    2.01
 -16   1   2   14.99    1.90
  16  -1   2   14.41    1.92
  -1 -16   2   14.79    2.21
  -1 -16   2   13.33    1.73
 -16   1   2   12.38    1.77
 -16   2  -2    8.09    1.56
  -2 -16  -2    8.41    1.76
 -16   2  -2    7.80    1.67
 -16   2  -2    6.17    1.44
  16  -2  -2    9.38    1.71
   2  16   2    8.27    1.86
  -2 -16   2    8.10    1.42
 -16   2   2    9.74    1.76
  -2 -16   2    7.57    1.75
 -16   2   2    6.84    1.41
  16  -2   2    7.59    1.38
   3  16  -2   29.43    2.71
 -16   3  -2   32.16    2.75
 -16   3  -2   32.90    2.79
  -3 -16  -2   35.12    3.27
 -16   3  -2   34.14    2.85
  16  -3  -2   36.23    3.34
  -3 -16   2   32.53    3.19
  16  -3   2   31.64    2.76
   3  16   2   32.05    3.26
 -16   3   2   32.93    2.91
  -3 -16   2   32.43    2.66
 -16   3   2   33.76    2.61
 -16   4  -2    9.74    1.66
  16  -4  -2   11.16    1.96
   4  16  -2    9.73    1.46
 -16   4  -2    9.17    1.62
 -16   4  -2    9.50    1.51
  -4 -16  -2    9.30    1.87
   4  16   2    9.28    1.84
 -16   4   2   10.42    1.51
  -4 -16   2   10.97    1.87
 -16   4   2   11.70    1.84
  -4 -16   2   12.05    1.63
  16  -4   2   12.94    1.65
  -5 -16  -2    7.72    1.76
 -16   5  -2   10.42    1.68
  16  -5  -2    8.32    1.67
 -16   5  -2    5.69    1.37
 -16   5  -2    8.58    1.59
   5  16  -2    9.65    1.45
 -16   5   2    8.06    1.51
 -16   5   2    8.49    1.62
  16  -5   2    7.48    1.41
  -5 -16   2    9.40    1.79
  -5 -16   2    9.67    1.54
   5  16   2    7.40    1.69
  16  -6  -2   95.26    6.52
 -16   6  -2   96.28    5.42
   6  16  -2  103.64    5.43
 -16   6  -2   99.89    5.42
  -6 -16   2  108.29    6.16
  -6 -16   2   96.43    5.36
 -16   6   2   97.63    5.93
   6  16   2   97.11    6.74
  16  -6   2  112.15    5.58
   7  16  -2   38.37    2.90
 -16   7  -2   39.22    3.01
  16  -7  -2   35.62    3.32
  -7 -16  -2   34.98    3.34
 -16   7  -2   33.76    2.91
 -16   7   2   37.55    3.34
  -7 -16   2   28.34    3.37
  -7 -16   2   33.40    2.81
   7  16   2   31.64    3.41
 -16   8  -2   11.67    1.67
  16  -8  -2   10.62    1.90
 -16   8  -2    9.30    1.53
  -8 -16  -2    7.95    1.74
   8  16   2    6.60    1.70
 -16   8   2    6.81    1.63
  -8 -16   2    9.52    1.73
  -8 -16   2    8.43    1.45
   9  16  -2   10.14    1.40
 -17  -6  -2    7.63    1.39
 -17  -6  -2    4.67    1.48
   6 -17  -2    8.65    1.63
 -17  -6   2    4.47    1.44
  17   6   2    8.06    1.91
 -17  -6   2    5.97    1.50
   6 -17   2    9.71    1.40
   6 -17   2    6.02    1.80
  -6  17   2    8.58    1.49
 -17  -5  -2    9.23    1.86
  17   5  -2   14.72    2.17
 -17  -5  -2   15.66    2.00
 -17  -5   2   10.84    1.84
  17   5   2   12.95    1.88
   5 -17   2   11.65    2.06
   5 -17   2   13.03    1.78
 -17  -5   2    7.95    1.61
  -5  17   2   12.57    1.90
 -17  -4  -2    6.24    1.42
  17   4  -2    6.83    1.52
 -17  -4  -2   10.04    1.55
   4 -17  -2    4.88    1.36
 -17  -4  -2    6.18    1.55
   4 -17   2    8.38    1.41
 -17  -4   2    5.90    1.55
  17   4   2    7.27    1.44
 -17  -4   2    6.05    1.92
   4 -17   2    7.18    1.64
   3 -17  -2  160.40    7.60
  17   3  -2  117.77    7.98
   3 -17   2  141.29    6.62
 -17  -3   2  151.64    7.41
   3 -17   2  116.72    8.26
  17   3   2  134.88    7.83
 -17  -2  -2   11.39    1.65
 -17  -2  -2    8.22    1.44
   2 -17  -2   10.12    1.77
  -2  17   2    8.06    1.57
  17   2   2   10.97    1.76
 -17  -2   2    6.55    1.85
   2 -17   2    7.07    1.24
 -17  -2   2    8.26    1.53
 -17  -1  -2    2.39    1.12
 -17  -1  -2    2.49    1.07
  17   1  -2    3.47    1.42
   1 -17  -2    3.65    1.40
   1 -17   2    5.26    1.16
  17   1   2    7.89    1.56
  -1  17   2    6.11    1.40
 -17  -1   2    5.04    1.67
 -17  -1   2    6.49    1.47
   0 -17  -2    0.30    0.85
 -17   0  -2    0.70    1.10
 -17   0  -2    0.55    0.85
  17   0  -2    0.23    0.90
 -17   0  -2    0.30    0.93
  17   0   2    1.49    0.79
   0 -17   2    0.65    1.02
   0  17   2    0.57    0.72
   0 -17   2    0.54    0.69
 -17   0   2    0.56    1.14
 -17   0   2    0.21    0.88
 -17   1  -2    3.57    1.36
  17  -1  -2    2.55    1.46
 -17   1  -2    2.86    1.07
  -1 -17  -2    2.74    1.30
   1  17   2    5.82    1.43
  17  -1   2    6.03    1.28
  -1 -17   2    3.59    1.57
  -1 -17   2    5.12    1.22
 -17   1   2    5.33    1.35
   2  17   2    6.84    1.57
  -2 -17   2    8.32    1.38
  17  -2   2    7.75    1.36
 -17   2   2    8.71    1.56
 -17   3  -2  111.01    7.15
  17  -3  -2  125.20    8.10
  -3 -17  -2  158.56    9.01
 -17   3   2  148.36    6.66
  -3 -17   2  154.05    6.91
 -17   3   2  118.41    7.35
  17  -3   2  152.46    7.14
 -17   4  -2    6.95    1.43
 -17   4  -2    7.27    1.52
  17  -4  -2    7.68    1.77
  -4 -17  -2    7.62    1.78
 -17   4   2    8.26    1.51
 -17   4   2    5.72    1.38
  -4 -17   2    6.52    1.41
  17  -4   2   11.22    1.51
  -4 -17   2    6.11    1.52
   4  17   2    6.64    1.66
  17  -5  -2   14.08    2.19
 -17   5  -2   14.38    1.88
  -5 -17  -2    9.58    1.91
 -17   5  -2   12.53    1.87
  -5 -17   2   10.21    1.88
   5  17   2   10.95    2.24
  17  -5   2   12.23    1.77
  -5 -17   2   12.72    1.65
 -17   5   2   11.52    1.84
 -17   6  -2    9.41    1.69
  17  -6  -2    7.79    1.73
  -6 -17   2    6.82    1.32
  -6 -17   2    6.63    1.58
   6  17   2    4.82    1.98
   3 -18   2   13.92    1.85
  -2  18   2   25.89    3.14
 -18  -2   2   27.15    2.79
  18   2   2   28.91    2.83
   2 -18   2   35.33    2.71
   1 -18  -2   10.09    1.93
   1 -18   2   12.81    1.59
  -1  18   2   10.24    1.76
 -18  -1   2   11.30    1.83
  18   1   2   12.36    1.87
  18   0  -2   17.59    2.66
   0 -18  -2   30.56    3.29
 -18   0   2   22.59    2.40
   0 -18   2   27.59    2.35
  18   0   2   22.49    2.39
   0  18   2   25.83    2.77
 -18   0   2   21.15    2.67
  -1 -18  -2    9.09    1.96
  18  -1   2   16.18    1.96
  -1 -18   2   13.10    1.65
   1  18   2   10.69    2.09
 -18   1   2   11.94    1.84
 -18   2   2   28.55    2.53
   2  18   2   27.90    3.44
  18  -2   2   32.58    2.85
  -2 -18   2   30.56    2.59
 -18   3   2    7.61    1.54
  18  -4   2   16.35    2.38
   0  -1  -3    0.04    0.39
   1   0  -3    0.12    0.31
   1   0  -3    0.07    0.25
  -1   0  -3   -0.02    0.27
   0   1  -3   -0.18    0.35
   0   1   3   -0.07    0.31
   0   1   3    0.04    0.29
   0  -1   3    0.11    0.21
  -1   0   3    0.27    0.25
   1   0   3    0.15    0.27
   0   1   3    0.27    0.23
   0  -1   3    0.14    0.38
  -1   0   3   -0.07    0.35
   0  -1   3    0.13    0.28
   1   0   3    0.09    0.26
   1   0   3    0.27    0.28
   1  -1  -3   84.01    3.56
   1   1  -3   81.63    3.36
  -1   1  -3   80.09    3.69
   1   1  -3   81.04    3.53
   1  -1  -3   86.53    3.54
  -1  -1  -3   81.70    3.70
  -1   1   3   95.13    3.60
   1  -1   3   90.98    3.50
   1  -1   3   91.40    3.25
   1  -1   3   91.04    3.24
   1   1   3   94.41    3.59
   1   1   3   89.72    3.53
  -1   1   3   89.98    3.24
   1   1   3   96.90    3.38
  -1  -1   3   93.71    3.45
  -2  -1  -3   81.12    3.83
   2   1  -3   81.78    3.32
   1  -2  -3   79.17    2.95
   1  -2  -3   78.65    3.39
   2   1  -3   79.63    3.30
  -1   2  -3   79.53    3.59
   1  -2   3   84.11    3.49
   1  -2   3   84.67    2.87
  -2  -1   3   84.76    3.51
   1  -2   3   84.89    2.87
  -1   2   3   82.37    3.36
   2   1   3   86.23    3.28
  -2  -1   3   84.27    3.27
   2   1   3   85.02    3.38
   1  -2   3   87.08    3.42
  -1   2   3   91.48    3.58
   2   1   3   86.29    3.42
   2   0  -3   48.35    2.01
   2   0  -3   48.67    2.13
   0   2  -3   49.07    2.28
   0  -2  -3   47.00    2.23
   0  -2   3   42.67    2.14
   0  -2   3   44.36    2.05
   0   2   3   40.85    2.10
   2   0   3   43.76    1.93
   2   0   3   41.28    2.19
   0   2   3   41.57    1.73
   0  -2   3   42.49    1.71
  -2   0   3   46.66    1.89
   0   2   3   43.48    2.02
   2   0   3   44.19    2.00
   0  -2   3   44.29    1.71
   1   2  -3   79.05    3.10
  -1  -2  -3   81.13    3.60
   2  -1  -3   80.66    3.25
   1   2  -3   80.60    3.44
   2  -1  -3   78.86    3.44
   1   2   3   85.46    3.12
   1   2   3   90.17    3.52
   2  -1   3   81.70    3.04
   2  -1   3   86.78    3.49
  -1  -2   3   83.92    3.34
   2  -1   3   85.38    3.37
  -2   1   3   83.83    3.43
   1   2   3   80.02    3.31
  -2   1   3   87.09    3.06
  -1  -2   3   85.47    3.50
   2  -1   3   80.23    3.06
  -3  -2  -3  256.33    9.48
   3   2  -3  254.46    8.92
   2  -3  -3  251.66    9.01
   2  -3  -3  251.02    9.32
   3   2  -3  246.89    9.02
  -3  -2  -3  243.84    8.88
  -2   3  -3  257.49    9.43
   3   2   3  242.37    8.98
  -3  -2   3  253.31    9.00
   2  -3   3  253.12    9.13
   3   2   3  257.12    9.20
  -3  -2   3  253.93    9.20
  -2   3   3  267.65    9.02
   0  -3  -3    0.11    0.14
   0   3  -3    0.29    0.36
   3   0  -3   -0.18    0.23
   0  -3  -3   -0.06    0.38
   0  -3  -3    0.01    0.13
  -3   0  -3    0.21    0.39
   3   0  -3    0.31    0.29
   0  -3   3    0.02    0.05
   0  -3   3    0.08    0.07
   3   0   3   -0.35    0.32
  -3   0   3   -0.01    0.29
  -3   0   3   -0.17    0.22
   3   0   3   -0.50    0.28
   3   0   3   -0.14    0.29
   0   3   3    0.22    0.32
   0   3   3    0.04    0.31
   0  -3   3   -0.15    0.37
   0  -3   3    0.11    0.41
  -1  -3   3  455.35   15.40
  -2  -3  -3  247.81    9.41
  -2  -3  -3  248.44    8.76
   3  -2  -3  245.01    8.56
  -3   2  -3  256.17    9.48
   3  -2  -3  259.68    8.82
   3  -2  -3  263.79    9.56
   2   3  -3  254.17    8.85
   3  -2   3  250.49    8.53
   2   3   3  251.83    8.93
   3  -2   3  247.53    9.19
   3  -2   3  268.78    9.19
  -2  -3   3  259.11    9.18
   2   3   3  247.00    9.26
   3  -2   3  247.26    8.55
  -3   2   3  261.39    9.31
  -2  -3   3  246.16    9.17
   3  -3  -3   56.07    2.38
   3  -3  -3   53.84    2.79
  -3  -3  -3   52.92    2.36
  -3  -3  -3   56.10    2.94
   3   3  -3   55.06    2.49
  -3   3  -3   55.81    2.87
   3   3   3   57.95    2.47
  -3  -3   3   58.78    2.70
  -3  -3   3   58.55    2.58
   3  -3   3   58.54    2.71
  -3  -3   3   57.59    2.60
   3  -3   3   59.39    2.69
  -4  -3  -3   13.92    1.30
  -4  -3  -3   11.92    0.94
   3  -4  -3   10.61    1.11
   3  -4  -3   11.10    0.93
  -3   4  -3   12.43    1.29
   4   3  -3   13.93    1.09
   3  -4   3   13.07    1.15
   4   3   3   13.13    1.23
  -4  -3   3   13.45    1.07
  -4  -3   3   13.64    1.20
  -4  -3   3   12.96    0.97
   3  -4   3   12.78    1.12
  -3   4   3   13.58    1.08
   4   3   3   13.42    0.97
   2  -4  -3   87.11    4.03
  -2   4  -3   87.18    4.10
   2  -4  -3   89.30    3.78
  -4  -2  -3   91.84    4.19
   4   2  -3   91.41    3.54
  -4  -2  -3   85.21    3.66
   4   2  -3   98.66    3.93
  -2   4   3   91.49    4.08
   2  -4   3   93.37    3.91
  -2   4   3   96.51    3.68
   2  -4   3   92.94    4.18
   2  -4   3   96.07    3.91
   4   2   3   95.97    3.96
  -4  -2   3   98.59    4.01
   4   1  -3    3.49    0.62
   1  -4   3    1.61    0.58
  -4  -1   3    1.76    0.48
  -4  -1   3    1.63    0.64
   4   1   3    1.93    0.45
   1  -4   3    1.48    0.65
   1  -4   3    1.92    0.61
   4   1   3    1.18    0.51
  -1   4   3    2.15    0.66
  -1   4   3    1.71    0.44
   0  -4  -3   28.97    1.23
   0  -4  -3   29.39    1.91
   0  -4  -3   29.49    1.23
  -4   0  -3   29.33    1.99
   4   0  -3   31.11    2.02
   4   0  -3   29.79    1.39
   0  -4   3   38.28    2.12
   0   4   3   38.37    2.11
   0   4   3   41.46    1.71
   4   0   3   40.67    1.95
   0  -4   3   40.04    1.96
   4   0   3   39.78    1.91
   0  -4   3   40.00    1.99
  -4   0   3   40.06    1.69
   4   0   3   40.17    1.82
  -4   0   3   40.26    2.03
  -4   1  -3    3.85    0.82
  -1  -4  -3    3.40    0.64
   4  -1   3    1.47    0.39
  -4   1   3    1.73    0.34
   1   4   3    1.74    0.52
  -1  -4   3    1.64    0.57
   4  -1   3    1.30    0.55
  -1  -4   3    1.45    0.28
  -4   1   3    2.04    0.50
  -1  -4   3    2.09    0.62
   1   4   3    1.67    0.37
   4  -1   3    1.93    0.60
  -2  -4  -3   96.95    4.23
   4  -2  -3   92.03    4.06
   4  -2  -3   89.51    3.30
   2   4  -3   89.51    3.53
   4  -2  -3   83.46    3.28
  -2  -4  -3   89.36    3.47
  -4   2  -3   90.66    4.16
  -4   2   3   93.66    3.35
  -4   2   3  100.50    3.94
  -2  -4   3   94.27    3.96
   2   4   3   99.24    3.61
  -2  -4   3   95.04    3.88
   4  -2   3   93.72    3.41
   2   4   3   91.67    4.07
   4  -2   3   91.10    3.94
  -2  -4   3   95.14    3.93
   4  -2   3   93.85    3.90
  -3  -4  -3   12.57    0.89
  -3  -4  -3   11.62    1.21
   4  -3  -3   14.24    1.23
   3   4  -3   11.67    0.92
   4  -3  -3   11.30    0.73
  -4   3  -3   12.88    1.23
   3   4   3   13.95    1.21
  -3  -4   3   14.02    1.11
  -3  -4   3   13.21    1.11
  -3  -4   3   11.73    1.00
   4  -3   3   12.41    1.06
   4  -3   3   12.06    0.56
  -4   3   3   14.13    1.10
  -4   3   3   13.34    0.57
   3   4   3   12.83    0.88
   4  -3   3   11.77    1.11
   4  -4  -3  345.11   11.60
  -4   4  -3  348.37   12.49
   4   4  -3  340.64   11.97
   4  -4  -3  348.99   12.43
  -4  -4  -3  352.34   11.80
  -4  -4  -3  349.02   12.56
   4   4   3  328.67   11.72
  -4  -4   3  339.43   12.11
   4  -4   3  333.04   12.11
   4  -4   3  330.71   12.11
  -4   4   3  324.83   11.86
   4   4   3  326.27   12.29
  -4  -4   3  315.82   11.98
  -4  -4   3  326.38   11.91
   5   4  -3   95.78    4.34
  -5  -4  -3  100.58    4.16
  -4   5  -3  103.23    4.74
   4  -5  -3  104.03    4.05
   4  -5  -3  105.16    4.71
  -5  -4  -3  103.26    4.82
  -4   5   3  102.91    4.15
  -5  -4   3  109.78    4.49
   4  -5   3  102.17    4.42
  -5  -4   3  104.16    4.18
   5   4   3  103.06    4.64
  -5  -4   3   97.27    4.32
   4  -5   3  105.01    4.44
   3  -5  -3  230.18    9.22
   3  -5  -3  226.15    8.72
  -5  -3  -3  216.29    8.70
   5   3  -3  227.30    8.96
  -5  -3  -3  222.91    9.31
  -5  -3   3  243.72    8.60
   5   3   3  255.96    8.81
   3  -5   3  249.91    9.44
   3  -5   3  251.29    9.05
   3  -5   3  266.09    9.10
  -3   5   3  249.02    8.67
  -5  -3   3  254.63    9.10
  -5  -3   3  256.34    8.94
   5   3   3  242.61    9.17
   2  -5  -3    6.47    0.81
   5   2  -3    5.52    0.83
  -5  -2  -3    5.78    1.03
   5   2  -3    6.55    0.57
  -5  -2  -3    7.34    0.81
  -2   5   3    9.55    0.77
   5   2   3    9.82    1.08
   2  -5   3    8.81    0.96
   5   2   3    8.41    0.84
   2  -5   3    9.38    1.07
  -5  -2   3    8.76    0.80
   2  -5   3    9.64    0.99
  -5  -2   3    8.73    1.02
  -2   5   3    7.85    0.98
  -5  -1  -3   53.21    2.56
   5   1  -3   55.39    2.04
  -5  -1  -3   57.13    2.99
   1  -5  -3   53.49    2.86
   5   1  -3   55.33    2.75
   1  -5   3   56.60    2.96
  -1   5   3   55.90    2.35
  -5  -1   3   56.79    2.51
   5   1   3   54.20    2.60
  -1   5   3   59.95    2.99
   5   1   3   53.55    2.65
   1  -5   3   55.94    2.68
  -5  -1   3   56.80    2.77
   1  -5   3   55.87    2.70
   5   0  -3    0.04    0.31
  -5   0  -3    0.10    0.56
   0  -5  -3    0.52    0.50
  -5   0   3    0.57    0.55
   0   5   3    0.10    0.25
  -5   0   3    0.00    0.32
   5   0   3    0.22    0.36
   5   0   3   -0.03    0.30
   0   5   3   -0.06    0.34
   5   0   3   -0.08    0.40
   0  -5   3    0.41    0.36
   0  -5   3   -0.43    0.43
   0  -5   3    0.10    0.34
  -1  -5  -3   50.94    2.79
   1   5  -3   54.36    2.16
   5  -1  -3   52.89    2.78
  -1  -5  -3   52.77    2.06
  -5   1  -3   53.62    2.89
  -5   1   3   56.17    2.71
  -1  -5   3   54.33    2.64
   1   5   3   54.67    2.24
   1   5   3   57.09    2.88
  -1  -5   3   58.01    2.85
  -1  -5   3   54.45    2.15
  -5   1   3   55.38    2.29
   5  -1   3   54.12    2.39
   5  -1   3   54.31    2.66
   5  -1   3   57.15    2.66
  -1  -5   3   54.36    2.62
   2   5  -3    6.02    0.61
  -5   2  -3    5.79    0.90
  -2  -5  -3    6.52    0.95
   5  -2  -3    7.14    0.92
   2   5   3    9.34    0.68
  -5   2   3    8.62    0.62
  -5   2   3    8.47    0.97
   5  -2   3    9.29    0.69
  -2  -5   3    8.85    0.96
   5  -2   3    9.39    0.93
   5  -2   3    8.96    0.98
  -2  -5   3    9.44    0.97
   2   5   3    8.21    0.99
  -2  -5   3    9.08    1.01
   5  -3  -3  231.56    9.18
   3   5  -3  216.77    8.60
  -3  -5  -3  225.51    8.49
  -5   3  -3  227.32    9.25
  -3  -5  -3  227.98    9.29
   5  -3   3  243.45    8.31
  -3  -5   3  256.62    8.99
  -3  -5   3  251.13    9.03
  -5   3   3  255.97    8.94
  -5   3   3  245.44    8.23
   5  -3   3  241.04    8.98
  -3  -5   3  250.63    8.98
   5  -3   3  249.52    9.04
   3   5   3  245.18    9.25
   3   5   3  248.67    8.48
  -5   4  -3  103.83    4.74
   5  -4  -3  103.66    3.74
   5  -4  -3   99.76    4.64
   4   5  -3  103.81    4.28
  -4  -5  -3  108.66    4.13
  -5   4  -3   97.24    3.65
  -4  -5  -3  107.42    4.85
   4   5   3   98.97    4.65
  -5   4   3  100.57    4.28
  -4  -5   3  112.39    4.66
  -4  -5   3  105.36    4.42
  -5   4   3  101.42    3.53
  -4  -5   3  102.06    4.41
   5  -4   3  100.29    4.44
   4   5   3  102.58    3.99
   5  -4   3  103.84    4.48
  -5  -5  -3   47.78    2.23
   5  -5  -3   44.61    1.90
  -5  -5  -3   45.07    2.80
  -5   5  -3   41.12    1.50
  -5   5  -3   48.57    2.79
   5  -5  -3   42.31    2.59
   5   5  -3   46.74    2.40
   5   5   3   38.87    1.97
   5  -5   3   42.65    2.37
  -5   5   3   36.70    2.12
   5   5   3   36.59    2.47
   5  -5   3   39.20    2.33
  -5  -5   3   38.00    2.28
  -5  -5   3   37.55    2.28
   6   5  -3   80.47    3.76
   5  -6  -3   77.58    3.99
   5  -6  -3   80.56    3.26
  -6  -5  -3   78.57    3.50
  -5   6  -3   75.96    3.99
  -6  -5  -3   77.97    4.09
  -5   6   3   79.85    3.42
   5  -6   3   74.43    3.70
  -6  -5   3   77.41    3.68
   6   5   3   77.35    3.98
  -6  -5   3   84.48    3.73
   5  -6   3   73.31    3.65
   6   5   3   76.73    3.31
  -6  -5   3   70.27    3.59
  -6  -4  -3  121.82    4.87
   6   4  -3  127.64    5.18
   4  -6  -3  123.98    4.76
  -6  -4  -3  124.53    5.54
   4  -6  -3  127.47    5.43
  -6  -4   3  115.03    4.94
  -6  -4   3  114.58    4.65
   6   4   3  108.58    5.20
   4  -6   3  114.08    5.42
  -4   6   3  120.43    4.68
   6   4   3  117.17    4.74
   4  -6   3  119.00    5.03
  -6  -4   3  116.73    5.03
   4  -6   3  115.91    5.05
   6   3  -3   22.71    1.69
   3  -6  -3   23.35    1.53
  -6  -3  -3   23.32    1.93
  -6  -3  -3   21.59    1.50
   6   3   3   23.50    1.49
  -6  -3   3   24.81    1.68
  -3   6   3   22.80    1.30
   3  -6   3   22.68    1.83
   3  -6   3   21.02    1.53
  -6  -3   3   22.11    1.56
   6   3   3   20.72    1.74
   3  -6   3   24.97    1.65
  -6  -3   3   23.42    1.25
  -3   6   3   22.83    1.78
   2  -6  -3   28.57    1.88
   6   2  -3   30.59    1.37
  -6  -2  -3   30.29    2.17
  -6  -2  -3   29.72    1.83
   6   2  -3   29.29    2.00
  -6  -2   3   36.33    1.89
   2  -6   3   33.80    2.27
   2  -6   3   33.85    1.98
   6   2   3   35.60    1.92
   6   2   3   35.18    2.12
  -6  -2   3   34.40    2.03
  -2   6   3   39.64    2.36
  -2   6   3   33.01    1.60
   2  -6   3   32.22    1.95
  -6  -1  -3   47.58    2.73
   1  -6  -3   45.40    2.49
  -6  -1  -3   46.16    2.36
   6   1  -3   45.87    2.53
   6   1   3   45.06    2.36
   1  -6   3   42.81    2.34
  -6  -1   3   48.82    2.55
   1  -6   3   45.62    2.44
   6   1   3   47.14    2.46
   1  -6   3   47.14    2.73
  -1   6   3   45.17    1.96
  -6  -1   3   43.71    2.22
  -1   6   3   46.66    2.65
  -1  -6  -3   47.28    2.69
   6  -1  -3   46.83    2.64
  -1  -6  -3   47.09    1.78
   1   6  -3   48.14    1.90
  -6   1  -3   46.00    2.72
  -1  -6   3   42.38    2.36
   1   6   3   46.29    2.65
   1   6   3   44.74    1.88
   6  -1   3   45.29    2.22
  -1  -6   3   45.46    2.62
   6  -1   3   43.35    2.41
   6  -1   3   44.14    2.39
  -1  -6   3   47.86    2.40
  -6   1   3   47.18    2.11
  -6   1   3   47.11    2.48
   6  -2  -3   28.51    2.05
  -2  -6  -3   31.86    1.53
  -6   2  -3   30.26    2.16
  -2  -6  -3   34.01    2.29
   2   6  -3   28.78    1.60
   2   6   3   34.69    2.23
  -2  -6   3   36.82    2.05
  -2  -6   3   37.80    2.22
  -2  -6   3   34.31    1.97
   6  -2   3   36.25    2.06
  -6   2   3   34.41    1.63
   6  -2   3   39.31    2.13
   2   6   3   36.55    1.53
   6  -2   3   35.16    1.73
  -6   2   3   38.91    2.15
  -6   3  -3   24.70    1.94
   6  -3  -3   22.80    1.79
  -3  -6  -3   23.71    1.32
  -3  -6  -3   24.64    1.90
   3   6  -3   22.49    1.41
  -6   3   3   23.44    1.18
   3   6   3   23.22    1.19
  -3  -6   3   24.18    1.72
  -3  -6   3   23.39    1.67
   3   6   3   24.25    1.92
  -6   3   3   27.17    1.74
   6  -3   3   21.15    1.59
   6  -3   3   25.44    1.75
  -3  -6   3   24.10    1.63
   6  -3   3   22.73    1.24
  -6   4  -3  121.63    5.39
  -4  -6  -3  119.97    5.46
   6  -4  -3  131.48    5.42
   4   6   3  119.25    4.40
  -6   4   3  115.13    4.19
  -6   4   3  114.33    4.88
   6  -4   3  119.59    5.05
   6  -4   3  117.86    5.04
   4   6   3  122.51    5.37
  -4  -6   3  108.67    4.94
  -4  -6   3  115.93    4.91
   6  -4   3  113.51    4.30
  -4  -6   3  111.61    4.96
   6  -5  -3   78.00    3.98
   6  -5  -3   87.20    2.96
   5   6  -3   73.98    3.58
  -5  -6  -3   78.05    4.11
  -6   5  -3   76.03    4.00
  -5  -6  -3   81.12    3.44
   5   6   3   77.68    3.15
   5   6   3   78.08    4.02
   6  -5   3   76.67    3.73
  -6   5   3   74.62    2.75
  -6   5   3   77.25    3.54
   6  -5   3   77.44    2.93
  -5  -6   3   73.61    3.58
   6  -5   3   76.12    3.72
  -5  -6   3   74.20    3.65
  -5  -6   3   77.97    3.64
   6  -6  -3  191.10    7.98
  -6   6  -3  196.41    8.06
  -6   6  -3  192.51    6.62
   6  -6  -3  195.41    6.89
  -6  -6  -3  198.80    8.21
   6   6  -3  199.29    7.67
  -6  -6  -3  199.78    7.36
  -6  -6   3  190.17    7.43
   6  -6   3  193.84    7.66
   6   6   3  176.42    7.13
   6   6   3  190.32    8.01
   6  -6   3  194.54    7.64
  -6  -6   3  176.69    7.41
  -6   6   3  187.62    7.31
  -6  -6   3  178.42    7.51
  -6   7  -3   10.22    1.64
   7   6  -3   10.79    1.32
  -7  -6  -3   11.05    1.22
   6  -7  -3   10.49    1.39
   6  -7  -3   11.47    0.97
  -7  -6  -3   12.14    1.65
   7   6   3   12.61    1.04
  -7  -6   3   14.43    1.27
   6  -7   3   13.79    1.37
  -7  -6   3   13.43    1.37
  -6   7   3   13.68    1.24
   7   6   3   12.16    1.65
   6  -7   3   14.22    1.35
  -7  -6   3   12.89    1.43
   7   5  -3  105.02    4.99
  -7  -5  -3  112.28    4.77
   5  -7  -3  118.45    5.35
  -7  -5  -3  115.60    5.47
   5  -7  -3  115.45    4.71
  -5   7  -3  114.05    5.37
  -7  -5   3  105.89    4.86
  -7  -5   3  112.01    4.93
   5  -7   3  110.30    4.90
   5  -7   3  108.06    5.36
  -7  -5   3  108.33    4.54
   5  -7   3  114.14    5.00
  -5   7   3  109.98    4.49
   7   5   3  116.38    5.37
   7   5   3  104.93    4.50
   4  -7  -3  101.92    4.33
   7   4  -3   95.34    4.61
  -7  -4  -3   99.07    4.40
  -7  -4  -3   99.95    4.98
  -4   7   3  100.12    4.87
  -7  -4   3  106.04    4.09
  -7  -4   3  106.53    4.55
  -7  -4   3   99.87    4.54
  -4   7   3  101.40    4.08
   7   4   3  107.33    4.92
   4  -7   3  101.70    4.57
   4  -7   3  101.83    5.01
   7   4   3  109.21    4.35
   4  -7   3  100.93    4.51
   3  -7  -3   89.68    4.06
  -7  -3  -3   92.06    4.08
  -7  -3  -3   91.78    4.57
   7   3  -3   99.40    4.46
  -3   7   3   93.48    4.55
  -7  -3   3   91.38    3.51
   3  -7   3  101.56    4.22
   7   3   3   91.25    4.00
  -7  -3   3   88.94    4.08
  -7  -3   3   94.01    4.25
   3  -7   3   92.20    4.20
   3  -7   3   90.60    4.56
  -3   7   3   92.34    3.66
   7   3   3   94.69    4.44
   7   2  -3  185.73    7.13
   2  -7  -3  168.51    6.83
  -7  -2  -3  170.74    7.25
  -7  -2  -3  171.50    6.73
  -7  -2   3  167.72    6.88
   2  -7   3  168.32    7.21
  -7  -2   3  181.60    6.72
  -2   7   3  174.75    6.19
   7   2   3  175.44    6.98
   2  -7   3  171.75    6.74
  -2   7   3  162.14    7.11
   7   2   3  172.82    6.71
   2  -7   3  168.64    6.84
  -7  -1  -3  153.67    6.50
   7   1  -3  164.44    6.44
  -7  -1  -3  155.00    6.06
   1  -7  -3  156.90    6.28
   1  -7   3  150.71    6.47
  -1   7   3  143.77    6.38
   1  -7   3  149.52    6.11
  -1   7   3  143.16    5.35
   1  -7   3  152.85    6.00
  -7  -1   3  152.90    5.90
  -7  -1   3  142.54    6.14
   7   1   3  154.57    6.15
   7   1   3  145.49    6.01
   7   0  -3   -0.11    0.40
  -7   0  -3    0.22    0.55
  -7   0  -3    0.08    0.50
   0  -7  -3    0.27    0.55
   0   7  -3    0.23    0.14
   7   0   3    0.07    0.42
   0   7   3    0.15    0.20
   0  -7   3    0.28    0.62
   0   7   3    0.41    0.53
  -7   0   3    0.15    0.43
   0  -7   3    0.25    0.45
   7   0   3    0.38    0.41
   0  -7   3    0.06    0.40
  -7   0   3    0.93    0.70
  -7   1  -3  153.61    6.07
   1   7  -3  151.78    5.42
   7  -1  -3  144.58    6.30
  -7   1  -3  154.36    6.48
  -1  -7  -3  150.91    5.22
  -1  -7  -3  150.76    6.37
   7  -1   3  149.68    5.84
  -1  -7   3  152.61    6.11
  -1  -7   3  150.70    5.94
   1   7   3  147.98    5.20
  -1  -7   3  142.20    6.29
   1   7   3  154.85    6.44
  -7   1   3  150.36    6.15
   7  -1   3  144.82    6.06
  -7   2  -3  167.41    7.11
   2   7  -3  173.25    6.29
  -2  -7  -3  165.62    6.06
  -2  -7  -3  178.84    7.22
   7  -2  -3  166.92    7.07
  -7   2   3  167.65    6.80
   2   7   3  171.65    7.15
  -2  -7   3  178.06    6.65
   7  -2   3  168.07    6.80
   7  -2   3  167.05    6.41
  -2  -7   3  173.95    7.02
  -2  -7   3  169.56    6.78
   7  -2   3  167.09    6.81
  -7   2   3  171.44    6.27
   2   7   3  171.83    5.91
   3   7  -3   90.44    3.82
  -7   3  -3   92.04    4.49
  -3  -7  -3   92.82    4.56
   7  -3  -3   88.10    4.42
  -3  -7  -3   90.94    3.60
   7  -3   3   92.54    4.21
  -3  -7   3   94.44    4.32
  -7   3   3   91.74    3.57
   3   7   3   89.91    4.44
  -7   3   3   90.34    4.10
   7  -3   3   88.92    4.18
  -3  -7   3   89.53    4.00
  -3  -7   3   92.77    4.19
   3   7   3   90.60    3.31
   7  -3   3   90.30    3.70
  -4  -7  -3  105.53    4.12
   4   7  -3  104.63    4.34
  -7   4  -3  100.95    4.87
  -4  -7  -3   99.82    4.95
   7  -4  -3   97.71    4.83
   7  -4   3  101.19    3.94
  -4  -7   3  103.57    4.64
   4   7   3  101.62    3.72
   7  -4   3   98.61    4.57
  -4  -7   3   99.74    4.53
  -7   4   3   94.46    4.40
   4   7   3  108.94    4.99
  -4  -7   3   96.55    4.35
   7  -4   3   98.12    4.56
  -7   4   3  100.38    3.80
   5   7  -3  117.64    4.88
  -5  -7  -3  112.05    5.42
   7  -5  -3  110.21    5.27
  -7   5  -3  106.32    5.21
  -5  -7  -3  116.13    4.57
  -5  -7   3  112.72    4.99
  -5  -7   3  111.73    4.96
   5   7   3  107.41    4.14
   7  -5   3  110.07    4.97
  -7   5   3  107.72    4.02
   7  -5   3  109.80    4.96
  -5  -7   3  107.70    4.73
   5   7   3  113.46    5.39
   7  -5   3  109.39    4.21
  -7   5   3  111.62    4.80
   6   7  -3   10.92    1.28
   7  -6  -3   10.37    0.72
   7  -6  -3   12.23    1.46
  -6  -7  -3   10.32    1.44
  -6  -7  -3   11.21    1.22
   6   7   3   14.03    0.96
  -6  -7   3   13.88    1.34
   7  -6   3   13.84    0.84
  -6  -7   3   13.24    1.32
  -7   6   3   13.58    1.29
   7  -6   3   13.72    1.45
   7   7  -3   22.33    1.88
   7  -7  -3   20.07    1.94
  -7  -7  -3   19.58    1.66
  -7   7  -3   21.24    1.11
  -7   7  -3   22.24    2.01
   7  -7  -3   20.30    1.22
  -7  -7  -3   19.16    1.97
  -8  -7  -3    0.38    0.72
  -8  -7  -3    0.31    0.65
  -7   8  -3    0.84    0.88
   8   7  -3    1.54    0.84
   7  -8  -3    0.17    0.58
   7  -8   3   -0.02    0.68
  -8  -7   3    0.94    0.79
   7  -8   3    0.71    0.68
  -7   8   3    0.86    0.69
  -8  -7   3    1.69    0.81
   8   7   3   -0.20    0.60
  -8  -7   3    0.21    0.50
  -8  -6  -3   27.85    2.41
   8   6  -3   27.69    2.21
   6  -8  -3   26.37    1.71
   6  -8  -3   28.91    2.41
  -6   8  -3   24.78    2.30
  -8  -6  -3   28.56    2.05
  -8  -6   3   29.57    2.25
  -6   8   3   32.33    1.88
   6  -8   3   28.11    2.10
  -8  -6   3   29.70    2.17
   8   6   3   30.40    2.44
   8   6   3   30.79    1.81
  -8  -6   3   30.50    1.88
  -6   8   3   33.11    2.47
   6  -8   3   31.56    2.24
  -8  -5  -3    0.21    0.79
   8   5  -3    0.44    0.43
   5  -8  -3    0.45    0.41
  -8  -5  -3    0.21    0.61
  -8  -5   3    0.23    0.40
   8   5   3    0.75    0.51
  -8  -5   3    0.31    0.53
   5  -8   3    0.66    0.85
   5  -8   3    1.60    0.74
  -8  -5   3    0.10    0.67
  -5   8   3    0.57    0.61
  -5   8   3    0.48    0.47
   5  -8   3    0.72    0.53
   8   5   3    0.69    0.68
   4  -8  -3   89.55    4.14
  -8  -4  -3   86.08    4.94
   8   4  -3   90.41    4.50
  -8  -4  -3   91.41    4.23
  -8  -4   3   94.16    3.70
   4  -8   3   93.90    4.26
  -8  -4   3   95.53    4.33
   8   4   3   97.61    4.14
   8   4   3   98.75    4.70
  -8  -4   3   92.31    4.37
   8   3  -3   45.56    2.83
  -8  -3  -3   45.69    3.00
  -8  -3  -3   45.92    2.58
   3  -8  -3   42.56    2.52
   3  -8   3   48.26    2.59
  -3   8   3   45.67    2.90
   8   3   3   47.54    2.82
  -3   8   3   46.31    2.04
   8   3   3   46.12    2.49
  -8  -3   3   47.59    2.59
   3  -8   3   47.26    3.00
   3  -8   3   46.12    2.64
  -8  -3   3   40.76    2.62
   2  -8  -3  176.29    6.96
   8   2  -3  169.36    7.12
  -8  -2  -3  165.23    6.74
  -8  -2  -3  172.07    7.30
  -8  -2   3  174.26    6.74
   8   2   3  180.35    6.80
  -8  -2   3  168.34    6.92
  -2   8   3  162.04    5.99
  -2   8   3  174.67    7.28
   2  -8   3  158.00    6.64
   2  -8   3  170.68    7.33
   2  -8   3  173.54    6.91
   8   2   3  161.62    6.92
  -8  -1  -3    2.81    0.78
  -1   8  -3    3.46    0.20
   8   1  -3    2.71    0.76
   1  -8  -3    2.98    0.72
  -8  -1  -3    3.26    1.02
   1  -8   3    2.14    0.71
  -1   8   3    2.38    0.86
  -1   8   3    2.37    0.30
   8   1   3    2.62    0.84
   1  -8   3    1.99    0.92
  -8  -1   3    1.89    0.87
   8   1   3    1.66    0.69
   1  -8   3    2.29    0.85
  -8  -1   3    1.86    0.71
  -8   0  -3   59.12    2.98
   0  -8  -3   64.31    3.30
  -8   0  -3   61.66    3.40
   0   8  -3   63.06    2.29
   8   0  -3   68.64    3.42
   0   8   3   52.04    1.96
   0  -8   3   53.42    2.78
   0  -8   3   52.59    3.23
   8   0   3   55.68    2.90
  -8   0   3   52.95    3.03
  -8   0   3   53.96    2.73
   0   8   3   52.85    3.20
   8   0   3   54.54    2.95
   0  -8   3   56.48    3.01
  -1  -8  -3    2.86    0.96
   1   8  -3    3.48    0.51
   8  -1  -3    3.56    0.98
  -8   1  -3    2.85    0.80
  -8   1  -3    2.98    0.80
  -1  -8  -3    2.90    0.35
  -8   1   3    2.41    0.62
  -8   1   3    2.16    0.85
   8  -1   3    1.19    0.72
   1   8   3    1.78    0.77
  -1  -8   3    2.39    0.72
   8  -1   3    2.49    0.65
  -1  -8   3    2.25    0.69
  -1  -8   3    1.58    0.69
  -8   2  -3  166.00    6.80
  -2  -8  -3  165.83    6.01
  -2  -8  -3  174.28    7.25
  -8   2  -3  160.06    7.09
   8  -2  -3  170.94    7.20
   2   8  -3  171.19    6.31
   8  -2   3  167.42    6.85
  -8   2   3  171.65    6.34
   8  -2   3  170.69    6.52
  -2  -8   3  163.54    6.56
  -2  -8   3  171.27    6.85
   2   8   3  168.91    7.23
  -8   2   3  166.84    6.85
  -2  -8   3  161.46    7.04
  -3  -8  -3   46.24    2.12
  -8   3  -3   49.43    3.02
  -3  -8  -3   44.54    2.91
   3   8  -3   47.76    2.53
   8  -3  -3   49.24    3.01
  -3  -8   3   46.22    2.66
   8  -3   3   43.00    2.65
   3   8   3   42.31    2.85
  -8   3   3   49.34    2.70
  -3  -8   3   47.55    2.86
   8  -3   3   43.15    2.63
  -3  -8   3   45.20    2.47
  -8   3   3   46.94    2.21
  -8   4  -3   96.28    4.65
  -4  -8  -3   89.74    3.74
  -4  -8  -3   80.16    4.78
   4   8  -3   85.12    3.98
   8  -4  -3   81.32    4.77
  -8   4   3   92.64    4.25
  -8   4   3   95.81    3.64
  -4  -8   3   88.19    4.03
   4   8   3   95.42    4.72
   8  -4   3   95.23    3.78
  -4  -8   3   90.75    4.41
  -8   5  -3    0.41    0.83
  -5  -8  -3    0.82    0.23
   8  -5  -3    0.31    0.58
  -5  -8  -3   -0.08    0.46
   5   8  -3    0.93    0.58
  -5  -8  -3    0.06    0.58
  -8   5   3    0.09    0.35
   8  -5   3    0.80    0.61
  -5  -8   3    0.79    0.59
   8  -5   3    0.30    0.29
   5   8   3    1.19    0.92
  -5  -8   3   -0.07    0.47
   8  -5   3    0.57    0.57
  -5  -8   3    1.20    0.69
  -8   5   3    0.68    0.70
  -8   6  -3   27.97    2.38
  -6  -8  -3   27.62    2.48
   6   8  -3   26.78    2.04
  -6  -8  -3   27.54    1.84
  -6  -8  -3   28.09    1.33
   8  -6  -3   26.55    2.27
  -6  -8   3   29.06    2.13
  -8   6   3   30.02    2.04
   6   8   3   29.30    2.45
  -6  -8   3   31.26    2.18
   8  -6   3   29.02    1.54
  -8   6   3   28.80    1.37
  -6  -8   3   30.94    2.03
   8  -6   3   30.05    2.20
   8  -6   3   30.04    2.23
  -7  -8  -3    0.82    0.71
   7   8  -3    0.45    0.52
  -8   7  -3    0.36    0.79
  -7  -8  -3    0.04    0.62
   8  -7  -3    0.58    0.65
  -7  -8  -3    0.75    0.30
   8  -7   3    0.11    0.65
   8  -7   3   -0.29    0.64
  -7  -8   3    0.89    0.62
  -8   7   3    0.55    0.64
   7   8   3    0.79    0.78
  -7  -8   3    0.08    0.71
   8  -7   3    0.67    0.29
   8   8  -3  286.59   11.15
  -8  -8  -3  285.72   10.64
   8  -8  -3  286.48   11.53
  -8  -8  -3  280.54    9.88
   8  -8  -3  280.67    9.90
  -8  -8  -3  280.84   11.61
  -8   8  -3  288.92   11.49
  -8   8  -3  242.95    9.75
   8   8   3  294.81   11.74
  -8  -8   3  266.56   10.88
  -8  -8   3  282.53   10.66
   8  -8   3  279.20   10.91
   8  -8   3  272.36   10.95
  -8  -8   3  273.12   10.73
  -8   8   3  284.25   10.52
  -8   9  -3   15.33    1.84
   8  -9  -3   15.27    1.84
   9   8  -3   14.07    1.75
  -9  -8  -3   16.04    1.15
  -9  -8  -3   14.55    1.59
   8  -9  -3   17.94    1.27
  -9  -8  -3   16.02    2.06
   8  -9   3   12.72    1.53
   9   8   3   16.30    2.17
  -9  -8   3   15.53    1.54
  -8   9   3   14.42    1.61
   8  -9   3   13.06    1.55
  -9  -8   3   12.37    1.50
  -9  -8   3   15.01    1.59
  -9  -7  -3   79.39    4.64
  -9  -7  -3   77.90    3.42
  -9  -7  -3   81.35    3.99
  -7   9  -3   82.65    4.61
   7  -9  -3   74.07    3.48
   9   7  -3   73.39    4.18
   7  -9   3   75.08    4.04
  -9  -7   3   79.48    4.09
  -7   9   3   72.05    3.51
  -7   9   3   73.48    4.37
  -9  -7   3   77.92    3.93
   7  -9   3   76.26    4.00
  -9  -7   3   74.62    3.68
   9   7   3   76.43    4.52
   9   6  -3   10.67    1.51
   6  -9  -3    9.43    1.07
  -9  -6  -3   11.45    1.74
  -6   9  -3    9.36    1.44
  -9  -6  -3   11.47    1.41
   6  -9   3    9.22    1.36
  -9  -6   3   12.84    1.50
   9   6   3   10.70    1.57
   9   6   3   11.68    1.16
  -6   9   3   10.26    1.57
  -9  -6   3   11.81    1.10
  -9  -6   3   11.92    1.44
  -6   9   3   13.25    1.13
   6  -9   3    8.95    1.60
   6  -9   3   10.82    1.34
  -9  -5  -3  351.23   13.20
  -9  -5  -3  339.31   12.38
   9   5  -3  343.14   13.31
   5  -9  -3  344.78   12.22
  -5   9   3  332.76   11.67
   9   5   3  310.26   12.82
   5  -9   3  320.45   12.46
  -9  -5   3  322.94   12.41
  -5   9   3  325.52   12.96
   5  -9   3  320.54   13.06
  -9  -5   3  342.20   12.49
   9   5   3  326.68   12.07
  -9  -5   3  315.01   11.67
   9   4  -3    1.96    0.86
   4  -9  -3    2.08    0.75
  -9  -4  -3    2.34    1.04
  -9  -4   3    1.48    0.89
   9   4   3    1.19    0.69
   9   4   3    1.91    1.07
   4  -9   3    1.72    0.87
   4  -9   3    1.19    0.66
  -4   9   3    0.93    0.40
  -4   9   3    0.85    0.87
   4  -9   3    1.59    0.75
  -9  -4   3    1.62    0.37
  -9  -3  -3   18.31    1.54
   9   3  -3   19.23    1.78
   3  -9  -3   17.37    1.61
  -9  -3  -3   19.39    1.96
   3  -9   3   16.13    1.45
   9   3   3   21.12    1.61
   3  -9   3   16.79    1.54
   9   3   3   15.16    1.69
  -9  -3   3   18.22    1.60
  -9  -3   3   17.30    1.68
  -3   9   3   16.60    1.73
   3  -9   3   18.15    1.84
  -3   9   3   16.91    0.98
   9   2  -3   48.35    2.99
   2  -9  -3   44.38    2.71
  -9  -2  -3   42.15    2.58
   9   2   3   42.82    2.75
   9   2   3   43.02    2.54
  -9  -2   3   47.34    2.75
  -2   9   3   44.81    1.96
  -2   9   3   39.94    2.82
  -9  -2   3   42.09    2.49
   2  -9   3   44.08    2.66
   2  -9   3   47.19    2.53
   2  -9   3   44.12    2.96
   1  -9  -3   45.44    2.96
  -9  -1  -3   48.47    3.20
  -9  -1  -3   47.42    2.84
   9   1  -3   49.58    3.14
   9   1   3   56.28    2.93
  -9  -1   3   63.67    2.94
   9   1   3   56.37    3.07
   1  -9   3   57.22    2.81
  -9   0  -3    1.01    0.83
  -9   0  -3    0.82    0.70
   0   9  -3    0.38    0.26
   0  -9  -3   -0.03    0.49
   9   0  -3   -0.38    0.66
   0  -9  -3    0.67    0.13
   0  -9   3    0.10    0.44
   9   0   3   -0.10    0.51
  -9   0   3    0.64    0.56
   9   0   3    0.51    0.57
   0  -9   3    0.05    0.51
   1   9  -3   47.62    2.33
  -1  -9  -3   45.93    3.10
   9  -1  -3   49.64    3.14
  -9   1  -3   50.89    3.17
  -1  -9  -3   47.78    2.05
   9  -1   3   54.81    3.21
  -9   1   3   58.74    2.71
  -1  -9   3   52.43    2.69
  -1  -9   3   58.50    3.36
   9  -1   3   58.71    2.91
  -2  -9  -3   44.02    1.95
  -2  -9  -3   48.46    3.07
  -9   2  -3   44.87    2.68
  -9   2  -3   46.36    2.94
   9  -2  -3   39.71    3.06
   2   9  -3   45.49    2.26
  -2  -9   3   44.94    2.54
  -2  -9   3   44.31    2.91
   9  -2   3   45.60    2.96
   2   9   3   42.95    2.98
  -2  -9   3   44.26    2.65
  -9   2   3   43.23    2.31
   9  -2   3   41.87    2.40
   3   9  -3   16.48    1.32
   9  -3  -3   18.83    1.81
  -9   3  -3   18.05    1.58
  -3  -9  -3   20.81    2.01
  -3  -9   3   17.70    1.78
  -3  -9   3   16.17    1.53
   9  -3   3   17.47    1.59
  -9   3   3   18.43    1.33
   9  -3   3   17.67    1.36
  -3  -9   3   16.77    1.40
   3   9   3   15.51    1.73
   4   9  -3    2.18    0.76
   9  -4  -3    1.31    0.87
  -9   4  -3    1.57    0.72
  -4  -9  -3    2.02    0.93
  -4  -9  -3    2.64    0.62
  -9   4  -3    2.89    1.08
   4   9   3    1.53    0.87
  -9   4   3    1.70    0.59
  -4  -9   3    1.56    0.82
  -9   4   3    0.65    0.63
   9  -4   3    1.30    0.48
   9  -4   3    0.64    0.59
  -4  -9   3    1.21    0.67
  -4  -9   3    1.63    0.86
   9  -4   3    1.37    0.74
  -9   5  -3  322.82   12.88
   5   9  -3  333.78   12.34
   9  -5  -3  350.72   13.14
  -5  -9  -3  333.17   13.12
  -5  -9  -3  342.63   11.93
   9  -5   3  329.57   12.57
   5   9   3  323.86   13.08
   9  -5   3  333.33   12.60
   9  -5   3  322.18   11.79
  -5  -9   3  337.12   12.17
  -5  -9   3  317.03   12.64
  -9   5   3  329.35   12.42
  -5  -9   3  324.11   12.55
  -9   6  -3    9.34    1.40
   9  -6  -3   10.37    1.48
  -6  -9  -3    9.57    1.64
   6   9  -3    9.47    1.27
  -6  -9  -3   11.01    1.22
  -6  -9   3   11.13    1.47
  -9   6   3    9.34    1.29
   9  -6   3   12.04    0.98
   9  -6   3   11.49    1.47
  -6  -9   3   11.55    1.45
   6   9   3   11.31    1.65
  -6  -9   3   11.15    1.25
  -9   6   3   10.76    0.89
   9  -6   3   12.66    1.51
  -7  -9  -3   82.70    3.77
  -7  -9  -3   72.35    4.42
  -9   7  -3   80.89    4.46
   7   9  -3   73.99    4.31
   9  -7  -3   77.80    4.47
   9  -7   3   70.57    3.96
   9  -7   3   73.23    4.06
  -7  -9   3   71.88    4.28
  -7  -9   3   80.00    4.13
  -7  -9   3   77.26    3.76
   7   9   3   75.33    4.54
  -9   7   3   73.37    3.84
  -8  -9  -3   15.26    1.90
  -9   8  -3   12.94    1.81
   8   9  -3   14.57    1.72
  -8  -9  -3   14.19    1.51
   9  -8  -3   15.95    1.86
  -8  -9   3   12.64    1.63
  -8  -9   3   14.32    1.47
   9  -8   3   13.35    1.62
   9  -8   3   15.16    1.70
   8   9   3   15.72    1.99
  -9   8   3   14.46    1.60
   9  -9  -3   21.29    2.23
  -9  -9  -3   19.07    1.83
  -9   9  -3   20.25    2.24
  -9  -9  -3   22.04    2.31
   9   9  -3   17.33    1.98
  -9  -9   3   22.82    1.86
   9  -9   3   22.05    2.03
  -9   9   3   21.56    1.83
   9  -9   3   21.34    2.01
  -9  -9   3   20.76    1.90
  -9  -9   3   22.10    2.10
   9   9   3   20.13    2.32
 -10  -9  -3   43.36    2.84
  10   9  -3   36.86    2.91
 -10  -9  -3   39.30    3.58
  -9  10  -3   40.37    3.25
  10   9   3   41.60    3.40
 -10  -9   3   38.30    3.17
   9 -10   3   39.15    2.91
  -9  10   3   39.87    3.51
 -10  -9   3   37.68    2.60
  -9  10   3   39.72    2.54
 -10  -9   3   40.69    2.66
   9 -10   3   40.47    2.86
  -8  10  -3   39.43    3.11
  10   8  -3   43.49    3.07
   8 -10  -3   45.12    3.09
 -10  -8  -3   44.54    2.22
 -10  -8  -3   42.90    2.82
 -10  -8  -3   41.23    3.33
  -8  10   3   37.50    3.05
  10   8   3   36.72    3.25
 -10  -8   3   38.05    2.47
   8 -10   3   40.40    2.77
 -10  -8   3   37.19    2.74
   8 -10   3   34.22    2.72
 -10  -8   3   37.47    2.61
  10   7  -3   30.29    2.51
 -10  -7  -3   29.81    1.90
  -7  10  -3   30.03    2.73
   7 -10  -3   30.47    2.01
 -10  -7  -3   26.01    2.63
 -10  -7  -3   30.99    2.36
  -7  10   3   36.86    2.94
 -10  -7   3   32.39    2.49
   7 -10   3   33.35    2.39
   7 -10   3   32.30    2.47
 -10  -7   3   34.00    2.08
  10   7   3   28.75    2.66
 -10  -7   3   33.19    2.39
  -7  10   3   31.32    1.93
 -10  -6  -3  109.77    5.67
  10   6  -3  106.08    5.38
 -10  -6  -3  109.15    5.03
   6 -10  -3  103.92    4.69
  10   6   3   98.38    5.45
   6 -10   3   99.75    5.03
  -6  10   3   96.99    5.36
   6 -10   3  101.74    5.56
  -6  10   3   99.20    4.22
   6 -10   3  103.96    4.90
 -10  -6   3  106.28    5.07
 -10  -6   3  104.32    4.97
  10   6   3  107.43    4.63
 -10  -6   3  102.50    4.36
 -10  -5  -3   14.38    1.91
   5 -10  -3   14.68    1.44
  10   5  -3   17.85    1.84
 -10  -5  -3   13.76    1.59
  10   5   3   15.17    1.78
 -10  -5   3   14.90    1.07
   5 -10   3   15.44    1.95
   5 -10   3   16.79    1.59
  10   5   3   14.65    1.40
  -5  10   3   16.15    1.81
   5 -10   3   13.90    1.59
 -10  -5   3   15.99    1.57
  -5  10   3   15.69    1.08
 -10  -5   3   14.41    1.64
 -10  -4  -3   61.54    3.85
 -10  -4  -3   62.74    3.43
   4 -10  -3   60.89    3.34
  10   4  -3   57.38    3.60
  -4  10   3   56.42    2.44
  10   4   3   62.38    3.24
  -4  10   3   61.60    3.75
 -10  -4   3   64.88    3.43
   4 -10   3   63.17    3.46
 -10  -4   3   57.20    3.39
  10   4   3   59.08    3.68
   4 -10   3   59.62    3.87
 -10  -3  -3    3.84    1.28
  10   3  -3    3.08    0.91
 -10  -3  -3    4.90    1.05
   3 -10  -3    4.33    1.06
 -10  -3   3    5.04    1.00
   3 -10   3    3.73    0.85
  10   3   3    4.80    1.25
   3 -10   3    5.37    0.93
 -10  -3   3    4.99    1.03
  -3  10   3    5.05    1.08
   3 -10   3    5.00    1.29
 -10  -2  -3   49.97    3.26
  10   2  -3   45.77    3.05
 -10  -2  -3   47.82    2.85
   2 -10  -3   49.58    3.00
 -10  -2   3   48.08    2.74
  -2  10   3   44.10    3.07
 -10  -2   3   44.91    2.90
   2 -10   3   43.50    2.55
   2 -10   3   41.03    3.09
  10   2   3   45.59    2.96
   2 -10   3   43.44    2.77
  10   2   3   49.25    3.04
 -10  -1  -3  224.93    9.23
   1 -10  -3  229.03    9.06
 -10  -1  -3  216.81    8.72
  10   1  -3  201.80    9.05
  -1  10   3  220.34    9.26
   1 -10   3  220.54    9.32
   1 -10   3  221.77    8.79
  10   1   3  218.25    8.83
 -10  -1   3  213.84    8.80
   1 -10   3  221.15    8.41
 -10  -1   3  223.38    8.52
  10   1   3  213.39    8.65
   0  10  -3   78.67    3.29
 -10   0  -3   81.78    4.38
  10   0  -3   77.50    4.37
 -10   0  -3   78.79    4.03
   0 -10   3   79.64    4.07
   0  10   3   68.91    4.23
   0 -10   3   83.82    3.79
  10   0   3   78.66    4.02
  10   0   3   82.24    4.07
   0 -10   3   85.40    4.56
 -10   0   3   89.01    4.23
 -10   0   3   87.97    3.88
 -10   1  -3  226.38    9.17
  -1 -10  -3  219.60    7.58
  -1 -10  -3  208.76    9.06
  10  -1  -3  218.85    9.18
   1  10  -3  214.07    7.97
 -10   1  -3  221.66    8.74
 -10   1   3  214.83    8.78
 -10   1   3  215.64    8.31
  -1 -10   3  213.28    8.72
  10  -1   3  211.20    8.69
   1  10   3  222.04    9.29
  -1 -10   3  216.36    9.17
  -1 -10   3  223.78    8.33
  10  -1   3  222.63    8.63
  -2 -10  -3   45.38    3.11
  10  -2  -3   46.83    3.16
   2  10  -3   48.01    2.51
 -10   2  -3   46.25    3.05
 -10   2  -3   44.58    2.79
  -2 -10  -3   44.78    2.01
  -2 -10   3   46.57    2.81
  10  -2   3   43.65    2.58
 -10   2   3   48.37    2.48
 -10   2   3   45.33    2.88
   2  10   3   39.94    3.05
  -2 -10   3   44.46    3.07
  -2 -10   3   45.19    2.48
  10  -2   3   40.67    2.73
  -3 -10  -3    4.97    0.63
 -10   3  -3    3.89    1.00
   3  10  -3    4.08    0.76
  -3 -10  -3    3.26    1.19
 -10   3  -3    4.24    1.17
  10  -3  -3    3.71    1.00
  10  -3   3    4.66    0.92
  -3 -10   3    4.72    1.14
  -3 -10   3    6.65    1.19
  10  -3   3    5.60    0.85
   3  10   3    4.43    1.32
 -10   3   3    4.54    0.79
 -10   3   3    4.52    0.95
  -3 -10   3    4.64    0.82
   4  10  -3   61.21    3.18
  -4 -10  -3   60.96    2.81
 -10   4  -3   63.65    3.78
  10  -4  -3   63.45    3.83
  -4 -10  -3   60.52    3.82
 -10   4  -3   64.82    3.48
  -4 -10   3   62.86    3.73
 -10   4   3   59.85    2.88
  -4 -10   3   59.46    3.06
   4  10   3   56.68    3.75
  10  -4   3   61.29    3.04
  -4 -10   3   61.04    3.46
  10  -4   3   60.18    3.49
 -10   4   3   61.53    3.48
 -10   5  -3   15.70    1.67
  10  -5  -3   14.39    1.88
  -5 -10  -3   15.21    1.30
   5  10  -3   15.08    1.49
 -10   5  -3   17.00    1.93
  -5 -10  -3   15.83    1.87
  10  -5   3   15.52    1.68
  -5 -10   3   15.56    1.75
  -5 -10   3   15.91    1.40
  -5 -10   3   13.85    1.54
  10  -5   3   16.34    1.27
   5  10   3   16.36    1.93
 -10   5   3   15.63    1.21
 -10   5   3   16.21    1.72
  -6 -10  -3  107.66    5.73
  -6 -10  -3  110.49    4.63
   6  10  -3  105.93    5.01
 -10   6  -3  102.90    5.08
  10  -6  -3   98.51    5.43
 -10   6  -3  110.26    5.55
  10  -6   3  106.11    5.20
  -6 -10   3  104.43    5.27
  10  -6   3  107.19    4.46
 -10   6   3   95.21    4.15
  10  -6   3  101.31    5.10
  -6 -10   3  103.96    5.17
   6  10   3  111.19    5.76
 -10   6   3  107.14    5.02
 -10   7  -3   28.22    2.57
  10  -7  -3   28.42    2.60
   7  10  -3   27.36    2.32
  -7 -10  -3   28.38    2.04
  -7 -10  -3   26.93    2.61
  -7 -10   3   36.59    2.64
  10  -7   3   32.16    2.52
  -7 -10   3   31.10    2.49
 -10   7   3   36.64    2.47
  -7 -10   3   35.79    2.23
   7  10   3   31.60    2.85
  10  -7   3   34.21    1.89
  10  -7   3   35.59    2.62
  -8 -10  -3   40.40    3.31
   8  10  -3   42.61    2.94
  10  -8  -3   45.05    3.37
  -8 -10  -3   42.90    2.61
 -10   8  -3   44.45    3.25
   8  10   3   35.76    3.16
  -8 -10   3   38.57    2.80
  10  -8   3   35.70    2.77
  -8 -10   3   39.15    2.87
 -10   8   3   39.96    2.66
  10  -8   3   33.30    2.70
  -8 -10   3   36.82    2.43
   9  10  -3   38.75    2.92
  10  -9  -3   39.66    3.55
  -9 -10  -3   33.62    3.41
 -10   9  -3   41.77    3.22
  -9 -10  -3   43.29    2.73
  10  -9   3   42.24    2.97
  10  -9   3   38.38    2.86
   9  10   3   37.61    3.63
 -10   9   3   42.11    2.70
  -9 -10   3   37.91    2.54
  -9 -10   3   45.01    2.95
 -10 -10  -3   45.69    3.03
 -10  10  -3   46.08    3.49
  10 -10  -3   47.46    3.65
  10  10  -3   48.40    3.41
 -10 -10  -3   48.00    3.67
  10  10   3   44.08    3.76
  10 -10   3   43.62    3.19
 -10 -10   3   42.66    3.18
 -10  10   3   42.49    3.44
 -10  10   3   45.55    2.87
 -10 -10   3   44.65    2.84
 -10 -10   3   47.49    3.08
 -11 -10  -3    5.24    1.73
  11  10  -3    4.65    1.11
 -10  11  -3    5.55    1.42
 -11 -10  -3    3.63    1.17
 -11 -10   3    6.14    1.19
 -10  11   3    3.39    1.04
  10 -11   3    5.31    1.25
 -11 -10   3    5.71    1.30
 -10  11   3    4.30    1.21
  11  10   3    2.98    1.52
  10 -11   3    4.43    1.23
 -11 -10   3    5.16    1.21
  -9  11  -3   76.65    4.87
 -11  -9  -3   74.16    4.88
 -11  -9  -3   80.04    4.35
  11   9  -3   75.15    4.64
   9 -11   3   79.68    4.70
  11   9   3   76.61    4.97
 -11  -9   3   80.81    4.53
   9 -11   3   78.87    4.51
 -11  -9   3   77.94    4.13
  -9  11   3   81.47    4.97
 -11  -8  -3    5.66    1.29
  11   8  -3    6.59    1.43
 -11  -8  -3    6.11    1.01
   8 -11   3    6.36    1.28
   8 -11   3    5.21    1.39
 -11  -8   3    6.08    1.05
 -11  -8   3    6.21    1.32
 -11  -7  -3   59.98    3.54
 -11  -7  -3   60.54    4.07
  11   7  -3   60.59    3.89
   7 -11  -3   58.53    3.15
 -11  -7  -3   59.95    2.99
  -7  11  -3   57.01    3.90
  -7  11   3   55.30    3.84
   7 -11   3   54.20    3.31
 -11  -7   3   53.43    3.47
   7 -11   3   51.72    3.44
 -11  -7   3   59.28    3.44
  11   7   3   55.34    3.90
 -11  -6  -3   17.16    2.13
   6 -11  -3   20.86    1.78
  11   6  -3   18.05    2.05
 -11  -6  -3   20.99    1.64
 -11  -6  -3   20.53    1.98
 -11  -6   3   20.12    1.96
   6 -11   3   19.79    1.87
  11   6   3   19.29    2.13
   6 -11   3   18.03    2.22
 -11  -6   3   18.93    1.84
   6 -11   3   18.55    1.92
  -6  11   3   18.52    2.20
  11   5  -3   33.57    2.75
 -11  -5  -3   28.94    2.43
 -11  -5  -3   31.98    2.86
   5 -11   3   35.68    2.62
   5 -11   3   37.73    2.44
  11   5   3   37.47    2.90
 -11  -5   3   34.73    2.55
  11   5   3   38.78    2.45
 -11  -5   3   37.63    2.58
  -5  11   3   38.85    2.95
   5 -11   3   38.02    3.02
 -11  -4  -3    0.88    0.99
 -11  -4  -3    2.70    1.11
  11   4  -3    2.61    1.14
   4 -11  -3    1.81    0.89
   4 -11   3    1.55    0.94
   4 -11   3    1.17    0.82
  -4  11   3    1.46    0.87
 -11  -4   3    4.36    1.17
  11   4   3    2.21    0.86
 -11  -4   3    2.94    1.11
   4 -11   3    2.52    0.85
  11   4   3    3.16    1.17
   3 -11  -3  237.01    9.39
  11   3  -3  237.30    9.83
 -11  -3  -3  220.00    9.19
 -11  -3  -3  229.97    9.77
 -11  -3   3  218.69    9.25
  11   3   3  242.16    9.18
  -3  11   3  220.95    9.71
   3 -11   3  230.78    9.28
  11   3   3  215.79    9.45
   3 -11   3  222.22    9.83
 -11  -3   3  234.08    9.16
   2 -11  -3    2.34    0.94
 -11  -2  -3    1.98    0.99
 -11  -2  -3    2.04    0.96
  11   2  -3    3.47    1.20
  -2  11   3    2.77    1.02
  11   2   3    3.06    1.01
   2 -11   3    2.86    0.79
 -11  -2   3    2.54    0.94
 -11  -2   3    3.13    0.99
   2 -11   3    2.09    0.98
  11   2   3    3.10    0.89
   2 -11   3    3.58    1.05
 -11  -1  -3   47.25    2.99
  11   1  -3   52.57    3.51
  -1  11  -3   47.43    2.22
 -11  -1  -3   55.75    3.52
   1 -11  -3   56.37    3.41
 -11  -1   3   51.37    2.93
  11   1   3   51.15    3.14
 -11  -1   3   52.73    3.25
   1 -11   3   50.15    3.53
  -1  11   3   51.10    3.43
   1 -11   3   49.96    3.10
   1 -11   3   53.01    2.82
  11   1   3   50.88    3.07
 -11   0  -3    0.21    0.80
  11   0  -3    0.06    0.55
   0 -11  -3   -0.38    0.68
 -11   0  -3   -0.52    0.66
   0  11  -3    0.63    0.39
   0 -11   3   -0.53    0.60
  11   0   3   -0.10    0.55
   0 -11   3    2.12    1.06
 -11   0   3    0.79    0.66
   0 -11   3    0.30    0.53
  11   0   3    0.27    0.66
   0  11   3   -0.32    0.54
 -11   0   3    0.11    0.81
  -1 -11  -3   51.42    2.13
 -11   1  -3   50.15    3.37
  11  -1  -3   54.73    3.52
  -1 -11  -3   51.48    3.42
 -11   1  -3   51.56    3.14
 -11   1   3   52.36    2.84
   1  11   3   52.08    3.48
  11  -1   3   54.75    3.22
  11  -1   3   49.64    3.00
  -1 -11   3   49.77    2.69
 -11   1   3   48.58    3.10
  -1 -11   3   51.01    3.12
  -1 -11   3   48.52    3.37
 -11   2  -3    2.82    1.14
  -2 -11  -3    2.61    1.14
  11  -2  -3    3.51    1.24
 -11   2  -3    3.06    0.82
   2  11  -3    2.61    0.70
 -11   2   3    2.98    0.87
 -11   2   3    3.47    1.15
  11  -2   3    3.34    0.84
  -2 -11   3    1.81    1.05
  -2 -11   3    2.38    0.87
  11  -2   3    2.46    0.90
   2  11   3    3.53    1.26
  -2 -11   3    2.84    0.77
  -3 -11  -3  222.70    9.79
 -11   3  -3  255.09    9.91
  -3 -11  -3  226.20    8.30
  11  -3  -3  220.38    9.74
 -11   3  -3  223.84    9.29
   3  11  -3  227.50    8.78
  11  -3   3  234.36    8.99
  11  -3   3  226.21    9.36
 -11   3   3  229.92    8.71
   3  11   3  234.55    9.96
  -3 -11   3  223.15    8.68
  -3 -11   3  227.62    9.34
  -3 -11   3  221.72    9.68
 -11   3   3  235.65    9.43
   4  11  -3    2.92    0.86
  11  -4  -3    1.53    1.01
  -4 -11  -3    2.47    0.57
 -11   4  -3    2.82    1.13
  -4 -11  -3    1.47    1.00
 -11   4  -3    2.91    1.03
   4  11   3    2.15    1.22
  -4 -11   3    1.98    0.99
  11  -4   3    2.53    1.01
 -11   4   3    1.38    0.95
  -4 -11   3    1.75    0.98
 -11   4   3    1.10    0.65
  11  -4   3    1.53    0.58
  -4 -11   3    0.86    0.61
 -11   5  -3   32.72    2.46
 -11   5  -3   34.56    2.80
  -5 -11  -3   32.35    1.96
  -5 -11  -3   27.24    2.62
  11  -5  -3   27.87    2.62
   5  11  -3   29.32    2.24
 -11   5   3   35.71    2.60
  -5 -11   3   37.95    2.84
  -5 -11   3   38.64    2.70
 -11   5   3   34.17    2.00
  11  -5   3   39.15    2.22
   5  11   3   35.67    3.06
  11  -5   3   35.63    2.64
 -11   6  -3   20.84    2.12
   6  11  -3   16.52    1.69
  11  -6  -3   19.76    2.14
 -11   6  -3   18.43    1.90
  -6 -11  -3   19.71    2.28
  -6 -11   3   19.24    2.05
 -11   6   3   20.53    1.98
 -11   6   3   18.00    1.71
  11  -6   3   16.39    1.88
   6  11   3   17.78    2.15
  -6 -11   3   17.62    1.51
  11  -6   3   19.77    1.52
  -6 -11   3   17.93    1.84
  -7 -11  -3   62.17    3.20
 -11   7  -3   63.60    3.71
 -11   7  -3   62.27    4.00
   7  11  -3   60.10    3.58
  11  -7  -3   52.14    3.81
  -7 -11  -3   61.82    4.18
  -7 -11   3   56.07    3.09
   7  11   3   56.37    4.07
  11  -7   3   57.94    3.65
  -7 -11   3   56.86    3.72
  -7 -11   3   55.65    3.61
 -11   7   3   57.32    3.48
  11  -7   3   58.08    2.94
 -11   8  -3    4.21    1.38
  11  -8  -3    7.10    1.61
  -8 -11  -3    5.97    1.79
  -8 -11  -3    6.91    1.13
   8  11  -3    6.60    1.24
  -8 -11   3    7.63    1.56
 -11   8   3    6.45    1.28
  -8 -11   3    5.65    1.21
  11  -8   3    4.59    1.45
  -8 -11   3    8.26    1.17
   8  11   3    5.96    1.69
 -11   9  -3   81.81    4.91
  11  -9  -3   79.73    5.03
  -9 -11  -3   74.49    4.96
 -11   9  -3   81.30    4.50
   9  11  -3   77.32    4.51
  -9 -11  -3   72.35    4.02
  -9 -11   3   83.37    4.00
  -9 -11   3   81.78    4.51
  -9 -11   3   75.64    4.50
 -11   9   3   79.23    4.20
  11  -9   3   73.17    4.39
  11  -9   3   78.48    4.50
   9  11   3   79.16    5.11
 -11  10  -3    5.89    1.14
 -10 -11  -3    7.25    1.75
  10  11  -3    6.12    1.40
  11 -10  -3    3.90    1.19
 -11  10  -3    4.78    1.40
 -11  10   3    3.34    1.06
 -10 -11   3    6.49    1.14
  11 -10   3    6.86    1.37
  10  11   3    5.90    1.84
 -10 -11   3    6.25    1.41
 -10 -11   3    5.74    1.21
  11 -10   3    5.53    1.30
  11  11  -3   12.10    1.70
 -11 -11  -3   12.48    1.75
 -11  11  -3   13.33    2.03
 -11 -11  -3   14.10    2.03
 -11 -11   3   14.33    1.73
  11  11   3   12.98    2.12
  11 -11   3   12.53    1.74
  11 -11   3   13.59    1.86
 -11 -11   3   13.31    1.77
 -11 -11   3    9.42    2.38
 -11  11   3   10.76    1.72
 -12 -11  -3   10.82    1.92
 -11  12  -3   10.04    1.81
  12  11  -3   11.26    1.62
 -12 -11  -3   11.41    1.63
 -11  12   3   11.35    1.80
 -12 -11   3   12.18    1.71
  12  11   3    8.57    1.76
 -12 -11   3   12.35    1.54
  11 -12   3   12.78    1.72
  11 -12   3   13.51    1.68
 -10  12  -3   30.99    3.03
 -12 -10  -3   33.50    3.10
  12  10  -3   37.96    3.11
 -12 -10  -3   30.09    2.58
  10 -12   3   37.05    2.89
  12  10   3   34.68    3.29
  10 -12   3   33.96    2.68
 -12 -10   3   35.69    2.89
 -10  12   3   32.41    3.05
 -12 -10   3   34.29    2.54
 -12  -9  -3   12.81    2.11
  12   9  -3   15.14    1.93
 -12  -9  -3   16.03    1.98
  -9  12  -3   16.94    2.22
  -9  12   3   14.83    2.03
   9 -12   3   16.04    1.93
 -12  -9   3   17.23    2.03
  12   9   3   14.90    2.39
 -12  -9   3   15.67    1.73
   9 -12   3   16.84    1.89
 -12  -8  -3    7.10    1.64
  12   8  -3    5.03    1.21
  -8  12  -3    7.35    1.67
 -12  -8  -3    5.37    1.34
  12   8   3    6.40    1.54
   8 -12   3    6.97    1.41
  -8  12   3    7.43    1.45
 -12  -8   3    6.90    1.28
   8 -12   3    9.45    1.38
   7 -12  -3   53.33    3.18
 -12  -7  -3   56.82    3.01
  -7  12  -3   53.93    3.95
 -12  -7  -3   52.27    3.72
  12   7  -3   52.44    3.77
  -7  12   3   60.02    4.07
 -12  -7   3   53.19    3.48
 -12  -7   3   60.24    3.51
   7 -12   3   52.20    3.91
  12   7   3   46.25    4.14
   7 -12   3   58.12    3.35
 -12  -6  -3   89.13    4.61
   6 -12  -3   78.89    4.23
  12   6  -3   84.47    4.91
 -12  -6  -3   87.02    5.08
 -12  -6  -3   79.02    4.01
 -12  -6   3   84.09    4.48
   6 -12   3   80.48    4.50
   6 -12   3   77.85    5.40
  -6  12   3   85.16    4.98
   6 -12   3   79.87    4.19
  12   6   3   83.76    4.94
 -12  -6   3   83.02    4.50
 -12  -5  -3   17.34    1.60
  12   5  -3   14.92    1.87
   5 -12  -3   14.38    1.71
 -12  -5  -3   12.61    1.92
 -12  -5  -3   16.38    1.88
   5 -12   3   13.88    1.72
  -5  12   3   14.62    2.02
 -12  -5   3   14.56    1.71
  12   5   3   15.45    2.04
   5 -12   3   19.09    1.72
 -12  -5   3   14.10    1.78
   5 -12   3   12.97    2.02
   4 -12  -3   30.05    2.37
  12   4  -3   32.72    2.71
 -12  -4  -3   26.43    2.32
 -12  -4  -3   30.20    2.63
   4 -12   3   27.87    2.74
 -12  -4   3   24.79    2.20
  12   4   3   27.15    2.47
   4 -12   3   28.12    2.27
   4 -12   3   26.08    2.04
  12   4   3   28.72    2.18
  -4  12   3   27.14    2.65
 -12  -4   3   26.80    2.25
  12   3  -3    1.28    0.99
 -12  -3  -3   -0.04    0.79
 -12  -3  -3    1.18    0.78
   3 -12  -3    1.04    0.77
  -3  12   3    1.10    1.06
  12   3   3    1.74    0.86
   3 -12   3    1.03    0.75
   3 -12   3    0.44    0.96
 -12  -3   3    1.27    1.05
 -12  -3   3    0.70    0.79
   3 -12   3    1.38    0.74
  12   3   3    0.57    0.78
 -12  -2  -3   64.32    3.68
   2 -12  -3   64.32    3.81
 -12  -2  -3   63.85    3.98
  12   2  -3   68.01    4.10
 -12  -2   3   58.56    3.41
   2 -12   3   62.84    3.44
   2 -12   3   59.82    3.52
  12   2   3   59.45    3.50
  -2  12   3   54.22    3.84
   2 -12   3   58.19    3.96
  12   2   3   60.30    3.75
 -12  -2   3   54.79    3.51
 -12  -1  -3   26.36    2.46
 -12  -1  -3   24.55    2.09
  12   1  -3   20.50    2.19
   1 -12  -3   24.98    2.30
 -12  -1   3   25.35    2.28
  -1  12   3   24.38    2.37
 -12  -1   3   24.94    2.00
   1 -12   3   21.97    1.88
   1 -12   3   24.09    2.13
  12   1   3   25.50    2.23
   1 -12   3   24.42    2.50
  12   1   3   23.85    2.09
  12   0  -3   80.04    5.02
 -12   0  -3   96.10    4.91
 -12   0  -3   90.29    5.11
   0 -12  -3   94.38    5.16
 -12   0   3  104.65    4.71
   0 -12   3   94.51    4.32
   0  12   3   95.58    5.36
 -12   0   3  101.38    5.07
  12   0   3  108.98    5.05
   0 -12   3  103.35    4.97
   0 -12   3   97.46    5.42
  12   0   3  100.46    4.95
  12  -1  -3   25.01    2.50
 -12   1  -3   26.21    2.42
   1  12  -3   26.77    1.69
 -12   1  -3   26.65    2.26
  -1 -12  -3   22.62    2.33
  -1 -12   3   22.17    2.01
 -12   1   3   25.15    1.93
  -1 -12   3   25.93    1.77
 -12   1   3   24.82    2.18
  12  -1   3   27.11    2.16
  -1 -12   3   24.28    2.47
  12  -1   3   22.16    2.08
   1  12   3   23.63    2.36
 -12   2  -3   67.80    3.76
 -12   2  -3   66.41    3.97
   2  12  -3   60.40    3.02
  -2 -12  -3   61.90    3.93
  12  -2  -3   64.15    4.03
  12  -2   3   59.59    3.41
  -2 -12   3   55.94    3.81
  -2 -12   3   57.10    3.53
  12  -2   3   59.33    3.61
 -12   2   3   55.29    3.35
 -12   2   3   57.20    3.62
   2  12   3   58.82    3.94
  -2 -12   3   55.69    2.96
  -3 -12  -3    1.22    0.47
  12  -3  -3    1.27    0.83
 -12   3  -3    0.76    0.91
   3  12  -3    1.09    0.51
 -12   3  -3   -0.16    0.68
  -3 -12  -3    0.66    0.95
  -3 -12   3    1.69    0.64
 -12   3   3   -0.20    0.69
  12  -3   3    1.72    0.90
 -12   3   3    0.73    0.69
  -3 -12   3    2.53    1.01
  -3 -12   3    0.84    0.90
   3  12   3    0.65    1.02
  -4 -12  -3   29.80    2.76
 -12   4  -3   30.43    2.67
   4  12  -3   28.55    2.10
  12  -4  -3   27.51    2.65
  -4 -12  -3   30.78    1.76
 -12   4  -3   29.26    2.33
   4  12   3   26.26    2.59
  -4 -12   3   28.66    2.61
  12  -4   3   23.83    2.04
 -12   4   3   29.14    2.44
 -12   4   3   25.82    2.08
  12  -4   3   24.07    2.20
  -4 -12   3   27.32    2.01
  -4 -12   3   28.52    2.32
   5  12  -3   13.58    1.61
  -5 -12  -3   13.60    2.03
  12  -5  -3   14.99    1.98
  -5 -12  -3   15.69    1.29
 -12   5  -3   13.25    1.72
 -12   5  -3   12.92    1.88
  -5 -12   3   16.01    1.95
  12  -5   3   16.59    1.44
 -12   5   3   13.77    1.38
   5  12   3   16.39    2.10
  12  -5   3   16.41    1.79
 -12   5   3   17.80    1.91
  -5 -12   3   16.91    1.41
  -5 -12   3   16.69    1.85
  -6 -12  -3   85.88    3.94
   6  12  -3   87.39    4.49
 -12   6  -3   82.71    4.86
  -6 -12  -3   69.24    5.17
 -12   6  -3   87.07    4.99
  -6 -12   3   86.10    3.96
  12  -6   3   85.34    4.02
  -6 -12   3   82.36    4.81
 -12   6   3   84.94    4.54
 -12   7  -3   57.70    3.94
  12  -7  -3   58.27    4.06
  -7 -12  -3   56.76    4.15
  -7 -12  -3   57.14    3.10
 -12   7  -3   58.42    3.66
   7  12  -3   57.79    3.53
  -7 -12   3   58.42    3.71
  -7 -12   3   53.86    2.98
  12  -7   3   55.86    3.69
   7  12   3   56.27    4.26
 -12   7   3   54.57    3.53
  -7 -12   3   58.82    3.85
 -12   8  -3    6.03    1.46
  -8 -12  -3    6.58    1.13
  12  -8  -3    5.39    1.55
  -8 -12  -3    4.64    1.32
 -12   8  -3    5.94    1.35
   8  12  -3    5.47    1.19
  -8 -12   3    7.89    1.43
  -8 -12   3    9.02    1.16
   8  12   3    6.87    1.64
  12  -8   3   10.47    1.63
  -8 -12   3    6.28    1.25
  12  -9  -3   15.18    2.09
 -12   9  -3   15.65    1.85
 -12   9  -3   18.00    2.23
  -9 -12  -3   15.15    1.82
  -9 -12  -3   16.22    2.18
 -12   9   3   12.85    1.72
  -9 -12   3   18.21    1.66
  -9 -12   3   14.71    1.82
   9  12   3   14.41    2.20
  12  -9   3   15.56    1.82
 -12  10  -3   29.98    2.63
  10  12  -3   32.88    2.78
 -12  10  -3   33.87    3.06
 -10 -12  -3   33.43    3.23
  12 -10  -3   32.72    3.20
 -10 -12  -3   34.46    2.58
  10  12   3   37.95    3.56
  12 -10   3   39.04    2.99
 -10 -12   3   36.79    2.88
 -12  10   3   31.63    2.58
 -10 -12   3   38.98    3.04
 -10 -12   3   37.46    2.89
 -11 -12  -3   10.78    1.50
 -12  11  -3   11.18    1.61
  11  12  -3   10.33    1.60
 -12  11  -3   12.01    1.91
 -11 -12  -3   10.95    1.92
 -12  11   3    6.83    1.50
  12 -11   3   10.40    1.59
 -11 -12   3   11.53    1.70
 -12  11   3   11.60    1.84
  11  12   3   10.08    1.93
 -12 -12  -3  109.14    6.39
 -12  12  -3  108.82    5.65
 -12 -12   3  113.25    5.90
  12  12   3  100.84    6.38
 -12  12   3  100.06    6.12
  13  12  -3   15.66    2.05
 -11  13  -3   86.24    5.40
 -13 -11  -3   82.74    5.39
  13  11   3   88.32    5.76
 -11  13   3   79.39    5.28
  11 -13   3   91.18    5.02
 -13 -11   3   81.06    4.88
 -13 -10  -3    5.51    1.51
 -10  13  -3    8.90    1.71
  13  10  -3   10.66    1.56
 -13 -10  -3    7.74    1.65
 -10  13   3    7.81    1.54
 -13 -10   3   10.57    1.75
  10 -13   3   11.82    1.59
  10 -13   3    7.62    1.42
  13  10   3   10.18    2.06
 -13 -10   3    9.00    1.48
  13   9  -3   12.07    1.82
 -13  -9  -3    9.58    1.64
  -9  13  -3    9.08    1.78
 -13  -9  -3   12.30    1.96
   9 -13   3   13.70    1.70
   9 -13   3    9.91    1.61
 -13  -9   3   13.56    1.72
  -9  13   3   11.88    1.87
 -13  -9   3   10.90    1.66
  13   9   3   11.92    1.94
  13   8  -3   11.98    1.89
  -8  13  -3   11.70    1.98
 -13  -8  -3   10.59    1.74
 -13  -8  -3   12.10    2.00
   8 -13   3   11.31    1.58
  -8  13   3    9.13    1.80
   8 -13   3   13.92    1.70
 -13  -8   3   13.11    1.64
 -13  -8   3    9.42    1.51
  13   7  -3   73.52    4.61
 -13  -7  -3   72.55    4.21
  -7  13  -3   71.44    4.74
 -13  -7  -3   70.29    3.61
 -13  -7  -3   70.91    4.66
   7 -13   3   67.12    4.70
   7 -13   3   67.89    4.12
 -13  -7   3   62.73    4.01
 -13  -7   3   67.01    3.99
  13   7   3   65.64    4.60
   7 -13   3   71.39    3.87
  -7  13   3   66.44    4.51
 -13  -6  -3    1.96    1.17
  13   6  -3    1.11    0.83
   6 -13  -3    2.40    1.00
 -13  -6  -3    3.60    0.88
 -13  -6  -3    1.99    1.22
   6 -13   3    2.81    1.41
   6 -13   3    3.06    1.17
  13   6   3    2.81    1.17
   6 -13   3    4.09    0.92
 -13  -6   3    1.63    0.96
  -6  13   3    5.47    1.30
 -13  -6   3    0.85    0.94
   5 -13  -3   53.27    3.37
 -13  -5  -3   45.95    3.00
 -13  -5  -3   40.06    3.53
  -5  13   3   60.27    4.00
   5 -13   3   60.22    3.24
  13   5   3   51.15    4.07
   5 -13   3   52.56    4.00
   5 -13   3   57.66    3.96
  13   4  -3   43.80    3.38
 -13  -4  -3   42.89    3.33
 -13  -4  -3   44.85    3.49
 -13  -4  -3   45.19    2.90
   4 -13  -3   44.14    3.08
  13   4   3   46.92    2.98
  13   4   3   42.23    3.26
 -13  -4   3   42.19    3.31
   4 -13   3   43.77    3.33
   4 -13   3   43.53    2.66
 -13  -4   3   44.25    3.03
 -13  -3  -3   12.30    1.75
 -13  -3  -3   11.47    1.84
  13   3  -3   12.28    1.89
   3 -13  -3   13.75    1.71
 -13  -3   3   12.28    1.79
 -13  -3   3   12.01    1.59
   3 -13   3   12.05    1.36
   3 -13   3   10.23    1.89
  13   3   3   11.20    1.50
   3 -13   3   11.20    1.58
  13   3   3   13.95    1.76
  -3  13   3   12.21    1.94
   2 -13  -3   12.52    1.75
  13   2  -3   11.65    1.76
 -13  -2  -3   13.63    1.68
 -13  -2  -3   14.29    1.97
 -13  -2   3   16.03    1.72
   2 -13   3   14.19    2.07
   2 -13   3   15.39    1.66
  -2  13   3   15.45    2.14
   2 -13   3   13.93    1.37
  13   2   3   13.01    1.62
 -13  -2   3   15.77    1.83
  13   2   3   13.05    1.67
 -13  -1  -3   71.96    4.41
  13   1  -3   74.33    4.55
   1 -13  -3   74.12    4.39
 -13  -1  -3   69.92    4.10
   1 -13   3   68.81    4.02
  13   1   3   65.69    4.04
  13   1   3   72.13    4.07
   1 -13   3   75.68    4.74
 -13  -1   3   69.73    4.10
 -13  -1   3   75.34    3.92
   1 -13   3   69.50    3.46
  -1  13   3   66.05    4.39
 -13   0  -3   -0.96    0.70
  13   0  -3    0.03    0.59
   0 -13  -3    0.28    0.78
 -13   0  -3   -0.35    0.77
 -13   0   3   -0.19    0.66
 -13   0   3   -0.26    0.63
   0 -13   3    0.77    0.86
  13   0   3    2.26    0.94
   0 -13   3    0.76    0.78
   0  13   3    0.83    0.82
  13   0   3    0.90    0.85
  13  -1  -3   76.41    4.65
 -13   1  -3   74.89    4.42
 -13   1  -3   74.04    4.21
  -1 -13  -3   72.09    4.51
   1  13   3   69.58    4.57
 -13   1   3   70.44    4.24
  -1 -13   3   70.58    4.60
 -13   1   3   71.21    3.81
  13  -1   3   73.31    4.18
  -1 -13   3   65.74    4.00
  13  -1   3   73.97    4.11
 -13   2  -3   14.34    1.91
 -13   2  -3   13.17    1.76
  13  -2  -3   11.90    1.78
  -2 -13  -3   13.46    1.96
   2  13  -3   16.18    1.39
  -2 -13   3   15.05    1.71
   2  13   3   14.50    1.99
  13  -2   3   13.43    1.58
  13  -2   3   17.52    1.83
  -2 -13   3   13.61    1.98
 -13   2   3   16.25    1.99
  -2 -13   3   16.44    1.47
 -13   2   3   13.91    1.58
 -13   3  -3   11.84    1.73
 -13   3  -3   16.18    2.00
  -3 -13  -3   13.52    2.00
  13  -3  -3   13.16    2.18
   3  13  -3   16.70    1.48
  -3 -13   3   13.50    1.94
 -13   3   3   11.57    1.37
   3  13   3   13.56    1.93
  13  -3   3   12.81    1.51
  13  -3   3   13.98    1.80
  -3 -13   3   12.02    1.66
 -13   3   3   10.99    1.74
  13  -4  -3   41.09    3.78
 -13   4  -3   46.61    3.60
 -13   4  -3   45.23    3.36
  13  -4   3   48.06    3.67
  13  -4   3   43.51    2.79
  -4 -13   3   44.49    2.63
   4  13   3   37.56    3.74
  -4 -13   3   45.10    3.45
 -13   4   3   40.16    3.32
 -13   4   3   43.73    2.61
  -5 -13  -3   43.89    3.63
  13  -5  -3   44.53    3.66
 -13   5  -3   49.82    3.73
   5  13  -3   48.61    3.10
  -5 -13  -3   53.31    2.79
 -13   5  -3   48.52    3.35
   5  13   3   59.87    4.19
  13  -5   3   62.81    3.81
  -5 -13   3   53.56    3.82
 -13   5   3   49.29    3.84
  13  -5   3   61.03    3.22
  -5 -13   3   63.55    2.96
 -13   5   3   55.92    3.00
  -5 -13   3   53.85    3.50
 -13   6  -3    3.01    1.06
  -6 -13  -3    2.13    1.33
  -6 -13  -3    3.35    0.84
  13  -6  -3    2.86    1.29
   6  13  -3    4.25    1.04
   6  13   3    1.80    1.42
  -6 -13   3    2.34    1.15
  13  -6   3    3.49    1.29
  -6 -13   3    4.43    0.95
 -13   6   3    2.18    1.16
   7  13  -3   78.30    4.21
  -7 -13  -3   73.06    3.64
 -13   7  -3   70.85    4.55
 -13   7  -3   69.54    4.20
  13  -7  -3   73.43    4.78
  -7 -13  -3   70.91    4.77
  -7 -13   3   72.47    4.53
 -13   7   3   70.32    4.22
  13  -7   3   67.49    4.26
  -7 -13   3   67.05    4.18
   7  13   3   69.90    4.86
  13  -8  -3   12.68    2.05
  -8 -13  -3   16.71    1.64
 -13   8  -3   11.34    1.85
 -13   8  -3   12.44    1.69
  -8 -13  -3   10.98    2.00
 -13   8   3   11.75    1.76
   8  13   3   11.27    1.97
  -8 -13   3   13.10    1.78
  13  -8   3   11.07    1.73
  -8 -13   3   10.94    1.72
  -9 -13  -3   11.15    1.98
  13  -9  -3   12.71    1.95
 -13   9  -3    9.67    1.56
  -9 -13  -3   11.64    1.42
   9  13  -3   13.95    1.67
 -13   9  -3   11.90    1.96
  13  -9   3   12.03    1.77
   9  13   3    6.44    1.69
  -9 -13   3   10.42    1.66
 -13   9   3   11.16    1.60
  -9 -13   3   11.67    1.67
 -13  10  -3   10.39    1.84
 -13  10  -3    8.12    1.37
  10  13  -3   10.82    1.49
  13 -10  -3    8.46    1.95
 -10 -13  -3    8.46    1.97
 -10 -13  -3    9.46    1.35
 -10 -13   3   10.64    1.62
 -13  10   3    8.06    1.59
  13 -10   3   11.31    1.68
  10  13   3    8.44    2.02
 -13  11  -3   70.51    5.48
 -11 -13  -3   86.20    5.54
 -13  11  -3   83.58    4.79
 -13  11   3   76.18    4.72
 -13  11   3   86.36    5.42
  11  13   3   87.57    5.76
 -11 -13   3   84.05    4.96
  13 -11   3   90.79    4.99
  12  13  -3   17.15    1.83
 -12 -13  -3   16.90    1.85
  14  10  -3    9.34    1.56
 -10  14  -3    7.47    1.58
 -14 -10  -3    7.26    1.46
 -14 -10  -3    5.30    1.44
  14  10   3    8.02    1.78
 -14 -10   3    9.50    1.48
 -10  14   3    9.58    1.73
  10 -14   3    7.86    1.41
 -14  -9  -3    0.38    1.06
  14   9  -3    0.96    0.63
 -14  -9   3    1.78    0.91
   9 -14   3    1.65    1.04
 -14  -8  -3  124.16    6.82
  14   8  -3  126.71    6.83
 -14  -8  -3  116.65    6.19
  -8  14  -3  126.54    6.98
  -8  14   3  113.26    6.63
 -14  -8   3  124.47    6.03
  14   8   3  133.62    7.18
 -14  -8   3  129.61    6.34
   8 -14   3  127.32    5.95
   8 -14   3  123.80    6.28
 -14  -7  -3    7.74    1.58
  14   7  -3    6.59    1.50
  -7  14  -3    6.62    1.62
 -14  -7  -3    3.63    1.36
 -14  -7   3    4.04    1.27
  14   7   3    7.44    1.69
   7 -14   3    7.14    1.71
   7 -14   3    5.16    1.17
   7 -14   3    6.63    1.30
  -7  14   3    7.13    1.57
 -14  -7   3    6.29    1.37
 -14  -6  -3   23.04    2.41
   6 -14  -3   25.44    2.25
 -14  -6  -3   23.44    2.56
  14   6  -3   22.36    2.51
   6 -14   3   21.74    2.67
 -14  -6   3   16.49    2.07
  14   6   3   19.07    2.47
 -14  -6   3   20.68    2.19
  -6  14   3   21.40    2.53
   6 -14   3   22.43    2.24
   6 -14   3   22.08    1.97
  14   5  -3    1.20    0.99
 -14  -5  -3   -0.21    0.95
   5 -14  -3    0.62    0.82
 -14  -5  -3    0.34    0.95
   5 -14   3   -0.45    0.97
 -14  -5   3    0.72    0.94
 -14  -5   3    0.66    0.90
  -5  14   3    0.30    0.76
   5 -14   3    1.02    0.81
  14   5   3    0.99    0.77
   5 -14   3    1.70    0.68
 -14  -4  -3   46.50    3.66
 -14  -4  -3   51.75    3.53
  14   4  -3   51.62    3.82
   4 -14  -3   49.41    3.45
   4 -14   3   49.84    3.38
  14   4   3   49.99    3.70
   4 -14   3   45.78    2.81
 -14  -4   3   50.10    3.46
 -14  -4   3   47.98    3.27
  -4  14   3   50.76    3.77
   4 -14   3   47.55    3.82
   3 -14  -3    0.66    0.83
 -14  -3  -3    1.18    1.10
 -14  -3  -3    1.38    1.13
  14   3  -3    1.94    1.10
  -3  14   3    1.02    1.09
 -14  -3   3    1.40    1.07
   3 -14   3    0.14    1.08
   3 -14   3    1.48    0.95
   3 -14   3    0.74    0.65
 -14  -2  -3  106.19    6.31
   2 -14  -3  105.52    5.76
 -14  -2  -3  120.63    5.82
  14   2  -3  107.39    6.05
 -14  -2   3  115.28    5.79
   2 -14   3  110.74    6.30
 -14  -2   3  100.35    5.24
  -2  14   3  112.12    6.16
  14   2   3  101.25    5.66
   2 -14   3  105.89    5.46
 -14  -1  -3    5.42    1.46
   1 -14  -3    5.00    1.42
 -14  -1  -3    5.17    1.36
  14   1  -3    4.70    1.28
   1 -14   3    8.14    1.13
  14   1   3    5.89    1.17
   1 -14   3    5.35    1.34
  14   1   3    5.21    1.29
  -1  14   3    4.03    1.50
   1 -14   3    6.21    1.32
 -14  -1   3    5.18    1.56
 -14  -1   3    6.44    1.30
 -14   0  -3   49.83    3.69
 -14   0  -3   50.38    3.53
  14   0  -3   55.28    4.04
   0 -14   3   55.34    3.56
   0  14   3   54.11    3.97
   0 -14   3   54.44    4.12
 -14   0   3   57.95    3.79
  14   0   3   56.18    3.55
 -14   0   3   57.11    3.33
  14   0   3   55.99    3.59
  -1 -14  -3    5.05    1.81
  14  -1  -3    4.98    1.43
 -14   1  -3    4.67    1.40
 -14   1  -3    5.67    1.37
 -14   1   3    3.83    1.05
  -1 -14   3    4.42    1.35
  14  -1   3    6.05    1.10
 -14   1   3    4.36    1.49
  -1 -14   3    5.54    1.52
  14  -1   3    6.59    1.32
   1  14   3    5.05    1.39
 -14   2  -3  108.58    5.82
  14  -2  -3  103.08    5.96
  -2 -14  -3  106.41    5.99
 -14   2  -3  110.78    5.63
 -14   2   3  103.57    5.02
 -14   2   3  104.82    5.56
   2  14   3  105.27    6.11
  14  -2   3  104.02    5.31
  14  -2   3  108.86    5.61
  -2 -14   3  106.61    6.09
  -2 -14   3  104.19    5.46
 -14   3  -3    1.12    0.96
 -14   3  -3    1.39    1.08
  14  -3  -3    0.78    0.81
  -3 -14  -3    1.55    1.17
  -3 -14   3    1.89    1.15
  -3 -14   3    1.10    0.99
 -14   3   3    1.18    0.88
 -14   3   3   -0.33    1.00
  14  -3   3    1.23    0.86
   3  14   3    1.56    1.02
  14  -3   3    2.76    0.87
 -14   4  -3   52.10    3.52
  -4 -14  -3   50.16    3.88
 -14   4  -3   43.82    3.87
  14  -4  -3   49.90    3.84
   4  14   3   49.54    4.01
 -14   4   3   47.70    2.88
  -4 -14   3   52.03    3.89
  14  -4   3   49.04    3.53
 -14   4   3   50.21    3.55
  14  -4   3   50.14    3.11
  -4 -14   3   52.51    3.52
 -14   5  -3    0.20    0.89
 -14   5  -3    0.48    0.89
  14  -5  -3    0.72    1.03
  -5 -14  -3    0.10    0.97
  14  -5   3    1.09    0.66
  -5 -14   3    0.69    0.91
  14  -5   3    0.39    0.85
   5  14   3    0.74    0.94
 -14   5   3    0.50    0.93
  -5 -14   3    0.19    0.87
  14  -6  -3   26.86    2.82
   6  14  -3   26.24    2.09
 -14   6  -3   22.36    2.47
  -6 -14  -3   24.92    2.73
 -14   6  -3   24.02    2.31
  -6 -14   3   19.49    2.33
  14  -6   3   19.49    2.16
 -14   6   3   18.75    2.24
   6  14   3   20.38    2.70
  -6 -14   3   17.79    2.10
 -14   7  -3    7.26    1.54
 -14   7  -3    7.44    1.40
  -7 -14  -3    7.13    1.70
  14  -7  -3    6.29    1.48
  14  -7   3    5.68    1.38
  -7 -14   3    6.08    1.43
   7  14   3    4.86    1.48
 -14   7   3    4.96    1.45
  -7 -14   3    5.64    1.41
  -8 -14  -3  134.08    7.27
 -14   8  -3  129.99    6.47
   8  14  -3  129.22    6.34
  14  -8  -3  131.06    7.20
 -14   8  -3  125.52    6.81
  -8 -14   3  124.09    6.48
 -14   8   3  130.23    6.44
   8  14   3  140.66    7.58
  -8 -14   3  130.44    6.75
  14  -8   3  125.02    6.59
 -14   9  -3    1.90    1.08
  -9 -14  -3    0.28    0.56
  14  -9  -3    0.80    0.94
   9  14   3    0.51    0.97
 -14   9   3    0.35    0.98
  14 -10  -3    5.99    1.61
 -14  10  -3    7.46    1.33
 -10 -14  -3    6.32    1.47
  10  14  -3   11.08    1.53
 -14  10  -3    2.42    1.40
  14 -10   3   10.23    1.59
 -10 -14   3    8.54    1.40
  10  14   3    5.37    1.98
  11  14  -3   20.02    2.93
  15   9  -3   10.91    1.71
 -15  -9  -3    8.95    1.88
 -15  -9   3   11.92    1.79
  -9  15   3   13.79    2.29
   9 -15   3   11.96    1.60
  15   8  -3    3.97    1.22
  -8  15  -3    2.50    1.31
 -15  -8  -3    7.77    1.55
 -15  -8  -3    4.35    1.59
  -8  15   3    6.77    1.49
  15   8   3    7.55    1.55
 -15  -8   3    8.26    1.40
   8 -15   3    5.07    1.30
 -15  -7  -3   36.30    3.16
  15   7  -3   30.10    2.92
 -15  -7  -3   30.39    3.04
  -7  15   3   30.01    3.37
  15   7   3   31.35    3.36
   7 -15   3   34.61    2.77
 -15  -7   3   33.24    2.74
 -15  -6  -3   33.74    2.47
 -15  -6  -3   29.82    2.81
  15   6  -3   37.66    3.24
 -15  -6  -3   34.10    3.14
  15   6   3   33.13    3.06
 -15  -6   3   31.02    2.67
  -6  15   3   33.07    3.07
 -15  -6   3   30.79    2.70
   6 -15   3   31.78    2.68
   6 -15   3   34.69    3.38
  15   5  -3   47.75    3.79
   5 -15  -3   51.07    3.56
 -15  -5  -3   42.83    3.42
 -15  -5  -3   46.95    3.71
 -15  -5  -3   51.22    3.28
   5 -15   3   53.80    3.54
  15   5   3   51.66    3.88
  -5  15   3   48.05    3.85
   5 -15   3   47.28    4.01
 -15  -5   3   49.66    3.41
 -15  -5   3   51.96    3.59
  15   4  -3   90.69    5.52
 -15  -4  -3   93.79    5.18
 -15  -4  -3   95.38    5.49
   4 -15  -3   87.25    5.08
  15   4   3   85.20    5.25
   4 -15   3   96.27    5.86
 -15  -4   3   79.44    4.85
 -15  -4   3   87.01    4.83
   4 -15   3   86.00    4.87
  -4  15   3   84.83    5.35
 -15  -3  -3   21.13    2.58
 -15  -3  -3   25.17    2.28
  15   3  -3   22.65    2.60
 -15  -3  -3   20.63    2.33
   3 -15  -3   22.60    2.34
 -15  -3   3   21.34    2.38
   3 -15   3   20.16    2.61
 -15  -3   3   19.25    2.08
  15   3   3   23.73    2.42
   3 -15   3   25.50    2.35
  -3  15   3   23.18    2.61
  15   2  -3   16.15    2.14
 -15  -2  -3   16.90    1.92
   2 -15  -3   17.29    2.17
 -15  -2  -3   16.27    2.19
 -15  -2  -3   15.63    2.05
  -2  15   3   20.08    2.49
 -15  -2   3   22.44    2.44
 -15  -2   3   17.45    1.96
   2 -15   3   18.92    2.41
   2 -15   3   21.40    2.14
  15   2   3   20.15    2.16
   1 -15  -3   34.81    3.06
 -15  -1  -3   33.13    2.90
  15   1  -3   36.67    3.22
 -15  -1  -3   35.19    3.09
  -1  15   3   34.97    3.25
   1 -15   3   31.54    3.23
 -15  -1   3   37.13    2.70
   1 -15   3   33.13    2.72
 -15  -1   3   33.26    2.98
  15   1   3   34.86    2.90
  15   1   3   33.26    2.76
 -15   0  -3    0.63    0.94
   0 -15  -3    0.87    1.00
 -15   0  -3    0.58    1.00
  15   0  -3    0.65    1.07
 -15   0   3    0.28    0.88
  15   0   3    0.09    0.50
 -15   0   3    0.31    0.73
   0 -15   3    0.84    0.89
   0  15   3    0.81    1.14
   0 -15   3   -0.51    0.91
  15   0   3    1.26    0.96
  15  -1  -3   34.36    3.24
 -15   1  -3   32.69    2.94
 -15   1  -3   32.78    2.87
  -1 -15  -3   34.61    3.13
   1  15   3   36.17    3.36
 -15   1   3   36.35    3.07
  15  -1   3   38.48    2.99
  -1 -15   3   29.97    2.61
  -1 -15   3   37.22    3.40
  -2 -15  -3   17.94    2.39
 -15   2  -3   18.82    2.07
  15  -2  -3   17.34    2.36
 -15   2  -3   18.04    2.20
  -2 -15   3   20.05    2.41
  -2 -15   3   20.13    2.17
  15  -2   3   17.59    2.12
 -15   2   3   21.48    2.41
 -15   2   3   19.54    2.09
   2  15   3   19.92    2.44
  -3 -15  -3   22.92    2.52
 -15   3  -3   23.13    2.48
 -15   3  -3   24.12    2.40
  15  -3  -3   22.11    2.64
   3  15   3   23.95    2.70
 -15   3   3   24.29    2.53
  -3 -15   3   23.06    2.67
  15  -3   3   24.39    2.41
  -3 -15   3   22.85    2.22
 -15   3   3   21.64    2.00
  15  -3   3   18.96    2.17
 -15   4  -3   84.95    5.13
 -15   4  -3   88.97    5.05
  15  -4  -3   96.43    5.78
  -4 -15  -3   84.64    5.48
  15  -4   3   87.39    4.95
  15  -4   3   86.64    5.06
   4  15   3   89.63    5.72
 -15   4   3   94.23    5.23
  -4 -15   3   83.33    5.37
  -4 -15   3   88.72    5.00
 -15   5  -3   53.97    3.78
 -15   5  -3   51.01    3.53
  15  -5  -3   48.60    3.93
  -5 -15  -3   46.59    3.84
  15  -5   3   47.47    3.57
  -5 -15   3   48.16    3.84
 -15   5   3   51.11    3.67
  -5 -15   3   50.36    3.56
   5  15   3   52.72    4.16
 -15   6  -3   29.75    2.82
  -6 -15  -3   35.77    3.30
  15  -6  -3   33.14    3.16
 -15   6  -3   34.53    2.83
   6  15   3   31.00    3.22
  -6 -15   3   34.35    2.82
  15  -6   3   34.33    2.97
 -15   6   3   33.69    2.93
  -6 -15   3   32.39    3.03
 -15   7  -3   34.79    2.99
 -15   7   3   32.44    2.85
  -7 -15   3   30.65    2.91
  -8 -15  -3    6.55    1.61
 -15   8  -3    5.62    1.26
  15  -8  -3    7.58    1.75
 -15   8   3    3.74    1.46
  15  -8   3    3.42    1.17
  -8 -15   3    6.62    1.39
   8  15   3    3.62    1.50
 -15   9  -3    8.62    1.72
  -9 -15   3   10.93    1.67
 -15   9   3   13.03    1.86
 -16  -7  -3   10.29    2.04
  16   7  -3   13.52    2.19
 -16  -7  -3   14.40    2.00
   7 -16   3   14.90    1.75
  16   7   3   13.02    2.24
 -16  -7   3   13.94    1.87
  -7  16   3   12.81    2.13
  16   6  -3   50.58    3.94
 -16  -6  -3   55.46    3.81
 -16  -6  -3   39.00    3.87
 -16  -6  -3   50.45    3.22
 -16  -6   3   47.47    3.37
   6 -16   3   44.38    3.97
   6 -16   3   42.33    3.23
  16   6   3   49.80    3.90
  -6  16   3   46.62    3.85
 -16  -6   3   51.34    3.55
   5 -16  -3    6.86    1.53
 -16  -5  -3    5.99    1.60
  16   5  -3    6.03    1.45
 -16  -5  -3    5.07    1.36
 -16  -5  -3    8.26    1.41
   5 -16   3    6.17    1.74
  -5  16   3    5.48    1.66
  16   4  -3   12.89    2.20
 -16  -4  -3   13.11    1.70
 -16  -4  -3   10.50    1.84
 -16  -4  -3   11.65    1.83
   4 -16  -3   15.64    2.01
  16   4   3   13.19    1.88
 -16  -4   3   13.83    1.75
  -4  16   3   14.17    2.01
   4 -16   3   14.31    1.78
 -16  -3  -3    1.78    1.09
 -16  -3  -3    2.40    0.96
  16   3  -3    1.94    0.82
   3 -16  -3    1.48    0.88
 -16  -3  -3    2.39    1.29
   3 -16   3    2.13    0.96
 -16  -3   3    2.72    1.05
   3 -16   3    1.53    1.22
  -3  16   3    1.98    1.03
  16   3   3    5.62    1.24
 -16  -3   3    0.67    1.12
   2 -16  -3   14.45    1.98
 -16  -2  -3   19.07    2.05
 -16  -2  -3   15.90    2.13
  16   2  -3   18.23    2.34
 -16  -2  -3   17.76    2.20
  -2  16   3   18.81    2.41
   2 -16   3   16.18    1.88
 -16  -2   3   13.83    1.78
 -16  -2   3   18.21    2.29
  16   2   3   16.67    2.03
   2 -16   3   14.50    2.33
   1 -16  -3    2.49    1.18
 -16  -1  -3    1.11    0.74
 -16  -1  -3    1.93    1.04
 -16  -1  -3    2.27    1.01
  16   1  -3    2.16    0.94
  16   1   3    2.02    0.89
   1 -16   3    2.50    1.29
 -16  -1   3    2.75    1.00
  -1  16   3    4.71    1.48
 -16  -1   3    0.90    1.25
   1 -16   3    1.52    0.85
 -16   0  -3  127.64    6.77
  16   0  -3  139.16    7.35
 -16   0  -3  124.03    6.58
 -16   0  -3  130.20    6.50
  16   0   3  129.37    6.59
   0 -16   3  130.39    7.32
 -16   0   3  138.41    6.25
 -16   0   3  124.94    6.63
   0 -16   3  127.47    6.41
   0  16   3  118.59    6.94
  -1 -16  -3    1.84    1.10
  16  -1  -3    1.27    0.89
 -16   1  -3    2.22    1.18
 -16   1  -3    4.25    1.17
 -16   1  -3    2.66    1.37
  16  -1   3    0.45    0.76
  -1 -16   3    1.21    0.92
 -16   1   3    2.61    0.94
   1  16   3    0.52    1.04
  16  -1   3    2.29    0.98
  -1 -16   3    0.81    0.80
 -16   1   3    0.90    0.88
 -16   2  -3   18.13    2.24
 -16   2  -3   15.92    1.95
  16  -2  -3   15.19    2.13
  -2 -16  -3   17.91    2.37
  -2 -16   3   14.82    1.92
  -2 -16   3   14.47    2.09
 -16   2   3   14.87    2.15
   2  16   3   15.18    2.40
 -16   2   3   17.67    1.86
  16  -2   3   17.12    2.03
  16  -2   3   14.45    1.77
 -16   3  -3    1.96    1.07
  -3 -16  -3    1.50    1.08
 -16   3  -3    0.51    0.95
  16  -3  -3    1.43    0.94
  -3 -16   3    1.56    0.89
  16  -3   3   -0.01    0.79
   3  16   3    1.06    1.27
 -16   3   3    1.11    1.09
  16  -3   3    2.40    1.07
  -3 -16   3    1.09    0.88
 -16   3   3    0.60    0.99
 -16   4  -3   11.91    1.90
  -4 -16   3   15.19    2.20
 -16   4   3   11.79    1.99
  -4 -16   3   12.51    1.92
 -16   5  -3    4.11    1.29
 -16   5  -3    6.92    1.49
  16  -5  -3    7.81    1.75
  -5 -16  -3    7.17    1.64
  -5 -16   3    7.24    1.41
   5  16   3    5.28    1.59
 -16   5   3    3.92    1.39
  16  -5   3    5.10    1.59
  -6 -16  -3   51.94    4.12
  16  -6  -3   53.15    4.21
 -16   6  -3   48.65    3.59
  -6 -16   3   40.39    3.58
  -6 -16   3   53.33    3.69
 -16   6   3   53.17    3.75
   6  16   3   47.74    4.24
  16  -6   3   51.72    3.75
 -16   7  -3   16.05    2.04
 -16   7   3    9.68    1.79
  -7 -16   3   14.09    1.99
   5 -17  -3    3.37    1.54
 -17  -5  -3    7.46    1.66
 -17  -4  -3    7.39    1.39
 -17  -4  -3    4.13    1.23
   4 -17  -3    4.46    1.20
 -17  -4   3    0.66    1.14
 -17  -4   3    2.25    0.90
  -4  17   3    3.02    1.47
  17   4   3    4.24    1.04
   4 -17   3    5.30    1.17
  17   3  -3   76.01    5.25
 -17  -3  -3   81.84    4.67
   3 -17  -3   64.21    5.10
 -17  -3  -3   89.41    5.19
  17   3   3   91.22    5.29
  -3  17   3   80.32    5.28
   3 -17   3   83.70    5.63
   3 -17   3   79.27    4.69
 -17  -3   3   86.33    5.05
 -17  -3   3   86.60    4.73
   2 -17  -3    1.16    1.07
 -17  -2  -3    1.50    0.81
 -17  -2  -3    1.35    1.18
  17   2  -3    0.53    0.83
   2 -17   3    0.79    1.05
   2 -17   3    1.53    0.86
 -17  -2   3    0.10    1.05
  -2  17   3    2.09    1.24
 -17  -2   3    1.90    0.98
   1 -17  -3    9.56    1.91
 -17  -1  -3   11.44    2.02
 -17  -1  -3   13.77    2.04
 -17  -1  -3   18.26    2.01
  17   1  -3   13.81    2.03
  -1  17   3   18.22    2.46
   1 -17   3   14.98    1.83
   1 -17   3   12.85    2.23
 -17  -1   3   15.65    2.25
  17   0  -3    0.10    0.81
   0 -17  -3    1.60    1.18
 -17   0  -3    1.01    0.80
 -17   0  -3    0.47    1.04
 -17   0  -3    1.33    0.80
   0 -17   3    0.77    0.86
  17   0   3    2.02    0.94
 -17   0   3    2.76    0.97
 -17   0   3   -0.78    1.03
   0 -17   3    1.31    0.83
  -1 -17  -3   14.59    2.13
 -17   1  -3   13.58    1.91
 -17   1  -3   17.62    2.21
  17  -1  -3   15.59    2.27
 -17   1  -3   13.63    2.10
 -17   1   3   15.83    2.27
   1  17   3   16.73    2.30
  17  -1   3   19.96    2.10
  -1 -17   3   13.17    2.21
  -1 -17   3   16.49    1.92
 -17   2  -3    1.95    0.97
  -2 -17  -3    0.87    0.99
 -17   2  -3    0.61    0.96
  17  -2  -3   -0.09    0.52
   2  17   3    0.27    0.91
 -17   2   3    0.31    1.16
  -2 -17   3    0.28    0.78
  17  -2   3    2.58    1.09
  -2 -17   3    0.26    0.68
 -17   3  -3   87.57    5.15
 -17   3  -3   81.88    5.02
  -3 -17  -3   81.43    5.44
  17  -3  -3   85.50    5.60
  -3 -17   3   88.30    5.71
   3  17   3   83.72    5.64
  -3 -17   3   91.18    5.08
 -17   3   3   89.60    5.73
 -17   4  -3    1.46    1.09
  -4 -17   3    1.84    1.07
  -4 -17   3    4.50    1.27
 -17   5  -3    2.40    1.17
   0   1  -4    0.25    0.50
   0  -1  -4    0.40    0.47
  -1   0  -4    0.46    0.54
   1   0  -4   -0.24    0.43
  -1   0   4    0.30    0.35
  -1   0   4    0.08    0.35
   1   0   4    0.19    0.28
   0  -1   4   -0.12    0.35
   0  -1   4    0.06    0.24
   0   1   4   -0.14    0.40
   0  -1   4    0.37    0.38
   1   0   4    0.06    0.34
  -1   0   4    0.14    0.31
   0   1   4    0.12    0.33
   0   1   4    0.26    0.28
   1   0   4   -0.16    0.28
   1   1  -4   72.30    3.74
   1  -1  -4   81.04    3.63
  -1   1  -4   90.90    3.94
  -1  -1  -4   79.20    3.82
   1   1   4   84.26    3.66
   1   1   4   87.61    3.38
   1  -1   4   86.46    3.54
   1  -1   4   86.47    3.26
  -1  -1   4   86.79    3.77
  -1  -1   4   87.15    3.40
  -1   1   4   81.81    3.59
  -1   1   4   86.24    3.70
   1   1   4   82.76    3.54
   1  -1   4   88.62    3.78
  -1   1   4   84.69    3.25
  -1  -1   4   89.41    3.49
   1  -2  -4    9.60    1.05
  -1   2  -4   11.00    1.20
   2   1  -4    9.64    0.87
   2   1  -4    9.92    0.94
  -2  -1  -4    9.65    1.10
   1  -2   4   11.41    1.06
  -2  -1   4   11.56    1.14
   2   1   4   12.18    0.94
   1  -2   4   11.98    1.01
  -1   2   4   11.42    0.68
  -1   2   4   11.60    1.10
   1  -2   4   11.52    0.56
  -2  -1   4   10.87    0.90
   2   1   4   11.13    0.97
  -1   2   4   10.24    1.00
   1  -2   4   11.10    0.57
   2   1   4   10.62    1.03
   2   0  -4   19.37    1.30
   0  -2  -4   18.08    1.43
   2   0  -4   19.03    1.29
   0   2  -4   19.80    1.49
  -2   0  -4   21.65    1.63
  -2   0   4   17.55    1.33
   0   2   4   19.37    1.32
   0   2   4   18.21    1.46
   2   0   4   18.37    1.29
   0  -2   4   17.89    0.92
   0   2   4   17.73    0.98
  -2   0   4   16.81    1.05
   2   0   4   17.37    1.14
   0  -2   4   19.33    1.28
   0  -2   4   17.72    1.40
   2   0   4   16.35    1.27
   2  -1  -4   10.26    1.04
  -2   1  -4   10.48    1.22
   2  -1  -4   10.41    0.96
  -1  -2  -4   10.53    1.18
   1   2  -4    9.04    1.02
   1   2   4   11.44    0.80
  -2   1   4   10.88    1.07
  -1  -2   4   11.11    1.13
  -1  -2   4   11.11    0.95
  -1  -2   4   10.81    0.75
  -2   1   4   11.50    0.73
   2  -1   4   11.22    1.04
   1   2   4   10.37    0.98
   2  -1   4   12.20    0.78
   2  -1   4   11.27    0.98
   2  -2  -4  159.40    5.90
  -2  -2  -4  155.23    5.65
   2   2  -4  155.25    5.97
   2   2  -4  159.37    5.73
  -2   2  -4  150.07    6.32
   2  -2  -4  152.01    6.10
  -2  -2  -4  154.32    6.36
  -2  -2   4  160.81    5.87
   2  -2   4  130.64    5.11
   2  -2   4  165.59    6.01
  -2   2   4  149.65    5.96
   2   2   4  149.94    5.91
  -2  -2   4  152.88    6.14
   2  -2   4  149.60    6.08
  -2   2   4  158.82    6.15
  -2   2   4  155.60    5.35
  -2   3  -4    1.15    0.72
   2  -3  -4    0.97    0.54
  -3  -2  -4    0.63    0.41
   3   2  -4    0.78    0.42
  -3  -2  -4    0.77    0.73
   3   2  -4    0.35    0.44
  -3  -2   4    0.24    0.56
  -2   3   4    0.58    0.54
   3   2   4    0.49    0.50
   3   2   4    0.76    0.41
  -2   3   4    0.77    0.49
  -3  -2   4    0.68    0.45
   2  -3   4    0.53    0.52
   2  -3   4    0.55    0.47
  -3  -1  -4  223.91    8.64
   1  -3  -4  209.10    7.36
   3   1  -4  223.71    8.12
   3   1  -4  214.85    7.95
  -1   3  -4  215.16    8.49
  -1   3   4  232.29    8.14
  -1   3   4  219.41    8.38
  -3  -1   4  226.30    8.11
   3   1   4  223.17    8.09
   1  -3   4  210.48    8.29
   1  -3   4  211.13    8.14
  -3  -1   4  226.67    8.36
   3   1   4  220.94    8.01
   3   1   4  217.84    8.20
   3   0  -4    0.06    0.35
   0   3  -4   -0.05    0.51
  -3   0  -4   -0.45    0.54
   0  -3  -4    0.11    0.19
   0  -3  -4   -0.42    0.46
   3   0  -4   -0.43    0.33
   0   3   4   -0.40    0.34
   3   0   4   -0.23    0.36
   0  -3   4   -0.13    0.48
  -3   0   4   -0.39    0.48
  -3   0   4    0.02    0.31
   0   3   4   -0.08    0.30
   3   0   4    0.70    0.55
   0  -3   4    0.15    0.43
   3   0   4    0.22    0.41
  -3   1  -4  225.13    8.70
  -1  -3  -4  218.33    7.68
   1   3  -4  214.59    8.35
   3  -1  -4  214.20    7.92
   3  -1  -4  220.03    8.35
  -1  -3  -4  224.32    8.54
   3  -1   4  228.24    8.20
   3  -1   4  220.87    7.75
  -3   1   4  212.28    8.27
   1   3   4  223.16    8.11
  -1  -3   4  226.78    8.19
  -3   1   4  224.37    7.73
  -1  -3   4  220.59    8.38
   1   3   4  224.78    8.40
   3  -1   4  218.26    8.36
  -2  -3  -4    1.19    0.69
   3  -2  -4    1.13    0.46
   3  -2  -4    0.98    0.60
  -2  -3  -4    0.69    0.36
  -3   2  -4    0.59    0.69
   2   3  -4    1.17    0.38
   2   3  -4    0.63    0.56
  -3   2   4    0.56    0.53
   2   3   4    0.33    0.53
   3  -2   4    0.98    0.63
   2   3   4    0.69    0.45
   3  -2   4    0.79    0.10
  -2  -3   4    1.15    0.54
  -2  -3   4    0.37    0.49
  -3   2   4    0.59    0.23
   3  -2   4    0.67    0.08
   3  -2   4    0.54    0.41
  -3  -3  -4   32.74    2.28
   3   3  -4   35.62    1.84
  -3  -3  -4   37.28    1.80
  -3   3  -4   38.03    2.40
   3   3  -4   33.93    1.95
   3  -3  -4   35.81    1.86
   3  -3  -4   34.39    2.18
   3  -3   4   38.68    2.15
  -3  -3   4   36.18    2.20
   3   3   4   39.29    2.24
  -3  -3   4   33.96    1.93
   3  -3   4   36.80    2.17
   3   3   4   37.42    1.97
  -3   3   4   37.94    2.06
   4   3  -4    0.45    0.42
  -4  -3  -4    0.28    0.37
  -3   4  -4   -0.20    0.38
   3  -4  -4    0.03    0.35
  -4  -3  -4   -0.20    0.66
   3  -4  -4    0.19    0.42
   3  -4   4   -0.27    0.50
   3  -4   4    0.36    0.60
  -4  -3   4    1.41    0.73
  -4  -3   4    0.49    0.48
  -3   4   4    0.34    0.62
   4   3   4    0.29    0.43
  -3   4   4    0.04    0.44
   4   3   4    0.79    0.65
  -2   4  -4  162.46    6.61
  -4  -2  -4  156.74    5.92
   4   2  -4  159.60    6.10
   2  -4  -4  153.36    6.21
  -4  -2  -4  154.41    6.65
   4   2  -4  165.69    5.85
   2  -4   4  147.81    6.24
   4   2   4  146.50    6.03
   2  -4   4  158.56    6.21
  -4  -2   4  150.89    6.27
   4   2   4  153.63    6.17
  -2   4   4  156.98    6.44
  -4  -2   4  154.79    5.95
  -2   4   4  155.58    5.99
  -1   4  -4  263.02    9.71
   1  -4  -4  240.72    9.37
  -4  -1  -4  244.18    9.11
   4   1  -4  246.66    9.31
   4   1  -4  256.87    8.89
  -4  -1  -4  260.50    9.87
  -4  -1   4  250.57    9.01
  -1   4   4  263.28    9.63
   1  -4   4  252.30    9.34
   4   1   4  248.77    9.31
   1  -4   4  257.48    9.48
  -4  -1   4  238.18    9.40
  -1   4   4  249.87    9.10
   4   1   4  250.88    9.21
   0   4  -4   63.97    3.33
   0  -4  -4   65.34    3.30
   4   0  -4   57.81    2.65
  -4   0  -4   65.17    3.53
   4   0  -4   62.42    3.15
   0  -4   4   73.21    3.20
  -4   0   4   66.74    2.80
  -4   0   4   67.14    3.23
   4   0   4   71.08    3.12
   0   4   4   70.29    3.37
   0   4   4   70.69    2.99
   4   0   4   72.04    3.24
   4   0   4   69.55    2.95
   0  -4   4   68.54    3.29
   4  -1  -4  257.84    9.45
  -1  -4  -4  244.93    8.54
   4  -1  -4  245.25    8.68
   1   4  -4  255.26    9.47
  -1  -4  -4  246.59    9.57
  -4   1  -4  249.06    9.74
   1   4   4  247.55    9.48
  -1  -4   4  241.96    8.44
   4  -1   4  254.51    9.25
   1   4   4  254.14    9.02
  -4   1   4  248.75    8.70
   4  -1   4  250.72    9.37
   4  -1   4  249.23    8.76
  -1  -4   4  265.35    9.29
  -1  -4   4  241.10    8.43
  -4   1   4  252.66    9.35
  -1  -4   4  244.22    9.35
  -4   2  -4  160.70    6.64
   4  -2  -4  153.99    5.56
  -2  -4  -4  153.98    5.56
   4  -2  -4  162.72    6.39
   2   4  -4  148.07    6.14
  -2  -4  -4  152.18    6.49
   2   4  -4  156.11    5.59
  -4   2   4  148.07    6.09
  -4   2   4  156.38    5.41
   4  -2   4  161.87    6.17
  -2  -4   4  159.94    6.11
   2   4   4  153.30    5.87
   4  -2   4  149.36    6.22
   2   4   4  149.35    6.31
   4  -2   4  155.41    5.36
  -2  -4   4  152.20    6.24
   4  -2   4  150.42    5.31
   3   4  -4    0.29    0.48
   3   4  -4   -0.10    0.26
  -3  -4  -4    0.14    0.67
  -3  -4  -4    0.81    0.42
   4  -3  -4    0.14    0.25
   4  -3  -4   -0.05    0.39
  -4   3  -4    0.05    0.62
  -3  -4   4    0.11    0.50
  -3  -4   4    0.24    0.48
   3   4   4    0.38    0.60
  -4   3   4    0.66    0.54
   3   4   4    0.26    0.39
   4  -3   4    0.35    0.44
   4  -3   4    0.40    0.47
  -4   4  -4  120.32    5.57
   4  -4  -4  122.17    4.62
   4   4  -4  122.53    4.88
  -4  -4  -4  130.61    5.70
   4   4  -4  130.57    5.23
  -4  -4  -4  121.72    4.75
   4  -4  -4  119.56    5.41
   4   4   4  115.84    5.27
  -4  -4   4  119.57    5.03
   4  -4   4  118.25    5.23
   4  -4   4  118.63    5.16
  -4   4   4  119.32    4.97
  -4  -4   4  124.24    5.27
   4   4   4  117.19    4.82
   5   4  -4   21.01    1.39
   5   4  -4   23.49    1.59
  -5  -4  -4   22.68    1.49
  -4   5  -4   22.00    1.90
  -5  -4  -4   23.28    2.07
   4  -5  -4   23.80    1.38
   4  -5  -4   22.54    1.84
  -5  -4   4   18.62    1.67
  -5  -4   4   19.83    1.55
  -4   5   4   19.46    1.76
   4  -5   4   22.11    1.73
   5   4   4   22.67    1.87
   4  -5   4   21.60    1.68
   5   4   4   19.42    1.40
  -4   5   4   19.19    1.43
   5   3  -4  257.05    9.55
  -3   5  -4  259.08   10.12
   5   3  -4  237.10    9.09
  -5  -3  -4  253.30    9.33
   3  -5  -4  258.36    9.38
  -5  -3  -4  258.18   10.29
   5   3   4  260.75    9.80
  -3   5   4  253.63    9.98
  -5  -3   4  262.81    9.79
   5   3   4  248.98    9.40
   3  -5   4  255.88    9.74
  -5  -3   4  254.50    9.46
  -3   5   4  268.49    9.37
   3  -5   4  257.58    9.68
  -2   5  -4    2.82    0.91
   2  -5  -4    2.55    0.73
  -5  -2  -4    1.67    0.59
   5   2  -4    1.99    0.46
  -5  -2  -4    1.97    0.82
   5   2  -4    2.33    0.68
  -5  -2   4    3.26    0.65
  -2   5   4    3.85    0.81
  -2   5   4    4.10    0.70
   5   2   4    3.77    0.72
   2  -5   4    4.94    0.88
   5   2   4    4.37    0.76
   2  -5   4    3.71    0.85
  -5  -2   4    4.49    0.93
  -5  -1  -4   93.53    3.83
   1  -5  -4   96.72    4.11
   5   1  -4   93.84    4.07
  -1   5  -4   94.23    4.32
   5   1  -4   89.95    3.28
  -5  -1  -4   87.13    4.36
  -1   5   4   84.38    3.61
  -5  -1   4   82.30    3.61
  -1   5   4   81.19    4.12
   5   1   4   90.40    3.94
   1  -5   4   83.96    3.97
   1  -5   4   87.91    3.98
  -5  -1   4   83.28    4.02
   5   1   4   82.53    3.97
   0  -5  -4    0.31    0.55
   5   0  -4    0.18    0.15
   5   0  -4   -0.27    0.27
  -5   0  -4   -0.17    0.44
   0   5  -4   -0.34    0.50
  -5   0   4    0.07    0.33
   0   5   4    0.20    0.36
   0  -5   4    0.05    0.39
   0  -5   4    0.07    0.40
   5   0   4    0.28    0.50
   5   0   4   -0.05    0.41
   5   0   4    0.14    0.50
  -5   0   4    0.39    0.64
   0   5   4    0.35    0.48
  -1  -5  -4   94.80    4.28
  -1  -5  -4   94.17    3.11
  -5   1  -4   97.70    4.49
   5  -1  -4   92.58    4.14
  -5   1   4   82.81    3.94
  -1  -5   4   84.60    3.97
   1   5   4   85.39    3.66
  -1  -5   4   86.62    4.13
  -1  -5   4   82.90    3.87
   5  -1   4   82.55    3.44
   5  -1   4   80.62    3.82
  -5   1   4   84.03    3.38
   1   5   4   81.73    4.08
   5  -1   4   85.50    3.98
  -5   2  -4    2.41    0.77
   5  -2  -4    2.59    0.82
  -2  -5  -4    2.43    0.93
  -5   2   4    3.68    0.44
   5  -2   4    3.45    0.69
   5  -2   4    4.23    0.87
   2   5   4    3.21    0.90
  -5   2   4    4.06    0.85
  -2  -5   4    4.28    0.87
   2   5   4    4.55    0.64
   5  -2   4    3.96    0.40
  -2  -5   4    4.14    0.76
  -2  -5   4    3.61    0.68
  -5   3  -4  248.58   10.11
  -3  -5  -4  254.04    9.06
   5  -3  -4  257.36    9.99
   3   5  -4  255.37    9.14
  -3  -5  -4  268.78   10.22
   5  -3  -4  252.98    8.63
  -3  -5   4  259.06    9.73
  -3  -5   4  248.28    9.59
   5  -3   4  252.44    9.69
  -5   3   4  242.96    8.63
  -3  -5   4  261.56    9.77
   3   5   4  271.40   10.02
  -5   3   4  259.38    9.61
   3   5   4  258.39    9.23
   5  -3   4  265.73    9.84
  -4  -5  -4   21.43    1.37
  -5   4  -4   22.59    1.95
   4   5  -4   23.88    1.46
   5  -4  -4   24.65    1.97
   5  -4  -4   23.12    1.07
  -4  -5  -4   21.59    2.01
  -4  -5   4   22.81    1.71
   5  -4   4   19.81    1.65
   5  -4   4   23.75    1.79
  -5   4   4   21.67    1.55
   4   5   4   21.03    1.79
  -4  -5   4   21.13    1.59
  -4  -5   4   21.68    1.64
   4   5   4   20.33    1.35
   5  -5  -4   79.68    4.34
   5   5  -4   86.24    3.90
   5  -5  -4   81.72    3.38
  -5  -5  -4   81.44    4.81
  -5  -5  -4   81.95    3.72
  -5  -5   4   90.89    3.97
  -5   5   4   97.02    4.00
  -5  -5   4   84.46    4.04
   5  -5   4   90.92    4.22
   5   5   4   94.02    4.50
   5  -5   4   92.57    4.58
   5   5   4   91.51    3.77
  -5  -5   4   90.59    4.23
  -6  -5  -4    3.08    0.94
  -6  -5  -4    2.69    0.72
   5  -6  -4    4.14    0.57
  -5   6  -4    3.31    1.07
   6   5  -4    3.18    0.77
   5  -6  -4    2.24    0.85
  -5   6   4    2.37    0.86
   5  -6   4    3.23    0.90
  -6  -5   4    3.52    0.87
   6   5   4    3.73    1.12
   6   5   4    3.44    0.66
   5  -6   4    3.89    0.95
  -6  -5   4    3.68    1.04
  -6  -5   4    4.19    0.79
  -5   6   4    3.48    0.74
   6   4  -4   46.64    2.56
   6   4  -4   42.65    2.10
  -6  -4  -4   46.10    2.37
   4  -6  -4   46.50    2.38
  -4   6   4   40.90    2.76
   6   4   4   40.72    2.65
   6   4   4   41.52    2.29
  -4   6   4   42.59    2.24
  -6  -4   4   39.35    2.76
   4  -6   4   41.89    2.54
  -6  -4   4   39.58    2.40
   3  -6  -4   37.94    2.15
  -6  -3  -4   37.71    2.14
  -6  -3  -4   37.12    2.65
   6   3  -4   36.54    2.29
  -3   6  -4   38.02    2.61
   6   3  -4   39.90    1.79
  -6  -3   4   37.19    2.36
   6   3   4   39.87    2.44
  -3   6   4   36.92    2.53
  -6  -3   4   37.43    2.17
   6   3   4   36.12    2.14
   3  -6   4   37.37    2.31
   3  -6   4   36.77    2.35
  -3   6   4   39.88    2.02
  -2   6  -4   33.19    2.37
  -6  -2  -4   34.03    2.52
   6   2  -4   34.70    2.16
  -6  -2  -4   33.19    1.95
   2  -6  -4   33.39    2.07
   2  -6   4   27.78    1.97
   6   2   4   33.28    2.01
  -6  -2   4   29.78    2.13
  -6  -2   4   30.79    1.86
  -2   6   4   28.83    2.19
   2  -6   4   30.32    2.07
   6   2   4   30.29    2.06
  -2   6   4   29.09    1.69
   6   1  -4   64.35    3.29
   1  -6  -4   66.10    3.28
  -6  -1  -4   67.40    3.67
  -6  -1  -4   62.84    3.05
   1  -6   4   63.72    3.18
   6   1   4   62.49    3.07
   1  -6   4   59.60    3.16
  -1   6   4   60.68    3.40
  -6  -1   4   58.57    3.18
   6   1   4   59.51    3.08
  -6  -1   4   63.11    2.87
   1  -6   4   60.54    3.47
  -1   6   4   62.71    2.86
  -6   0  -4  199.11    8.55
   6   0  -4  201.55    8.22
  -6   0  -4  200.66    7.95
   0  -6  -4  202.80    8.28
   0   6   4  223.11    8.53
   0  -6   4  200.00    8.41
   0   6   4  210.47    7.55
   6   0   4  212.14    8.14
   0  -6   4  211.75    8.14
  -6   0   4  209.78    7.62
   0  -6   4  218.17    8.17
   6   0   4  214.67    7.99
  -6   0   4  210.21    8.20
  -6   1  -4   64.36    3.61
   6  -1  -4   64.07    3.39
  -1  -6  -4   63.31    3.43
  -1  -6   4   62.86    3.20
   1   6   4   63.15    2.69
   6  -1   4   57.74    3.06
  -1  -6   4   62.01    3.16
  -6   1   4   62.23    2.64
  -1  -6   4   65.76    3.45
   6  -1   4   60.88    3.19
   6  -1   4   58.94    2.72
  -6   1   4   61.79    3.22
   1   6   4   62.72    3.40
   2   6  -4   32.69    1.38
   6  -2  -4   33.12    2.28
  -6   2  -4   32.59    2.42
  -2  -6  -4   31.74    1.38
  -2  -6  -4   32.98    2.36
   6  -2   4   28.44    2.03
  -6   2   4   29.11    1.97
   6  -2   4   26.88    1.91
  -2  -6   4   28.19    2.09
  -6   2   4   29.79    1.44
  -2  -6   4   29.76    1.97
   6  -2   4   29.33    1.47
  -2  -6   4   25.83    1.87
   2   6   4   31.39    2.22
   2   6   4   30.09    1.57
  -3  -6  -4   41.44    2.77
  -3  -6  -4   38.00    1.81
   6  -3  -4   37.16    2.50
  -6   3  -4   37.26    2.69
   3   6  -4   37.37    1.85
  -6   3   4   37.38    1.55
   6  -3   4   37.68    2.41
  -6   3   4   40.91    2.38
   6  -3   4   36.36    2.36
   3   6   4   42.68    2.06
  -3  -6   4   37.30    2.29
  -3  -6   4   40.01    2.41
  -3  -6   4   38.09    2.41
   3   6   4   37.32    2.52
   4   6  -4   43.95    2.36
   6  -4  -4   42.10    2.81
  -4  -6  -4   45.10    2.12
  -4  -6  -4   45.95    3.04
  -4  -6   4   45.21    2.58
  -4  -6   4   41.78    2.52
   4   6   4   46.05    2.21
  -6   4   4   41.98    2.46
   4   6   4   41.59    2.75
   6  -4   4   36.10    2.69
  -4  -6   4   36.50    2.42
  -5  -6  -4    3.80    0.78
  -5  -6  -4    3.97    1.19
   5   6  -4    2.76    0.66
  -6   5  -4    2.07    1.07
   6  -5  -4    3.41    0.88
   6  -5   4    3.06    0.78
   5   6   4    4.88    0.68
  -6   5   4    4.96    0.92
  -5  -6   4    3.57    0.84
   5   6   4    3.34    0.95
  -5  -6   4    4.51    0.90
   6  -5   4    3.98    0.82
  -6   6  -4  245.66   10.21
  -6  -6  -4  238.78    9.17
  -6  -6  -4  254.94   10.40
   6  -6  -4  233.45    8.54
   6  -6  -4  242.36   10.09
   6   6  -4  251.52    9.49
  -6  -6   4  239.89    9.61
   6   6   4  251.35    9.02
  -6   6   4  245.41    9.30
  -6  -6   4  261.70    9.70
   6  -6   4  248.69    9.75
   6   6   4  254.65   10.62
   6  -6   4  245.27    9.72
  -6  -6   4  242.26    9.34
  -7  -6  -4    4.23    1.29
  -7  -6  -4    4.37    0.90
   6  -7  -4    2.47    1.11
  -6   7  -4    3.95    1.30
   6  -7  -4    3.82    0.57
   7   6  -4    3.89    0.89
   6  -7   4    5.35    1.14
   7   6   4    5.90    1.22
   6  -7   4    5.30    1.12
  -6   7   4    6.68    1.21
  -7  -6   4    5.21    1.10
  -7  -6   4    7.10    1.06
  -6   7   4    6.10    0.92
  -7  -6   4    6.47    0.95
   7   5  -4   93.04    4.38
  -7  -5  -4   96.72    5.07
  -7  -5  -4   91.93    4.17
  -5   7  -4   93.80    4.88
   7   5   4   80.99    4.81
  -5   7   4   83.71    4.66
   5  -7   4   94.17    4.48
  -7  -5   4   91.61    4.46
  -7  -5   4   97.23    4.37
   5  -7   4   90.69    4.49
  -5   7   4   90.50    3.95
   7   5   4   87.51    3.97
  -7  -4  -4   72.73    3.61
  -4   7  -4   77.09    4.28
   7   4  -4   75.97    3.87
   7   4  -4   79.46    3.18
   4  -7  -4   77.12    3.53
  -7  -4  -4   72.74    4.27
   7   4   4   75.13    4.03
   4  -7   4   78.37    3.97
   4  -7   4   80.25    3.96
  -7  -4   4   79.33    3.77
  -7  -4   4   79.53    3.99
   7   4   4   81.24    3.66
  -4   7   4   79.07    3.44
  -4   7   4   85.29    4.36
   3  -7  -4   94.35    4.18
  -7  -3  -4   98.83    4.95
   7   3  -4   90.91    4.38
  -3   7  -4   92.38    4.76
  -7  -3  -4   92.70    4.15
  -3   7   4   93.51    3.81
  -7  -3   4   89.92    4.37
   3  -7   4   85.53    4.53
  -7  -3   4   89.27    4.10
   3  -7   4   94.91    4.41
   7   3   4   95.11    4.17
  -3   7   4   82.43    4.89
   7   3   4   90.82    4.42
  -7  -2  -4   50.90    2.69
   2  -7  -4   50.30    2.77
   7   2  -4   52.31    2.94
  -7  -2  -4   49.13    3.53
   2  -7   4   47.07    3.08
   2  -7   4   54.06    2.89
  -2   7   4   51.58    3.41
  -7  -2   4   48.92    2.56
   7   2   4   45.73    2.76
   7   2   4   50.65    2.73
  -7  -2   4   43.62    3.04
  -2   7   4   46.99    2.26
  -7  -1  -4   41.27    2.47
   7   1  -4   45.82    2.74
   1  -7  -4   39.52    2.61
   1  -7   4   48.87    2.65
   1  -7   4   47.79    2.71
   7   1   4   47.50    2.58
  -1   7   4   48.59    2.13
  -7  -1   4   43.54    2.30
   1  -7   4   49.04    3.06
  -1   7   4   42.36    2.83
   7   1   4   43.40    2.53
   7   0  -4    0.13    0.57
  -7   0  -4   -0.27    0.33
   0  -7  -4    0.33    0.59
   0  -7   4    2.44    0.85
  -7   0   4   -0.24    0.38
  -7   0   4    0.22    0.75
   7   0   4    0.27    0.42
   0  -7   4    0.18    0.67
   7   0   4   -0.26    0.37
   0   7   4   -0.21    0.43
   0   7   4    0.49    0.34
   0  -7   4   -0.18    0.44
   7  -1  -4   39.44    2.66
  -7   1  -4   37.92    2.43
  -1  -7  -4   41.75    2.79
   7  -1   4   47.04    2.69
  -1  -7   4   45.43    2.65
   7  -1   4   46.11    2.27
  -7   1   4   44.38    2.69
   1   7   4   48.00    2.93
  -1  -7   4   46.26    2.62
  -7   1   4   48.14    2.29
   1   7   4   47.94    2.02
  -1  -7   4   44.88    2.86
   2   7  -4   50.13    2.00
   7  -2  -4   54.89    3.15
  -7   2  -4   50.54    3.52
  -2  -7  -4   50.56    1.95
  -2  -7  -4   50.78    3.16
   2   7   4   51.29    3.11
   7  -2   4   46.88    2.26
  -7   2   4   46.75    2.16
   2   7   4   49.38    2.16
   7  -2   4   49.07    2.80
  -2  -7   4   47.46    2.96
  -2  -7   4   53.60    2.83
  -7   2   4   50.00    2.82
  -2  -7   4   50.53    3.08
   3   7  -4   91.73    3.65
  -7   3  -4   93.50    4.81
   7  -3  -4   95.02    4.97
  -3  -7  -4   92.31    3.53
  -3  -7  -4   89.93    4.98
   7  -3   4   85.49    4.32
   3   7   4   96.51    4.70
   7  -3   4   84.19    4.55
   3   7   4   93.80    3.56
  -7   3   4   91.93    4.29
  -7   3   4   88.48    3.40
  -3  -7   4   90.08    4.25
   7  -3   4   88.87    3.47
  -3  -7   4   88.42    4.40
   7  -4  -4   77.46    4.17
  -7   4  -4   73.07    4.59
  -4  -7  -4   76.71    4.32
  -4  -7  -4   79.69    3.26
   4   7   4   77.45    3.13
   4   7   4   76.89    4.54
  -4  -7   4   79.54    3.94
  -4  -7   4   75.65    3.82
   7  -4   4   74.58    3.89
  -7   4   4   76.24    3.78
   7  -4   4   76.12    3.92
  -7   5  -4   93.69    4.97
  -5  -7  -4   94.35    3.95
   5   7  -4   93.36    4.15
   7  -5  -4   96.38    4.90
  -5  -7  -4   93.32    4.98
  -5  -7   4   86.86    4.37
   7  -5   4   90.62    4.52
   7  -5   4   93.79    4.59
  -7   5   4   94.23    4.34
  -5  -7   4   91.73    4.48
   5   7   4   94.40    4.93
  -5  -7   4   95.13    4.48
   7  -6  -4    3.00    1.19
  -7   6  -4    3.86    1.33
  -6  -7  -4    2.72    1.27
  -6  -7  -4    3.81    0.89
   6   7  -4    3.40    0.81
   6   7   4    5.28    0.69
   7  -6   4    6.08    1.19
   6   7   4    5.44    1.18
  -7   6   4    5.77    1.03
   7  -6   4    6.97    1.21
  -6  -7   4    6.93    1.09
  -6  -7   4    6.06    1.14
  -6  -7   4    5.52    1.10
  -7  -7  -4  119.62    6.05
   7   7  -4  121.03    5.29
   7  -7  -4  117.79    5.82
  -7   7  -4  118.84    5.92
  -7  -7  -4  119.20    4.99
  -7  -7   4  118.76    5.08
  -7  -7   4  108.30    5.21
  -7  -7   4  111.69    5.28
   7   7   4   94.72    5.50
   7  -7   4  110.97    5.39
   7  -7   4  105.89    5.32
  -7   7   4  111.04    4.94
  -7   8  -4   21.77    2.32
  -8  -7  -4   21.00    1.75
   7  -8  -4   18.81    2.05
  -8  -7  -4   17.81    2.24
   8   7  -4   22.51    1.98
   8   7   4   20.60    2.32
  -7   8   4   19.76    2.10
   7  -8   4   20.29    1.92
  -8  -7   4   21.54    1.94
   7  -8   4   21.32    1.98
   8   7   4   20.21    1.43
  -8  -7   4   21.85    1.67
  -8  -7   4   20.31    1.81
  -7   8   4   21.42    1.82
  -6   8  -4   11.21    1.68
  -8  -6  -4   12.40    1.51
  -8  -6  -4   10.74    1.75
   8   6   4   10.35    1.10
  -8  -6   4    9.21    1.37
  -8  -6   4   10.37    1.37
  -8  -6   4   10.16    1.05
   8   6   4   10.49    1.69
   6  -8   4   10.26    1.34
  -6   8   4   10.24    1.12
   6  -8   4   10.57    1.43
  -6   8   4   10.18    1.48
   8   5  -4   20.59    1.84
  -8  -5  -4   19.88    2.18
  -5   8  -4   18.62    2.08
   5  -8  -4   20.31    1.42
   8   5   4   16.51    1.43
  -8  -5   4   19.73    1.73
   8   5   4   18.46    1.89
   5  -8   4   16.28    1.65
  -8  -5   4   16.56    1.64
   5  -8   4   17.18    1.72
  -5   8   4   16.35    1.83
  -5   8   4   17.99    1.36
  -4   8  -4   50.81    3.47
   8   4  -4   52.85    3.18
   4  -8  -4   52.17    2.81
  -8  -4  -4   55.02    3.63
  -8  -4  -4   47.55    3.03
  -4   8   4   58.24    3.54
  -4   8   4   55.04    2.57
   4  -8   4   56.06    3.15
  -8  -4   4   53.40    3.26
  -8  -4   4   53.71    3.14
   8   4   4   53.05    3.33
   8   4   4   56.72    2.93
   4  -8   4   56.79    3.19
   8   3  -4   15.06    1.57
  -8  -3  -4   16.24    1.81
   3  -8  -4   14.18    1.40
  -8  -3  -4   13.29    1.39
  -8  -3   4   14.58    1.38
  -3   8   4   14.28    1.64
   8   3   4   12.96    1.33
   8   3   4   15.21    1.63
   3  -8   4   13.29    1.46
  -3   8   4   14.74    1.08
   3  -8   4   15.10    1.48
   3  -8   4   13.92    1.79
  -8  -3   4   12.81    1.54
   2  -8  -4  178.84    7.43
   8   2  -4  185.99    7.70
  -8  -2  -4  184.95    8.06
  -8  -2  -4  181.56    7.33
   2  -8   4  185.29    8.06
   8   2   4  173.96    7.42
  -8  -2   4  183.13    7.17
  -2   8   4  190.73    6.66
   2  -8   4  185.31    7.55
  -2   8   4  186.12    7.99
  -8  -2   4  184.72    7.63
   2  -8   4  172.86    7.65
   8   2   4  179.91    7.33
  -8  -1  -4   36.57    2.76
  -8  -1  -4   37.26    2.49
   8   1  -4   36.72    2.49
   1  -8  -4   37.86    2.47
   1  -8   4   34.64    2.59
  -1   8   4   35.75    2.61
   1  -8   4   32.41    2.43
  -1   8   4   33.80    1.63
   8   1   4   35.87    2.27
  -8  -1   4   33.82    2.04
   1  -8   4   32.82    2.32
   8   1   4   33.21    2.46
  -8  -1   4   34.64    2.37
   8   0  -4   22.66    1.98
   0  -8  -4   23.21    1.98
  -8   0  -4   24.66    2.24
  -8   0   4   24.40    1.90
   8   0   4   23.48    2.02
   0  -8   4   22.61    1.86
   8   0   4   20.75    1.60
   0   8   4   20.47    1.11
   0  -8   4   21.77    1.75
  -8   0   4   21.65    1.46
   0   8   4   22.24    2.11
  -8   1  -4   36.20    2.74
  -1  -8  -4   34.84    2.52
  -8   1  -4   35.10    2.29
   8  -1   4   35.10    1.98
  -1  -8   4   36.86    2.29
  -1  -8   4   33.86    2.54
  -8   1   4   31.66    1.80
  -1  -8   4   33.74    2.32
  -8   1   4   33.16    2.37
   1   8   4   31.36    2.53
   1   8   4   33.05    1.47
   8  -1   4   34.79    2.34
  -8   2  -4  178.49    8.10
  -8   2  -4  182.51    7.59
   8  -2  -4  194.03    8.09
   2   8   4  206.70    6.81
   8  -2   4  190.30    7.75
  -8   2   4  184.08    7.66
  -2  -8   4  182.91    7.84
  -2  -8   4  180.56    7.62
  -2  -8   4  187.61    7.93
   2   8   4  182.73    8.04
   3   8  -4   14.48    1.02
  -8   3  -4   15.26    1.71
  -3  -8  -4   14.36    0.91
  -3  -8  -4   14.36    1.78
   8  -3  -4   11.65    1.51
   8  -3   4   14.77    1.50
   8  -3   4   14.80    1.00
  -8   3   4   14.71    0.94
   3   8   4   13.95    1.78
   8  -3   4   12.64    1.50
  -8   3   4   15.02    1.58
  -3  -8   4   13.67    1.51
   3   8   4   14.22    0.79
  -3  -8   4   16.06    1.65
  -4  -8  -4   54.83    3.52
   8  -4  -4   51.73    3.41
   4   8  -4   55.41    2.65
  -4  -8  -4   51.59    2.42
  -8   4  -4   51.43    3.49
   8  -4   4   55.29    3.23
  -4  -8   4   55.67    3.06
   4   8   4   58.24    3.56
  -8   4   4   52.27    3.06
   8  -4   4   55.53    2.24
  -4  -8   4   52.32    3.09
  -4  -8   4   56.13    3.27
   4   8   4   51.49    2.16
   8  -4   4   54.71    3.19
  -8   4   4   52.68    2.11
  -8   5  -4   17.15    2.01
  -5  -8  -4   17.67    2.07
   8  -5  -4   21.05    2.04
   5   8  -4   19.21    1.48
  -5  -8  -4   19.35    1.37
  -5  -8   4   19.43    1.75
  -5  -8   4   19.09    1.66
  -8   5   4   19.47    1.74
  -5  -8   4   19.61    1.81
   8  -5   4   19.65    1.79
   5   8   4   18.00    1.03
   8  -5   4   17.00    1.79
   5   8   4   20.62    2.06
  -6  -8  -4    9.03    1.50
  -6  -8  -4   11.88    1.22
  -8   6  -4   12.46    1.76
   8  -6  -4    9.44    1.46
   6   8  -4   12.33    1.31
   6   8   4   10.28    0.80
  -6  -8   4    9.94    1.31
  -8   6   4   10.36    1.39
   6   8   4   11.90    1.84
   8  -6   4   10.61    1.46
   8  -6   4    8.10    1.41
  -6  -8   4    9.92    1.30
  -6  -8   4   10.78    1.40
  -7  -8  -4   18.54    2.24
  -8   7  -4   20.54    2.17
  -7  -8  -4   21.92    1.73
   8  -7  -4   21.01    2.27
   7   8  -4   20.98    1.80
   8  -7   4   19.71    2.01
  -7  -8   4   19.03    1.83
   7   8   4   21.33    1.69
  -7  -8   4   21.02    1.81
   8  -7   4   19.74    1.97
  -8   7   4   21.13    1.77
  -7  -8   4   22.23    2.03
   7   8   4   21.08    2.23
   8   8  -4  236.51    9.45
  -8  -8  -4  251.77    9.10
  -8   8  -4  246.06   10.28
   8  -8  -4  239.35   10.14
  -8  -8  -4  223.51   10.18
  -8   8   4  222.99    8.94
   8   8   4  219.78   10.00
   8  -8   4  222.19    9.53
  -8  -8   4  221.77    9.42
   8  -8   4  213.05    9.42
  -8  -8   4  231.79    9.32
   9   8  -4    3.48    0.98
  -8   9  -4    2.82    1.28
  -9  -8  -4    3.68    1.02
  -9  -8  -4    4.70    1.47
  -9  -8   4    3.17    1.13
   8  -9   4    5.96    1.29
  -9  -8   4    3.97    1.16
   8  -9   4    3.78    1.25
  -9  -8   4    5.31    0.97
   9   8   4    3.67    1.30
  -8   9   4    4.15    1.14
  -8   9   4    5.16    0.96
  -9  -7  -4   36.69    3.11
  -9  -7  -4   36.58    2.51
   9   7  -4   34.69    2.69
  -7   9  -4   32.64    3.02
   9   7   4   36.39    3.02
  -7   9   4   38.21    3.06
   7  -9   4   41.14    2.82
  -9  -7   4   39.65    2.36
   9   7   4   39.90    2.23
  -7   9   4   40.16    2.45
  -9  -7   4   39.47    2.75
  -9  -7   4   41.02    2.81
   7  -9   4   46.30    3.03
   9   6  -4   15.26    1.74
  -9  -6  -4   16.77    2.03
  -9  -6  -4   15.82    1.62
  -6   9  -4   12.61    1.88
   6  -9  -4   16.28    1.30
  -6   9   4   15.19    1.29
   6  -9   4   17.19    1.84
  -9  -6   4   15.36    1.68
  -6   9   4   15.09    1.97
   9   6   4   14.09    1.36
  -9  -6   4   16.59    1.76
   9   6   4   15.48    1.87
   6  -9   4   15.64    1.70
   5  -9  -4  130.48    5.37
  -5   9  -4  126.98    6.41
  -9  -5  -4  125.04    5.60
  -9  -5  -4  117.48    6.29
   9   5  -4  127.01    5.95
   9   5   4  124.66    5.41
  -9  -5   4  123.23    5.64
   9   5   4  126.70    6.13
  -9  -5   4  122.91    5.80
   5  -9   4  122.73    5.86
  -5   9   4  131.14    6.37
   5  -9   4  134.35    5.83
   9   4  -4  100.80    5.18
  -4   9  -4  105.73    5.59
  -9  -4  -4  109.98    5.68
  -9  -4  -4  110.97    4.97
   4  -9  -4  107.68    4.81
   4  -9   4  102.60    5.56
   4  -9   4  110.04    5.19
   9   4   4  107.70    5.28
  -4   9   4  101.00    4.20
   4  -9   4  101.75    4.92
  -9  -4   4  103.22    5.07
  -9  -4   4  111.72    4.96
  -4   9   4  106.70    5.55
   9   3  -4   16.45    1.74
   3  -9  -4   16.16    1.52
  -9  -3  -4   15.45    1.83
  -9  -3  -4   16.00    1.56
  -9  -3   4   11.72    1.56
  -3   9   4   13.21    1.67
   3  -9   4   12.15    1.80
  -9  -3   4   14.01    1.54
   3  -9   4   13.27    1.40
   9   3   4   12.40    1.35
   3  -9   4   12.00    1.51
  -9  -2  -4   19.30    1.77
  -9  -2  -4   21.55    2.14
   9   2  -4   21.07    2.02
   2  -9  -4   20.60    1.83
  -9  -2   4   22.03    1.74
   2  -9   4   23.87    2.30
   9   2   4   24.68    1.88
  -2   9   4   22.62    1.15
  -2   9   4   21.82    2.11
   2  -9   4   22.99    1.96
   9   2   4   21.80    1.84
   2  -9   4   23.31    1.86
  -9  -2   4   22.40    1.93
  -9  -1  -4  117.86    6.07
   9   1  -4  126.98    5.93
  -9  -1  -4  120.50    5.52
   1  -9  -4  124.03    5.76
  -9  -1   4  130.52    5.29
   1  -9   4  123.99    5.68
  -9  -1   4  124.34    5.72
   1  -9   4  124.41    5.50
  -1   9   4  127.18    4.65
   9   1   4  135.12    5.67
   1  -9   4  125.38    6.11
   9   1   4  129.24    5.58
  -1   9   4  116.86    5.98
  -9   0  -4    0.28    0.66
   9   0  -4    0.24    0.53
  -9   0  -4    0.52    0.66
   0   9   4   -0.35    0.48
   0  -9   4    0.27    0.53
  -9   0   4   -0.43    0.50
   0  -9   4   -0.78    0.60
   9   0   4    0.29    0.62
  -9   0   4    0.71    0.56
   0  -9   4   -0.12    0.51
   9   0   4    0.40    0.51
  -9   1  -4  118.88    5.52
  -1  -9  -4  122.09    5.94
   9  -1  -4  123.62    5.94
  -9   1  -4  121.90    6.09
   1   9   4  123.88    6.07
   9  -1   4  123.18    5.24
  -1  -9   4  129.46    5.51
   9  -1   4  124.04    5.66
  -9   1   4  131.93    5.08
  -1  -9   4  126.43    6.05
  -1  -9   4  126.57    5.71
  -9   1   4  127.21    5.76
  -9   2  -4   20.66    1.86
   9  -2  -4   21.43    2.13
  -9   2  -4   23.24    2.29
  -2  -9  -4   21.83    2.16
  -2  -9   4   23.26    2.14
   2   9   4   21.55    2.10
  -9   2   4   22.55    1.42
  -9   2   4   22.45    2.00
   9  -2   4   23.55    1.55
   9  -2   4   23.91    2.02
  -2  -9   4   21.60    1.93
  -2  -9   4   22.56    1.80
  -3  -9  -4   17.20    0.95
   9  -3  -4   17.58    1.87
   3   9  -4   17.06    1.09
  -3  -9  -4   18.29    1.99
  -9   3  -4   15.93    1.66
  -9   3  -4   17.74    1.92
  -3  -9   4   12.89    1.45
  -9   3   4   12.38    1.58
  -3  -9   4   13.67    1.50
   9  -3   4   14.25    1.55
  -9   3   4   15.66    1.14
  -3  -9   4   14.42    1.71
   3   9   4   12.79    1.70
   9  -4  -4  101.14    5.43
  -4  -9  -4  109.77    4.18
  -9   4  -4  103.36    5.05
  -4  -9  -4  102.10    5.52
   4   9  -4  104.06    4.41
  -9   4  -4  107.14    5.57
  -9   4   4  100.99    3.96
   9  -4   4  105.72    4.14
   9  -4   4  103.44    5.13
  -4  -9   4  110.93    5.33
  -4  -9   4  108.06    4.90
   9  -4   4  106.33    5.16
  -4  -9   4  110.71    5.16
   4   9   4  100.83    5.46
  -9   4   4  112.23    5.13
   9  -5  -4  129.05    6.30
  -9   5  -4  126.92    6.35
  -5  -9  -4  127.24    5.02
  -5  -9  -4  129.02    6.43
   5   9  -4  125.69    5.30
   9  -5   4  125.71    5.91
  -5  -9   4  122.66    5.88
   5   9   4  125.46    6.36
  -9   5   4  121.75    5.67
  -5  -9   4  130.94    5.64
   9  -5   4  117.09    5.84
  -5  -9   4  122.83    5.80
   6   9  -4   15.45    1.45
  -9   6  -4   14.37    1.98
  -6  -9  -4   16.64    1.36
  -6  -9  -4   16.67    2.02
   9  -6  -4   13.48    1.78
   6   9   4   14.81    2.09
   9  -6   4   16.18    1.80
  -9   6   4   15.28    1.65
  -6  -9   4   18.64    1.87
  -6  -9   4   14.49    1.59
  -6  -9   4   16.89    1.77
   9  -6   4   16.44    1.83
   9  -7  -4   36.14    3.12
  -7  -9  -4   36.35    3.19
  -9   7  -4   35.84    3.02
   7   9   4   39.93    3.32
  -9   7   4   38.40    2.59
   9  -7   4   39.34    2.86
  -7  -9   4   37.55    2.80
  -7  -9   4   44.11    2.83
   9  -7   4   40.94    2.95
  -7  -9   4   45.66    2.79
  -9   8  -4    5.75    1.51
   8   9  -4    3.55    0.99
  -8  -9  -4    4.51    1.54
  -8  -9  -4    2.71    0.96
   9  -8  -4    3.54    1.13
  -8  -9   4    4.24    1.10
  -8  -9   4    4.04    1.09
   9  -8   4    4.20    1.01
   8   9   4    3.35    1.52
  -9   8   4    3.24    0.99
  -8  -9   4    4.29    1.20
   9  -8   4    2.93    1.21
  -9   9  -4   20.34    2.44
  -9  -9  -4   19.28    2.45
   9   9  -4   21.51    2.05
   9  -9  -4   18.48    2.22
  -9  -9  -4   20.74    1.88
  -9  -9   4   23.16    2.24
  -9   9   4   24.99    1.97
   9  -9   4   21.01    2.22
  -9   9   4   22.65    2.42
  -9  -9   4   24.08    2.09
  -9  -9   4   26.74    2.08
 -10  -9  -4    3.22    1.11
  10   9  -4    3.59    1.05
  -9  10  -4    2.28    1.36
 -10  -9  -4    1.52    0.99
  10   9   4    3.18    1.56
  -9  10   4    2.27    0.79
 -10  -9   4    4.96    1.27
   9 -10   4    3.58    1.15
  -9  10   4    4.63    1.24
   9 -10   4    3.01    1.29
 -10  -8  -4   21.87    2.54
  -8  10  -4   22.34    2.54
  10   8  -4   20.51    2.09
 -10  -8  -4   18.74    1.85
   8 -10   4   19.13    2.18
  -8  10   4   18.83    1.61
 -10  -8   4   17.88    1.98
 -10  -8   4   17.57    2.10
  -8  10   4   19.27    2.22
   8 -10   4   15.71    1.83
  10   7  -4   10.34    1.57
 -10  -7  -4   13.09    2.20
 -10  -7  -4   11.93    1.55
  -7  10   4   16.30    2.23
 -10  -7   4   14.41    1.77
   7 -10   4   15.16    1.73
   7 -10   4   16.22    2.06
  10   7   4   18.80    2.15
 -10  -7   4   14.87    1.75
  -7  10   4   14.99    1.29
  10   6  -4   45.08    3.13
 -10  -6  -4   47.29    2.97
 -10  -6  -4   44.31    3.58
   6 -10  -4   41.29    2.51
  -6  10  -4   45.99    3.55
  -6  10   4   47.48    2.36
  -6  10   4   48.46    3.51
 -10  -6   4   46.26    3.08
 -10  -6   4   46.26    3.02
  10   6   4   47.01    2.68
   6 -10   4   43.14    3.08
   6 -10   4   46.54    3.03
  10   6   4   48.04    3.39
  10   5  -4   26.14    2.35
   5 -10  -4   25.83    1.91
 -10  -5  -4   24.90    2.11
  -5  10  -4   26.57    2.63
 -10  -5  -4   25.17    2.59
  -5  10   4   25.51    2.54
 -10  -5   4   26.59    2.27
 -10  -5   4   26.63    2.13
  10   5   4   28.38    2.54
   5 -10   4   24.21    2.07
  10   5   4   25.05    1.90
   5 -10   4   25.53    2.27
  -5  10   4   24.35    1.50
 -10  -4  -4   44.12    3.33
  10   4  -4   42.54    3.01
 -10  -4  -4   40.48    2.75
   4 -10  -4   40.68    2.63
   4 -10   4   44.56    3.33
   4 -10   4   44.27    2.82
   4 -10   4   45.95    3.01
 -10  -4   4   42.71    2.74
  10   4   4   44.42    2.73
 -10  -4   4   40.81    2.84
  10   4   4   46.46    3.10
  -4  10   4   44.99    3.34
 -10  -3  -4    6.62    1.19
  10   3  -4    5.56    1.12
 -10  -3  -4    5.89    1.29
  10   3   4    8.94    1.43
   3 -10   4    6.95    1.28
  -3  10   4    7.60    1.51
 -10  -3   4    8.30    1.45
  10   3   4    8.12    1.18
   3 -10   4    9.17    1.27
   3 -10   4    7.25    1.53
 -10  -3   4    7.34    1.14
 -10  -2  -4   46.91    2.88
 -10  -2  -4   46.33    3.31
   2 -10  -4   46.23    2.94
  10   2  -4   46.48    3.16
   2 -10   4   47.72    3.41
   2 -10   4   43.41    2.73
 -10  -2   4   43.17    2.65
  10   2   4   44.88    2.79
 -10  -2   4   42.11    2.95
  -2  10   4   43.66    3.20
   2 -10   4   41.26    2.81
  10   2   4   41.71    3.08
  10   1  -4   32.28    2.63
   1 -10  -4   34.80    2.55
 -10  -1  -4   31.55    2.74
 -10  -1  -4   33.54    2.40
   1 -10   4   31.52    2.22
   1 -10   4   31.49    2.35
 -10  -1   4   29.13    2.42
  10   1   4   31.70    2.33
  10   1   4   32.62    2.33
   1 -10   4   31.49    2.74
 -10  -1   4   32.98    2.15
  -1  10   4   32.08    2.74
 -10   0  -4  178.25    7.70
 -10   0  -4  161.28    6.90
  10   0  -4  170.82    7.42
   0 -10  -4  172.84    7.33
  10   0   4  150.99    6.83
 -10   0   4  151.31    6.97
   0 -10   4  154.79    7.39
   0 -10   4  150.14    6.62
  10   0   4  153.85    6.65
   0  10   4  158.89    7.44
 -10   0   4  152.25    6.36
   0 -10   4  160.46    7.00
  -1 -10  -4   37.61    2.78
 -10   1  -4   33.45    2.81
  10  -1  -4   35.61    2.70
 -10   1  -4   31.43    2.38
  10  -1   4   33.52    2.16
  10  -1   4   32.42    2.41
  -1 -10   4   31.94    2.22
  -1 -10   4   33.40    2.73
  -1 -10   4   31.25    2.36
 -10   1   4   30.60    2.48
 -10   1   4   31.34    1.96
   1  10   4   31.28    2.66
  -2 -10  -4   48.87    3.33
  10  -2  -4   47.08    3.23
 -10   2  -4   41.25    2.79
 -10   2  -4   46.44    3.37
  -2 -10   4   47.49    3.26
  -2 -10   4   44.82    2.97
 -10   2   4   46.97    2.98
  10  -2   4   45.73    2.98
 -10   2   4   43.63    2.31
  10  -2   4   44.68    2.46
   2  10   4   40.19    3.13
  -2 -10   4   45.62    2.75
 -10   3  -4    6.47    1.12
  10  -3  -4    7.11    1.47
 -10   3  -4    7.13    1.54
  -3 -10  -4    8.35    1.55
  10  -3   4    9.38    0.92
  -3 -10   4    8.29    1.24
  10  -3   4    7.44    1.19
 -10   3   4    7.32    1.36
   3  10   4    6.19    1.33
  -3 -10   4    5.81    1.07
 -10   3   4    9.33    0.87
  -3 -10   4    8.48    1.42
 -10   4  -4   39.30    2.84
  10  -4  -4   40.39    3.12
  -4 -10  -4   41.11    3.25
 -10   4  -4   40.05    3.22
  -4 -10  -4   42.82    2.06
   4  10  -4   39.84    2.25
  10  -4   4   46.38    3.01
  -4 -10   4   47.73    3.21
  10  -4   4   46.23    2.24
   4  10   4   46.72    3.37
 -10   4   4   47.17    3.02
  -4 -10   4   43.64    2.92
  -4 -10   4   48.59    2.80
  -5 -10  -4   25.31    1.60
  10  -5  -4   28.02    2.55
 -10   5  -4   27.56    2.25
   5  10  -4   27.54    1.83
  -5 -10  -4   26.04    2.59
 -10   5  -4   28.81    2.67
  10  -5   4   25.12    2.21
  -5 -10   4   24.51    1.98
 -10   5   4   25.65    2.20
  -5 -10   4   25.09    2.18
  -5 -10   4   26.65    2.37
   5  10   4   27.21    2.60
  -6 -10  -4   44.85    3.54
 -10   6  -4   45.38    3.51
   6  10  -4   44.23    2.69
  -6 -10  -4   46.84    2.48
  10  -6  -4   45.18    3.52
  -6 -10   4   47.50    2.87
  -6 -10   4   48.90    3.27
  10  -6   4   47.30    3.23
  10  -6   4   49.05    3.26
 -10   6   4   47.14    3.04
  -6 -10   4   45.75    3.16
   6  10   4   46.20    3.53
  -7 -10  -4   12.35    1.35
   7  10  -4   13.53    1.46
  10  -7  -4    8.74    1.73
 -10   7  -4   12.72    1.98
  -7 -10  -4   12.25    2.13
  10  -7   4   16.34    1.78
 -10   7   4   15.18    1.69
  -7 -10   4   14.14    1.75
   7  10   4   18.42    2.41
  -7 -10   4   18.48    1.86
  -7 -10   4   15.90    1.60
 -10   8  -4   17.87    2.32
  10  -8  -4   19.63    2.27
  -8 -10  -4   19.89    2.49
   8  10  -4   21.69    1.95
  -8 -10  -4   19.60    1.71
  -8 -10   4   19.79    2.11
  10  -8   4   22.14    2.25
 -10   8   4   18.12    1.83
  10  -8   4   19.76    2.11
  -8 -10   4   19.69    1.99
   8  10   4   19.25    2.53
  -8 -10   4   20.31    1.87
  10  -9  -4    2.18    1.24
 -10   9  -4    1.20    1.16
   9  10  -4    4.82    0.99
  -9 -10  -4    2.30    0.93
  -9 -10  -4    1.58    1.21
 -10   9   4    2.12    0.99
 -10   9   4    2.70    0.99
  -9 -10   4    3.87    1.22
  10  -9   4    3.63    1.02
  -9 -10   4    3.29    1.14
   9  10   4    1.75    1.39
  -9 -10   4    4.90    1.10
  10  -9   4    3.09    1.21
 -10 -10  -4   49.21    4.00
 -10  10  -4   49.41    3.92
 -10  10   4   47.64    3.78
  10 -10   4   49.08    3.46
  10  10   4   53.04    4.32
 -10 -10   4   49.20    3.48
  10 -10   4   46.72    3.46
 -10 -10   4   50.19    3.19
 -10  11  -4    0.89    1.10
 -11 -10  -4    1.90    1.06
 -11 -10  -4    1.54    0.92
  11  10  -4    3.47    1.02
 -11 -10   4    1.69    0.97
  10 -11   4    4.11    1.34
 -10  11   4    4.07    1.24
  10 -11   4    4.63    1.16
  11  10   4    1.93    1.21
 -11 -10   4    2.65    1.06
  11   9  -4  133.04    6.64
 -11  -9  -4  127.91    6.16
 -11  -9  -4  138.97    7.33
  -9  11  -4  130.19    7.12
  -9  11   4  129.00    7.09
  11   9   4  133.24    7.20
   9 -11   4  132.67    6.42
 -11  -9   4  132.27    6.49
   9 -11   4  128.91    6.57
 -11  -8  -4    6.99    1.76
  -8  11  -4   10.41    1.94
  11   8  -4    8.56    1.67
   8 -11   4    8.25    1.36
  11   8   4    6.92    1.55
 -11  -8   4    8.01    1.41
 -11  -8   4   10.06    1.53
  -8  11   4    8.51    1.77
   8 -11   4    7.77    1.39
 -11  -7  -4   49.08    3.18
 -11  -7  -4   46.45    2.62
 -11  -7  -4   49.84    3.79
  11   7  -4   43.62    3.30
  -7  11  -4   44.32    3.66
  11   7   4   39.82    3.73
   7 -11   4   49.59    3.38
   7 -11   4   50.16    3.50
  -7  11   4   49.01    3.76
 -11  -7   4   48.35    3.17
  11   6  -4    1.56    0.91
  -6  11  -4    2.79    1.46
 -11  -6  -4    0.60    0.89
  11   6   4    2.33    0.82
   6 -11   4    1.37    0.85
 -11  -6   4    1.43    0.78
 -11  -6   4    1.16    0.91
  -6  11   4    0.56    0.70
   6 -11   4    1.33    1.07
  11   6   4    1.43    0.87
 -11  -5  -4   16.67    2.25
  11   5  -4   17.50    1.92
   5 -11  -4   18.78    1.68
  -5  11  -4   16.98    2.09
 -11  -5  -4   18.61    1.91
   5 -11   4   16.53    1.74
 -11  -5   4   14.06    1.82
   5 -11   4   14.01    1.80
  11   5   4   17.15    1.61
 -11  -5   4   17.16    1.79
  11   5   4   17.84    2.12
  -5  11   4   15.86    2.14
 -11  -4  -4    0.22    0.83
   4 -11  -4    1.15    0.78
  11   4  -4    1.96    1.01
 -11  -4  -4    0.46    0.79
  -4  11   4    2.35    1.25
   4 -11   4    0.83    0.68
   4 -11   4    2.23    1.30
   4 -11   4    1.56    0.80
  11   4   4    0.40    0.68
 -11  -4   4    1.95    0.91
  11   4   4    1.20    0.90
 -11  -4   4    2.27    1.13
   3 -11  -4  147.54    6.68
 -11  -3  -4  142.72    6.61
 -11  -3  -4  142.83    7.28
  11   3  -4  148.68    7.08
   3 -11   4  148.01    6.79
   3 -11   4  156.79    7.51
  11   3   4  153.20    6.60
  11   3   4  153.74    6.97
  -3  11   4  147.39    7.33
   3 -11   4  147.89    6.49
 -11  -3   4  145.20    6.78
 -11  -3   4  160.17    6.58
 -11  -2  -4   64.29    3.62
  11   2  -4   59.63    3.83
 -11  -2  -4   63.71    4.13
   2 -11  -4   61.12    3.64
 -11  -2   4   61.50    3.33
  11   2   4   62.83    3.62
 -11  -2   4   54.65    3.59
   2 -11   4   59.78    3.39
  11   2   4   55.40    3.35
   2 -11   4   63.74    3.71
   2 -11   4   58.00    4.06
  -2  11   4   59.84    4.04
 -11  -1  -4   15.12    1.77
  11   1  -4   18.27    1.98
   1 -11  -4   19.84    2.01
 -11  -1  -4   21.21    2.30
 -11  -1   4   18.62    1.63
  -1  11   4   20.15    2.17
 -11  -1   4   17.75    1.97
  11   1   4   19.33    1.85
   1 -11   4   19.21    1.71
   1 -11   4   17.65    2.15
   1 -11   4   17.33    1.88
  11   1   4   18.60    1.82
 -11   0  -4    0.12    0.74
  11   0  -4    0.34    0.57
 -11   0  -4    0.61    0.76
   0 -11  -4   -0.27    0.66
 -11   0   4    0.18    0.90
   0 -11   4   -0.18    0.56
   0  11   4    0.57    0.99
   0 -11   4    0.12    0.57
  11   0   4    0.03    0.64
   0 -11   4    0.14    0.85
 -11   0   4    1.22    0.70
 -11   1  -4   18.87    1.91
  -1 -11  -4   17.40    2.01
  11  -1  -4   21.05    2.13
 -11   1  -4   21.14    2.30
   1  11   4   17.45    2.06
 -11   1   4   18.15    1.89
 -11   1   4   18.01    1.53
  -1 -11   4   21.07    1.76
  11  -1   4   18.92    1.92
  11  -1   4   18.25    1.59
  -1 -11   4   17.48    2.10
  -1 -11   4   17.81    1.88
 -11   2  -4   63.65    4.03
 -11   2  -4   60.04    3.60
  -2 -11  -4   58.20    3.88
  11  -2  -4   59.28    3.90
 -11   2   4   58.82    2.95
  11  -2   4   60.82    3.64
  -2 -11   4   60.52    3.27
  -2 -11   4   59.83    3.64
  11  -2   4   58.96    3.14
 -11   2   4   62.88    3.74
  -2 -11   4   59.54    3.92
   2  11   4   57.58    3.94
  -3 -11  -4  149.55    7.31
 -11   3  -4  147.65    6.80
 -11   3  -4  149.93    7.34
  11  -3  -4  138.01    7.16
  -3 -11   4  151.01    6.88
   3  11   4  153.04    7.46
  11  -3   4  150.78    6.89
  11  -3   4  146.79    6.07
  -3 -11   4  153.90    7.24
 -11   3   4  153.94    6.92
 -11   3   4  153.58    5.90
  -3 -11   4  151.17    6.41
 -11   4  -4    0.97    0.71
 -11   4  -4    1.59    1.10
  11  -4  -4    2.28    1.04
  -4 -11  -4    1.58    0.88
  -4 -11   4    1.29    0.93
  -4 -11   4    1.62    1.02
  -4 -11   4    2.22    0.79
 -11   4   4    0.70    0.93
  11  -4   4    2.49    1.04
   4  11   4    1.80    1.26
  -5 -11  -4   20.81    2.40
 -11   5  -4   17.59    2.21
 -11   5  -4   18.83    1.97
  11  -5  -4   15.29    2.09
   5  11  -4   20.16    1.52
  11  -5   4   15.77    1.89
   5  11   4   16.24    2.12
 -11   5   4   17.20    1.96
  -5 -11   4   15.20    1.58
  -5 -11   4   15.63    1.95
  -5 -11   4   17.04    1.95
 -11   6  -4    1.14    0.92
  11  -6  -4    1.00    0.84
  -6 -11  -4    1.07    0.73
 -11   6  -4    0.21    0.83
  -6 -11  -4    0.09    1.06
 -11   6   4   -0.29    0.82
  -6 -11   4    0.94    0.85
   6  11   4    0.92    1.11
  -6 -11   4    0.96    0.99
  -6 -11   4    0.91    0.75
  11  -6   4    1.30    0.82
 -11   7  -4   49.69    3.78
  11  -7  -4   49.08    3.73
  -7 -11  -4   44.75    2.62
   7  11  -4   49.96    4.11
  -7 -11  -4   49.08    3.87
 -11   7  -4   46.43    3.32
  -7 -11   4   48.84    2.96
  -7 -11   4   50.72    3.44
 -11   7   4   49.65    3.23
  -7 -11   4   45.82    3.32
  11  -7   4   56.31    3.62
   7  11   4   48.27    3.84
  11  -8  -4    6.56    1.62
   8  11  -4    9.28    1.21
 -11   8  -4    6.51    1.39
  -8 -11  -4    6.69    1.54
  -8 -11  -4    7.10    1.16
 -11   8  -4   10.95    1.78
   8  11   4    7.58    1.93
  -8 -11   4    7.05    1.22
  -8 -11   4    7.37    1.39
  -8 -11   4    6.74    1.44
  11  -8   4    9.88    1.61
  -9 -11  -4  129.63    5.79
   9  11  -4  131.37    6.26
 -11   9  -4  130.35    6.46
  11  -9  -4  135.80    7.12
 -11   9  -4  135.79    7.09
  -9 -11  -4  131.08    7.15
  -9 -11   4  130.05    5.96
   9  11   4  131.06    7.25
  11  -9   4  126.39    6.41
 -11   9   4  132.96    6.04
  -9 -11   4  130.59    6.49
  11  -9   4  122.87    6.43
  -9 -11   4  116.99    6.06
 -10 -11  -4    2.38    1.25
 -10 -11  -4    2.39    1.06
  10  11  -4    5.66    1.09
 -11  10  -4    2.69    1.28
 -11  10   4    4.57    1.41
  11 -10   4    1.41    0.97
 -10 -11   4    3.12    0.99
 -10 -11   4    2.53    1.11
  10  11   4    2.27    1.18
  11 -10   4    2.75    1.15
 -11  10   4    0.56    0.91
 -11 -11  -4   10.16    1.56
 -11  11  -4    9.65    1.97
  11  11  -4   13.92    1.57
 -11 -11   4   11.98    1.59
  11 -11   4    6.74    1.44
  11 -11   4   11.89    1.65
  11  11   4    9.10    2.01
 -11  12  -4    2.03    1.19
 -12 -11  -4    1.28    0.97
  11 -12   4    1.82    0.84
  12  11   4    0.66    1.16
 -12 -11   4    4.02    1.11
  11 -12   4    2.26    0.82
 -11  12   4    1.34    0.81
  12  10  -4   37.85    3.04
 -12 -10  -4   36.01    2.73
  12  10   4   31.72    3.54
  10 -12   4   38.52    2.92
 -12 -10   4   36.71    2.71
  12   9  -4   23.37    2.40
  -9  12  -4   26.47    2.85
 -12  -9  -4   24.24    2.29
 -12  -9  -4   26.23    2.76
  -9  12   4   23.37    2.70
 -12  -9   4   23.48    2.31
   9 -12   4   20.97    2.12
   9 -12   4   21.59    2.35
  12   9   4   23.14    2.65
 -12  -9   4   22.52    2.24
  12   8  -4   20.60    2.23
  -8  12  -4   20.26    2.52
 -12  -8  -4   19.03    2.50
 -12  -8  -4   21.05    2.24
 -12  -8   4   21.28    2.14
  -8  12   4   19.49    2.40
   8 -12   4   17.86    2.02
 -12  -8   4   19.08    2.07
   8 -12   4   16.04    1.86
  12   8   4   20.08    2.39
 -12  -7  -4   32.98    2.23
  12   7  -4   31.42    2.82
 -12  -7  -4   31.51    3.11
  -7  12  -4   31.22    3.09
 -12  -7  -4   31.92    2.63
  12   7   4   26.55    2.86
 -12  -7   4   31.65    2.63
  -7  12   4   32.02    3.00
 -12  -7   4   31.41    2.61
   7 -12   4   34.31    2.80
   7 -12   4   31.89    2.52
 -12  -6  -4  123.35    6.58
  12   6  -4   95.66    6.16
 -12  -6  -4  122.40    5.73
  -6  12  -4  121.00    6.56
  12   6   4  107.08    6.00
   6 -12   4  113.46    5.83
  -6  12   4  107.49    6.19
 -12  -6   4  111.06    5.57
 -12  -6   4  113.61    5.70
  12   5  -4    5.96    1.36
   5 -12  -4    5.29    1.14
  -5  12  -4    6.30    1.63
 -12  -5  -4    5.39    1.60
  12   5   4    6.60    1.19
  12   5   4    4.56    1.40
  -5  12   4    6.56    1.43
   5 -12   4    5.86    1.14
 -12  -5   4    6.74    1.36
 -12  -5   4    7.92    1.53
   5 -12   4    6.46    1.24
   5 -12   4    5.81    1.45
   4 -12  -4   80.41    4.14
  12   4  -4   80.31    4.59
 -12  -4  -4   79.70    4.23
 -12  -4  -4   65.76    5.08
   4 -12   4   71.14    4.19
   4 -12   4   72.88    4.80
  12   4   4   66.90    3.83
   4 -12   4   69.86    3.84
  -4  12   4   65.98    4.51
 -12  -4   4   68.35    3.89
 -12  -4   4   59.76    4.39
  12   4   4   67.96    4.23
 -12  -3  -4    1.86    1.05
 -12  -3  -4    2.12    1.24
  12   3  -4    2.12    1.12
   3 -12  -4    4.42    1.19
  12   3   4    1.43    0.90
  12   3   4    2.64    1.02
 -12  -3   4    3.98    1.01
   3 -12   4    1.74    0.79
  12   2  -4   13.42    1.80
 -12  -2  -4   15.87    1.84
 -12  -2  -4   14.02    2.05
   2 -12  -4   14.70    1.84
  12   2   4   13.81    1.75
   2 -12   4   16.52    2.11
 -12  -2   4   17.65    1.69
   2 -12   4   16.94    1.81
   2 -12   4   17.47    1.65
 -12  -2   4   20.61    2.37
  12   2   4   16.24    1.75
  -2  12   4   15.25    2.35
 -12  -1  -4   26.68    2.30
   1 -12  -4   29.26    2.55
 -12  -1  -4   25.58    2.68
  12   1  -4   28.02    2.60
   1 -12   4   32.87    2.99
  -1  12   4   30.04    2.88
   1 -12   4   32.15    2.26
  12   1   4   32.62    2.48
   1 -12   4   31.25    2.55
 -12  -1   4   31.14    2.26
 -12  -1   4   34.08    2.73
  12   1   4   30.33    2.43
   0 -12  -4   51.19    3.72
  12   0  -4   58.36    4.01
 -12   0  -4   55.28    4.04
 -12   0  -4   58.11    3.70
   0 -12   4   65.56    3.86
  12   0   4   71.60    3.94
 -12   0   4   64.98    3.38
   0  12   4   70.35    4.41
 -12   0   4   66.90    4.00
   0 -12   4   63.39    4.28
   0 -12   4   64.35    3.47
  12   0   4   72.42    3.78
  12  -1  -4   29.15    2.67
 -12   1  -4   26.60    2.68
 -12   1  -4   23.62    2.30
  -1 -12  -4   27.22    2.50
  12  -1   4   31.41    2.23
 -12   1   4   28.53    2.20
  -1 -12   4   28.67    2.74
  12  -1   4   30.61    2.50
  -1 -12   4   29.51    2.12
  -1 -12   4   31.92    2.56
 -12   1   4   31.58    2.56
   1  12   4   30.85    2.93
  12  -2  -4   14.12    1.88
 -12   2  -4   12.47    1.80
 -12   2  -4   10.83    1.64
  -2 -12  -4   13.97    1.96
 -12   2   4   17.97    2.06
  -2 -12   4   17.54    1.61
  -2 -12   4   17.41    2.14
  -2 -12   4   16.56    2.07
  12  -2   4   17.37    1.70
   2  12   4   13.39    1.94
  12  -2   4   15.94    1.84
 -12   3  -4    2.42    1.22
  -3 -12  -4    2.54    1.08
  12  -3   4    2.97    0.81
 -12   3   4    3.32    1.33
 -12   3   4    3.34    0.75
  -3 -12   4    4.05    0.99
  -3 -12   4    2.01    1.04
 -12   4  -4   79.12    4.36
  12  -4  -4   74.25    4.69
  -4 -12   4   74.03    4.29
   4  12   4   67.68    4.61
  -4 -12   4   64.48    4.36
  12  -4   4   75.48    4.35
  -4 -12   4   69.58    3.71
  12  -5  -4    5.13    1.30
 -12   5  -4    4.84    1.13
 -12   5  -4    6.11    1.59
  -5 -12  -4    4.19    1.21
  12  -5   4    7.15    1.47
  -5 -12   4    7.60    1.11
   5  12   4    6.94    1.58
 -12   5   4    7.13    1.71
  -5 -12   4    4.80    1.30
  -5 -12   4    6.75    1.48
  -6 -12  -4  125.49    6.71
 -12   6  -4  121.80    6.52
  12  -6  -4  122.25    6.63
 -12   6  -4  114.49    5.90
  12  -6   4  112.09    5.98
  -6 -12   4  111.49    5.93
  -6 -12   4  122.99    5.43
  -6 -12   4  106.40    6.01
 -12   6   4  127.50    6.01
   6  12   4  113.45    6.60
 -12   7  -4   34.88    3.16
  -7 -12  -4   29.18    3.05
  12  -7  -4   32.96    3.05
 -12   7  -4   33.07    2.68
  12  -7   4   32.51    2.73
   7  12   4   27.26    2.97
  -7 -12   4   30.18    2.61
  -7 -12   4   29.11    2.23
 -12   7   4   32.25    2.73
  12  -8  -4   19.01    2.36
  -8 -12  -4   17.34    2.41
 -12   8  -4   18.88    2.39
 -12   8  -4   19.86    2.16
 -12   8   4   19.54    2.11
  -8 -12   4   19.08    1.98
  -8 -12   4   19.82    2.14
  -8 -12   4   16.87    2.24
  12  -8   4   20.59    2.26
   8  12   4   21.68    2.64
 -12   9  -4   22.71    2.35
  12  -9  -4   28.43    2.96
 -12   9  -4   26.07    2.80
  -9 -12  -4   22.99    2.77
  -9 -12   4   20.51    2.17
   9  12   4   23.14    3.00
 -12   9   4   20.69    2.16
  -9 -12   4   26.17    2.05
  12  -9   4   23.11    2.38
  -9 -12   4   26.23    2.50
 -12  10  -4   41.67    3.88
 -12  10   4   34.04    2.64
  12 -10   4   42.50    3.54
 -10 -12   4   38.81    2.73
 -12  11  -4    1.50    1.10
 -12  11  -4    1.46    0.82
 -11 -12  -4    2.23    1.01
 -11 -12   4    1.66    0.95
  12 -11   4    1.31    0.79
  11  12   4    1.45    1.10
 -12  11   4    4.33    1.28
 -10  13  -4   23.60    2.80
 -13 -10  -4   25.87    2.85
 -13 -10  -4   18.06    2.40
  13  10  -4   19.19    2.35
 -10  13   4   21.33    2.50
 -13 -10   4   26.29    2.45
 -13 -10   4   26.70    2.27
  10 -13   4   21.04    2.33
  10 -13   4   25.21    2.37
  13  10   4   27.76    3.03
  -9  13  -4   24.62    2.81
  13   9  -4   30.76    2.70
 -13  -9  -4   25.04    2.41
 -13  -9   4   19.23    2.41
 -13  -9   4   26.28    2.30
   9 -13   4   25.63    2.37
  -9  13   4   29.81    2.96
  -8  13  -4    0.16    0.67
  13   8  -4    1.50    0.75
 -13  -8  -4    0.97    1.02
 -13  -8  -4    1.68    1.22
  13   8   4    1.79    1.15
  -8  13   4    1.14    0.83
 -13  -8   4    1.95    0.92
 -13  -8   4    1.56    0.98
   8 -13   4    1.52    0.81
   8 -13   4    2.46    1.06
 -13  -7  -4   31.17    2.62
 -13  -7  -4   25.44    2.83
  -7  13  -4   26.98    2.83
  13   7  -4   29.04    2.68
  -7  13   4   23.35    2.58
   7 -13   4   23.48    2.14
  13   7   4   25.22    2.71
   7 -13   4   20.73    2.27
 -13  -7   4   19.90    2.15
 -13  -7   4   22.90    2.22
  13   6  -4    8.51    1.55
 -13  -6  -4    6.97    1.52
  -6  13  -4    7.66    1.79
 -13  -6  -4   11.32    2.01
  13   6   4    9.77    1.84
   6 -13   4    7.03    1.38
   6 -13   4   10.62    1.54
 -13  -6   4    7.83    1.55
  -6  13   4    6.02    1.55
 -13  -6   4   10.57    1.53
  13   5  -4   62.07    4.25
  -5  13  -4   67.00    4.63
   5 -13  -4   64.13    3.76
 -13  -5  -4   63.97    3.97
 -13  -5  -4   59.69    4.44
 -13  -5   4   67.88    3.90
   5 -13   4   64.92    4.07
  13   5   4   64.50    4.24
   5 -13   4   67.60    4.74
 -13  -5   4   66.11    4.07
  -5  13   4   54.26    4.19
  13   4  -4   19.25    2.17
   4 -13  -4   20.04    1.99
 -13  -4  -4   22.36    2.61
 -13  -4  -4   17.78    2.09
   4 -13   4   22.62    2.02
  -4  13   4   21.11    2.53
 -13  -4   4   20.52    1.99
  13   4   4   17.41    2.27
   4 -13   4   21.95    2.63
 -13  -4   4   20.53    2.13
   4 -13   4   20.15    2.16
  13   3  -4   23.03    2.57
   3 -13  -4   29.73    2.53
 -13  -3  -4   28.30    2.89
 -13  -3  -4   31.03    2.62
  13   3   4   32.63    2.67
   3 -13   4   29.72    2.24
 -13  -3   4   28.98    2.67
   3 -13   4   29.77    2.57
  -3  13   4   26.89    2.75
   3 -13   4   31.29    3.13
 -13  -3   4   32.48    2.41
  13   2  -4   38.64    3.20
   2 -13  -4   42.81    3.11
 -13  -2  -4   38.41    3.34
 -13  -2  -4   37.75    2.95
  -2  13   4   40.06    3.36
   2 -13   4   38.38    2.99
 -13  -2   4   39.35    2.70
  13   2   4   39.44    2.96
 -13  -2   4   44.09    3.24
   2 -13   4   37.37    3.34
   2 -13   4   43.53    2.73
  13   1  -4   65.40    4.44
 -13  -1  -4   71.30    4.60
 -13  -1  -4   68.25    4.09
   1 -13  -4   66.76    4.22
 -13  -1   4   71.91    4.31
   1 -13   4   68.41    4.14
  -1  13   4   66.15    4.52
 -13  -1   4   66.90    3.71
  13   1   4   72.07    4.09
   1 -13   4   66.26    4.62
   1 -13   4   71.06    3.67
  13   1   4   62.20    4.23
 -13   0  -4    0.63    1.14
   0 -13  -4    0.24    0.86
 -13   0  -4   -0.37    0.81
  13   0  -4    0.10    0.63
 -13   0   4    0.83    0.68
   0 -13   4    0.22    1.01
  13   0   4    2.55    0.80
 -13   0   4    0.08    1.03
   0  13   4   -0.29    1.01
   0 -13   4    0.04    0.60
   0 -13   4    1.19    0.72
  13   0   4   -0.07    0.66
 -13   1  -4   64.72    4.43
  13  -1  -4   68.74    4.47
 -13   1  -4   67.89    4.11
  13  -1   4   68.36    3.78
 -13   1   4   65.79    4.10
  -1 -13   4   63.64    4.04
  -1 -13   4   65.52    3.50
   1  13   4   67.18    4.54
  13  -1   4   69.84    4.12
  -1 -13   4   70.96    4.64
 -13   1   4   64.24    3.45
 -13   2  -4   42.87    3.14
  13  -2  -4   43.58    3.43
  -2 -13  -4   40.65    3.34
 -13   2  -4   42.19    3.43
  -2 -13   4   43.09    3.48
   2  13   4   37.36    3.34
 -13   2   4   39.76    2.61
 -13   2   4   41.25    3.20
  -2 -13   4   41.40    2.59
  -2 -13   4   35.09    2.93
  13  -2   4   41.80    2.66
  13  -2   4   43.25    3.14
 -13   3  -4   31.21    2.96
  13  -3  -4   27.58    2.80
  -3 -13  -4   26.16    2.75
 -13   3  -4   29.40    2.63
  -3 -13   4   32.42    2.96
  -3 -13   4   31.89    2.69
  13  -3   4   32.07    2.64
   3  13   4   32.08    3.15
  -3 -13   4   31.80    2.20
 -13   3   4   29.39    2.70
  13  -4  -4   19.36    2.35
 -13   4  -4   22.72    2.29
 -13   4  -4   19.74    2.46
  -4 -13  -4   18.76    2.42
 -13   4   4   24.67    2.33
  -4 -13   4   21.03    2.43
  -4 -13   4   22.36    2.30
   4  13   4   24.82    2.69
  13  -4   4   22.37    2.24
  -4 -13   4   21.84    1.84
 -13   5  -4   67.28    4.15
  13  -5  -4   65.28    4.51
 -13   5  -4   63.50    4.47
  -5 -13  -4   65.84    4.60
  13  -5   4   60.99    4.05
  -5 -13   4   71.10    3.58
  -5 -13   4   64.92    4.36
 -13   5   4   66.17    4.18
   5  13   4   62.39    4.57
  -5 -13   4   68.21    4.21
 -13   6  -4    7.54    1.49
 -13   6  -4    8.67    1.73
  -6 -13  -4    9.90    1.86
  13  -6  -4    9.72    1.82
  -6 -13   4    7.85    1.49
  -6 -13   4    8.45    1.42
  -6 -13   4    7.96    1.56
  13  -6   4    5.56    1.36
 -13   6   4    8.34    1.63
   6  13   4    6.54    1.59
 -13   7  -4   25.85    2.41
 -13   7  -4   23.27    2.64
  13  -7  -4   24.13    2.75
  -7 -13  -4   25.43    2.83
  -7 -13   4   23.25    2.38
  -7 -13   4   22.03    2.36
   7  13   4   21.62    2.70
 -13   7   4   19.80    2.32
  13  -7   4   21.79    2.39
 -13   8  -4    1.60    0.97
  13  -8  -4    1.28    0.86
 -13   8  -4    0.34    0.97
  -8 -13  -4    0.06    1.01
  -8 -13   4    1.76    0.98
   8  13   4    1.26    1.38
  13  -8   4    2.51    1.06
  -8 -13   4    2.45    1.13
 -13   8   4    2.40    1.08
  13  -9  -4   28.51    2.93
 -13   9  -4   25.43    2.49
  -9 -13  -4   29.37    3.07
  -9 -13   4   28.80    2.64
   9  13   4   22.62    2.84
 -13   9   4   22.66    2.34
 -10 -13  -4   23.43    3.06
 -13  10  -4   26.56    2.83
 -13  10  -4   25.00    2.43
  10  13   4   20.92    2.93
 -10 -13   4   24.70    2.42
 -13  10   4   25.33    2.73
  13 -10   4   22.68    2.36
 -14  -9  -4   11.04    1.82
  14   9  -4   14.20    1.75
   9 -14   4   13.17    1.73
  14   9   4    9.97    2.03
 -14  -9   4   12.08    1.62
 -14  -8  -4   63.65    4.61
  -8  14  -4   58.76    4.56
 -14  -8  -4   49.50    4.13
 -14  -8   4   66.82    4.08
 -14  -8   4   58.76    4.23
  -8  14   4   69.47    4.76
   8 -14   4   70.21    4.33
  14   8   4   65.23    4.58
  14   7  -4    6.59    1.32
 -14  -7  -4    3.64    1.41
 -14  -7  -4    3.31    1.45
  14   7   4    6.83    1.47
 -14  -7   4    3.55    1.24
   7 -14   4    3.68    1.06
 -14  -7   4    5.54    1.18
  -6  14  -4   19.61    2.58
 -14  -6  -4   17.22    2.40
 -14  -6  -4   21.77    2.04
 -14  -6  -4   14.52    1.99
  14   6  -4   20.01    2.32
  -6  14   4   21.30    2.60
 -14  -6   4   25.10    2.38
 -14  -6   4   26.67    2.33
   6 -14   4   22.97    2.05
  14   6   4   22.40    2.53
   6 -14   4   24.50    2.39
 -14  -5  -4    5.11    1.25
  14   5  -4    6.05    1.30
   5 -14  -4    3.08    1.42
  -5  14  -4    5.69    1.56
 -14  -5  -4    3.35    1.31
 -14  -5  -4    4.02    1.35
   5 -14   4    6.71    1.27
  14   5   4    5.09    1.16
  -5  14   4    2.66    1.15
 -14  -5   4    4.55    1.07
   5 -14   4    5.62    1.20
 -14  -5   4    4.90    1.49
   5 -14   4    4.27    1.53
  14   4  -4   46.36    3.67
 -14  -4  -4   47.92    3.89
 -14  -4  -4   52.81    3.59
   4 -14  -4   49.15    3.35
   4 -14   4   47.35    3.45
 -14  -4   4   46.62    3.18
  -4  14   4   47.97    3.91
   4 -14   4   52.33    3.15
   4 -14   4   49.10    4.08
  14   4   4   48.68    3.63
 -14  -4   4   50.78    3.49
  14   4   4   48.57    3.19
 -14  -3  -4    1.21    0.89
  14   3  -4    0.92    0.75
 -14  -3  -4   -0.64    0.83
   3 -14  -4    0.12    0.79
  14   3   4    2.01    0.94
 -14  -3   4   -0.55    0.63
   3 -14   4   -0.06    0.98
   3 -14   4   -0.52    0.52
 -14  -3   4   -0.07    0.99
  -3  14   4    0.64    0.84
  14   3   4    0.48    0.80
 -14  -2  -4   94.94    5.72
  14   2  -4   95.98    5.68
 -14  -2  -4  113.14    5.84
   2 -14  -4   99.04    5.36
   2 -14   4   95.03    5.91
  14   2   4   91.05    5.14
   2 -14   4   84.29    5.05
 -14  -2   4   89.44    4.73
 -14  -2   4   95.16    5.31
  -2  14   4  100.57    5.86
   2 -14   4   90.85    4.58
  14   2   4   92.47    5.03
 -14  -1  -4    4.99    1.57
 -14  -1  -4    1.65    1.16
   1 -14  -4    3.32    1.22
  14   1  -4    1.64    0.88
   1 -14   4    3.08    1.22
  14   1   4    2.91    1.06
 -14  -1   4    1.95    1.29
   1 -14   4    1.91    0.80
   1 -14   4    2.60    1.30
  14   1   4    2.25    0.92
  -1  14   4    3.00    1.23
 -14   0  -4   11.21    1.95
 -14   0  -4   12.78    1.81
  14   0  -4   12.08    1.83
   0 -14  -4   12.78    1.87
   0 -14   4    9.84    1.26
 -14   0   4   10.32    1.29
  14   0   4    8.99    1.55
   0 -14   4    5.04    1.61
   0  14   4    9.35    1.76
 -14   0   4    8.75    1.77
  14   0   4    7.86    1.35
   0 -14   4    7.80    1.37
  -1 -14  -4    4.16    1.24
  14  -1  -4    3.04    1.21
 -14   1  -4    2.51    1.22
 -14   1  -4    3.50    1.33
   1  14   4    2.78    1.22
  -1 -14   4    2.13    1.20
 -14   1   4    3.59    1.42
  14  -1   4    3.11    1.06
 -14   1   4    3.74    0.94
  14  -1   4    5.46    1.04
  -1 -14   4    1.29    1.03
  -1 -14   4    6.10    1.05
 -14   2  -4   92.25    5.17
  14  -2  -4   98.65    5.81
  -2 -14  -4   99.27    5.71
 -14   2  -4   91.19    5.58
  -2 -14   4   95.33    4.52
  14  -2   4  100.07    5.25
   2  14   4   99.08    5.97
 -14   2   4   92.48    5.31
  14  -2   4   91.97    5.18
  -2 -14   4   94.46    5.26
  -2 -14   4   91.33    5.67
 -14   3  -4    0.78    0.95
  14  -3  -4    0.92    1.05
  -3 -14  -4    1.33    1.05
 -14   3  -4   -0.26    0.93
   3  14   4    0.43    0.73
  -3 -14   4   -0.15    0.81
  14  -3   4    1.09    0.92
  -3 -14   4    0.01    0.46
 -14   3   4   -0.36    0.96
  14  -4  -4   52.71    4.10
 -14   4  -4   51.55    3.53
 -14   4  -4   52.83    3.90
  -4 -14  -4   47.27    3.76
  -4 -14   4   46.07    3.71
  -4 -14   4   46.19    3.43
  14  -4   4   51.14    3.61
   4  14   4   48.78    3.98
 -14   4   4   42.02    3.42
  -5 -14  -4    3.80    1.45
  14  -5  -4    2.68    1.33
 -14   5  -4    5.50    1.49
 -14   5  -4    4.48    1.26
 -14   5   4    4.21    1.52
  14  -5   4    6.90    1.49
  -5 -14   4    3.35    1.22
   5  14   4    5.66    1.90
  -5 -14   4    3.60    1.39
  14  -6  -4   21.14    2.58
 -14   6  -4   18.93    2.42
 -14   6  -4   20.02    2.22
  -6 -14  -4   21.64    2.61
 -14   6   4   18.77    2.23
  -6 -14   4   21.29    2.38
   6  14   4   20.67    2.64
  -6 -14   4   23.07    2.38
  14  -6   4   21.94    2.35
 -14   7  -4    2.70    1.08
 -14   7  -4    4.33    1.36
  -7 -14   4    2.15    0.98
 -14   7   4    4.28    1.38
  -7 -14   4    2.27    1.12
  14  -8  -4   56.28    4.44
 -14   8  -4   62.16    4.50
 -14   8  -4   67.67    4.24
  -8 -14  -4   53.27    4.43
   8  14   4   65.72    4.87
  14  -8   4   73.03    4.46
  -8 -14   4   68.04    4.26
 -14   9  -4   11.01    2.13
 -14   9   4    7.59    1.60
 -15  -7  -4   12.31    2.27
 -15  -7  -4   15.28    2.01
  15   7  -4   16.25    1.98
 -15  -7   4   22.39    2.06
 -15  -7   4   17.44    2.00
   7 -15   4   19.35    2.40
  15   7   4   17.68    2.13
  15   6  -4   10.56    1.58
 -15  -6  -4    8.39    1.72
 -15  -6  -4    7.68    1.62
  -6  15  -4    7.52    1.83
 -15  -6   4    9.34    1.39
  -6  15   4    5.85    1.57
   6 -15   4    7.61    1.39
  15   6   4    7.58    1.43
 -15  -6   4    8.19    1.53
 -15  -5  -4   36.08    2.64
  -5  15  -4   34.38    3.39
   5 -15   4   37.04    3.48
 -15  -5   4   36.15    2.98
  15   5   4   34.12    3.04
  -5  15   4   37.12    3.38
  15   4  -4    7.90    1.57
 -15  -4  -4    9.09    1.79
   4 -15  -4    8.65    1.63
 -15  -4  -4    6.65    1.58
 -15  -4  -4    9.60    1.39
  15   4   4   11.01    1.67
   4 -15   4    8.36    1.67
  15   3  -4   16.72    2.16
 -15  -3  -4   21.66    2.55
   3 -15  -4   17.64    2.05
 -15  -3  -4   20.06    1.98
 -15  -3  -4   16.27    2.12
  -3  15   4   16.04    2.25
   3 -15   4   16.21    2.31
 -15  -3   4   18.08    2.24
 -15  -3   4   21.12    2.01
  15   3   4   17.61    2.07
   3 -15   4   18.07    2.10
   2 -15  -4    3.89    1.23
 -15  -2  -4    3.10    1.32
  15   2  -4    8.01    1.59
   2 -15   4    9.29    1.92
   2 -15   4    7.75    1.45
 -15  -2   4    7.82    1.29
  15   2   4    9.25    1.55
  -2  15   4    6.87    1.51
 -15  -2   4    6.92    1.69
  15   2   4    6.27    1.29
 -15  -1  -4   50.45    3.62
 -15  -1  -4   55.08    4.08
   1 -15  -4   51.01    3.70
  15   1  -4   51.79    3.94
 -15  -1   4   50.71    3.72
 -15  -1   4   48.44    3.11
   1 -15   4   45.67    3.95
  15   1   4   47.02    3.44
  -1  15   4   44.52    3.87
   1 -15   4   49.64    3.57
  15   1   4   48.10    3.39
   0 -15  -4    0.53    0.87
 -15   0  -4    0.62    1.01
 -15   0  -4   -0.43    0.81
  15   0  -4    1.59    1.08
  15   0   4    0.18    0.71
   0 -15   4   -0.14    0.82
 -15   0   4   -1.18    0.79
 -15   0   4    0.82    0.75
   0 -15   4    0.56    0.96
   0  15   4    2.13    1.40
  15   0   4    1.73    0.89
  15  -1  -4   50.61    3.92
 -15   1  -4   49.81    3.62
 -15   1  -4   52.32    3.97
  -1 -15  -4   53.91    3.92
  -1 -15   4   47.42    3.50
  -1 -15   4   49.92    4.06
 -15   1   4   44.15    3.55
 -15   1   4   46.83    3.29
  15  -1   4   48.28    3.48
   1  15   4   48.82    3.98
  15  -1   4   50.19    3.47
 -15   2  -4    2.37    1.19
  -2 -15  -4    4.49    1.33
  -2 -15   4    5.84    1.59
   2  15   4    6.28    1.55
 -15   2   4    7.88    1.55
  15  -2   4    6.86    1.39
  -2 -15   4    5.81    1.39
  -3 -15  -4   18.41    2.36
  15  -3  -4   17.65    2.30
 -15   3  -4   16.72    2.14
 -15   3  -4   17.49    2.31
 -15   3   4   17.59    2.26
  -3 -15   4   17.44    2.06
  -3 -15   4   16.08    2.27
  15  -3   4   16.32    2.06
   3  15   4   15.90    2.25
  -4 -15  -4    7.74    1.81
 -15   4  -4    6.60    1.60
  -4 -15   4    7.70    1.75
 -15   4   4    9.39    1.84
 -15   5  -4   35.99    3.07
 -15   5  -4   37.00    3.28
  15  -5  -4   35.94    3.38
  15  -5   4   38.68    3.22
  -5 -15   4   36.79    3.07
   5  15   4   39.24    3.81
  15  -6  -4    8.06    1.62
 -15   6  -4    8.53    1.55
 -15   6  -4    7.04    1.66
  -6 -15  -4    6.36    1.51
  15  -6   4    6.75    1.50
  -6 -15   4    8.28    1.50
 -15   6   4    3.63    1.31
   6  15   4    6.95    1.76
 -15   7  -4   15.11    2.26
 -15   7   4   14.58    2.04
  -7 -15   4   19.04    2.19
  16   5   4    8.31    1.68
 -16  -4  -4   19.88    2.01
 -16  -4  -4   22.54    2.66
 -16  -4  -4   19.72    2.36
  16   4  -4   19.33    2.32
   4 -16   4   21.95    3.08
  -4  16   4   21.10    2.88
  16   4   4   21.52    2.34
 -16  -4   4   19.41    2.63
 -16  -4   4   22.78    2.05
   4 -16   4   24.95    2.70
 -16  -3  -4   19.82    2.36
 -16  -3  -4   21.55    2.14
  16   3  -4   19.75    2.41
 -16  -3  -4   21.98    2.63
 -16  -3   4   19.24    2.40
   3 -16   4   17.96    2.16
  -3  16   4   22.66    2.59
   3 -16   4   21.92    2.82
 -16  -2  -4   10.74    1.51
 -16  -2  -4    6.96    1.93
  16   2  -4    9.99    1.74
 -16  -2  -4    9.74    1.72
  16   2   4   11.50    1.60
  -2  16   4    9.53    1.92
 -16  -2   4    5.80    1.66
   2 -16   4   10.17    2.02
   2 -16   4   10.20    1.64
  16   1  -4   15.83    2.20
 -16  -1  -4   13.96    2.04
  16   1   4   16.40    1.93
  -1  16   4   16.10    2.36
 -16  -1   4   18.36    2.36
 -16  -1   4   20.70    1.82
  16   1   4   22.03    2.25
   1 -16   4   18.85    2.13
   1 -16   4   16.88    2.48
  16   0  -4   63.23    4.63
 -16   0  -4   77.43    4.61
  16   0   4   62.81    4.16
 -16   0   4   62.08    4.33
   0  16   4   66.43    4.90
   0 -16   4   66.89    4.90
   0 -16   4   71.19    4.39
 -16   1  -4   16.83    2.18
  16  -1  -4   14.43    2.08
   1  16   4   18.46    2.57
 -16   1   4   17.48    2.14
  -1 -16   4   18.33    2.11
  16  -1   4   18.40    2.09
  -1 -16   4   17.00    2.40
  16  -2  -4   11.71    1.99
 -16   2  -4    8.91    2.03
 -16   2  -4   12.00    1.81
  -2 -16  -4    9.34    1.70
  -2 -16   4    6.22    1.70
  16  -2   4    8.73    1.56
  -2 -16   4    6.90    1.49
 -16   2   4    8.57    1.81
   2  16   4    8.31    2.03
  -3 -16  -4   21.35    2.59
  16  -3  -4   21.01    2.66
 -16   3  -4   19.06    2.28
 -16   3  -4   17.28    2.32
 -16   3   4   20.91    2.48
  -3 -16   4   17.66    2.40
  -3 -16   4   21.11    2.30
  16  -3   4   22.45    2.36
   3  16   4   19.96    2.83
 -16   4  -4   21.96    2.59
  -4 -16  -4   21.53    2.57
 -16   4  -4   18.49    2.48
  16  -4  -4   21.30    2.86
   4  16   4   19.46    3.08
  -4 -16   4   21.59    2.56
 -16   4   4   22.84    2.81
 -16   5  -4    7.48    1.81
   0   0  -5  255.13    9.70
   0   0   5  247.62    9.08
   0   0   5  252.49    9.14
   0   0   5  253.30    9.59
  -1   0  -5    0.40    0.63
   1   0  -5   -0.13    0.53
   0  -1  -5   -0.14    0.52
   0   1  -5    0.00    0.53
   1   0   5    0.25    0.35
  -1   0   5    0.12    0.38
  -1   0   5    0.35    0.57
   1   0   5    0.42    0.44
   0   1   5   -0.15    0.32
   0   1   5    0.30    0.56
   0  -1   5    0.21    0.44
   0  -1   5   -0.04    0.29
   1   0   5   -0.18    0.48
   0   1   5   -0.06    0.36
   0  -1   5    0.87    0.66
  -1  -1  -5   73.30    3.75
   1  -1  -5   68.95    3.51
   1   1  -5   71.32    3.56
  -1   1  -5   68.38    3.70
   1  -1   5   74.18    3.31
   1   1   5   76.23    3.56
  -1  -1   5   72.56    3.21
  -1  -1   5   74.11    3.13
   1   1   5   73.06    3.13
  -1   1   5   71.97    2.99
   1  -1   5   75.70    2.98
   1  -1   5   70.82    3.58
  -1   1   5   74.79    3.40
  -1   1   5   80.68    3.62
   1   1   5   72.73    3.31
  -1  -1   5   76.55    3.66
   2   1  -5   50.68    2.69
  -1   2  -5   45.78    2.89
   1  -2  -5   50.12    2.74
  -2  -1  -5   49.56    3.01
  -2  -1   5   52.20    2.60
   2   1   5   51.36    2.45
  -1   2   5   47.78    2.66
   1  -2   5   50.30    2.85
   2   1   5   53.92    2.80
   1  -2   5   50.63    2.60
   1  -2   5   49.59    1.85
  -1   2   5   52.44    2.12
  -1   2   5   55.99    2.81
  -2  -1   5   49.93    2.42
  -2  -1   5   54.22    2.88
   2   0  -5   38.36    2.16
   0   2  -5   42.86    2.49
  -2   0  -5   38.04    2.53
   0  -2  -5   38.58    2.37
   0  -2   5   35.42    1.57
   0  -2   5   33.44    2.22
   2   0   5   35.61    1.85
   2   0   5   37.23    2.23
   0   2   5   35.00    1.68
   2   0   5   35.25    1.99
  -2   0   5   35.10    2.26
  -2   0   5   34.37    2.01
   0  -2   5   33.86    2.00
   0   2   5   36.54    2.16
   0   2   5   33.68    2.12
   1   2  -5   49.61    2.81
  -2   1  -5   53.06    3.11
  -1  -2  -5   49.32    2.96
   2  -1  -5   52.74    2.67
   1   2   5   51.28    2.70
  -1  -2   5   52.25    2.25
  -2   1   5   52.96    2.72
   1   2   5   52.92    2.75
  -1  -2   5   54.46    2.60
   2  -1   5   49.99    2.79
  -2   1   5   51.59    2.81
   2  -1   5   54.57    2.64
  -1  -2   5   49.33    2.82
  -2   1   5   52.05    2.24
   2  -1   5   49.92    2.17
  -2   2  -5  184.14    7.16
  -2  -2  -5  169.39    6.23
   2  -2  -5  178.14    6.54
  -2  -2  -5  177.49    7.11
   2   2  -5  168.48    6.60
  -2  -2   5  162.48    6.32
  -2   2   5  154.84    6.53
  -2  -2   5  163.09    6.75
   2   2   5  160.02    6.48
   2   2   5  149.99    6.45
  -2   2   5  162.56    6.63
   2  -2   5  149.27    6.40
  -2   2   5  157.69    5.74
   2  -2   5  154.32    6.67
  -2  -2   5  161.09    6.10
  -3  -2  -5  108.95    4.25
  -2   3  -5  104.32    5.03
  -3  -2  -5  104.46    5.06
   3   2  -5  103.04    4.44
   2  -3  -5  108.59    4.55
   3   2   5  107.57    4.61
   2  -3   5  106.98    4.60
  -2   3   5   97.21    4.48
  -3  -2   5  101.59    4.33
   3   2   5  103.74    4.54
  -2   3   5   98.54    4.69
   3   1  -5  177.70    6.81
   1  -3  -5  186.57    7.12
  -3  -1  -5  178.56    7.50
   3   1  -5  179.92    7.02
  -1   3  -5  180.56    7.36
  -3  -1   5  174.19    7.14
   1  -3   5  172.83    6.89
  -3  -1   5  171.92    6.58
   3   1   5  168.19    6.65
  -1   3   5  169.91    7.06
   3   1   5  183.15    7.07
   3   1   5  177.95    6.96
  -1   3   5  166.54    6.83
   1  -3   5  162.43    7.39
   3   0  -5   -0.14    0.41
   0  -3  -5    0.00    0.55
   0   3  -5    0.10    0.59
  -3   0  -5   -0.43    0.68
   0  -3  -5    0.34    0.21
   3   0  -5    0.09    0.43
   0  -3   5    0.22    0.46
   0   3   5   -0.11    0.49
   3   0   5    0.44    0.47
   3   0   5   -0.38    0.34
  -3   0   5   -0.25    0.57
   0  -3   5   -0.42    0.28
   3   0   5   -0.12    0.54
   0   3   5    0.08    0.48
   1   3  -5  182.42    7.16
  -3   1  -5  190.82    7.57
  -1  -3  -5  181.61    6.25
  -1  -3  -5  187.95    7.36
   3  -1  -5  178.88    7.00
   3  -1  -5  178.67    6.65
  -3   1   5  164.92    6.97
  -3   1   5  171.62    6.95
  -1  -3   5  168.49    6.78
   1   3   5  178.92    7.05
   3  -1   5  179.14    6.85
   3  -1   5  169.94    7.07
  -1  -3   5  166.07    7.41
   1   3   5  167.59    6.80
  -1  -3   5  166.45    6.07
  -3   1   5  166.22    6.25
   3  -1   5  165.51    6.19
   3  -2  -5  105.67    4.28
  -2  -3  -5  110.48    5.03
   2   3  -5  109.51    4.64
  -3   2  -5  100.97    4.99
  -2  -3  -5  103.78    3.98
  -2  -3   5  104.28    4.41
   3  -2   5   93.65    4.90
   3  -2   5  104.47    4.51
  -3   2   5  100.62    4.64
   2   3   5   99.52    4.56
  -3   2   5   99.65    4.53
   2   3   5   99.86    4.43
  -2  -3   5  100.48    3.93
  -3   2   5   97.99    3.68
   3   3  -5   65.25    2.92
  -3  -3  -5   65.23    3.70
  -3   3  -5   71.36    3.86
  -3  -3  -5   64.89    2.86
   3   3  -5   64.50    3.21
  -3  -3   5   61.74    3.44
   3   3   5   67.11    3.36
   3   3   5   68.44    3.24
  -3   3   5   62.68    3.45
  -3   3   5   64.86    3.28
  -3  -3   5   66.68    3.16
   3  -3   5   69.05    3.34
   3  -3   5   62.68    3.41
   3  -4  -5   10.12    1.03
  -3   4  -5    8.65    1.57
  -4  -3  -5    7.65    1.56
   4   3  -5    9.74    1.01
  -4  -3  -5    8.73    0.95
   4   3  -5    9.96    1.02
  -4  -3   5   10.69    1.11
   3  -4   5    9.15    1.28
   4   3   5    9.93    1.11
  -3   4   5    9.34    1.22
  -3   4   5    9.51    1.11
  -4  -3   5    8.55    1.27
   4   3   5   10.54    1.27
   3  -4   5    9.55    1.19
   4   2  -5   85.86    3.68
   4   2  -5   80.60    3.64
  -2   4  -5   79.33    4.22
  -4  -2  -5   69.28    4.36
  -4  -2  -5   76.51    3.47
   2  -4  -5   74.21    3.66
  -2   4   5   78.87    3.67
   2  -4   5   75.82    3.75
  -4  -2   5   83.98    4.03
  -4  -2   5   81.06    3.54
   4   2   5   78.34    3.75
   2  -4   5   81.25    4.01
   4   2   5   81.30    3.77
  -2   4   5   83.43    4.07
  -4  -1  -5   19.47    2.00
   1  -4  -5   18.53    1.73
  -4  -1  -5   21.72    1.55
   4   1  -5   20.00    1.61
   4   1  -5   20.20    1.41
  -4  -1   5   27.78    2.25
  -1   4   5   30.27    2.05
  -4  -1   5   28.01    1.58
   1  -4   5   28.81    1.99
  -1   4   5   30.47    1.81
   1  -4   5   28.16    1.87
   4   1   5   30.02    1.76
   4   1   5   26.42    1.88
   0  -4  -5   93.82    4.51
  -4   0  -5   91.51    4.75
   0   4  -5   90.00    4.52
   4   0  -5   94.51    4.31
   4   0  -5   85.32    3.76
   4   0   5   98.79    4.21
   0  -4   5   90.17    4.71
   0   4   5  100.52    4.18
   4   0   5   95.28    4.40
   0  -4   5   95.79    4.27
   0   4   5   93.79    4.45
  -4   0   5  100.71    3.84
   4   0   5   97.76    3.90
  -4   1  -5   20.46    2.20
   1   4  -5   18.85    1.78
   4  -1  -5   19.79    1.70
  -1  -4  -5   19.49    1.89
  -4   1   5   30.47    2.05
   1   4   5   27.01    1.75
   1   4   5   28.09    1.98
  -1  -4   5   30.99    1.90
  -1  -4   5   29.91    2.10
  -4   1   5   28.98    1.39
   4  -1   5   30.29    1.90
   4  -1   5   28.13    1.32
   2   4  -5   76.48    3.85
  -2  -4  -5   77.87    4.19
   4  -2  -5   73.59    3.24
  -2  -4  -5   79.59    3.15
   4  -2  -5   73.95    3.89
  -2  -4   5   79.55    3.03
   2   4   5   80.87    3.65
  -4   2   5   78.96    3.84
   2   4   5   84.20    4.04
   4  -2   5   93.57    3.97
   4  -2   5   82.92    4.03
  -2  -4   5   82.44    4.04
  -4   2   5   78.57    2.95
  -2  -4   5   85.32    3.78
   4  -3  -5    9.24    1.28
  -3  -4  -5    9.29    1.43
   3   4  -5   10.26    1.19
  -4   3  -5   10.37    1.51
   3   4  -5    8.70    0.80
   4  -3  -5    9.27    0.82
  -4   3   5    9.49    1.16
  -4   3   5    9.02    1.18
   4  -3   5    9.72    1.19
  -3  -4   5    9.28    1.02
  -3  -4   5    8.76    1.17
   3   4   5    9.48    1.08
   4  -3   5    7.74    1.20
   3   4   5   10.37    1.23
  -4  -4  -5  106.75    5.26
  -4  -4  -5  107.54    4.18
  -4   4  -5  107.92    5.23
   4   4  -5  111.86    4.42
   4  -4  -5  109.30    4.12
   4   4  -5  110.17    4.51
   4  -4   5   93.47    4.71
   4  -4   5   98.93    4.68
  -4  -4   5   95.31    4.77
  -4   4   5   89.41    5.04
   4   4   5   90.42    4.31
  -4   4   5   96.86    4.48
   4   4   5   93.95    4.72
  -4  -4   5   97.67    4.46
  -5  -4  -5   57.94    2.78
  -5  -4  -5   55.96    3.57
   5   4  -5   56.66    2.86
   5   4  -5   56.18    2.77
  -4   5  -5   56.72    3.61
  -4   5   5   54.99    3.41
  -4   5   5   54.45    2.92
   5   4   5   55.13    3.26
   4  -5   5   54.22    3.24
   5   4   5   54.68    2.88
  -5  -4   5   59.84    3.03
  -5  -4   5   54.95    3.28
   4  -5   5   58.45    3.24
  -3   5  -5  160.19    7.14
   3  -5  -5  146.31    6.18
  -5  -3  -5  150.54    6.14
   5   3  -5  150.01    5.99
  -5  -3  -5  147.09    7.09
   5   3  -5  146.72    6.29
   5   3   5  166.74    6.70
  -3   5   5  159.74    7.37
   3  -5   5  161.87    6.79
  -5  -3   5  157.59    6.75
   5   3   5  173.89    6.51
   3  -5   5  167.94    6.70
  -3   5   5  156.68    6.31
  -5  -3   5  159.22    6.31
  -5  -2  -5   21.01    2.03
  -5  -2  -5   20.45    1.55
   2  -5  -5   20.72    1.68
  -2   5  -5   21.26    2.03
   5   2  -5   20.94    1.65
   5   2  -5   21.23    1.32
  -2   5   5   24.05    2.04
   2  -5   5   20.85    1.92
   2  -5   5   21.41    1.86
   5   2   5   24.47    1.78
  -2   5   5   25.69    1.66
  -5  -2   5   24.14    1.57
   5   2   5   25.77    1.87
  -5  -2   5   22.82    2.03
   5   1  -5   49.30    2.14
   1  -5  -5   49.85    2.86
  -5  -1  -5   50.98    2.61
  -1   5  -5   49.35    3.10
   5   1  -5   53.43    2.84
  -5  -1  -5   50.66    3.29
   1  -5   5   51.87    3.06
  -1   5   5   47.78    2.53
  -5  -1   5   46.86    2.86
   5   1   5   49.10    2.59
   5   1   5   46.67    2.73
  -5  -1   5   47.77    2.41
   1  -5   5   51.02    2.93
  -1   5   5   48.33    2.97
  -5   0  -5    0.44    0.81
   0   5  -5    0.14    0.65
   0  -5  -5    0.55    0.65
   5   0  -5    0.40    0.52
   5   0  -5    0.11    0.22
   5   0   5   -0.50    0.43
   0   5   5    0.78    0.74
   5   0   5    0.04    0.37
  -5   0   5   -0.02    0.35
   0  -5   5   -0.06    0.56
  -5   0   5    0.59    0.72
   0   5   5    0.54    0.50
   0  -5   5   -0.14    0.42
   1   5  -5   46.59    2.91
   5  -1  -5   55.84    3.02
  -5   1  -5   49.57    3.29
  -1  -5  -5   47.58    3.04
   1   5   5   48.86    3.02
  -1  -5   5   50.47    2.94
   1   5   5   49.27    2.52
  -5   1   5   52.52    2.95
   5  -1   5   53.59    2.95
  -1  -5   5   50.13    2.81
   5  -1   5   49.89    2.16
  -5   1   5   49.21    2.19
   5  -1   5   51.23    2.79
  -5   2  -5   21.51    2.13
   2   5  -5   21.33    1.79
   5  -2  -5   22.96    1.86
  -2  -5  -5   21.03    1.11
  -2  -5  -5   21.71    2.02
   5  -2   5   25.03    1.86
  -5   2   5   23.73    2.04
   5  -2   5   22.62    1.89
  -2  -5   5   23.39    1.77
   2   5   5   23.57    1.98
  -2  -5   5   21.21    1.79
  -5   2   5   21.24    1.28
   2   5   5   23.37    1.54
   3   5  -5  147.68    6.52
  -5   3  -5  153.82    7.18
  -3  -5  -5  161.58    7.18
  -3  -5  -5  150.01    5.82
   3   5  -5  144.22    5.75
   5  -3  -5  154.52    6.88
   5  -3   5  166.14    6.86
   3   5   5  164.28    6.28
  -3  -5   5  160.17    6.82
   3   5   5  166.25    6.97
  -3  -5   5  176.38    6.99
   5  -3   5  170.29    6.74
   5  -4  -5   54.47    3.32
  -5   4  -5   54.94    3.55
   4   5  -5   58.98    3.00
   4   5  -5   55.41    2.76
  -4  -5  -5   57.63    2.59
   5  -4  -5   58.35    2.65
  -4  -5  -5   56.48    3.61
   5  -4   5   51.54    3.10
   5  -4   5   55.28    3.28
  -4  -5   5   56.20    3.24
   4   5   5   53.43    2.74
   4   5   5   56.34    3.36
   5  -5  -5   28.08    1.84
  -5  -5  -5   31.54    1.81
   5   5  -5   29.96    1.84
  -5   5  -5   30.10    2.51
   5   5  -5   27.41    1.83
  -5  -5  -5   29.67    2.59
  -5   5   5   26.78    2.35
   5   5   5   26.96    1.82
  -5  -5   5   28.39    2.04
   5  -5   5   25.14    2.16
  -5  -5   5   27.78    2.24
   5  -5   5   26.06    2.13
  -6  -5  -5   32.15    1.99
   6   5  -5   32.34    2.06
   6   5  -5   33.72    1.92
   5  -6  -5   32.00    1.79
  -5   6  -5   30.54    2.62
  -6  -5  -5   30.08    2.74
   5  -6   5   28.87    2.31
   5  -6   5   29.20    2.35
  -6  -5   5   29.84    2.16
  -6  -5   5   30.73    2.38
  -5   6   5   32.22    2.25
   6   5   5   30.68    2.00
   6   5   5   33.40    2.58
  -5   6   5   28.92    2.44
  -6  -4  -5   60.11    3.78
   4  -6  -5   62.54    2.82
  -4   6  -5   58.05    3.74
  -6  -4  -5   62.02    2.98
   6   4  -5   62.29    3.11
  -6  -4   5   53.79    3.34
  -4   6   5   55.10    3.56
   4  -6   5   53.46    3.30
   6   4   5   55.68    2.98
  -4   6   5   57.98    2.95
   6   4   5   53.39    3.33
  -6  -4   5   55.01    3.28
   4  -6   5   54.60    3.28
   3  -6  -5    6.58    0.93
  -3   6  -5    6.21    1.33
   6   3  -5    7.89    0.73
  -6  -3  -5    7.32    1.49
  -6  -3  -5    7.93    1.04
   6   3  -5    7.27    1.03
  -3   6   5    5.84    1.13
  -3   6   5    7.82    1.01
   6   3   5    5.77    0.96
  -6  -3   5    6.14    1.08
   3  -6   5    5.50    1.15
   6   3   5    5.24    1.11
  -6  -3   5    9.04    1.05
   3  -6   5    8.42    1.25
  -6  -2  -5   34.39    2.79
   2  -6  -5   35.03    2.27
  -6  -2  -5   31.86    2.07
   6   2  -5   32.35    2.21
  -2   6  -5   35.30    2.62
  -2   6   5   34.94    2.03
  -6  -2   5   32.57    2.37
  -2   6   5   37.25    2.62
   6   2   5   38.37    2.35
   2  -6   5   34.87    2.37
   2  -6   5   35.70    2.48
  -6  -2   5   37.03    2.08
  -6  -1  -5   13.40    1.29
   6   1  -5   13.47    1.36
   1  -6  -5   14.36    1.49
  -1   6  -5   15.26    1.62
  -6  -1  -5   14.68    1.83
   1  -6   5   12.26    1.41
  -6  -1   5   10.24    1.05
   6   1   5   13.81    1.27
  -6  -1   5   12.54    1.41
  -1   6   5   12.43    1.48
  -1   6   5   13.70    1.15
   1  -6   5   12.94    1.48
   6   1   5   11.45    1.35
  -6   0  -5  218.48    9.14
   6   0  -5  226.68    8.62
  -6   0  -5  225.64    8.32
   0  -6  -5  214.85    8.64
   0   6   5  208.52    7.90
  -6   0   5  204.11    8.52
   0   6   5  202.27    9.14
   0  -6   5  207.99    8.40
   0  -6   5  202.78    8.50
  -6   0   5  205.93    7.73
   6   0   5  208.98    8.43
  -6   1  -5   15.97    1.89
   6  -1  -5   14.11    1.47
   1   6  -5   13.14    1.53
  -1  -6  -5   13.67    1.61
   6  -1   5   13.93    0.93
  -1  -6   5   13.35    1.51
  -6   1   5   12.13    0.96
   6  -1   5   13.00    1.47
  -6   1   5   13.14    1.50
  -1  -6   5   12.49    1.41
  -6   2  -5   35.89    2.82
  -2  -6  -5   32.95    2.53
   2   6  -5   32.11    2.37
   2   6   5   34.92    1.97
   2   6   5   36.80    2.89
   6  -2   5   36.97    2.50
  -2  -6   5   38.35    2.54
  -2  -6   5   34.15    2.26
   6  -2   5   33.34    2.31
  -6   2   5   39.65    2.50
  -6   2   5   35.21    1.54
  -3  -6  -5    7.88    1.47
   3   6  -5    8.67    1.19
  -6   3  -5    6.48    1.24
  -3  -6  -5    7.00    0.67
   6  -3  -5    6.65    1.14
   3   6  -5    7.48    0.79
   3   6   5    6.20    1.14
   3   6   5    7.29    0.85
  -6   3   5    7.54    1.16
  -3  -6   5    7.46    1.13
   6  -3   5    8.18    1.12
   6  -3   5    6.22    1.17
  -3  -6   5    5.76    1.03
   4   6  -5   58.59    2.61
  -4  -6  -5   58.84    3.72
   6  -4  -5   58.97    3.56
   4   6  -5   58.91    3.20
  -4  -6  -5   59.66    2.60
  -6   4  -5   64.58    3.94
  -4  -6   5   55.93    3.34
   6  -4   5   52.13    3.19
   4   6   5   58.60    3.51
   4   6   5   55.76    2.75
  -6   4   5   56.53    3.15
  -4  -6   5   54.69    3.13
   6  -4   5   54.50    3.34
   5   6  -5   30.55    2.07
  -5  -6  -5   32.76    1.84
   6  -5  -5   30.96    2.49
  -6   5  -5   31.47    2.73
   5   6  -5   30.52    1.84
  -5  -6  -5   30.30    2.72
  -5  -6   5   29.23    2.34
   6  -5   5   28.74    2.27
   5   6   5   32.74    1.91
   6  -5   5   32.20    2.40
   5   6   5   27.82    2.48
  -5  -6   5   28.83    2.17
  -6   5   5   29.51    2.15
  -6   6  -5  143.16    7.16
   6   6  -5  142.79    6.05
  -6  -6  -5  147.11    5.97
   6   6  -5  144.18    6.10
  -6  -6  -5  153.06    7.34
  -6   6   5  148.82    6.24
  -6  -6   5  154.56    6.75
   6  -6   5  152.99    6.72
  -6  -6   5  141.96    6.40
   6   6   5  158.01    7.05
   6   6   5  147.18    5.96
   6  -6   5  152.27    6.75
  -6   6   5  150.78    7.04
   7   6  -5    6.41    0.92
   7   6  -5    5.75    0.98
  -6   7  -5    5.93    1.31
  -7  -6  -5    8.49    1.69
  -7  -6  -5    7.74    1.23
  -7  -6   5    8.00    1.38
   6  -7   5    7.04    1.30
   7   6   5    8.25    1.00
   6  -7   5    7.07    1.35
   7   6   5    7.79    1.56
  -6   7   5    6.10    1.24
  -6   7   5    7.29    1.15
  -7  -6   5    7.44    1.18
  -5   7  -5   58.23    3.89
  -7  -5  -5   59.10    4.00
   7   5  -5   61.17    3.24
  -7  -5  -5   57.84    3.26
   7   5   5   57.69    3.25
   5  -7   5   56.12    3.42
  -5   7   5   53.25    3.61
  -7  -5   5   55.18    3.38
  -7  -5   5   57.40    3.23
   5  -7   5   56.58    3.44
   7   5   5   53.42    3.46
  -5   7   5   55.38    2.92
  -7  -4  -5   45.90    3.43
   7   4  -5   47.18    2.81
   4  -7  -5   47.95    2.51
  -4   7  -5   44.27    3.24
  -7  -4  -5   49.03    2.88
   7   4   5   45.79    3.30
   7   4   5   48.21    2.95
  -7  -4   5   45.80    2.72
  -4   7   5   50.20    3.31
   4  -7   5   47.67    3.04
  -7  -4   5   45.34    3.02
  -4   7   5   45.46    2.52
   4  -7   5   49.16    3.06
  -3   7  -5   41.56    3.15
   3  -7  -5   46.80    2.61
   7   3  -5   46.39    2.80
  -7  -3  -5   39.45    3.20
  -3   7   5   43.80    3.13
   7   3   5   45.37    2.73
  -3   7   5   43.20    2.37
   3  -7   5   45.65    2.93
   3  -7   5   46.97    2.88
  -7  -3   5   45.27    2.79
   7   3   5   47.04    2.90
  -7  -3   5   48.36    3.03
  -7  -2  -5  131.01    6.26
  -2   7  -5  128.91    6.09
   2  -7  -5  125.45    5.45
   7   2  -5  123.91    5.57
   2  -7   5  118.06    5.58
  -7  -2   5  120.45    5.68
   7   2   5  119.78    5.36
  -2   7   5  112.66    5.80
  -7  -2   5  117.94    5.08
   2  -7   5  117.98    5.51
   7   2   5  124.53    5.45
  -2   7   5  121.33    4.95
  -7  -1  -5   93.84    4.28
  -1   7  -5   86.38    4.70
  -7  -1  -5   99.96    5.12
   7   1  -5   91.80    4.51
   1  -7  -5   96.78    4.56
  -1   7   5   89.61    3.81
  -7  -1   5   84.96    3.87
   1  -7   5   83.95    4.41
   7   1   5   87.00    4.08
   7   1   5   94.99    4.44
   1  -7   5   85.97    4.39
  -1   7   5   87.32    4.71
  -7  -1   5   89.76    4.55
   0  -7  -5    0.54    0.70
  -7   0  -5   -0.03    0.55
   0   7  -5    0.34    0.57
  -7   0  -5   -0.54    0.75
   0   7   5    0.45    0.38
  -7   0   5    0.11    0.40
   7   0   5    0.31    0.67
   0  -7   5    0.35    0.74
   0  -7   5    0.28    0.68
   0   7   5    0.66    0.69
   7   0   5    0.28    0.38
  -7   0   5    0.75    0.80
  -7   1  -5   92.78    5.06
  -1  -7  -5   91.57    4.73
   7  -1  -5   95.27    4.67
  -7   1  -5   94.15    4.39
   1   7  -5   93.96    4.73
  -1  -7   5   88.68    4.47
   7  -1   5   97.98    4.60
  -7   1   5   89.57    4.48
   1   7   5   90.31    4.80
  -1  -7   5   84.51    4.36
  -7   1   5   90.03    3.65
   7  -1   5   87.17    3.68
   1   7   5   85.82    3.73
  -7   2  -5  121.31    6.10
  -2  -7  -5  124.16    5.93
   7  -2  -5  125.67    5.80
   2   7  -5  122.84    6.09
  -2  -7   5  120.63    5.56
   2   7   5  116.24    5.77
  -7   2   5  111.81    4.40
  -2  -7   5  117.22    5.41
   2   7   5  119.81    4.75
  -7   2   5  125.77    5.57
   7  -2   5  122.81    5.62
   7  -2   5  116.15    5.44
  -7   3  -5   45.50    3.31
   3   7  -5   40.93    2.98
   7  -3  -5   44.98    3.03
  -3  -7  -5   43.99    3.18
  -7   3   5   47.97    2.88
   7  -3   5   48.78    3.02
   7  -3   5   44.55    2.85
   3   7   5   43.20    2.19
  -3  -7   5   43.72    2.78
  -3  -7   5   42.50    2.83
   3   7   5   44.17    3.13
  -7   4  -5   47.27    3.37
   7  -4  -5   49.06    3.24
  -4  -7  -5   45.37    3.34
   4   7  -5   44.52    2.84
   7  -4   5   46.49    2.99
   4   7   5   49.31    3.25
  -4  -7   5   41.56    2.87
   7  -4   5   47.02    3.07
  -4  -7   5   48.63    2.96
  -7   4   5   44.79    2.82
   4   7   5   47.72    2.31
   5   7  -5   62.04    3.28
   7  -5  -5   54.33    3.61
  -7   5  -5   55.43    3.79
  -5  -7  -5   60.21    2.71
   5   7  -5   56.88    2.73
  -5  -7  -5   54.97    3.82
   7  -5   5   53.02    3.37
  -7   5   5   57.57    3.24
   5   7   5   55.90    2.68
   7  -5   5   56.55    3.45
   5   7   5   54.25    3.59
  -5  -7   5   56.49    3.41
  -5  -7   5   57.31    3.34
   6   7  -5    6.45    0.89
   7  -6  -5    6.67    1.28
  -6  -7  -5    5.32    0.91
  -6  -7  -5    5.39    1.50
   6   7  -5    7.15    1.09
  -7   6  -5    6.52    1.35
   6   7   5    9.44    0.90
   6   7   5    7.30    1.55
   7  -6   5    6.96    1.20
  -7   6   5    8.31    1.21
  -6  -7   5    7.59    1.27
  -6  -7   5    7.70    1.38
   7  -6   5    7.25    1.36
  -7  -7  -5   59.07    4.23
   7   7  -5   51.83    3.07
  -7   7  -5   55.20    4.09
   7   7  -5   56.17    3.24
  -7   7   5   71.21    3.48
   7   7   5   65.53    3.03
  -7  -7   5   68.46    3.73
   7  -7   5   67.98    3.87
   7   7   5   68.79    4.17
  -7  -7   5   66.12    3.82
   7  -7   5   63.28    3.82
  -7   7   5   68.56    4.20
   8   7  -5    1.87    0.75
  -8  -7  -5    0.29    0.79
  -7   8   5    1.76    0.93
  -8  -7   5    2.50    1.06
  -8  -7   5    2.81    1.08
   8   7   5    3.65    0.73
   7  -8   5    1.94    0.88
   8   7   5    2.62    1.11
  -7   8   5    1.82    0.77
  -8  -6  -5   37.12    2.45
  -8  -6  -5   36.27    3.22
   8   6  -5   35.25    2.52
  -6   8  -5   33.58    3.06
  -8  -6   5   38.80    2.84
  -6   8   5   39.61    3.10
   8   6   5   37.82    2.94
   6  -8   5   39.47    2.85
   8   6   5   39.39    2.31
   6  -8   5   36.34    2.79
  -8  -6   5   38.27    2.65
  -8  -5  -5    2.33    1.29
   8   5  -5    4.29    0.95
  -8  -5  -5    3.81    0.95
  -5   8  -5    4.36    1.16
  -8  -5   5    4.38    0.97
   8   5   5    4.29    0.95
  -5   8   5    4.30    0.80
   5  -8   5    3.25    1.06
   5  -8   5    4.27    1.01
   8   5   5    3.80    1.34
  -8  -5   5    3.70    1.21
  -5   8   5    4.37    1.16
  -4   8  -5   51.27    3.67
   8   4  -5   52.05    3.18
  -8  -4  -5   53.07    3.01
  -8  -4  -5   49.09    3.72
   4  -8  -5   52.99    2.83
   8   4   5   57.31    3.48
   8   4   5   57.61    3.09
  -4   8   5   52.51    2.70
  -8  -4   5   55.79    3.44
  -8  -4   5   54.88    3.09
  -4   8   5   54.88    3.64
   4  -8   5   55.24    3.36
   4  -8   5   54.32    3.31
  -8  -3  -5   21.53    2.35
   3  -8  -5   19.43    1.65
   8   3  -5   20.36    1.89
  -8  -3  -5   20.12    1.73
  -3   8  -5   17.97    2.00
   8   3   5   21.23    1.80
  -3   8   5   19.38    1.40
   3  -8   5   20.65    1.94
   3  -8   5   18.05    1.84
  -8  -3   5   22.12    1.72
  -3   8   5   21.59    2.14
  -8  -3   5   17.69    1.83
  -8  -2  -5  118.78    5.35
  -2   8  -5  123.56    6.12
   8   2  -5  123.91    5.68
   2  -8  -5  119.86    5.47
  -8  -2  -5  116.31    6.14
  -2   8   5  123.44    6.07
   8   2   5  119.84    5.47
   2  -8   5  122.77    5.67
   2  -8   5  117.62    5.56
  -8  -2   5  118.02    5.13
   8   2   5  124.48    5.47
  -2   8   5  118.10    4.79
  -8  -2   5  121.14    5.75
  -8  -1  -5    5.37    1.26
  -1   8  -5    5.63    1.33
  -8  -1  -5    5.10    1.02
   8   1  -5    7.14    1.15
   1  -8   5    6.82    1.10
  -1   8   5    7.16    1.45
  -8  -1   5    8.27    1.38
  -1   8   5    6.70    0.76
  -8  -1   5    7.27    0.93
   8   1   5    8.52    1.05
   8   1   5    7.50    1.21
   1  -8   5    8.23    1.31
   8   0  -5   11.96    1.46
   0  -8   5    6.24    1.19
   0   8   5    7.84    0.75
   0   8   5    6.87    1.27
   0  -8   5    6.89    1.22
   8   0   5    7.63    1.27
   8   0   5    8.78    0.95
  -8   0   5    8.74    0.89
  -8   0   5    7.76    1.23
  -8   1  -5    6.05    1.49
  -1  -8  -5    6.97    1.35
  -8   1  -5    4.18    1.02
   1   8  -5    6.14    1.28
   8  -1  -5    6.53    1.29
   8  -1   5    7.49    1.15
  -8   1   5    7.63    0.78
  -1  -8   5    7.91    1.29
   8  -1   5    8.16    0.88
  -8   1   5    7.08    1.32
   1   8   5    6.10    1.23
  -1  -8   5    8.44    1.30
   8  -2  -5  130.27    6.02
  -8   2  -5  118.79    5.55
  -8   2  -5  118.02    6.18
  -2  -8  -5  121.97    6.03
  -2  -8   5  125.37    5.96
  -2  -8   5  122.68    5.66
   2   8   5  119.17    6.04
   8  -2   5  125.78    5.78
  -8   2   5  118.18    4.62
  -8   2   5  117.67    5.63
  -2  -8   5  119.23    5.58
  -8   3  -5   21.66    2.33
   8  -3  -5   19.50    2.00
  -3  -8  -5   18.15    2.10
   3   8   5   19.45    2.16
  -3  -8   5   18.54    1.95
   8  -3   5   19.45    1.95
  -3  -8   5   19.66    1.90
  -8   3   5   19.88    1.82
   8  -3   5   23.19    2.01
  -3  -8   5   23.35    1.93
   8  -4  -5   51.19    3.53
  -8   4  -5   57.74    3.94
  -4  -8  -5   56.64    3.83
   8  -4   5   53.65    3.43
   8  -4   5   55.46    3.43
   4   8   5   56.20    3.69
  -8   4   5   60.31    3.38
  -4  -8   5   56.21    3.44
  -4  -8   5   53.66    3.32
  -4  -8   5   56.72    3.37
  -8   5  -5    3.11    1.37
  -5  -8  -5    4.08    1.31
   8  -5  -5    3.55    1.03
  -8   5   5    3.96    1.03
  -5  -8   5    3.23    0.96
   5   8   5    5.03    1.23
  -5  -8   5    3.91    1.14
   8  -5   5    4.36    1.01
  -5  -8   5    3.73    1.20
   8  -5   5    5.16    1.24
  -8   6  -5   36.05    3.18
  -6  -8  -5   38.34    2.17
   6   8  -5   34.34    2.16
  -6  -8  -5   35.73    3.16
   8  -6  -5   33.82    2.90
  -6  -8   5   40.44    2.80
  -6  -8   5   38.45    2.68
  -8   6   5   37.18    2.56
  -6  -8   5   36.85    2.80
   8  -6   5   40.47    2.92
   8  -6   5   37.76    2.84
   6   8   5   38.27    3.15
   7   8  -5    2.52    0.74
   8  -7  -5    0.61    0.70
   7   8   5    2.39    1.31
   8  -7   5    2.32    1.00
  -7  -8   5    1.83    0.96
  -7  -8   5    3.08    1.12
  -8   7   5    1.84    1.08
  -8   7   5    3.80    1.07
   8   8  -5  113.05    5.37
  -8  -8  -5  121.75    6.62
  -8   8  -5  119.73    6.47
  -8  -8  -5  126.75    5.25
   8  -8   5  112.36    5.85
  -8   8   5  111.89    5.24
   8  -8   5  107.89    5.78
   8   8   5  114.81    6.27
  -8   8   5  117.90    6.36
  -8   9  -5    2.91    1.28
  -9  -8  -5    2.18    1.01
  -9  -8  -5    2.25    1.40
   8  -9   5    1.30    0.94
  -8   9   5    2.18    0.75
  -9  -8   5    1.85    0.97
   8  -9   5    3.14    1.25
  -9  -8   5    1.26    0.90
  -8   9   5    1.62    1.13
   9   8   5    1.23    1.27
  -9  -7  -5   34.01    2.40
  -9  -7  -5   32.25    3.13
   9   7  -5   35.72    2.54
  -7   9  -5   35.08    3.18
  -7   9   5   29.95    2.82
   9   7   5   28.03    1.93
  -9  -7   5   29.26    2.44
   7  -9   5   28.63    2.59
   9   7   5   30.12    2.90
  -7   9   5   28.73    2.00
   7  -9   5   27.19    2.49
  -9  -6  -5    5.84    1.70
   9   6  -5    8.80    1.36
  -9  -6  -5    6.04    1.31
  -6   9  -5    8.64    1.98
   6  -9   5    9.38    1.49
   9   6   5    9.77    1.18
  -6   9   5    8.85    1.07
   6  -9   5    7.57    1.63
  -9  -6   5   10.06    1.43
   9   6   5   10.63    1.78
  -5   9  -5  159.14    7.53
  -9  -5  -5  161.07    7.64
   9   5  -5  151.15    6.70
  -9  -5  -5  154.44    6.42
   9   5   5  142.34    6.18
  -9  -5   5  138.74    6.71
   5  -9   5  144.13    6.69
   9   5   5  139.19    6.80
  -5   9   5  136.88    5.79
   5  -9   5  143.99    6.79
  -9  -5   5  138.75    6.40
  -5   9   5  141.16    7.16
  -4   9  -5    1.20    1.09
  -9  -4  -5    2.99    1.00
   4  -9  -5    2.12    0.67
  -9  -4  -5    3.05    1.37
   4  -9   5    4.60    1.10
  -4   9   5    2.72    1.06
   4  -9   5    5.09    1.24
   9   4   5    3.57    0.86
  -4   9   5    4.51    0.70
   9   4   5    4.00    1.23
  -9  -4   5    5.38    1.11
  -9  -4   5    5.06    1.13
   3  -9  -5   28.44    2.04
  -9  -3  -5   27.90    2.72
   9   3  -5   28.47    2.32
  -9  -3  -5   27.17    2.09
  -3   9  -5   27.14    2.50
   3  -9   5   23.88    2.13
  -3   9   5   20.15    1.55
  -3   9   5   21.92    2.30
   9   3   5   24.79    2.14
   3  -9   5   25.33    2.21
  -9  -3   5   23.23    2.22
  -9  -3   5   24.40    1.90
   9   3   5   21.76    1.91
  -9  -2  -5   18.44    2.26
   2  -9  -5   19.74    1.82
  -2   9  -5   18.06    2.13
  -9  -2  -5   22.93    1.90
   9   2  -5   19.27    1.96
  -9  -2   5   18.80    2.00
  -2   9   5   19.98    2.13
   9   2   5   17.05    1.72
  -9  -2   5   19.99    1.62
   2  -9   5   17.69    1.82
   2  -9   5   18.31    1.90
   1  -9  -5   70.49    4.13
   9   1  -5   75.89    4.32
  -9  -1  -5   76.20    4.73
  -9  -1  -5   72.39    4.00
  -1   9  -5   70.84    4.49
  -9  -1   5   87.58    4.50
  -9  -1   5   81.13    3.74
   9   1   5   86.44    4.29
   1  -9   5   84.76    4.30
   9   1   5   86.27    4.01
   1  -9   5   83.74    4.32
  -1   9   5   81.96    4.70
   0  -9  -5    0.49    0.73
  -9   0  -5    0.29    0.69
   9   0  -5    0.15    0.50
  -9   0  -5    0.45    1.00
   0   9  -5    0.30    0.77
  -9   0   5    0.44    0.69
   9   0   5    0.30    0.40
   0   9   5    0.38    0.94
  -9   0   5    0.61    0.50
   9   0   5    0.12    0.57
   0  -9   5   -0.42    0.62
   0  -9   5   -0.09    0.79
   0  -9   5    0.79    0.85
  -9   1  -5   72.87    4.07
  -1  -9  -5   69.31    4.31
  -9   1  -5   72.77    4.61
   9  -1  -5   72.57    4.37
   9  -1   5   82.74    3.56
  -1  -9   5   80.72    4.62
  -1  -9   5   83.62    4.24
  -1  -9   5   80.76    4.27
   9  -1   5   83.11    4.31
  -9   1   5   87.98    4.46
   1   9   5   83.82    4.73
  -2  -9  -5   20.21    2.13
   9  -2  -5   20.39    2.11
  -9   2  -5   19.61    2.32
  -9   2  -5   17.28    1.71
   2   9   5   20.26    2.14
  -2  -9   5   16.87    1.98
  -9   2   5   19.54    1.87
   9  -2   5   17.60    1.88
  -2  -9   5   21.48    1.94
  -2  -9   5   16.73    1.80
  -9   3  -5   29.11    2.76
  -3  -9  -5   25.91    2.51
   9  -3  -5   28.22    2.53
  -9   3  -5   25.55    2.19
  -3  -9   5   26.74    2.27
  -3  -9   5   23.36    2.28
  -3  -9   5   24.27    2.14
  -9   3   5   24.01    2.19
   9  -3   5   25.93    2.30
   3   9   5   25.83    2.46
  -9   4  -5    2.29    1.07
   9  -4  -5    2.11    1.14
  -4  -9  -5    1.96    1.15
  -9   4  -5    2.85    1.12
  -4  -9   5    5.31    1.19
   9  -4   5    4.69    1.36
  -9   4   5    3.74    1.14
  -4  -9   5    4.35    1.14
   9  -4   5    4.95    1.05
   4   9   5    4.62    1.23
  -4  -9   5    3.16    1.09
  -9   5  -5  150.78    7.46
   9  -5  -5  150.64    7.28
  -5  -9  -5  158.75    7.54
  -5  -9   5  146.70    6.63
   9  -5   5  152.57    6.93
  -9   5   5  143.32    6.55
   9  -5   5  147.55    6.91
   5   9   5  138.07    7.14
  -5  -9   5  138.55    6.67
  -5  -9   5  144.04    6.75
  -6  -9   5   11.04    1.56
  -6  -9   5   10.16    1.39
   6   9   5    8.63    1.63
  -6  -9   5   11.56    1.58
   9  -6   5    9.70    1.63
  -9   6   5   10.31    1.44
  -9   7  -5   31.26    2.91
  -7  -9  -5   30.38    2.93
   9  -7  -5   32.31    2.88
  -9   7   5   28.79    2.26
  -7  -9   5   28.40    2.65
   7   9   5   25.95    3.01
   9  -7   5   31.12    2.67
  -7  -9   5   27.09    2.30
  -7  -9   5   30.89    2.58
   9  -7   5   31.97    2.68
  -8  -9  -5    0.98    1.65
  -9   8  -5    1.59    1.18
  -8  -9  -5    1.56    1.10
  -9   8   5    1.43    0.76
   9  -8   5    0.56    0.97
   9  -8   5    1.43    0.97
  -8  -9   5    1.57    1.00
   8   9   5    1.54    1.01
  -8  -9   5    2.07    1.02
  -9   8   5    0.68    0.86
   9   9  -5   29.20    3.21
  -9  -9  -5   19.13    1.92
  -9  -9  -5   18.54    2.41
  -9   9  -5   19.56    2.54
  -9  -9   5   20.75    2.10
   9   9   5   17.75    2.30
  -9   9   5   22.51    2.58
  -9   9   5   20.53    1.81
   9  -9   5   18.97    2.08
   9  -9   5   18.97    2.29
  -9  -9   5   20.45    2.10
  -9  10  -5   21.35    2.67
 -10  -9  -5   19.95    2.10
 -10  -9  -5   24.23    2.85
 -10  -9   5   22.24    2.22
   9 -10   5   20.67    2.28
  -9  10   5   22.16    2.63
   9 -10   5   19.03    2.14
 -10  -9   5   21.91    2.15
  10   9   5   18.17    2.31
  10   8  -5   36.36    2.63
 -10  -8  -5   36.44    3.40
 -10  -8  -5   27.33    2.55
  -8  10  -5   33.46    3.15
   8 -10   5   30.60    2.62
  10   8   5   30.50    3.05
 -10  -8   5   30.15    2.60
  -8  10   5   35.28    3.21
   8 -10   5   31.74    2.74
 -10  -8   5   31.14    2.65
  10   7  -5   33.24    2.59
  -7  10  -5   30.76    3.12
 -10  -7  -5   32.04    2.47
 -10  -7  -5   33.15    3.16
  10   7   5   33.98    3.08
   7 -10   5   36.31    2.91
  -7  10   5   36.11    3.16
 -10  -7   5   34.68    2.78
 -10  -7   5   37.98    2.78
   7 -10   5   34.29    2.78
 -10  -6  -5   86.11    4.37
  10   6  -5   83.22    4.60
 -10  -6  -5   84.49    5.39
  -6  10  -5   85.93    5.31
  10   6   5   80.00    4.03
  10   6   5   82.50    4.88
   6 -10   5   82.88    4.60
  -6  10   5   81.39    5.07
 -10  -6   5   82.78    4.67
   6 -10   5   81.16    4.66
 -10  -5  -5   23.11    2.12
  -5  10  -5   25.22    2.60
 -10  -5  -5   22.63    2.64
  10   5  -5   22.47    2.15
  10   5   5   23.74    2.27
 -10  -5   5   27.42    2.19
 -10  -5   5   22.53    2.28
  -5  10   5   21.83    2.40
  10   5   5   20.71    1.85
   5 -10   5   20.93    2.19
   4 -10  -5   34.57    2.33
 -10  -4  -5   28.53    3.29
 -10  -4  -5   32.17    2.43
  10   4  -5   32.15    2.61
   4 -10   5   33.10    2.57
  10   4   5   29.59    2.49
 -10  -4   5   33.92    2.41
  10   4   5   30.71    2.25
  -3  10  -5    1.39    0.92
 -10  -3  -5    2.42    1.00
  10   3  -5    1.92    0.90
 -10  -3  -5    2.09    1.40
   3 -10  -5    4.05    0.99
  10   3   5    2.22    0.96
  -3  10   5    2.27    1.32
  10   3   5    1.89    0.83
 -10  -3   5    2.31    0.93
   3 -10   5    2.50    0.92
 -10  -3   5    1.68    0.81
   3 -10   5    1.61    1.04
  10   2  -5   26.19    2.30
 -10  -2  -5   26.31    2.74
 -10  -2  -5   26.36    2.16
  -2  10  -5   23.91    2.52
   2 -10  -5   21.92    2.06
  -2  10   5   22.08    2.36
  10   2   5   27.46    2.16
   2 -10   5   23.12    2.20
   2 -10   5   25.51    2.19
 -10  -2   5   25.23    2.37
  10   2   5   24.20    2.06
 -10  -2   5   25.06    1.87
  10   1  -5  105.58    5.50
 -10  -1  -5  113.62    6.05
  -1  10  -5  114.69    5.89
 -10  -1  -5  113.11    5.23
   1 -10  -5  104.57    5.30
   1 -10   5  100.85    5.22
  -1  10   5  101.11    5.67
  10   1   5   99.89    5.10
   1 -10   5  101.92    5.10
 -10  -1   5   96.43    5.22
   1 -10   5  100.82    5.68
   0 -10  -5   53.74    3.53
  10   0  -5   55.27    3.67
 -10   0  -5   54.31    3.33
 -10   0  -5   54.13    3.96
   0 -10   5   55.38    3.78
   0 -10   5   52.89    3.43
   0  10   5   54.07    3.85
   0 -10   5   54.80    3.32
 -10   0   5   51.86    3.41
 -10   0   5   54.15    2.79
  10   0   5   55.89    3.41
  10   0   5   56.97    2.99
 -10   1  -5  107.02    5.19
  -1 -10  -5  110.20    5.57
  10  -1  -5  109.09    5.62
 -10   1  -5  109.39    5.93
 -10   1   5  100.12    5.25
   1  10   5  101.18    5.65
  -1 -10   5  102.93    5.05
  -1 -10   5   98.38    5.55
  10  -1   5  103.43    5.21
  10  -1   5   92.81    4.41
  -1 -10   5  105.00    5.30
 -10   2  -5   24.54    2.16
 -10   2  -5   26.59    2.59
  10  -2  -5   22.56    2.27
  -2 -10  -5   22.25    2.33
  -2 -10   5   21.23    1.98
  -2 -10   5   22.58    2.35
   2  10   5   25.46    2.50
 -10   2   5   25.59    2.31
  -2 -10   5   24.76    2.25
  10  -2   5   23.36    2.21
  -3 -10  -5    1.98    1.14
 -10   3  -5    2.62    1.08
 -10   3  -5    1.02    1.12
  10  -3  -5    1.09    0.77
  -3 -10   5    1.82    0.98
  10  -3   5    2.51    1.05
  -3 -10   5    1.66    0.84
  -3 -10   5    2.89    1.07
   3  10   5    0.20    0.71
 -10   3   5    2.12    0.93
  10  -4  -5   33.11    2.85
  -4 -10  -5   29.47    2.83
  -4 -10   5   34.79    2.78
 -10   4   5   29.35    2.50
   4  10   5   31.71    2.99
  -4 -10   5   30.03    2.38
 -10   5  -5   21.55    2.44
  10  -5  -5   24.58    2.47
  -5 -10  -5   17.31    2.60
 -10   5  -5   23.70    2.27
  -5 -10   5   25.21    2.36
 -10   5   5   22.41    2.13
   5  10   5   22.42    2.95
  -5 -10   5   24.86    2.31
  10  -5   5   24.85    2.37
  -5 -10   5   23.73    2.10
  10  -6  -5   84.32    5.11
  -6 -10  -5   80.89    5.15
 -10   6  -5   87.20    4.77
 -10   6  -5   82.60    5.23
  -6 -10   5   81.12    4.54
  10  -6   5   83.34    4.77
 -10   6   5   77.80    4.67
  10  -6   5   83.29    4.74
   6  10   5   79.30    5.12
  -6 -10   5   79.43    4.54
 -10   7  -5   29.34    2.98
  10  -7  -5   31.12    2.98
  -7 -10  -5   31.95    3.17
  -7 -10   5   33.54    2.76
  10  -7   5   36.41    2.95
  10  -7   5   35.95    2.92
  -7 -10   5   34.42    2.67
  -7 -10   5   40.74    2.78
   7  10   5   38.05    3.31
  -8 -10  -5   34.64    3.31
  10  -8  -5   35.85    3.16
 -10   8  -5   33.88    3.25
 -10   8   5   29.31    2.37
  -8 -10   5   33.02    2.61
  -8 -10   5   36.00    2.87
   8  10   5   32.31    3.12
  10  -8   5   29.70    2.74
  10  -8   5   33.72    2.79
 -10   8   5   31.84    3.07
  -9 -10  -5   22.34    2.74
 -10   9  -5   22.98    2.76
  -9 -10   5   20.87    2.17
 -10   9   5   22.78    2.62
  10  -9   5   20.23    2.24
  -9 -10   5   21.27    2.10
 -10   9   5   22.03    1.95
   9  10   5   20.72    2.50
  10  -9   5   21.93    2.35
 -10  10  -5   20.85    2.66
 -10 -10  -5   20.37    2.79
  10 -10   5   20.32    2.20
  10  10   5   18.56    2.57
 -10 -10   5   19.40    2.10
 -10 -10   5   21.48    2.06
 -10  10   5   20.03    2.80
 -10  11  -5    1.89    1.21
 -11 -10  -5    6.58    1.69
  11  10   5    5.38    1.66
 -11 -10   5    4.82    1.20
 -10  11   5    5.77    1.38
  10 -11   5    3.14    1.11
  10 -11   5    4.19    1.06
 -11  -9  -5   71.80    4.18
  11   9  -5   70.20    4.22
 -11  -9   5   78.38    4.50
   9 -11   5   73.93    4.44
  -9  11   5   66.67    5.31
  11   9   5   71.02    4.83
 -11  -9   5   83.90    4.53
 -11  -8  -5    5.21    1.49
  -8  11  -5    4.85    1.72
 -11  -8  -5    6.47    1.78
  11   8  -5    9.36    1.32
   8 -11   5    7.16    1.38
 -11  -8   5    9.64    1.43
   8 -11   5    8.60    1.41
  -8  11   5    6.91    1.64
 -11  -8   5    6.79    1.35
  11   8   5    8.58    1.78
  11   7  -5   38.57    2.96
  -7  11  -5   39.14    3.54
 -11  -7  -5   39.92    3.59
 -11  -7  -5   35.53    2.73
  11   7   5   37.12    3.24
  -7  11   5   36.34    3.29
   7 -11   5   43.37    3.25
   7 -11   5   38.76    2.98
 -11  -7   5   39.85    2.93
 -11  -7   5   39.81    3.03
 -11  -6  -5   13.85    2.24
 -11  -6  -5   10.77    1.60
  -6  11  -5   12.30    1.97
  11   6   5   10.66    1.87
   6 -11   5   12.21    1.66
 -11  -6   5   15.55    1.92
  11   6   5   14.21    1.46
  -6  11   5   13.09    1.96
 -11  -6   5   11.03    1.56
   6 -11   5   13.44    1.74
  -5  11  -5   44.41    3.68
  11   5  -5   42.20    3.14
 -11  -5  -5   40.67    3.61
   5 -11   5   44.03    3.05
 -11  -5   5   42.92    3.12
  -5  11   5   41.59    3.52
   5 -11   5   40.39    3.14
  11   5   5   43.69    2.78
  11   5   5   42.26    3.53
  -4  11  -5    2.11    1.29
   4 -11  -5    2.91    1.00
 -11  -4  -5    1.57    1.07
  11   4  -5    3.60    1.08
 -11  -4  -5    1.87    1.07
   4 -11   5    3.32    1.21
  -4  11   5    3.79    1.42
   4 -11   5    4.61    1.24
 -11  -4   5    3.67    1.37
 -11  -4   5    5.38    1.04
  11   4   5    4.68    1.04
  11   4   5    3.75    0.92
  11   3  -5  140.19    6.96
   3 -11  -5  145.93    6.55
  -3  11  -5  146.56    7.50
 -11  -3  -5  139.28    6.55
 -11  -3  -5  147.82    7.58
  11   3   5  157.23    6.67
  11   3   5  143.35    6.73
 -11  -3   5  135.26    6.26
   3 -11   5  146.98    6.90
  -3  11   5  151.42    7.49
   3 -11   5  138.03    6.54
 -11  -3   5  145.32    6.92
 -11  -2  -5    0.60    0.80
 -11  -2  -5    0.07    0.77
   2 -11  -5    1.41    0.84
  11   2  -5    0.09    0.72
  -2  11  -5   -0.18    0.81
  11   2   5    0.86    0.72
  -2  11   5    0.48    0.74
 -11  -2   5    0.23    0.90
  11   2   5    2.26    0.91
 -11  -2   5    0.67    0.57
   2 -11   5    1.41    0.74
   2 -11   5    0.23    0.61
 -11  -1  -5   17.54    2.32
  11   1  -5   18.25    2.06
   1 -11  -5   17.01    1.93
 -11  -1  -5   16.98    1.83
   1 -11   5   12.66    1.61
 -11  -1   5   16.07    1.98
   1 -11   5   13.99    1.83
  -1  11   5   16.66    2.25
  11   1   5   16.02    1.57
  11   1   5   14.20    1.69
 -11  -1   5   14.70    1.42
  11   0  -5    1.05    0.67
 -11   0  -5    0.93    0.85
   0 -11  -5   -0.64    0.66
 -11   0  -5    0.69    0.85
   0 -11   5   -0.02    0.83
 -11   0   5    0.25    0.46
   0 -11   5    0.63    0.71
 -11   0   5    0.33    0.94
  11   0   5    0.61    0.64
   0 -11   5    0.76    0.87
  11   0   5    0.40    0.74
   0  11   5    0.07    0.75
  11  -1  -5   17.23    2.11
  -1 -11  -5   18.39    2.09
 -11   1  -5   16.29    2.25
  -1 -11   5   13.59    1.70
   1  11   5   16.09    2.24
 -11   1   5   11.84    1.66
  -1 -11   5   14.92    1.68
  -1 -11   5   15.69    2.08
 -11   2  -5    0.53    1.13
 -11   2  -5    0.25    0.91
  -2 -11  -5    0.65    0.95
 -11   2   5    0.69    1.03
  -2 -11   5    0.85    0.74
   2  11   5    0.24    0.77
  -2 -11   5    0.83    0.68
  -2 -11   5    0.41    0.93
  11  -2   5    0.28    0.77
 -11   3  -5  139.21    6.79
 -11   3  -5  149.99    7.61
  11  -3  -5  146.33    7.36
  -3 -11   5  145.03    6.57
  11  -3   5  150.10    6.98
  -3 -11   5  145.72    6.90
  -3 -11   5  142.39    7.17
   3  11   5  149.32    7.56
 -11   3   5  148.82    6.94
  11  -4  -5    3.20    1.26
 -11   4  -5    2.04    1.28
  -4 -11  -5    3.83    1.48
 -11   4  -5    3.22    1.17
  -4 -11   5    4.10    1.31
   4  11   5    2.25    1.15
  -4 -11   5    4.32    1.08
 -11   4   5    5.24    1.48
  11  -4   5    2.60    1.04
  -4 -11   5    5.00    1.18
  -5 -11  -5   43.63    3.64
 -11   5  -5   46.47    3.79
  11  -5  -5   43.89    3.58
 -11   5  -5   42.51    3.13
 -11   5   5   43.25    3.14
  11  -5   5   44.05    3.23
  -5 -11   5   46.17    3.30
   5  11   5   46.37    3.68
  -5 -11   5   47.49    3.40
 -11   6  -5   12.30    1.76
  -6 -11  -5   11.22    2.03
 -11   6  -5   11.16    2.06
  11  -6  -5   14.68    2.16
 -11   6   5   14.27    1.80
  -6 -11   5   11.20    1.53
  11  -6   5   13.45    1.85
  -6 -11   5   13.65    1.73
   6  11   5   10.40    2.11
  11  -7  -5   40.22    3.55
 -11   7  -5   38.41    3.05
  -7 -11  -5   42.50    3.63
 -11   7  -5   34.37    3.25
   7  11   5   40.08    3.67
  -7 -11   5   36.93    2.72
  -7 -11   5   36.06    3.14
  11  -7   5   41.13    3.18
  -7 -11   5   38.56    3.03
 -11   7   5   36.40    2.83
  -8 -11  -5    6.83    1.72
  11  -8  -5    8.07    1.76
 -11   8  -5    6.96    1.78
 -11   8  -5    8.59    1.57
 -11   8   5    7.00    1.39
  -8 -11   5    8.07    1.33
 -11   8   5    8.33    1.60
  11  -8   5    6.54    1.47
   8  11   5    7.04    1.68
  -8 -11   5    8.36    1.49
 -11   9  -5   65.47    5.27
  -9 -11   5   71.61    4.43
  -9 -11   5   81.62    4.31
 -11   9   5   68.14    5.32
   9  11   5   72.09    5.03
  11  -9   5   77.17    5.11
 -11   9   5   78.34    4.12
 -10 -11  -5    5.03    1.72
 -11  10  -5    4.44    1.23
 -11  10  -5    3.20    1.43
  11 -10   5    2.42    1.04
 -11  10   5    1.95    0.90
 -10 -11   5    6.15    1.28
  11 -10   5    3.39    1.17
  10  11   5    2.08    1.41
 -11 -11   5   10.60    1.54
  -9  12  -5    5.32    1.65
 -12  -9  -5    3.58    1.57
 -12  -9  -5    6.69    1.73
  12   9   5    5.32    1.62
  -9  12   5    8.73    1.79
 -12  -9   5    6.68    1.25
   9 -12   5    5.53    1.36
   9 -12   5    7.46    1.32
 -12  -9   5    7.37    1.49
  12   8  -5   27.57    2.34
 -12  -8  -5   17.53    2.83
 -12  -8  -5   22.57    2.24
   8 -12   5   17.38    2.41
  12   8   5   27.04    2.76
  -8  12   5   18.76    2.88
   8 -12   5   26.48    2.63
 -12  -8   5   24.17    2.42
 -12  -8   5   31.43    2.57
 -12  -7  -5   22.21    2.26
 -12  -7  -5   25.69    2.93
  -7  12  -5   27.20    2.97
  12   7  -5   26.37    2.44
   7 -12   5   27.25    2.56
 -12  -7   5   25.95    2.47
  -7  12   5   25.69    2.76
  12   7   5   25.61    2.70
   7 -12   5   25.06    2.34
 -12  -7   5   26.89    2.35
  -6  12  -5   40.29    3.59
 -12  -6  -5   36.13    3.37
 -12  -6  -5   37.10    2.90
  12   6  -5   34.78    2.89
  -6  12   5   39.33    3.40
   6 -12   5   38.32    3.00
  12   6   5   37.33    3.17
 -12  -6   5   36.90    2.96
   6 -12   5   33.95    2.74
 -12  -6   5   36.56    2.73
  12   6   5   32.70    2.58
 -12  -5  -5    5.76    1.66
  12   5  -5    5.03    1.12
 -12  -5  -5    5.61    1.35
  -5  12  -5    6.53    1.65
 -12  -5   5    6.08    1.45
  -5  12   5    7.01    1.66
   5 -12   5    6.06    1.26
 -12  -5   5    7.27    1.26
  12   5   5    7.43    1.56
   5 -12   5    6.33    1.40
  12   5   5    5.74    1.14
  -4  12  -5   24.75    2.85
 -12  -4  -5   28.63    2.45
 -12  -4  -5   27.17    2.85
  12   4  -5   24.03    2.38
   4 -12   5   31.02    2.45
   4 -12   5   27.07    2.55
 -12  -4   5   25.12    2.50
  12   4   5   23.49    2.53
  -4  12   5   23.70    2.64
  12   4   5   26.60    2.20
 -12  -4   5   30.11    2.30
 -12  -3  -5    6.27    1.32
  -3  12  -5    6.35    1.46
 -12  -3  -5    5.94    1.73
  12   3  -5    6.83    1.41
   3 -12  -5   10.22    1.46
   3 -12   5    6.17    1.39
 -12  -3   5    5.98    1.56
  -3  12   5    7.11    1.54
  12   3   5    8.78    1.31
   3 -12   5    6.42    1.30
 -12  -3   5    7.53    1.30
  12   3   5    9.52    1.45
 -12  -2  -5   33.04    2.60
 -12  -2  -5   30.59    3.08
   2 -12  -5   31.79    2.54
  12   2  -5   28.96    2.66
  -2  12  -5   29.32    2.92
   2 -12   5   26.18    2.47
 -12  -2   5   23.01    2.44
 -12  -2   5   27.46    2.05
  12   2   5   27.68    2.34
  12   2   5   23.54    2.17
  -2  12   5   25.28    2.71
   2 -12   5   26.85    2.26
 -12  -1  -5    8.16    1.34
  12   1  -5    7.00    1.45
 -12  -1  -5    4.37    1.62
   1 -12  -5    6.70    1.35
   1 -12   5    6.82    1.29
   1 -12   5    7.57    1.55
 -12  -1   5   11.25    1.22
  12   1   5    8.98    1.27
 -12  -1   5    6.84    1.52
  -1  12   5    5.81    1.46
  12   1   5    8.24    1.39
 -12   0  -5   84.94    5.37
  12   0  -5   86.32    5.12
 -12   0  -5   84.52    4.74
 -12   0   5   83.42    4.04
  12   0   5   90.22    4.93
  12   0   5   91.25    4.86
 -12   0   5   88.68    4.98
   0  12   5   89.71    5.41
   0 -12   5   84.97    5.29
   0 -12   5   85.55    4.88
  12  -1  -5    6.93    1.61
 -12   1  -5    7.87    1.49
  -1 -12  -5    7.20    1.45
 -12   1  -5    6.85    1.71
 -12   1   5    5.94    1.54
  -1 -12   5    6.06    1.40
   1  12   5    8.21    1.84
  -1 -12   5    8.55    1.69
  12  -1   5    6.41    1.36
 -12   2  -5   27.35    2.91
 -12   2  -5   28.49    2.52
  -2 -12  -5   36.19    3.01
  12  -2  -5   30.98    2.93
  -2 -12   5   24.02    2.66
  -2 -12   5   24.27    2.43
   2  12   5   22.55    2.62
  12  -2   5   31.29    2.64
 -12   2   5   25.54    2.54
  -3 -12  -5    6.78    1.56
  12  -3  -5    4.81    1.26
 -12   3  -5    7.48    1.77
 -12   3  -5    5.57    1.33
  -3 -12   5    5.82    1.38
 -12   3   5    7.45    1.41
   3  12   5    8.62    1.96
  -3 -12   5    6.96    1.62
  12  -3   5    6.00    1.40
 -12   4  -5   28.73    3.01
 -12   4  -5   25.89    2.49
  12  -4  -5   29.48    2.84
  -4 -12  -5   27.61    2.82
   4  12   5   28.35    2.92
 -12   4   5   25.60    2.52
  -4 -12   5   28.21    2.25
  12  -4   5   26.94    2.60
  -4 -12   5   27.95    2.55
  -4 -12   5   28.42    2.75
 -12   5  -5    7.73    1.49
 -12   5  -5    5.59    1.60
  -5 -12  -5    5.29    1.47
  12  -5  -5    4.99    1.29
  -5 -12   5    5.81    1.45
  -5 -12   5    6.89    1.39
  -5 -12   5    7.01    1.38
   5  12   5    4.93    1.78
  12  -5   5    5.63    1.41
 -12   5   5    4.32    1.40
  -6 -12  -5   40.61    3.53
  12  -6  -5   32.15    3.11
 -12   6  -5   41.75    3.14
 -12   6  -5   37.47    3.46
   6  12   5   38.46    3.49
  -6 -12   5   39.44    2.73
  -6 -12   5   40.44    3.11
  -6 -12   5   34.04    2.95
  12  -6   5   38.65    3.08
 -12   6   5   35.40    2.87
 -12   7  -5   24.84    2.48
  12  -7  -5   22.72    2.66
 -12   7  -5   26.71    2.90
  -7 -12  -5   26.08    2.90
  12  -7   5   24.33    2.52
  -7 -12   5   23.16    2.07
  -7 -12   5   24.88    2.43
   7  12   5   22.39    2.74
 -12   7   5   24.20    2.28
 -12   8  -5   16.43    2.32
  12  -8  -5   12.60    2.27
  12  -8   5   17.78    2.35
  -9 -12  -5    5.56    1.62
 -12   9  -5    5.89    1.26
 -12   9  -5    2.43    1.28
  12  -9   5    5.72    1.41
  -9 -12   5    7.35    1.37
 -12   9   5    6.03    1.48
 -10 -12   5   27.72    2.46
 -13  -9  -5   10.93    2.33
 -13  -8  -5    8.40    2.06
  13   8  -5    9.68    1.46
  -8  13  -5    7.57    1.90
  13   8   5   10.92    1.74
 -13  -8   5    7.85    1.44
   8 -13   5    7.99    1.34
  -8  13   5    6.88    1.62
 -13  -8   5   10.03    1.39
  -7  13  -5   41.53    3.73
 -13  -7  -5   30.83    3.05
  13   7  -5   41.07    3.14
 -13  -7  -5   43.99    3.80
   7 -13   5   35.59    3.10
  -7  13   5   32.32    3.23
 -13  -7   5   39.43    3.06
  13   6  -5    3.69    0.98
 -13  -6  -5    0.94    1.11
 -13  -6   5    2.26    0.81
  13   6   5    4.94    1.35
   6 -13   5    3.84    0.99
 -13  -6   5    1.08    1.07
 -13  -5  -5   36.47    3.04
 -13  -5  -5   35.23    3.50
  -5  13  -5   35.00    3.44
  13   5  -5   39.85    3.19
   5 -13   5   45.23    3.31
   5 -13   5   45.73    3.10
  13   5   5   44.56    2.86
  13   5   5   40.25    3.18
 -13  -5   5   47.94    3.42
  -5  13   5   43.47    3.75
 -13  -5   5   46.16    3.02
  -4  13  -5   29.67    3.12
 -13  -4  -5   26.69    2.45
 -13  -4  -5   24.26    2.88
  13   4  -5   29.99    2.72
 -13  -4   5   26.56    2.63
   4 -13   5   28.85    2.67
  -4  13   5   29.14    2.94
 -13  -4   5   28.40    2.29
  13   4   5   29.21    2.40
  13   4   5   28.95    2.62
   4 -13   5   26.37    2.31
   3 -13  -5   13.62    1.89
 -13  -3  -5   13.15    2.23
 -13  -3  -5   17.46    1.98
  13   3  -5   13.08    1.89
  -3  13  -5   12.13    2.12
   3 -13   5   14.96    1.74
 -13  -3   5   16.91    2.10
  13   3   5   17.20    1.90
   3 -13   5   14.80    1.95
  -3  13   5   15.66    2.33
 -13  -3   5   14.51    1.56
  13   3   5   15.96    1.84
 -13  -2  -5    9.86    1.95
  -2  13  -5    9.28    1.81
 -13  -2  -5    7.36    1.45
  13   2  -5    6.99    1.38
   2 -13  -5    9.80    1.63
 -13  -2   5    9.77    1.73
   2 -13   5    7.44    1.60
  -2  13   5   10.10    1.97
  13   2   5   10.83    1.55
   2 -13   5    6.95    1.31
 -13  -2   5    9.49    1.21
   2 -13   5    9.65    1.47
   1 -13  -5   60.09    4.00
 -13  -1  -5   65.28    4.01
 -13  -1  -5   60.51    4.47
  13   1  -5   67.84    4.42
   1 -13   5   60.54    4.02
 -13  -1   5   59.66    3.34
   1 -13   5   61.45    4.50
  13   1   5   59.68    4.23
 -13  -1   5   61.65    4.09
  13   1   5   62.96    3.89
  -1  13   5   61.76    4.54
   1 -13   5   63.76    3.67
 -13   0  -5    0.17    0.94
  13   0  -5    0.80    0.62
   0 -13  -5    0.86    0.82
 -13   0  -5   -0.39    0.83
   0  13   5   -0.84    1.01
   0 -13   5    1.04    0.88
   0 -13   5    0.68    1.05
   0 -13   5    0.66    0.76
  13   0   5   -0.47    0.57
 -13   0   5    0.25    0.77
  -1 -13  -5   65.65    4.29
  13  -1  -5   66.47    4.48
 -13   1  -5   64.20    4.50
 -13   1  -5   63.64    4.01
  13  -1   5   58.24    3.90
   1  13   5   61.63    4.50
  -1 -13   5   62.95    4.46
  -1 -13   5   60.65    3.63
  -1 -13   5   59.98    4.00
 -13   1   5   60.41    4.08
 -13   2  -5    9.07    1.41
  -2 -13  -5    8.81    1.69
 -13   2  -5    7.51    1.61
  13  -2  -5    9.66    1.77
  -2 -13   5    6.67    1.43
  -2 -13   5    8.28    1.33
   2  13   5    6.38    1.53
  13  -2   5   10.11    1.63
  -2 -13   5    9.17    1.80
 -13   2   5    7.33    1.57
  -3 -13  -5   12.38    2.00
 -13   3  -5   12.87    2.14
 -13   3  -5   14.99    1.93
  13  -3  -5   15.51    2.05
  -3 -13   5   13.72    1.79
  13  -3   5   14.59    1.88
  -3 -13   5   14.46    2.18
   3  13   5   16.77    2.50
 -13   3   5   10.38    1.83
  -3 -13   5   16.98    1.72
  13  -4  -5   27.44    2.80
  -4 -13  -5   25.44    2.81
 -13   4  -5   29.09    2.56
 -13   4  -5   32.99    3.19
  13  -4   5   27.57    2.65
   4  13   5   29.59    3.07
  -4 -13   5   30.15    2.65
 -13   4   5   24.72    2.57
  -4 -13   5   27.26    2.76
  -4 -13   5   27.88    2.31
  -5 -13  -5   35.24    3.38
 -13   5  -5   33.54    2.96
 -13   5  -5   35.21    3.42
  13  -5  -5   34.12    3.24
  13  -5   5   49.49    3.47
   5  13   5   46.44    4.01
  -5 -13   5   42.06    3.39
  -5 -13   5   41.18    2.82
  -5 -13   5   40.37    3.19
 -13   5   5   41.73    3.18
  -6 -13   5    1.85    1.02
 -13   6   5    1.94    1.14
  -6 -13   5    1.34    0.95
 -13   7  -5   46.49    3.41
 -13   7  -5   43.36    3.73
  -7 -13  -5   40.12    3.65
  13  -7  -5   39.46    3.53
   7  13   5   37.40    3.73
  -7 -13   5   35.42    3.04
  13  -7   5   35.82    3.14
  -8 -13  -5    7.83    1.84
  13  -8  -5    5.01    1.45
 -13   8  -5    7.97    1.82
  13  -8   5    9.13    1.85
   8  13   5    6.76    1.73
  14   7   5    1.78    0.93
   7 -14   5    1.07    0.89
 -14  -6  -5    0.14    1.13
 -14  -6  -5    1.49    1.19
   6 -14   5    0.56    0.75
  14   6   5    1.66    0.91
  -6  14   5    1.72    0.85
   6 -14   5    4.52    1.05
 -14  -6   5    1.07    0.94
 -14  -5  -5    4.36    1.18
 -14  -5  -5    1.25    1.07
  -5  14  -5    0.15    0.98
 -14  -5  -5   -0.44    1.01
   5 -14   5   -0.43    0.80
  -5  14   5   -0.62    0.84
 -14  -5   5    0.70    0.97
   5 -14   5    1.38    0.85
  14   4  -5   56.65    3.86
 -14  -4  -5   40.73    4.32
  -4  14  -5   44.61    3.94
   4 -14   5   49.11    3.16
   4 -14   5   52.47    3.67
  14   4   5   40.36    2.94
 -14  -4   5   32.79    3.46
  -4  14   5   44.62    3.83
 -14  -4   5   44.75    2.98
  14   4   5   45.18    3.36
   3 -14  -5    2.55    1.56
 -14  -3  -5    2.80    1.02
  14   3  -5    1.76    0.91
 -14  -3   5    3.39    0.73
  14   3   5    2.22    1.25
   3 -14   5    1.68    0.91
  14   3   5    3.99    0.93
  -2  14  -5   58.45    4.42
 -14  -2  -5   56.71    3.83
   2 -14  -5   56.10    3.85
  14   2  -5   59.81    4.19
 -14  -2  -5   50.89    4.23
  14   2   5   62.68    3.84
   2 -14   5   58.24    4.31
   2 -14   5   56.84    3.43
 -14  -2   5   61.25    4.48
 -14  -2   5   56.57    3.32
  14   2   5   56.49    4.32
  -2  14   5   48.66    4.49
  14   1  -5   10.83    1.70
 -14  -1  -5    9.24    1.94
 -14  -1  -5   11.02    1.72
   1 -14  -5   11.46    1.71
  14   1   5   10.71    1.56
   1 -14   5   13.53    1.62
   1 -14   5    9.47    1.75
 -14  -1   5   10.16    1.76
   1 -14   5   11.84    1.79
  -1  14   5    9.98    1.82
   0 -14  -5   60.89    4.12
 -14   0  -5   62.89    4.56
  14   0  -5   63.24    4.40
 -14   0  -5   54.38    3.87
 -14   0   5   58.63    4.03
   0 -14   5   62.86    4.13
   0  14   5   64.66    4.63
  14   0   5   64.85    4.02
   0 -14   5   56.55    4.35
   0 -14   5   65.03    3.65
  14  -1  -5   10.73    1.73
 -14   1  -5   11.58    1.73
  -1 -14  -5   12.90    1.86
 -14   1  -5   10.93    2.02
  -1 -14   5   12.32    1.66
  -1 -14   5   10.80    1.68
  14  -1   5   13.04    1.77
   1  14   5    9.34    1.85
  -1 -14   5   11.09    1.96
 -14   1   5   11.45    1.91
 -14   2  -5   53.85    4.06
 -14   2  -5   58.00    4.37
  14  -2  -5   56.16    4.20
  -2 -14  -5   54.74    4.05
   2  14   5   56.33    4.91
  14  -2   5   59.95    3.92
 -14   2   5   51.40    4.13
  -2 -14   5   54.77    4.20
  -2 -14   5   55.41    4.22
  -3 -14  -5    4.10    1.46
 -14   3   5    0.66    1.15
  -3 -14   5    2.56    1.11
  -3 -14   5    2.17    1.24
  14  -4  -5   50.09    3.95
 -14   4  -5   50.18    3.61
  -4 -14   5   48.82    3.56
  14  -4   5   44.34    3.46
  -4 -14   5   38.29    3.46
   4  14   5   54.58    4.27
 -14   5  -5   -0.22    0.83
  -5 -14  -5    0.60    0.85
 -14   5  -5    0.49    0.64
  14  -5  -5   -0.06    0.54
  14  -5   5    0.08    0.77
 -14   5   5   -0.41    0.87
  -5 -14   5    1.63    0.77
   5  14   5    0.01    0.92
  14  -6  -5    3.99    1.17
 -14   6  -5    4.68    1.11
  -6 -14  -5    3.04    1.26
 -14   6  -5    5.02    1.56
   6  14   5    0.18    1.33
  -6 -14   5    2.01    0.92
  -6 -14   5    2.41    1.19
 -14   6   5    0.47    0.97
  14  -6   5    1.95    0.95
  15   5   5   46.16    3.88
  15   4  -5   34.65    3.49
 -15  -4  -5   42.41    2.95
 -15  -4   5   41.40    2.81
  15   4   5   47.67    3.53
 -15  -3  -5   17.92    2.50
 -15  -3  -5   16.03    1.98
  -3  15  -5   12.43    2.35
  15   3  -5   12.74    1.81
   3 -15   5   13.23    2.07
 -15  -3   5   12.30    2.13
  15   3   5   13.98    1.69
 -15  -2  -5    5.23    1.64
 -15  -2  -5    7.65    1.55
  -2  15  -5    6.44    1.65
  15   2  -5    6.91    1.30
  15   2   5    7.31    1.26
 -15  -2   5    5.55    1.51
   2 -15   5    7.22    1.47
  -2  15   5    6.98    1.62
  15   1  -5   23.29    2.49
 -15  -1  -5   20.90    2.30
 -15  -1  -5   16.39    2.43
  -1  15   5   21.20    2.71
 -15  -1   5   17.32    2.27
  15   1   5   21.11    2.11
   1 -15   5   19.81    2.59
   1 -15   5   21.91    2.30
 -15   0  -5   -0.54    0.93
  15   0  -5    1.63    0.81
 -15   0  -5    1.06    1.01
   0 -15   5    1.28    0.93
  15   0   5    0.52    0.66
   0 -15   5    0.68    1.06
   0  15   5   -0.65    1.04
 -15   0   5   -0.58    0.89
 -15   1  -5   16.22    2.12
  -1 -15  -5   20.43    2.44
 -15   1  -5   17.29    2.41
  15  -1  -5   20.11    2.48
  -1 -15   5   18.96    2.49
 -15   1   5   15.81    2.22
   1  15   5   17.42    2.57
  -1 -15   5   17.57    2.12
  15  -1   5   23.53    2.34
  15  -2  -5    9.80    1.66
  -2 -15  -5    6.12    1.34
 -15   2  -5    3.07    1.29
 -15   2  -5    5.02    1.59
  -2 -15   5    6.97    1.62
  -2 -15   5    7.79    1.33
  15  -2   5    8.36    1.52
   2  15   5    6.42    1.88
 -15   2   5    5.58    1.73
 -15   3  -5   13.45    2.12
 -15   3  -5   13.74    2.18
  15  -3  -5   14.83    2.36
  -3 -15  -5   16.61    2.23
   3  15   5    9.49    2.40
  -3 -15   5   17.16    2.28
   0   0  -6  524.38   18.37
   0   0   6  489.57   17.48
   0   0   6  508.78   18.20
   0   0   6  488.44   17.45
   0  -1  -6   -0.17    0.72
   1   0  -6    0.23    0.65
   0   1  -6    0.63    0.74
   0  -1   6    0.09    0.50
  -1   0   6   -0.11    0.26
   1   0   6    0.63    0.72
  -1   0   6    0.05    0.68
   0  -1   6   -0.04    0.66
   1   0   6    0.25    0.47
   0   1   6    0.00    0.42
   0   1   6    0.16    0.64
   1   0   6   -0.07    0.34
   0   1   6    0.40    0.39
  -1   0   6    0.54    0.45
   0  -1   6    0.18    0.32
   1   1  -6   82.27    4.24
   1  -1  -6   86.73    4.24
  -1  -1  -6   90.38    4.83
   1   1   6   87.43    3.87
   1   1   6   86.66    3.68
  -1  -1   6   80.74    3.74
   1   1   6   88.40    4.27
  -1   1   6   87.58    3.97
  -1  -1   6   90.60    3.77
   1  -1   6   81.65    3.35
   1  -1   6   82.97    3.86
  -1   1   6   88.79    4.30
   1  -1   6   83.79    4.31
  -1  -1   6   85.34    4.35
  -1   1   6   91.76    3.67
  -2  -1  -6    2.32    1.04
   1  -2   6    6.37    1.21
  -2  -1   6    6.40    0.77
  -1   2   6    5.10    0.93
  -1   2   6    5.67    1.00
  -2  -1   6    5.71    0.80
   1  -2   6    4.15    0.91
   2   1   6    4.08    0.75
   2   1   6    5.20    1.05
  -2  -1   6    5.35    1.00
   2   1   6    5.16    0.85
   0  -2  -6   36.72    2.64
   2   0  -6   38.24    2.42
   0   2  -6   42.02    2.76
   0  -2  -6   37.84    1.79
  -2   0  -6   36.12    2.74
   0  -2   6   38.44    2.27
  -2   0   6   39.60    2.62
   0   2   6   42.20    2.55
   0  -2   6   37.93    2.57
  -2   0   6   40.72    2.06
  -2   0   6   39.24    2.24
   2   0   6   39.25    2.03
   2   0   6   40.48    2.23
   0   2   6   40.40    2.44
   2   0   6   39.81    2.62
   2  -1  -6    2.69    0.85
  -2   1  -6    1.97    0.97
   1   2  -6    2.37    0.94
   2  -1   6    6.16    0.97
  -1  -2   6    5.43    1.01
   2  -1   6    5.07    1.09
  -1  -2   6    5.70    0.93
  -2   1   6    4.65    0.85
  -2   1   6    3.82    0.96
   1   2   6    5.35    1.00
   1   2   6    4.84    0.96
  -1  -2   6    4.97    0.80
  -2  -2  -6   44.67    3.14
  -2   2  -6   44.83    3.16
   2  -2  -6   45.37    2.72
   2   2  -6   46.24    2.82
  -2  -2  -6   46.80    2.31
  -2   2   6   50.82    2.88
  -2   2   6   48.39    2.89
  -2  -2   6   53.18    2.64
  -2  -2   6   52.89    2.33
   2  -2   6   48.67    2.74
   2   2   6   50.35    2.91
   2   2   6   49.46    2.74
  -2  -2   6   47.62    3.05
   2  -2   6   54.33    3.12
  -2   3  -6    2.35    1.07
   2  -3  -6    1.30    0.72
   3   2  -6    1.43    0.66
  -3  -2  -6    2.82    0.63
  -3  -2  -6    2.20    1.10
   2  -3   6    1.76    0.84
   3   2   6    2.81    0.94
  -3  -2   6    2.97    0.56
  -2   3   6    1.92    0.78
   3   2   6    2.37    0.81
  -2   3   6    1.47    0.77
  -3  -2   6    2.49    0.63
  -3  -2   6    1.52    0.76
   2  -3   6    2.32    1.01
   3   1  -6   80.42    3.76
  -1   3  -6   87.52    4.46
   1  -3  -6   80.78    4.07
  -3  -1  -6   81.88    4.49
  -3  -1  -6   82.22    3.61
   1  -3   6   80.72    4.16
  -1   3   6   76.36    3.91
  -1   3   6   79.95    4.03
  -3  -1   6   79.71    3.64
   3   1   6   77.73    3.61
  -3  -1   6   76.97    4.15
  -3  -1   6   74.36    3.47
   3   1   6   80.42    4.06
   1  -3   6   78.12    4.18
   0  -3  -6   -0.09    0.74
   0   3  -6    0.04    0.73
  -3   0  -6   -0.55    0.69
   3   0  -6    0.06    0.44
   3   0   6    0.20    0.47
   3   0   6   -0.37    0.49
  -3   0   6    0.62    0.42
   0   3   6    0.17    0.57
   3   0   6   -0.79    0.34
   0  -3   6   -0.40    0.65
   0   3   6   -0.09    0.53
  -3   0   6    0.26    0.54
  -3   0   6    0.32    0.46
  -1  -3  -6   82.28    3.18
  -1  -3  -6   83.60    4.79
  -3   1  -6   84.96    4.62
   1   3  -6   86.09    4.25
   3  -1  -6   82.77    3.75
  -1  -3   6   81.27    3.85
   3  -1   6   78.13    3.82
  -3   1   6   83.42    4.18
  -3   1   6   76.35    3.21
  -3   1   6   78.07    3.91
   1   3   6   81.28    3.96
   3  -1   6   82.00    4.19
   1   3   6   76.96    3.96
  -1  -3   6   79.35    4.23
  -2  -3  -6    1.65    1.00
  -3   2  -6    1.08    0.95
   3  -2  -6    1.55    0.66
   2   3  -6    0.80    0.75
  -2  -3  -6    1.70    0.73
   3  -2   6    2.28    0.91
   2   3   6    2.42    0.82
  -2  -3   6    0.96    0.67
  -3   2   6    3.62    0.88
   2   3   6    1.52    0.73
  -2  -3   6    2.50    0.80
   3  -2   6    1.99    0.75
  -3   2   6    1.81    0.83
   3   3  -6   78.15    3.88
   3  -3  -6   77.21    3.65
  -3   3  -6   76.03    4.43
  -3  -3  -6   79.20    3.39
  -3  -3  -6   79.18    4.50
   3   3   6   79.94    3.99
  -3  -3   6   83.98    3.37
  -3   3   6   81.40    4.18
  -3   3   6   83.48    4.06
   3  -3   6   81.55    4.00
  -3  -3   6   79.77    3.76
  -3  -3   6   78.12    4.23
   3   3   6   76.41    3.89
   3  -3   6   74.58    4.16
  -4  -3  -6    2.28    0.63
  -4  -3  -6    0.80    0.91
  -3   4  -6    1.30    1.05
   4   3  -6    1.01    0.58
   3  -4  -6    1.41    0.58
  -3   4   6    0.99    0.79
   4   3   6    1.60    0.77
   3  -4   6    0.90    0.85
   3  -4   6    1.39    0.79
   4   3   6    2.02    0.82
  -4  -3   6    1.93    1.02
  -3   4   6    1.06    0.70
  -4  -2  -6   98.58    5.12
  -4  -2  -6   92.79    3.98
  -2   4  -6   91.59    4.91
   4   2  -6   95.27    4.04
   2  -4  -6   94.15    4.32
   4   2   6   84.32    4.32
   4   2   6   87.24    4.19
   2  -4   6   85.85    4.33
  -4  -2   6   90.94    4.00
  -4  -2   6   89.70    4.00
  -2   4   6   88.99    4.58
   2  -4   6   84.52    4.58
  -4  -2   6   89.41    4.63
  -2   4   6   84.77    4.22
  -4  -1  -6  122.68    6.17
   4   1  -6  127.69    5.10
  -4  -1  -6  128.29    5.24
  -1   4  -6  129.24    6.08
   1  -4  -6  127.54    5.71
  -4  -1   6  123.42    5.31
   4   1   6  130.12    5.71
   1  -4   6  120.29    5.76
   4   1   6  124.66    5.16
  -1   4   6  123.80    5.44
   1  -4   6  122.43    5.50
  -4  -1   6  123.67    5.79
  -1   4   6  122.95    5.71
  -4  -1   6  123.59    5.03
  -4   0  -6   64.50    3.99
   0  -4  -6   61.97    3.91
   0   4  -6   63.74    3.79
   0   4   6   65.14    3.39
  -4   0   6   67.91    3.75
   0  -4   6   70.39    3.52
   4   0   6   70.24    3.40
   4   0   6   70.39    2.94
  -4   0   6   65.20    2.90
   4   0   6   67.14    3.68
  -4   0   6   67.11    3.44
   0  -4   6   64.39    3.71
  -1  -4  -6  125.74    5.91
  -4   1  -6  124.43    6.15
   1   4   6  124.46    5.65
   4  -1   6  127.37    5.72
  -4   1   6  123.03    5.67
   4  -1   6  124.42    5.38
   1   4   6  118.18    5.30
  -4   1   6  121.41    5.48
  -1  -4   6  121.72    5.76
  -1  -4   6  117.93    5.34
   2   4  -6   87.75    4.36
   4  -2  -6   73.12    3.64
  -2  -4  -6   97.83    4.91
  -4   2  -6   90.45    4.94
   2   4   6   89.05    4.16
  -4   2   6   82.91    4.60
   4  -2   6   88.36    4.25
  -4   2   6   85.83    4.36
   4  -2   6   88.62    4.49
  -2  -4   6   85.16    4.11
   2   4   6   90.26    4.42
  -2  -4   6   85.57    4.50
  -3  -4  -6    1.14    0.46
  -4   3  -6    0.79    0.99
   3   4  -6    1.10    0.69
  -3  -4  -6    1.73    0.92
   3   4   6    2.02    0.95
  -4   3   6    1.11    0.75
  -4   3   6    2.07    0.88
   4  -3   6    1.20    0.83
   3   4   6    1.81    0.73
  -3  -4   6    0.76    0.85
   4  -3   6    0.83    0.75
  -3  -4   6    1.43    0.74
  -4  -4  -6   49.34    2.30
   4   4  -6   42.66    2.54
  -4   4  -6   48.70    3.45
  -4  -4  -6   52.65    3.54
  -4   4   6   44.40    3.03
   4  -4   6   37.65    2.85
  -4   4   6   44.83    2.75
  -4  -4   6   41.53    2.99
  -4  -4   6   41.33    2.58
   4   4   6   45.20    2.68
   4  -4   6   43.34    2.81
   5   4  -6    1.04    0.48
  -4   5  -6    1.62    1.10
   5   4  -6    0.49    0.58
  -5  -4  -6    0.73    0.96
  -5  -4  -6    1.49    0.60
  -5  -4   6    1.37    0.94
   4  -5   6   -0.04    0.71
   5   4   6    1.25    0.75
   4  -5   6    1.26    0.83
   5   4   6    0.83    0.77
  -4   5   6    0.85    0.62
  -4   5   6    0.54    0.67
  -5  -4   6    0.91    0.64
   3  -5  -6  134.42    5.74
  -5  -3  -6  142.14    5.70
  -5  -3  -6  129.28    6.76
  -3   5  -6  132.11    6.73
   5   3  -6  141.64    5.81
   3  -5   6  146.53    6.32
  -5  -3   6  140.33    6.51
  -3   5   6  136.04    5.94
  -3   5   6  142.92    6.58
   5   3   6  147.79    6.24
   3  -5   6  142.09    6.50
  -5  -3   6  138.63    5.82
   5   3   6  142.75    6.11
  -2   5  -6    4.84    1.28
   5   2  -6    4.68    0.86
  -5  -2  -6    3.72    1.34
  -5  -2  -6    5.52    0.94
   2  -5  -6    4.83    1.00
  -5  -2   6    8.92    1.04
   5   2   6    7.08    1.16
   5   2   6    7.86    1.20
  -2   5   6    8.70    1.41
  -5  -2   6    8.28    1.42
   2  -5   6    7.11    1.33
   2  -5   6    6.75    1.16
   1  -5  -6   50.70    2.97
  -5  -1  -6   47.54    3.41
  -1   5  -6   54.04    3.35
  -5  -1   6   41.73    2.86
  -1   5   6   43.97    2.54
  -1   5   6   43.85    2.97
  -5  -1   6   41.24    2.24
   5   1   6   38.77    2.71
   1  -5   6   37.57    2.81
   1  -5   6   40.84    2.67
   5   1   6   40.93    2.35
   0   5  -6   -0.34    0.65
   0  -5  -6    0.24    0.68
  -5   0  -6    0.53    0.65
   5   0  -6    0.76    0.61
  -5   0  -6    0.33    0.86
  -5   0   6   -0.06    0.33
   5   0   6   -0.42    0.54
   0  -5   6   -0.41    0.48
  -5   0   6   -0.37    0.71
   0   5   6   -0.08    0.60
   0   5   6   -0.35    0.41
   0  -5   6    0.31    0.61
   1   5  -6   53.25    3.18
  -5   1  -6   49.77    3.46
   5  -1  -6   48.95    2.94
  -1  -5  -6   47.06    3.14
   5  -1   6   39.97    2.83
  -1  -5   6   42.95    2.71
   1   5   6   41.10    2.90
  -1  -5   6   43.40    2.97
  -5   1   6   43.86    2.91
  -5   1   6   41.60    2.76
   5  -1   6   41.15    2.64
  -5   2  -6    5.22    1.20
   2   5  -6    5.65    1.15
  -2  -5  -6    5.71    1.38
  -2  -5   6    6.75    1.10
  -2  -5   6    8.81    1.27
   5  -2   6    8.14    1.36
   5  -2   6    8.43    1.22
  -5   2   6    5.99    1.18
  -5   2   6    8.58    1.29
   2   5   6    6.90    1.29
   3   5  -6  139.98    6.21
  -3  -5  -6  149.79    6.95
  -5   3  -6  147.38    7.07
   5  -3   6  138.72    6.25
   3   5   6  141.69    6.46
  -5   3   6  134.12    6.21
   3   5   6  139.00    5.91
  -3  -5   6  138.69    6.50
   5  -3   6  141.53    6.52
  -5   3   6  138.60    6.46
  -3  -5   6  146.07    6.17
   4   5  -6    0.88    0.66
  -5   4  -6    1.32    1.08
  -4  -5  -6    0.59    0.96
   4   5   6    0.54    0.78
   4   5   6    0.46    0.59
  -5   4   6    1.08    0.79
  -4  -5   6    0.09    0.78
   5  -4   6    0.83    0.91
  -5   4   6    0.51    0.62
   5  -4   6    0.84    0.77
  -4  -5   6    0.40    0.68
  -5   5  -6   86.88    5.25
  -5  -5  -6   87.58    3.95
   5   5  -6   78.04    4.12
  -5  -5  -6   84.39    5.19
  -5   5   6  101.05    4.62
   5  -5   6   99.00    4.99
  -5  -5   6   96.88    4.99
   5   5   6   92.11    4.31
   5   5   6  100.39    4.99
  -5  -5   6   96.26    4.54
   5  -5   6  100.50    4.88
  -5   5   6   95.17    5.08
  -6  -5  -6    4.24    0.92
  -6  -5  -6    3.26    1.38
  -5   6  -6    3.23    1.48
  -6  -5   6    3.54    1.01
   5  -6   6    3.60    0.93
  -5   6   6    3.47    0.98
   6   5   6    5.07    0.99
   6   5   6    3.02    1.23
  -6  -5   6    5.37    1.08
   5  -6   6    5.75    1.28
  -5   6   6    3.35    0.90
  -4   6  -6   27.31    2.72
   6   4  -6   29.57    2.03
  -6  -4  -6   29.37    2.85
  -4   6   6   31.98    2.18
   6   4   6   35.15    2.58
   6   4   6   31.90    2.21
  -6  -4   6   28.98    2.53
  -4   6   6   32.70    2.70
   4  -6   6   29.11    2.39
  -6  -4   6   30.69    2.15
   4  -6   6   33.57    2.55
  -6  -3  -6   34.87    2.16
  -3   6  -6   35.43    2.95
  -6  -3  -6   33.27    2.98
   3  -6  -6   36.94    2.24
   6   3  -6   34.72    2.28
  -6  -3   6   30.82    2.61
  -6  -3   6   34.06    2.19
   3  -6   6   34.03    2.65
   6   3   6   36.67    2.47
  -3   6   6   36.34    2.83
   3  -6   6   35.07    2.57
  -3   6   6   33.90    2.24
   6   3   6   34.42    2.43
  -6  -2  -6   47.02    2.63
   2  -6  -6   47.83    2.79
  -6  -2  -6   47.01    3.52
   6   2  -6   47.52    2.79
  -2   6  -6   45.03    3.32
  -6  -2   6   43.64    2.46
   2  -6   6   47.54    2.97
   6   2   6   43.76    2.64
  -2   6   6   46.26    3.21
  -6  -2   6   43.84    3.08
   6   2   6   41.38    2.77
   2  -6   6   44.83    3.08
  -2   6   6   42.12    2.54
  -1   6  -6   34.09    2.75
  -6  -1  -6   33.86    2.95
   1  -6  -6   32.11    2.65
  -6  -1  -6   38.34    2.30
  -6  -1   6   29.46    1.83
   6   1   6   30.84    2.34
   6   1   6   32.60    1.99
   1  -6   6   27.94    2.44
   1  -6   6   30.99    2.32
  -1   6   6   30.59    2.56
  -6  -1   6   36.44    2.60
   0  -6  -6   81.16    4.43
  -6   0  -6   79.72    4.87
   6   0  -6   77.77    4.24
   0   6  -6   78.09    4.54
  -6   0  -6   78.49    4.00
   0  -6   6   83.85    4.27
   0  -6   6   82.99    4.48
  -6   0   6   91.10    4.57
   6   0   6   85.80    4.40
  -6   0   6   88.28    3.55
   0   6   6   87.77    4.65
   0   6   6   88.19    4.19
   1   6  -6   36.20    2.72
  -6   1  -6   35.93    2.38
   6  -1  -6   34.08    2.54
  -6   1  -6   31.74    2.88
  -1  -6  -6   33.46    2.66
  -6   1   6   34.42    2.55
   6  -1   6   35.01    2.55
  -1  -6   6   31.21    2.53
   1   6   6   31.71    2.59
  -1  -6   6   30.84    2.31
   1   6   6   31.47    2.05
  -2  -6  -6   44.71    3.22
   2   6  -6   45.69    3.05
   6  -2  -6   49.46    3.14
  -6   2  -6   46.46    3.49
   6  -2   6   45.17    3.03
  -2  -6   6   44.67    2.82
  -6   2   6   44.06    2.93
   2   6   6   45.74    2.53
   6  -2   6   39.05    2.72
   2   6   6   42.03    2.98
  -2  -6   6   43.91    3.06
   3   6  -6   33.28    2.51
   6  -3  -6   32.81    2.55
  -3  -6  -6   32.18    2.80
  -6   3  -6   31.82    2.94
  -3  -6   6   32.67    2.55
   6  -3   6   34.97    2.65
  -6   3   6   35.55    2.69
   3   6   6   32.67    2.66
  -6   3   6   33.99    2.49
   6  -3   6   35.68    2.47
  -3  -6   6   33.83    2.41
   3   6   6   32.69    2.24
  -6   4  -6   27.99    2.78
  -4  -6  -6   27.81    2.71
   4   6  -6   28.11    2.39
   4   6   6   28.80    2.44
   4   6   6   31.36    2.14
  -4  -6   6   31.36    2.47
  -6   4   6   31.32    2.53
   6  -4   6   27.98    2.32
  -4  -6   6   29.22    2.23
  -6   4   6   31.38    2.31
   6  -4   6   31.65    2.55
  -6   5  -6    2.98    1.37
  -5  -6  -6    4.19    1.54
   5   6  -6    2.52    0.87
  -6   5   6    3.78    1.16
  -5  -6   6    3.57    0.98
  -5  -6   6    3.11    1.09
   6  -5   6    1.69    0.97
   5   6   6    3.36    1.29
   5   6   6    4.22    0.88
  -6   5   6    4.99    1.07
   6  -5   6    3.69    1.22
  -6  -6   6  108.44    5.39
   6  -6   6  122.21    6.27
  -6   6   6  119.08    6.16
   6  -6   6  121.43    5.94
   6   6   6  109.83    5.86
  -6   6   6  119.13    5.40
  -7  -6  -6    3.29    1.36
  -7  -6  -6    2.90    1.05
  -6   7  -6    3.13    1.26
   6  -7   6    6.66    1.36
   7   6   6    6.27    0.97
  -7  -6   6    4.51    1.37
   7   6   6    3.84    1.34
  -6   7   6    2.73    1.01
  -7  -6   6    4.71    1.08
  -6   7   6    5.68    1.02
   6  -7   6    4.89    1.26
  -7  -5  -6   47.34    2.62
  -7  -5  -6   40.57    4.01
   5  -7   6   44.67    3.16
  -7  -5   6   47.68    3.29
  -5   7   6   43.31    2.62
  -7  -5   6   40.05    2.69
   7   5   6   39.95    2.58
   7   5   6   41.58    3.10
  -5   7   6   42.14    3.31
   7   4  -6   23.38    1.97
  -7  -4  -6   22.51    1.80
  -4   7  -6   20.55    2.42
  -7  -4  -6   24.46    2.68
   7   4   6   22.53    2.14
   7   4   6   24.59    1.97
   4  -7   6   20.10    2.35
   4  -7   6   22.56    2.14
  -4   7   6   22.18    1.75
  -7  -4   6   23.55    1.87
  -4   7   6   23.26    2.30
   3  -7  -6   66.47    3.35
  -3   7  -6   61.55    4.16
  -7  -3  -6   67.48    3.39
   7   3  -6   65.81    3.57
  -7  -3  -6   65.93    4.38
   7   3   6   60.64    3.55
   3  -7   6   64.07    3.72
   3  -7   6   62.14    3.82
  -7  -3   6   62.09    3.28
   7   3   6   59.38    3.46
  -3   7   6   58.03    3.88
  -7  -3   6   64.46    3.91
  -3   7   6   61.41    3.43
  -2   7  -6   32.10    2.80
   7   2  -6   27.91    2.20
  -7  -2  -6   28.38    2.73
  -7  -2  -6   29.46    2.11
  -7  -2   6   28.82    2.11
  -2   7   6   32.51    2.73
  -2   7   6   28.34    2.07
   7   2   6   29.91    2.29
   2  -7   6   31.31    2.41
   7   2   6   29.60    2.07
  -7  -2   6   33.68    2.65
   2  -7   6   31.39    2.55
  -1   7  -6   39.25    3.12
  -7  -1  -6   38.19    2.57
   7   1  -6   39.07    2.77
   1  -7  -6   38.71    2.80
  -7  -1  -6   39.71    3.36
  -1   7   6   46.25    2.47
   1  -7   6   46.03    2.92
  -7  -1   6   43.74    2.31
   7   1   6   44.26    2.91
  -1   7   6   47.86    3.24
   1  -7   6   44.31    3.02
  -7  -1   6   47.43    3.16
   7   1   6   50.88    2.56
  -7   0  -6    0.67    1.08
   0  -7  -6   -0.05    0.69
  -7   0  -6    1.30    0.67
   7   0  -6   -0.37    0.51
   0   7  -6   -0.06    0.75
   0  -7   6    0.37    0.75
   0  -7   6   -0.06    0.69
   0   7   6    0.31    0.47
   0   7   6    0.34    0.61
  -7   0   6    0.79    0.42
   7   0   6    0.03    0.51
  -7   0   6    0.20    0.58
   1   7  -6   38.58    3.00
   7  -1  -6   38.97    2.92
  -1  -7  -6   38.45    2.99
  -7   1  -6   42.39    2.73
  -7   1  -6   35.69    3.15
   1   7   6   47.02    2.41
   1   7   6   48.44    3.24
   7  -1   6   48.11    3.09
  -7   1   6   47.98    3.11
  -1  -7   6   50.92    3.17
  -1  -7   6   45.89    2.92
  -7   2  -6   28.95    2.21
  -7   2  -6   28.75    2.85
  -2  -7  -6   30.32    2.69
   2   7  -6   26.76    2.36
   7  -2  -6   31.69    2.57
  -7   2   6   29.19    2.38
  -2  -7   6   29.87    2.34
   7  -2   6   30.85    2.49
   2   7   6   30.44    2.63
   2   7   6   31.51    1.89
  -2  -7   6   27.73    2.41
   7  -3  -6   70.16    4.09
   3   7  -6   66.21    3.79
  -7   3  -6   68.50    4.46
  -3  -7  -6   71.77    4.31
   7  -3   6   61.10    3.68
   7  -3   6   56.21    3.71
  -3  -7   6   60.67    3.80
  -7   3   6   61.33    3.66
   3   7   6   59.49    3.93
  -3  -7   6   59.79    3.58
  -4  -7  -6   20.27    2.38
   7  -4  -6   23.20    2.24
  -7   4  -6   22.12    2.77
   4   7  -6   24.29    2.08
  -4  -7   6   26.34    2.36
  -7   4   6   22.06    2.03
  -4  -7   6   21.20    1.98
  -7   4   6   23.86    2.33
   4   7   6   23.67    2.36
   4   7   6   22.60    1.58
   7  -4   6   22.78    2.13
  -5  -7  -6   40.17    3.65
  -7   5  -6   45.29    3.62
   5   7  -6   43.65    2.78
   5   7   6   43.70    3.23
  -5  -7   6   40.20    2.82
  -7   5   6   45.12    2.88
  -7   5   6   40.36    3.13
   7  -5   6   43.74    3.15
  -6  -7  -6    3.58    1.33
  -7   6  -6    2.19    1.18
  -6  -7   6    7.04    1.28
  -7   6   6    5.37    1.13
   7  -6   6    5.55    1.14
  -6  -7   6    5.50    1.20
   7  -6   6    3.28    1.19
  -7   6   6    3.77    1.44
   6   7   6    5.27    1.56
  -7   7  -6   73.60    4.93
  -7  -7  -6   77.57    5.03
   7   7   6   62.88    4.70
  -7  -7   6   74.26    4.13
  -7   7   6   69.12    3.78
   7  -7   6   70.74    4.34
  -7  -7   6   81.06    4.51
  -7   7   6   77.47    4.80
   7  -7   6   69.69    4.26
  -8  -7  -6    7.24    1.81
  -7   8  -6    6.44    1.73
   7  -8   6    7.32    1.49
  -8  -7   6    9.03    1.41
  -7   8   6    8.32    1.55
   7  -8   6    8.93    1.59
  -8  -7   6    7.65    1.63
  -7   8   6    7.58    1.17
   8   7   6    6.31    1.64
  -8  -6  -6   22.19    2.72
  -6   8  -6   22.41    2.61
  -8  -6  -6   20.62    1.91
   6  -8   6   20.66    2.20
  -6   8   6   26.17    2.68
   6  -8   6   20.73    2.20
  -8  -6   6   19.37    2.21
   8   6   6   21.08    2.36
   8   6   6   20.56    1.65
  -6   8   6   21.08    1.74
  -5   8  -6    5.48    1.60
  -8  -5  -6    4.92    1.10
   8   5  -6    8.05    1.54
  -8  -5  -6    5.67    1.64
   8   5   6    4.42    1.30
  -8  -5   6    1.81    1.14
  -5   8   6    6.99    0.98
   5  -8   6    3.72    1.17
  -8  -5   6    5.22    1.03
   5  -8   6    4.33    1.38
   8   5   6    4.96    0.95
  -5   8   6    5.47    1.48
  -8  -4  -6   45.70    3.76
  -4   8  -6   42.61    3.56
  -8  -4  -6   42.64    2.78
   8   4  -6   42.44    2.88
   8   4   6   50.62    2.99
  -8  -4   6   51.47    2.96
   4  -8   6   52.72    3.39
  -8  -4   6   49.32    3.35
  -4   8   6   47.70    2.65
   4  -8   6   48.87    3.30
   8   4   6   51.98    3.30
   8   3  -6   19.47    1.90
  -8  -3  -6   23.55    1.95
  -8  -3  -6   22.89    2.50
  -3   8   6   23.62    2.49
  -8  -3   6   19.18    2.16
  -3   8   6   22.94    1.66
   8   3   6   21.75    2.00
   8   3   6   24.22    2.03
  -8  -3   6   22.11    1.77
  -8  -2  -6  105.05    4.86
   2  -8  -6  104.31    4.96
  -2   8  -6  106.50    5.74
   8   2  -6  100.98    5.07
  -8  -2   6   98.61    4.51
  -2   8   6   99.38    5.55
   8   2   6  106.01    5.04
   2  -8   6   93.20    5.53
  -2   8   6   97.89    4.52
   2  -8   6  101.21    5.15
   8   2   6  103.22    5.07
   1  -8  -6   13.67    1.63
  -1   8  -6   14.16    1.93
   8   1  -6   13.97    1.65
  -8  -1  -6   12.84    2.05
  -8  -1  -6   14.11    1.55
   1  -8   6   12.20    1.67
  -8  -1   6   14.34    1.21
   8   1   6    9.76    1.42
  -1   8   6   10.33    1.60
   1  -8   6   12.08    1.60
  -1   8   6   13.11    1.17
  -8   0  -6   20.36    1.87
   8   0  -6   22.89    2.16
  -8   0  -6   23.42    2.84
   0   8  -6   24.42    2.38
   0  -8  -6   21.70    2.16
   8   0   6   22.36    2.10
   0  -8   6   24.75    2.18
   0  -8   6   24.01    2.25
   0   8   6   22.22    2.26
  -8   0   6   23.52    2.25
   8  -1  -6   12.61    1.70
  -1  -8  -6   12.06    1.70
  -8   1  -6   13.62    2.09
  -8   1  -6   11.77    1.47
   1   8  -6   16.41    1.91
  -1  -8   6   13.41    1.56
  -1  -8   6   10.00    1.63
  -8   1   6   12.49    1.67
   8  -1   6   12.87    1.64
   1   8   6   11.78    1.82
  -8   2  -6  112.95    5.22
   2   8  -6  102.75    5.37
  -2  -8  -6  105.24    5.61
   8  -2  -6  102.20    5.44
  -8   2   6   98.70    5.16
  -2  -8   6  101.10    5.14
   2   8   6  104.88    5.63
  -2  -8   6   96.25    5.22
   3   8  -6   20.54    2.09
  -8   3  -6   21.29    2.02
  -8   3  -6   21.40    2.56
   8  -3  -6   22.06    2.22
  -3  -8  -6   24.34    2.49
  -3  -8   6   19.34    1.98
  -8   3   6   18.26    1.97
   8  -3   6   21.10    2.34
   3   8   6   20.96    2.35
  -4  -8  -6   38.94    3.59
  -8   4  -6   36.41    3.42
   4   8  -6   42.54    2.99
   8  -4  -6   46.06    3.40
  -4  -8   6   42.36    3.25
  -8   4   6   47.12    3.07
  -4  -8   6   50.69    3.33
   4   8   6   46.56    3.46
   8  -4   6   47.16    3.22
   5   8  -6    5.22    1.18
   8  -5  -6    5.70    1.24
  -8   5  -6    5.01    1.38
  -5  -8  -6    6.55    1.60
   5   8   6    3.24    1.29
   8  -5   6    3.51    1.23
   8  -5   6    4.96    1.23
  -5  -8   6    4.73    1.27
  -8   5   6    2.79    1.08
  -8   5   6    4.48    1.29
  -5  -8   6    4.34    1.06
  -8   6  -6   20.62    2.56
  -6  -8  -6   20.31    2.55
  -6  -8   6   22.38    2.10
   8  -6   6   20.65    2.18
  -6  -8   6   21.28    2.21
   6   8   6   21.85    2.36
   8  -6   6   20.04    2.23
  -8   6   6   19.69    2.33
  -8   7  -6    9.10    1.71
  -7  -8  -6    8.71    1.84
  -8   7   6    7.55    1.47
  -7  -8   6    8.51    1.55
   8  -7   6    7.03    1.47
   7   8   6    5.66    1.39
  -7  -8   6    6.49    1.30
   8  -7   6    5.57    1.43
  -8  -8  -6   90.72    5.65
  -8   8  -6   79.42    5.38
  -8  -8   6   84.24    4.64
  -8   8   6   84.58    4.25
   8  -8   6   85.14    4.94
   8  -8   6   86.92    4.93
   8   8   6   75.97    4.94
  -8   8   6   79.03    5.11
  -8  -8   6   82.84    4.76
  -9  -8  -6    0.73    1.18
  -8   9  -6    1.29    1.23
   8  -9   6    5.51    1.29
   8  -9   6    1.38    1.02
  -8   9   6    1.01    0.96
  -9  -8   6    1.29    1.00
   9   8   6    1.15    1.11
  -9  -8   6    4.45    1.01
  -9  -7  -6   35.54    3.51
  -7   9  -6   37.50    3.54
   7  -9   6   40.47    3.17
  -7   9   6   39.81    3.38
   9   7   6   39.37    3.21
   7  -9   6   41.13    3.21
  -9  -7   6   44.63    2.98
  -9  -7   6   42.37    3.20
  -6   9  -6    9.47    1.91
  -9  -6  -6    7.27    1.45
  -9  -6  -6    8.53    1.94
   6  -9   6    9.61    1.60
  -6   9   6   10.65    1.93
  -9  -6   6    7.68    1.63
  -9  -6   6   10.29    1.42
   9   6   6    7.40    1.60
   6  -9   6    8.88    1.57
   9   5  -6   51.29    3.24
  -9  -5  -6   55.06    4.17
  -9  -5  -6   54.63    3.18
  -5   9  -6   53.31    4.10
   5  -9   6   49.54    3.49
  -5   9   6   51.44    3.85
  -9  -5   6   53.40    3.67
   9   5   6   55.64    3.64
   5  -9   6   54.78    3.60
   9   5   6   51.29    3.07
  -9  -4  -6   53.56    3.16
   9   4  -6   56.43    3.41
  -9  -4  -6   53.74    4.19
  -4   9  -6   52.30    3.99
   9   4   6   50.77    3.37
   4  -9   6   54.36    3.60
  -4   9   6   51.49    3.88
   9   4   6   49.67    3.09
   4  -9   6   48.12    3.41
  -9  -4   6   50.19    3.58
  -9  -4   6   55.42    3.14
   3  -9  -6   26.21    2.24
  -9  -3  -6   22.20    2.68
   9   3  -6   23.90    2.11
  -9  -3  -6   22.23    1.99
  -3   9  -6   22.04    2.52
   9   3   6   24.03    2.07
  -9  -3   6   21.45    2.34
   3  -9   6   23.66    2.30
  -9  -3   6   22.75    1.81
  -3   9   6   22.10    2.49
   3  -9   6   22.35    2.13
   9   3   6   22.03    1.98
   2  -9  -6   20.43    1.95
  -9  -2  -6   22.70    1.97
  -9  -2  -6   22.84    2.67
  -2   9  -6   22.74    2.47
   9   2  -6   21.99    2.09
  -2   9   6   24.44    2.44
  -9  -2   6   23.53    2.35
  -9  -2   6   21.14    1.66
   9   2   6   20.91    1.97
   9   2   6   20.39    2.17
   2  -9   6   20.96    2.15
   2  -9   6   19.19    2.06
   1  -9  -6   68.40    3.90
  -9  -1  -6   67.27    4.60
   9   1  -6   68.81    4.02
  -9  -1  -6   65.52    3.69
  -1   9   6   55.55    4.46
  -9  -1   6   67.83    4.05
   9   1   6   60.42    4.11
   1  -9   6   63.57    3.93
   1  -9   6   68.69    4.00
  -9   0  -6    1.03    1.21
   0   9  -6   -0.28    0.76
   0  -9  -6    0.11    0.70
  -9   0  -6    0.37    0.70
   9   0  -6    0.17    0.53
   0  -9   6   -0.25    0.81
  -9   0   6    0.10    0.86
   0  -9   6    0.40    0.77
   9  -1  -6   61.87    4.04
  -9   1  -6   61.28    3.71
  -9   1  -6   69.20    4.59
   1   9  -6   67.20    4.25
  -1  -9  -6   67.78    4.17
  -1  -9   6   63.60    3.91
  -1  -9   6   62.33    3.83
   9  -1   6   70.63    4.08
  -9   1   6   65.50    4.00
  -2  -9  -6   23.56    2.36
  -9   2  -6   21.54    2.47
   9  -2  -6   18.80    2.07
   2   9  -6   20.46    2.19
   9  -2   6   21.04    2.09
  -2  -9   6   20.85    2.16
  -2  -9   6   23.83    2.19
  -9   2   6   21.11    2.18
  -9   3  -6   25.10    2.25
  -9   3  -6   23.96    2.64
   3   9  -6   24.78    2.30
   9  -3   6   22.01    2.28
  -3  -9   6   20.69    2.04
  -3  -9   6   22.45    2.23
   3   9   6   20.61    2.30
  -9   3   6   23.45    2.25
   9  -4  -6   54.52    3.86
   4   9  -6   52.05    3.42
  -9   4  -6   56.43    4.14
  -4  -9  -6   56.25    4.00
  -9   4  -6   54.83    3.53
   9  -4   6   52.13    3.61
   4   9   6   49.46    3.72
  -4  -9   6   51.27    3.44
  -9   4   6   51.15    3.38
  -4  -9   6   52.49    3.51
   5   9  -6   59.12    3.56
  -9   5  -6   58.49    4.34
  -5  -9  -6   51.55    4.01
  -9   5  -6   57.34    3.68
   9  -5  -6   53.57    3.86
  -9   5   6   54.08    3.45
  -5  -9   6   52.69    3.55
   9  -5   6   58.23    3.70
  -5  -9   6   51.73    3.51
   5   9   6   53.71    3.91
   9  -5   6   51.44    3.61
  -6  -9  -6    6.56    1.77
  -9   6  -6    6.56    1.75
  -9   6   6    7.84    1.33
  -6  -9   6    7.70    1.39
  -6  -9   6    7.97    1.53
   6   9   6    5.37    1.46
  -9   6   6    9.76    1.72
   9  -6   6    9.28    1.65
   9  -6   6   10.95    1.68
  -7  -9  -6   39.19    3.57
  -9   7  -6   40.23    3.64
  -7  -9   6   41.01    2.99
  -7  -9   6   41.32    3.07
   9  -7   6   41.79    3.20
  -9   7   6   36.96    3.25
   9  -7   6   39.94    3.13
  -9   7   6   40.04    2.80
   7   9   6   39.33    3.50
  -9   8  -6    0.86    1.12
  -8  -9  -6    1.62    1.19
   8   9   6   -0.33    1.06
  -9   8   6    1.75    0.71
  -8  -9   6    1.23    0.90
   9  -8   6    2.11    1.06
  -9   8   6    0.89    0.79
   9  -8   6    1.54    0.88
  -8  -9   6    2.09    0.92
  -9  -9  -6   43.44    4.55
  -9   9  -6   48.64    4.10
   9   9   6   47.88    3.86
   9  -9   6   35.75    3.57
  -9  -9   6   43.58    3.56
  -9  -9   6   54.02    3.81
  -9  10  -6   -0.04    1.01
 -10  -9  -6    0.03    0.97
 -10  -9   6    4.92    1.30
  -9  10   6    0.80    0.95
   9 -10   6    1.93    0.93
   9 -10   6    2.14    0.92
  10   9   6    0.44    1.25
  -8  10  -6    8.73    2.30
 -10  -8  -6   13.41    2.19
   8 -10   6   10.95    1.98
 -10  -8   6   18.47    2.05
  10   8   6   16.84    2.22
  -8  10   6   12.62    2.33
  -7  10  -6   14.28    2.28
 -10  -7  -6   12.22    2.21
   7 -10   6   18.94    2.19
 -10  -7   6   19.65    1.91
 -10  -7   6   20.28    2.24
   7 -10   6   18.59    2.12
  10   7   6   19.26    2.27
  -7  10   6   19.87    2.45
 -10  -6  -6   27.37    2.50
  -6  10  -6   26.68    3.05
 -10  -6  -6   32.20    3.25
 -10  -6   6   37.50    3.04
  10   6   6   38.63    3.10
   6 -10   6   35.86    2.87
  -6  10   6   35.12    3.17
   6 -10   6   34.17    2.82
 -10  -6   6   36.22    2.61
 -10  -5  -6   32.20    2.58
 -10  -5  -6   35.98    3.47
  -5  10  -6   34.54    3.36
   5 -10   6   36.70    2.86
 -10  -5   6   34.92    2.93
  10   5   6   32.53    2.79
  -5  10   6   39.81    3.42
  10   5   6   27.45    2.43
   5 -10   6   35.12    2.90
 -10  -5   6   38.36    2.61
 -10  -4  -6   34.19    2.50
  10   4  -6   30.62    2.81
 -10  -4  -6   31.65    3.15
  -4  10  -6   30.94    3.09
   4 -10   6   30.52    2.70
   4 -10   6   33.49    2.75
  10   4   6   32.08    2.70
 -10  -4   6   31.37    2.71
  -4  10   6   31.47    2.99
  10   4   6   35.04    2.48
 -10  -3  -6    7.41    1.88
 -10  -3  -6    6.22    1.21
  10   3  -6    7.58    1.33
  -3  10  -6    4.64    1.48
  10   3   6    7.98    1.40
  -3  10   6    8.86    1.58
 -10  -3   6    9.90    1.15
   3 -10   6    6.64    1.27
   3 -10   6    8.53    1.50
  10   3   6    7.53    1.21
 -10  -3   6    6.51    1.37
  10   2  -6   29.80    2.82
  -2  10  -6   31.61    2.99
   2 -10  -6   27.58    2.33
 -10  -2  -6   29.59    3.08
 -10  -2  -6   28.16    2.34
 -10  -2   6   25.50    1.89
   2 -10   6   28.34    2.54
  -2  10   6   28.69    2.78
  10   2   6   29.32    2.43
 -10  -2   6   27.99    2.53
   2 -10   6   26.63    2.46
 -10  -1  -6    5.55    1.69
   1 -10  -6    6.48    1.28
  -1  10  -6    7.92    1.64
 -10  -1  -6    8.16    1.32
 -10  -1   6    7.75    1.55
  10   1   6    7.41    1.31
  -1  10   6    6.81    1.66
   1 -10   6    5.60    1.32
   1 -10   6    6.89    1.40
   0  10  -6   56.77    3.98
   0 -10  -6   58.68    3.77
 -10   0  -6   57.54    3.50
  10   0  -6   47.24    3.83
 -10   0  -6   61.06    4.39
  10   0   6   51.24    3.50
   0 -10   6   54.22    3.61
   0 -10   6   54.89    3.57
   0  10   6   55.19    3.98
 -10   0   6   51.98    3.64
 -10   1  -6    7.23    1.32
   1  10  -6    6.83    1.48
  10  -1  -6    9.22    1.60
 -10   1  -6    8.08    1.82
   1  10   6    5.50    1.60
  -1 -10   6    7.80    1.42
 -10   1   6    5.38    1.40
  -1 -10   6    5.26    1.31
  10  -1   6    6.08    1.29
  10  -2  -6   29.86    2.75
 -10   2  -6   30.00    3.07
 -10   2  -6   28.39    2.45
  -2 -10  -6   32.16    2.87
   2  10  -6   28.95    2.70
 -10   2   6   27.60    2.47
  -2 -10   6   28.97    2.50
  -2 -10   6   27.59    2.46
   2  10   6   26.70    2.70
  10  -2   6   29.50    2.60
 -10   3  -6    7.97    1.74
 -10   3  -6    8.49    1.45
  -3 -10  -6    5.84    1.49
  10  -3  -6    7.49    1.41
   3  10  -6    5.32    1.50
  -3 -10   6    8.81    1.51
  -3 -10   6    8.20    1.50
 -10   3   6    7.74    1.46
  10  -3   6    8.29    1.56
   3  10   6    7.65    1.77
  10  -4  -6   31.52    2.95
  -4 -10  -6   28.80    2.90
 -10   4  -6   32.32    3.23
 -10   4  -6   31.07    2.66
  -4 -10   6   32.32    2.70
 -10   4   6   32.93    2.67
   4  10   6   34.61    3.19
  -4 -10   6   30.89    2.59
  10  -4   6   31.95    2.79
 -10   5  -6   30.73    2.69
 -10   5  -6   35.87    3.39
  10  -5  -6   31.83    2.99
  -5 -10  -6   36.70    3.26
   5  10   6   32.97    3.11
  -5 -10   6   35.82    2.79
  -5 -10   6   39.31    2.92
  10  -5   6   36.38    2.98
 -10   5   6   35.53    2.77
 -10   6  -6   28.21    3.13
  10  -6  -6   32.47    2.99
  -6 -10  -6   30.65    3.10
 -10   6  -6   28.98    2.66
   6  10   6   34.77    3.19
  10  -6   6   34.61    2.91
 -10   6   6   36.88    2.69
 -10   6   6   35.36    3.18
  -6 -10   6   32.94    2.74
  -6 -10   6   35.14    2.78
 -10   7  -6   15.41    2.35
 -10   7  -6   16.84    2.06
  -7 -10  -6   16.68    2.26
 -10   7   6   18.96    2.26
  -7 -10   6   19.15    2.01
 -10   7   6   18.74    1.90
  10  -7   6   18.90    2.17
  -7 -10   6   17.77    1.97
   7  10   6   19.69    2.59
 -10   8  -6   14.28    2.20
 -10   8  -6   15.01    1.87
  -8 -10  -6   10.93    2.44
  10  -8   6   17.50    2.10
 -10   8   6   11.17    2.05
   8  10   6   14.83    2.32
  10  -8   6   17.31    2.07
 -10   8   6   15.53    1.57
  -9 -10  -6    0.74    1.04
 -10   9  -6   -0.16    0.69
  10  -9   6    1.32    0.83
  -9 -10   6    4.38    1.20
   9  10   6    0.76    1.23
 -10   9   6    1.89    0.84
  -9 -10   6    2.45    0.97
  10  -9   6    2.19    0.95
 -11  -8  -6    9.69    2.18
 -11  -8   6   11.98    1.72
  11   8   6   10.16    1.85
 -11  -8   6   11.36    1.39
   8 -11   6    8.43    1.80
   8 -11   6   11.44    1.64
  -8  11   6    9.12    1.83
  -7  11  -6   26.58    3.05
 -11  -7  -6   27.87    3.13
   7 -11   6   29.41    2.68
   7 -11   6   28.58    2.58
 -11  -7   6   26.47    2.52
 -11  -7   6   24.16    2.54
  11   7   6   25.50    2.64
  -7  11   6   32.16    3.12
 -11  -6  -6    0.62    1.22
 -11  -6   6    1.43    0.92
 -11  -6   6    4.96    1.02
  11   6   6    2.20    1.08
   6 -11   6    1.62    0.92
  -6  11   6    2.58    1.15
  11   5  -6   25.00    2.21
 -11  -5  -6   23.04    2.84
 -11  -5  -6   19.88    2.16
  -5  11  -6   17.96    2.50
  -5  11   6   17.95    2.28
   5 -11   6   18.77    2.16
 -11  -5   6   19.54    1.82
 -11  -5   6   16.74    2.12
  11   5   6   17.39    2.10
   5 -11   6   17.19    1.99
  11   4  -6    3.16    0.91
  -4  11  -6    0.65    1.03
 -11  -4  -6    0.59    1.10
 -11  -4  -6    0.13    0.75
   4 -11   6    2.11    0.85
 -11  -4   6    0.55    0.98
 -11  -4   6    4.33    0.88
  -4  11   6    1.40    0.91
  11   4   6    2.11    0.76
  11   4   6    1.85    1.04
   4 -11   6    1.46    0.97
 -11  -3  -6   57.26    3.64
  11   3  -6   61.26    3.98
  -3  11  -6   59.53    4.42
 -11  -3  -6   60.65    4.61
   3 -11   6   62.05    3.99
  11   3   6   63.12    3.71
  -3  11   6   68.54    4.65
 -11  -3   6   64.20    4.15
   3 -11   6   63.15    3.91
  -2  11  -6   26.40    2.77
 -11  -2  -6   25.13    2.90
   2 -11  -6   26.74    2.61
 -11  -2  -6   22.35    2.17
  11   2  -6   25.03    2.37
 -11  -2   6   23.18    2.46
  -2  11   6   27.44    2.90
  11   2   6   24.39    2.30
   2 -11   6   25.86    2.47
   2 -11   6   21.78    2.22
 -11  -1  -6   27.85    2.92
  11   1  -6   30.30    2.65
  -1  11  -6   26.97    2.83
 -11  -1  -6   30.21    2.51
   1 -11   6   26.57    2.44
  -1  11   6   26.47    2.86
 -11  -1   6   30.12    2.69
   1 -11   6   24.23    2.40
  11   1   6   28.13    2.42
   0 -11  -6    0.57    0.81
 -11   0  -6   -0.41    0.93
  11   0  -6    0.34    0.67
 -11   0  -6    0.59    0.78
   0  11  -6    0.25    0.99
  11   0   6   -0.12    0.58
   0  11   6   -0.09    0.73
 -11   0   6    0.22    0.65
   0 -11   6    0.56    0.84
   0 -11   6   -0.52    0.61
   1  11  -6   27.11    2.74
  11  -1  -6   26.08    2.55
 -11   1  -6   26.48    2.97
 -11   1  -6   28.67    2.47
  -1 -11  -6   25.40    2.53
  11  -1   6   28.58    2.49
  -1 -11   6   29.53    2.52
 -11   1   6   26.57    2.55
   1  11   6   28.66    2.83
  -1 -11   6   25.08    2.44
 -11   2  -6   22.32    2.76
   2  11  -6   24.18    2.54
  11  -2  -6   23.90    2.54
  -2 -11  -6   25.25    2.61
 -11   2  -6   23.79    2.26
  -2 -11   6   23.01    2.28
 -11   2   6   25.30    2.45
  11  -2   6   24.55    2.37
  -2 -11   6   27.37    2.46
   2  11   6   27.18    2.86
   3  11  -6   59.56    4.09
  11  -3  -6   57.02    4.09
 -11   3  -6   57.78    4.47
 -11   3  -6   60.73    3.89
  -3 -11  -6   60.65    4.26
  -3 -11   6   62.33    3.95
  -3 -11   6   63.34    3.86
   3  11   6   62.12    4.41
 -11   3   6   63.86    4.03
  11  -3   6   66.90    4.14
 -11   4  -6    0.28    0.68
 -11   4  -6    2.16    1.07
   4  11  -6    1.91    1.08
  -4 -11  -6    0.75    0.95
  11  -4  -6    0.92    0.69
  -4 -11   6    2.03    1.05
  -4 -11   6    1.48    0.94
   4  11   6    0.85    0.79
  11  -4   6    2.39    1.07
 -11   4   6    0.69    0.90
 -11   5  -6   24.06    2.85
 -11   5  -6   20.87    2.17
  -5 -11  -6   22.58    2.61
   5  11  -6   19.31    2.37
  11  -5  -6   21.72    2.57
  11  -5   6   20.53    2.27
  -5 -11   6   22.49    2.15
   5  11   6   18.50    2.58
 -11   5   6   17.64    2.03
  -5 -11   6   18.64    2.05
  11  -6  -6    1.49    1.08
  -6 -11  -6    2.12    1.08
  -6 -11   6    2.43    0.95
 -11   6   6    2.24    0.94
   6  11   6    0.94    0.98
 -11   6   6    1.08    0.84
  -6 -11   6    4.44    1.24
 -11   7  -6   23.61    2.43
 -11   7  -6   28.15    3.11
  -7 -11  -6   26.40    2.95
 -11   7   6   27.42    2.30
   7  11   6   18.25    2.80
  -7 -11   6   26.85    2.47
  11  -7   6   26.45    2.57
 -11   7   6   28.11    2.85
 -11   8  -6   12.67    1.93
 -11   8  -6    8.83    2.11
  -8 -11  -6   13.87    2.39
 -11   8   6   11.60    1.87
  -8 -11   6   10.88    1.58
  -8 -11   6   13.96    1.65
  11  -8   6   10.24    1.67
   8  11   6    9.29    2.08
 -12  -7   6   19.25    1.84
   7 -12   6   13.27    1.95
  12   7   6   16.34    2.07
 -12  -6  -6   52.79    3.83
 -12  -6  -6   60.01    4.59
  -6  12  -6   53.13    4.38
  12   6   6   54.46    4.20
  -6  12   6   56.23    4.33
   6 -12   6   49.52    3.53
   6 -12   6   50.31    3.76
 -12  -6   6   58.41    3.91
 -12  -5  -6    7.51    1.93
  -5  12  -6    6.86    1.80
  12   5  -6   10.33    1.33
 -12  -5  -6    5.84    1.58
 -12  -5   6   12.73    1.36
  12   5   6    8.68    2.11
  -5  12   6    9.71    1.76
 -12  -5   6    9.18    1.67
   5 -12   6    9.53    1.57
  12   4  -6   39.38    3.00
 -12  -4  -6   39.19    2.93
   4 -12   6   32.94    2.73
  12   4   6   33.00    2.50
 -12  -4   6   35.76    2.45
 -12  -3  -6    6.53    1.40
  12   3  -6    6.06    1.25
  -3  12  -6    5.52    1.40
 -12  -3  -6    6.59    1.94
   3 -12   6    5.51    1.47
  12   3   6    4.69    1.04
  -3  12   6    6.50    1.53
 -12  -3   6    4.32    1.48
   3 -12   6    5.76    1.23
 -12  -2  -6   26.17    2.40
  -2  12  -6   24.50    2.86
 -12  -2  -6   28.59    3.14
  12   2  -6   29.13    2.71
  -2  12   6   36.31    3.27
 -12  -2   6   32.68    2.88
   2 -12   6   31.41    2.76
   2 -12   6   34.14    2.66
 -12  -1  -6   19.77    2.17
  -1  12  -6   16.93    2.30
   1 -12  -6   19.73    2.25
  12   1  -6   21.62    2.20
 -12  -1  -6   17.25    2.47
 -12  -1   6   16.94    2.13
  12   1   6   18.36    1.97
   1 -12   6   18.90    2.13
  -1  12   6   19.56    2.40
   1 -12   6   17.70    1.92
 -12   0  -6   54.66    3.67
   0  12  -6   51.60    4.06
   0 -12  -6   54.33    3.83
 -12   0  -6   61.84    4.54
  12   0  -6   57.45    4.02
   0  12   6   67.17    4.58
  12   0   6   59.83    3.83
   0 -12   6   60.06    3.71
 -12   0   6   56.99    3.94
   0 -12   6   56.58    3.84
 -12   1  -6   19.44    2.46
 -12   1  -6   16.37    1.98
  -1 -12  -6   20.92    2.26
   1  12  -6   16.25    2.22
  12  -1  -6   19.31    2.26
  12  -1   6   18.60    2.07
  -1 -12   6   19.10    1.98
 -12   1   6   18.65    2.16
  -1 -12   6   18.37    2.08
   1  12   6   15.87    2.43
  -2 -12  -6   23.24    2.58
 -12   2  -6   29.23    2.59
 -12   2  -6   24.25    2.96
  12  -2  -6   27.35    2.74
   2  12  -6   28.65    2.80
  -2 -12   6   30.61    2.68
 -12   2   6   29.96    2.72
  -2 -12   6   33.69    2.65
  12  -2   6   32.33    2.76
   2  12   6   31.04    3.18
  12  -3  -6    6.64    1.32
 -12   3  -6    7.73    1.42
 -12   3  -6    6.15    1.83
  -3 -12  -6    5.78    1.35
   3  12  -6    6.77    1.61
  -3 -12   6    7.66    1.27
   3  12   6    5.79    1.51
  12  -3   6    7.11    1.37
  -3 -12   6    6.26    1.33
 -12   3   6    5.02    1.30
   4  12  -6   39.87    3.24
  12  -4  -6   39.13    3.73
  -4 -12  -6   30.90    3.35
  -4 -12   6   39.48    2.81
   4  12   6   28.51    3.50
 -12   4   6   35.08    2.88
  -5 -12  -6    8.70    1.97
 -12   5  -6    7.60    1.88
  12  -5  -6    6.37    1.49
 -12   5  -6    9.14    1.52
   5  12  -6    7.90    2.03
  12  -5   6    8.27    1.54
  -5 -12   6   10.70    1.63
   5  12   6    5.97    1.63
  -5 -12   6   10.73    1.48
 -12   6  -6   61.88    4.00
 -12   6  -6   56.40    4.48
  -6 -12  -6   51.00    4.16
  12  -6   6   53.55    3.86
  -6 -12   6   49.94    3.74
  -6 -12   6   58.00    3.84
   6  12   6   52.31    4.31
  -7 -12   6   16.15    1.83
 -12   7   6   11.69    1.61
 -13  -5  -6   40.57    3.24
  13   5  -6   49.73    3.40
   5 -13   6   40.84    3.36
 -13  -4  -6   10.36    2.02
 -13  -4  -6    9.90    1.68
  13   4  -6   10.12    1.61
  -4  13  -6   11.54    2.02
   4 -13   6    9.40    1.66
  -4  13   6   13.62    2.11
   4 -13   6   15.93    1.84
 -13  -4   6   12.40    2.05
  -3  13  -6   18.36    2.54
 -13  -3  -6   19.91    2.68
 -13  -3  -6   18.14    2.31
   3 -13   6   21.75    2.37
 -13  -3   6   22.84    2.41
  -3  13   6   22.12    2.60
   3 -13   6   15.45    2.11
  -2  13  -6   25.50    2.89
 -13  -2  -6   27.76    3.13
  -2  13   6   29.43    3.08
   2 -13   6   25.12    2.53
 -13  -2   6   27.70    2.71
 -13  -1  -6   42.84    3.88
   1 -13  -6   46.22    3.40
   1 -13   6   42.83    3.30
  -1  13   6   42.39    3.80
 -13  -1   6   40.32    3.33
   1 -13   6   41.40    3.28
   0 -13  -6    1.73    0.97
 -13   0  -6    0.02    1.10
   0  13   6    0.89    1.10
   0 -13   6    1.78    0.89
  13   0   6   -0.17    0.64
   0 -13   6    2.35    0.97
 -13   0   6   -0.39    0.79
 -13   1  -6   40.21    3.76
  -1 -13  -6   36.85    3.45
   1  13   6   41.65    3.79
  13  -1   6   41.06    3.18
 -13   1   6   42.54    3.36
  -1 -13   6   49.94    3.18
  -1 -13   6   42.51    3.33
  13  -2  -6   29.66    2.82
 -13   2  -6   30.33    2.70
 -13   2  -6   23.54    2.91
   2  13   6   23.56    2.95
  -2 -13   6   29.84    2.69
  -2 -13   6   30.28    2.63
 -13   2   6   23.34    2.45
  13  -2   6   28.77    2.60
 -13   3  -6   21.28    2.28
  -3 -13  -6   20.28    2.45
 -13   3  -6   20.06    2.67
  -3 -13   6   21.47    2.28
   3  13   6   21.39    2.62
 -13   3   6   25.23    2.50
  13  -3   6   20.56    2.25
   4  13  -6    6.83    1.91
  13  -4  -6   12.74    1.92
 -13   4  -6   15.20    1.90
 -13   4  -6   12.44    2.33
  -4 -13  -6   13.49    2.00
 -13   4   6   10.66    1.67
  13  -4   6   18.03    2.35
  -4 -13   6   11.71    1.73
   4  13   6   10.60    2.21
  -5 -13   6   46.68    3.13
   0 -14  -6   14.84    2.15
   0 -14   6   11.60    1.61
  -1 -14  -6    1.71    1.03
  -2 -14   6   33.11    2.92
   0   0  -7   53.37    3.42
   0   0   7   51.75    2.61
   0   0   7   50.45    3.27
  -1   0  -7    0.38    0.82
   0  -1  -7    0.17    0.75
   0   1  -7    0.18    0.75
   1   0  -7    0.12    0.65
  -1   0   7    0.65    0.63
  -1   0   7    0.79    0.50
   0   1   7   -0.42    0.61
   0  -1   7    0.03    0.71
   1   0   7    0.54    0.51
   1   0   7   -0.28    0.67
   1  -1  -7   38.07    2.75
  -1   1  -7   37.49    2.98
  -1  -1  -7   38.56    2.97
   1   1  -7   40.34    2.87
  -1  -1   7   41.09    2.86
   1   1   7   44.27    2.92
   1  -1   7   42.55    2.95
  -1   1   7   45.10    2.55
  -1  -1   7   43.45    2.35
  -1   1   7   43.48    2.88
   1  -1   7   41.78    2.46
   2   1  -7   13.02    1.68
   1  -2  -7   12.73    1.63
  -2  -1  -7   14.52    1.91
  -1   2  -7   13.17    1.84
  -2  -1  -7   15.89    1.25
   2   1   7   11.06    1.50
  -2  -1   7   12.20    1.19
  -2  -1   7   13.45    1.72
   1  -2   7   13.11    1.73
   1  -2   7   13.03    1.40
  -1   2   7   13.38    1.55
   0   2  -7   42.75    2.99
   0  -2  -7   44.45    3.07
  -2   0  -7   43.17    3.19
   2   0   7   38.33    2.80
   0  -2   7   39.73    2.42
   0   2   7   42.11    2.79
   0   2   7   37.38    2.48
   0  -2   7   36.94    2.86
  -2   0   7   40.15    2.87
   2  -1  -7   12.51    1.48
  -1  -2  -7   11.93    1.70
  -2   1  -7   13.36    1.83
   1   2  -7   13.97    1.67
  -1  -2   7   13.69    1.45
  -2   1   7   11.76    1.58
  -1  -2   7   14.04    1.73
   2  -1   7   14.89    1.41
   1   2   7   14.24    1.41
   1   2   7   13.17    1.55
  -2   1   7   13.11    1.39
   2  -1   7   12.01    1.51
   2   2  -7   76.70    4.08
  -2   2  -7   79.64    4.63
  -2  -2  -7   76.91    4.51
   2  -2  -7   76.55    4.15
   2  -2   7   76.38    3.87
  -2  -2   7   73.81    4.28
   2  -2   7   75.17    4.28
  -2   2   7   75.70    4.14
  -2  -2   7   70.48    3.60
   2   2   7   82.77    3.89
  -2   2   7   79.44    3.99
   2   2   7   77.68    4.15
   3   2  -7   31.20    2.18
  -3  -2  -7   25.97    2.53
  -2   3  -7   25.86    2.49
  -2   3   7   24.88    2.08
  -3  -2   7   22.85    1.68
   2  -3   7   21.41    1.90
   3   2   7   24.08    2.09
  -2   3   7   21.24    1.98
  -3  -1  -7   81.22    4.67
   1  -3  -7   74.33    4.07
  -1   3  -7   80.26    4.51
   3   1  -7   81.17    4.13
   1  -3   7   66.59    4.50
  -1   3   7   73.02    3.94
  -3  -1   7   64.33    3.29
   3   1   7   74.41    4.10
  -3  -1   7   76.33    4.31
   1  -3   7   73.51    3.79
  -1   3   7   69.49    3.90
  -3   0  -7   -0.31    0.80
  -3   0  -7    0.74    0.48
   0  -3  -7    0.32    0.77
   0   3  -7    0.04    0.70
  -3   0   7    0.37    0.58
   0   3   7    0.54    0.65
  -3   0   7   -0.47    0.58
   3   0   7    0.54    0.78
   0   3   7   -0.30    0.67
   0  -3   7   -0.61    0.58
   0  -3   7   -0.72    0.60
   1   3  -7   74.56    4.14
  -1  -3  -7   71.78    4.27
  -3   1  -7   75.35    4.52
   3  -1   7   69.32    4.06
  -1  -3   7   63.31    4.40
  -1  -3   7   67.33    3.59
  -3   1   7   69.62    3.90
   1   3   7   70.81    3.81
   1   3   7   78.39    4.01
   3  -1   7   71.44    3.64
  -3   1   7   73.20    4.10
  -3   2  -7   23.13    2.43
  -2  -3  -7   22.96    2.43
   2   3  -7   23.24    2.07
   2   3   7   22.87    2.01
  -3   2   7   23.75    2.11
   3  -2   7   19.73    2.31
  -3   2   7   23.08    1.95
  -2  -3   7   23.11    1.77
   2   3   7   21.91    2.10
   3  -2   7   21.54    1.81
  -3   3  -7   53.09    3.75
   3   3  -7   50.05    3.28
  -3  -3  -7   51.15    3.67
  -3  -3   7   48.44    2.80
  -3   3   7   49.70    3.19
  -3   3   7   49.08    3.15
   3  -3   7   50.14    3.36
   3   3   7   49.92    3.11
  -3  -3   7   53.02    3.53
   3  -3   7   51.08    3.08
   3   3   7   51.50    3.29
  -4  -3  -7    1.97    1.16
  -3   4  -7    2.56    1.31
  -3   4   7    1.41    0.83
   3  -4   7    2.82    1.14
  -3   4   7    4.15    1.12
   4   3   7    1.19    1.15
   4   3   7    2.80    0.96
  -4  -3   7    2.36    1.17
  -4  -3   7    2.45    0.81
   3  -4   7    2.19    0.94
  -4  -2  -7   35.16    3.10
  -2   4  -7   34.28    2.99
   2  -4  -7   34.88    2.74
   2  -4   7   40.90    3.03
  -2   4   7   39.79    2.81
  -4  -2   7   40.82    2.93
   4   2   7   31.94    2.53
  -2   4   7   37.13    2.55
  -4  -2   7   42.17    2.30
   2  -4   7   37.65    2.59
   1  -4  -7    7.33    1.30
  -4  -1  -7   10.30    1.15
  -4  -1  -7    8.40    1.53
  -1   4  -7    8.71    1.59
  -1   4   7    9.43    1.38
  -1   4   7    9.41    1.34
   4   1   7    7.07    1.25
   1  -4   7    7.27    1.43
   1  -4   7    8.83    1.24
   0   4  -7   46.07    3.38
  -4   0  -7   55.33    3.89
  -4   0  -7   51.27    2.87
   0  -4  -7   48.26    3.35
   4   0   7   53.88    3.39
   0  -4   7   49.03    3.76
  -4   0   7   55.09    3.25
   0   4   7   54.04    3.15
   0  -4   7   55.08    3.12
   0   4   7   54.07    3.29
   1   4  -7    8.26    1.43
  -4   1  -7    9.85    1.76
  -1  -4  -7    8.16    1.51
  -1  -4   7   10.17    1.25
   1   4   7    8.84    1.48
  -4   1   7    9.44    1.28
  -4   1   7    7.61    1.44
  -1  -4   7   10.87    1.65
   4  -1   7    7.42    1.14
   1   4   7   10.04    1.35
   2   4  -7   37.09    2.76
  -4   2  -7   35.64    3.13
  -2  -4  -7   34.80    3.00
  -2  -4   7   43.47    3.09
   4  -2   7   42.92    3.39
   2   4   7   37.15    2.53
  -4   2   7   37.42    2.64
  -4   2   7   39.47    2.78
   4  -2   7   37.76    2.55
  -2  -4   7   40.20    2.50
   2   4   7   38.62    2.71
   3   4  -7    1.85    0.89
  -3  -4  -7    4.59    1.38
   3   4   7    5.24    1.00
  -3  -4   7    4.28    0.89
  -4   3   7    3.86    1.00
   4  -3   7    2.83    1.05
   3   4   7    2.61    0.95
   4  -3   7    2.48    1.15
  -4   3   7    2.40    0.98
  -3  -4   7    3.23    1.20
  -4   4  -7   36.65    3.18
   4   4   7   31.70    2.36
  -4  -4   7   35.58    2.30
  -4  -4   7   30.76    2.74
   4  -4   7   35.76    2.78
   4   4   7   35.40    2.61
  -4   4   7   33.28    2.65
   4  -4   7   29.16    2.45
  -4   4   7   32.27    2.45
  -5  -4  -7   18.46    2.37
  -4   5  -7   17.17    2.29
   5   4   7   14.00    1.82
   4  -5   7   17.26    2.06
  -5  -4   7   20.42    1.65
  -5  -4   7   18.09    2.10
  -4   5   7   19.54    1.85
   4  -5   7   17.46    2.03
  -4   5   7   17.35    1.97
   5   4   7   17.70    1.75
  -5  -3  -7   53.38    3.99
  -3   5  -7   47.08    3.73
   5   3   7   60.36    3.42
  -5  -3   7   51.11    2.92
  -3   5   7   55.46    3.23
   3  -5   7   53.63    3.65
  -5  -3   7   59.15    3.78
  -3   5   7   60.29    3.73
  -5  -2  -7    3.82    1.69
  -5  -2  -7    9.32    1.09
  -2   5  -7    7.74    1.60
   2  -5   7    5.92    1.18
   5   2   7    5.92    1.11
  -5  -2   7    6.11    1.24
   2  -5   7    5.93    1.38
  -5  -2   7    4.78    0.84
  -2   5   7    6.39    1.02
  -2   5   7    5.24    1.11
  -5  -1  -7   31.15    2.10
   1  -5  -7   30.55    2.43
  -1   5  -7   33.06    2.82
  -5  -1   7   31.77    2.64
   1  -5   7   28.87    2.53
  -5  -1   7   33.58    2.20
   1  -5   7   28.30    2.35
  -1   5   7   28.99    2.16
   5   1   7   28.25    2.62
  -1   5   7   28.70    2.39
   0   5  -7   -0.21    0.67
   0  -5  -7   -0.27    0.68
  -5   0  -7    1.24    0.67
   0  -5   7    0.14    0.82
   0   5   7    0.74    0.61
  -5   0   7    1.02    0.57
   0  -5   7    0.30    0.61
   0   5   7    0.18    0.60
  -5   0   7   -0.19    0.75
   1   5  -7   30.57    2.61
  -1  -5  -7   29.15    2.55
  -5   1  -7   23.70    2.93
  -5   1  -7   35.39    2.34
  -1  -5   7   33.42    2.75
  -5   1   7   27.77    2.43
  -5   1   7   30.09    2.32
  -1  -5   7   32.75    2.32
   1   5   7   28.82    2.14
   1   5   7   28.10    2.42
   5  -1   7   30.72    2.57
   2   5  -7    4.10    1.17
  -2  -5  -7    7.77    1.55
  -5   2  -7    7.29    1.67
   5  -2   7    7.65    1.25
   5  -2   7    5.94    1.31
   2   5   7    5.67    1.08
   2   5   7    6.38    1.22
  -2  -5   7    5.85    1.38
  -2  -5   7    6.28    1.07
  -5   2   7    6.43    1.45
  -5   2   7    6.37    1.17
  -5   3  -7   48.25    3.89
   3   5  -7   54.58    3.35
  -3  -5  -7   44.28    3.88
  -3  -5   7   58.08    3.78
   5  -3   7   54.80    3.35
   3   5   7   57.60    3.57
   5  -3   7   58.35    3.73
  -5   3   7   58.90    3.58
   3   5   7   56.94    3.16
  -3  -5   7   56.86    3.24
  -5   4  -7   20.42    2.48
  -4  -5  -7   18.07    2.31
  -5   4   7   17.12    1.96
   5  -4   7   21.04    2.19
   4   5   7   14.26    1.88
  -4  -5   7   17.98    1.70
   4   5   7   17.54    1.63
  -4  -5   7   15.51    2.01
  -5   5  -7   47.51    3.77
  -5  -5  -7   47.87    3.75
   5  -5   7   46.60    3.17
   5   5   7   40.20    3.14
  -5  -5   7   43.17    3.31
   5  -5   7   46.21    3.29
  -5   5   7   43.96    3.29
  -5  -5   7   42.33    2.74
   5   5   7   43.82    2.76
  -5   6  -7   10.84    2.00
  -6  -5  -7   10.26    1.93
   5  -6   7    9.09    1.63
   5  -6   7    9.33    1.49
  -5   6   7   10.05    1.65
   6   5   7    9.21    1.22
   6   5   7    7.64    1.65
  -6  -5   7    9.89    1.65
  -5   6   7    9.32    1.39
  -4   6  -7   30.45    2.94
  -6  -4  -7   30.02    3.02
  -6  -4   7   28.01    2.05
  -4   6   7   29.44    2.17
  -4   6   7   27.90    2.62
   4  -6   7   29.03    2.47
   4  -6   7   28.36    2.56
  -6  -4   7   26.50    2.49
  -3   6  -7    0.58    1.04
  -6  -3  -7    1.40    1.25
   3  -6   7    0.50    0.77
  -3   6   7    1.18    0.62
   3  -6   7   -0.10    0.82
  -6  -3   7    0.85    0.93
  -6  -2  -7   30.40    3.04
  -2   6  -7   29.77    2.88
  -6  -2  -7   33.03    2.22
   6   2   7   32.25    2.75
   2  -6   7   33.80    2.59
   2  -6   7   34.83    2.84
  -2   6   7   34.23    2.80
  -6  -2   7   34.49    2.82
  -2   6   7   33.47    2.30
  -6  -1  -7    5.67    1.62
   1  -6  -7    6.50    1.29
  -6  -1  -7    6.59    1.13
  -1   6   7    5.87    0.99
   1  -6   7    4.76    1.33
  -1   6   7    6.14    1.31
   6   1   7    6.94    1.26
  -6  -1   7    4.90    1.15
  -6  -1   7    5.41    1.01
   0  -6  -7   76.82    4.47
   0   6  -7   80.51    4.71
  -6   0  -7   81.42    4.09
  -6   0  -7   80.05    5.11
  -6   0   7   69.46    4.36
  -6   0   7   81.79    4.19
   0  -6   7   75.73    4.53
   0   6   7   80.31    3.96
   0  -6   7   84.07    4.73
   0   6   7   86.96    4.70
   6   0   7   76.08    4.40
   1   6  -7    6.44    1.39
  -6   1  -7    6.19    1.13
  -1  -6  -7    6.41    1.52
  -6   1  -7    6.50    1.67
  -6   1   7    7.04    1.20
  -1  -6   7    4.78    1.34
  -1  -6   7    5.34    1.21
   1   6   7    4.22    0.88
  -6   1   7    4.92    1.24
   6  -1   7    4.84    1.21
   1   6   7    2.86    1.15
   2   6  -7   28.95    2.59
  -2  -6  -7   28.94    2.73
  -6   2  -7   29.62    2.33
  -6   2  -7   31.64    3.09
  -6   2   7   32.03    2.54
  -2  -6   7   35.13    2.71
   2   6   7   33.19    2.73
  -6   2   7   34.93    2.69
   2   6   7   34.87    2.23
   6  -2   7   34.18    2.68
  -2  -6   7   34.95    2.87
  -6   3  -7    1.83    1.28
   3   6  -7    0.56    0.87
  -3  -6  -7    1.13    0.96
  -3  -6   7    1.51    0.94
   6  -3   7    1.47    0.84
  -6   3   7    0.63    0.70
   6  -3   7    0.63    0.86
  -6   3   7    1.37    0.83
   3   6   7    3.14    0.76
   3   6   7    0.38    0.70
  -4  -6  -7   31.39    2.95
  -6   4  -7   32.47    3.11
   6  -4   7   28.29    2.45
  -4  -6   7   23.14    2.27
   4   6   7   29.15    2.01
  -6   4   7   30.40    2.60
  -4  -6   7   29.88    2.70
   6  -4   7   29.08    2.60
  -6   4   7   24.24    2.20
   4   6   7   25.43    2.52
  -5  -6  -7   10.45    1.91
   6  -5   7   10.77    1.67
  -6   5   7   10.05    1.46
  -5  -6   7   12.04    1.45
   5   6   7    5.38    1.67
  -5  -6   7    9.59    1.71
   6  -5   7    7.61    1.39
   5   6   7    8.20    1.09
  -6   5   7   10.93    1.68
  -6  -6  -7   76.44    5.09
  -6   6  -7   81.24    5.26
  -6  -6   7   72.30    4.59
  -6   6   7   76.29    4.70
  -6   6   7   75.19    4.10
  -6  -6   7   78.80    4.19
   6  -6   7   73.60    4.41
   6   6   7   77.81    4.60
   6  -6   7   81.06    4.73
  -7  -6  -7    4.96    1.55
  -6   7  -7    3.15    1.44
   6  -7   7    2.47    1.11
  -7  -6   7    3.96    1.01
  -6   7   7    5.46    0.92
   6  -7   7    5.38    1.28
   7   6   7    2.24    1.30
  -7  -6   7    2.51    0.98
  -6   7   7    2.26    0.95
  -5   7  -7   30.59    3.13
  -7  -5  -7   31.96    3.23
  -7  -5   7   30.21    2.27
  -7  -5   7   32.04    2.82
   5  -7   7   33.10    2.66
   5  -7   7   31.05    2.76
   7   5   7   29.07    2.19
  -5   7   7   28.03    2.71
  -7  -4  -7   16.95    2.42
  -4   7  -7   17.43    2.36
   4  -7   7   20.31    2.20
   7   4   7   19.02    1.78
  -7  -4   7   19.80    1.68
   4  -7   7   15.99    1.94
  -7  -4   7   21.04    2.29
  -4   7   7   15.90    1.55
  -4   7   7   20.00    2.27
  -7  -3  -7   30.44    3.11
  -3   7  -7   30.07    2.99
  -7  -3  -7   34.49    2.36
  -7  -3   7   32.50    2.84
  -7  -3   7   31.60    2.23
  -3   7   7   28.69    2.66
   3  -7   7   32.73    2.65
  -3   7   7   31.81    2.17
   3  -7   7   35.59    2.93
  -2   7  -7   47.63    3.65
  -7  -2  -7   51.30    2.88
  -7  -2  -7   47.40    3.85
   2  -7   7   47.37    3.22
  -2   7   7   43.24    3.37
  -7  -2   7   45.88    3.33
  -2   7   7   43.78    2.64
   2  -7   7   47.19    3.42
   7   2   7   42.39    3.02
  -7  -1  -7   52.65    4.08
   1  -7  -7   55.23    3.42
  -1   7  -7   50.83    3.76
  -7  -1  -7   53.39    3.12
  -7  -1   7   55.32    3.71
   7   1   7   50.66    3.38
  -7  -1   7   50.48    3.14
  -1   7   7   48.63    3.53
   1  -7   7   50.32    3.60
  -1   7   7   51.00    2.85
   1  -7   7   53.50    3.42
  -7   0  -7   -0.13    1.06
  -7   0  -7    0.42    0.67
   0  -7  -7    0.61    0.89
   0   7  -7    0.36    0.89
   0   7   7    0.14    0.47
   0  -7   7    0.23    0.82
   7   0   7   -0.07    0.73
   0  -7   7   -0.21    0.74
  -7   0   7    0.36    0.80
   0   7   7    0.44    0.86
  -1  -7  -7   49.92    3.83
  -7   1  -7   57.02    4.18
  -7   1   7   46.32    3.36
   7  -1   7   47.67    3.36
  -1  -7   7   56.07    3.67
  -1  -7   7   41.50    3.03
  -7   1   7   52.35    3.31
  -2  -7  -7   49.55    3.56
   2   7  -7   43.92    3.25
  -7   2  -7   47.27    3.02
  -7   2  -7   48.23    3.78
   7  -2   7   45.23    3.27
  -2  -7   7   47.67    3.42
  -7   2   7   42.69    3.40
   2   7   7   39.17    3.50
  -7   2   7   46.50    3.26
  -2  -7   7   40.52    2.93
  -7   3  -7   29.17    2.97
   3   7  -7   28.92    2.57
  -3  -7  -7   29.93    2.87
  -7   3  -7   31.21    2.49
   7  -3   7   29.58    2.67
  -3  -7   7   33.00    2.55
  -7   3   7   33.98    2.73
  -7   3   7   33.50    2.65
  -3  -7   7   31.80    2.79
   3   7   7   33.29    2.87
  -4  -7  -7   16.99    2.27
  -7   4  -7   20.62    2.58
   7  -4   7   20.59    2.04
  -4  -7   7   19.99    1.92
  -7   4   7   20.31    2.17
   4   7   7   15.57    2.15
   7  -4   7   18.02    2.10
  -7   4   7   19.29    1.99
  -4  -7   7   20.83    2.26
  -5  -7  -7   28.06    2.93
  -7   5  -7   34.34    3.30
  -7   5   7   33.92    2.84
  -7   5   7   30.17    2.41
   7  -5   7   31.70    2.80
   5   7   7   28.36    2.68
  -5  -7   7   31.31    2.42
   7  -5   7   32.11    2.65
  -7   6  -7    2.55    1.31
  -6  -7  -7    2.08    1.23
  -7   6   7    5.30    1.08
  -6  -7   7    3.92    1.06
  -7   6   7    2.36    1.00
  -6  -7   7    3.31    1.17
   7  -6   7    2.99    1.17
   7  -6   7    3.34    1.18
   6   7   7    3.92    1.41
  -7   7  -7   19.13    2.84
  -7  -7  -7   18.36    2.50
   7   7   7   21.14    2.57
   7  -7   7   21.76    2.28
  -7   7   7   24.72    1.99
  -7  -7   7   22.91    2.02
  -7  -7   7   24.06    2.71
  -7   7   7   27.58    2.69
  -7   8  -7    1.45    1.39
  -8  -7  -7    1.91    1.22
   8   7   7   -0.22    1.25
   7  -8   7    0.90    0.92
   7  -8   7    0.76    0.85
  -8  -7   7    1.61    0.95
  -8  -6  -7   41.84    4.13
   6  -8   7   48.14    3.43
  -8  -6   7   46.54    2.97
  -8  -6   7   45.69    3.87
  -6   8   7   51.29    3.80
  -8  -5  -7    2.01    1.33
  -5   8  -7    1.18    1.21
   5  -8   7    1.89    1.02
  -8  -5   7    2.19    1.11
  -8  -5   7    4.15    0.91
   5  -8   7    1.68    1.02
   8   5   7    1.05    0.67
  -5   8   7    1.82    0.85
  -4   8  -7   39.64    3.52
  -8  -4  -7   37.48    3.56
   8   4   7   44.94    2.85
   4  -8   7   40.80    3.21
  -4   8   7   39.57    3.25
   4  -8   7   39.94    3.04
  -8  -4   7   37.72    3.15
  -8  -3  -7    1.71    1.30
  -3   8  -7    6.65    1.62
   3  -8   7    5.28    1.37
  -3   8   7    4.21    1.20
   3  -8   7    7.68    1.35
   8   3   7    4.59    1.01
  -8  -3   7    6.01    1.44
  -8  -2  -7   43.03    3.69
  -2   8  -7   42.60    3.49
   2  -8   7   39.55    3.16
  -8  -2   7   39.91    3.15
   8   2   7   33.90    2.68
   2  -8   7   35.66    2.87
  -2   8   7   42.06    3.33
   8   1  -7    5.97    1.08
   1  -8  -7    2.74    1.18
  -1   8  -7    4.42    1.37
  -8  -1  -7    4.95    1.59
  -8  -1  -7    5.32    1.03
   1  -8   7    5.08    1.18
  -1   8   7    3.56    1.28
   1  -8   7    4.39    1.17
   8   1   7    5.13    1.12
  -8  -1   7    5.33    1.38
   0   8  -7   23.10    2.46
  -8   0  -7   20.15    2.46
  -8   0  -7   21.11    1.92
   0   8   7   15.07    2.10
   0  -8   7   17.56    1.93
  -8   0   7   15.21    2.01
   8   0   7   17.78    1.99
   0  -8   7   15.96    2.04
  -8   1  -7    2.70    1.41
  -1  -8  -7    4.34    1.35
  -8   1  -7    3.01    1.06
   1   8  -7    2.86    1.29
  -8   1   7    3.00    1.19
  -8   1   7    6.87    1.23
   8  -1   7    3.24    1.17
  -1  -8   7    2.96    1.13
  -1  -8   7    4.37    1.09
   1   8   7    4.29    1.16
   2   8  -7   40.51    3.17
  -8   2  -7   40.17    3.63
  -8   2  -7   41.93    2.89
  -2  -8  -7   47.38    3.43
  -8   2   7   37.95    3.00
   2   8   7   37.93    3.18
  -8   2   7   39.01    3.02
   8  -2   7   38.22    3.03
  -2  -8   7   38.01    3.06
  -2  -8   7   37.68    2.85
  -8   3  -7    5.31    1.18
  -8   3  -7    4.91    1.58
   3   8  -7    4.24    1.52
  -3  -8  -7    3.71    1.34
  -3  -8   7    5.69    1.19
   8  -3   7    4.55    1.24
  -3  -8   7    3.86    1.28
  -8   3   7    4.56    1.16
   3   8   7    1.95    1.18
  -8   3   7    4.79    1.00
  -8   4  -7   35.89    3.52
  -8   4  -7   37.04    2.85
  -4  -8  -7   39.91    3.42
  -8   4   7   40.89    3.15
  -4  -8   7   42.08    3.21
   8  -4   7   41.30    3.21
  -4  -8   7   41.05    2.89
   4   8   7   39.21    3.32
  -8   4   7   38.72    2.91
  -8   5  -7    3.82    1.04
  -8   5  -7    3.09    1.57
  -5  -8  -7    2.73    1.34
   5   8   7    1.66    1.24
  -5  -8   7    2.23    0.88
  -8   5   7    1.96    0.73
   8  -5   7    2.15    1.10
  -5  -8   7    1.47    1.00
   8  -5   7    1.92    0.92
  -8   5   7    1.59    0.84
  -6  -8  -7   42.51    3.74
  -8   6  -7   39.20    3.94
  -8   6   7   42.80    2.92
  -6  -8   7   46.14    3.14
   8  -6   7   44.95    3.28
  -8   6   7   41.35    3.37
   6   8   7   45.48    3.61
  -6  -8   7   48.90    3.80
  -7  -8  -7    0.36    1.20
  -8   7  -7    0.38    1.15
   8  -7   7    0.65    1.01
  -7  -8   7    0.13    0.80
   8  -7   7    2.30    1.10
   7   8   7   -0.52    1.07
  -8  -8  -7   32.95    3.39
  -8   8  -7   29.00    3.24
  -8   8   7   32.50    3.05
   8  -8   7   34.36    2.93
  -8  -8   7   36.49    2.68
   8  -8   7   37.19    3.09
  -8  -8   7   40.80    3.14
   9   8   7   -0.70    1.43
  -9  -7  -7   27.86    3.33
  -7   9  -7   22.30    3.10
   7  -9   7   22.06    2.58
  -9  -7   7   26.39    2.91
  -9  -7   7   23.52    2.23
  -7   9   7   28.41    2.81
  -6   9  -7    1.59    1.26
  -9  -6  -7    1.30    1.16
   6  -9   7    1.19    0.79
   6  -9   7    4.49    1.26
  -6   9   7    1.64    0.84
  -9  -6   7    2.90    1.15
  -9  -5   7   42.69    2.98
  -5   9   7   45.16    3.61
  -4   9  -7    2.65    1.40
   9   4   7    5.70    0.98
   4  -9   7    5.63    1.41
  -4   9   7    6.64    1.51
   4  -9   7    3.86    1.09
  -9  -4   7    6.22    1.72
  -9  -3  -7   22.33    2.79
  -9  -3  -7   23.45    2.06
  -3   9  -7   17.37    2.37
  -9  -3   7   19.13    2.20
   3  -9   7   18.36    2.17
  -3   9   7   19.32    2.29
   3  -9   7   18.38    2.09
  -2   9  -7   12.08    1.95
  -9  -2  -7   11.18    1.62
  -9  -2  -7    9.00    2.01
  -2   9   7    9.61    1.75
   2  -9   7   11.27    1.73
   2  -9   7   11.09    1.62
   9   2   7   10.90    1.48
  -9  -2   7   11.11    1.77
  -9  -1  -7   49.10    3.22
  -1   9  -7   47.88    3.85
  -9  -1  -7   49.19    4.03
   9   1  -7   52.10    3.45
   9   1   7   51.02    3.44
   1  -9   7   58.13    3.82
  -1   9   7   58.52    4.04
   1  -9   7   49.56    3.45
  -9  -1   7   50.75    3.66
  -9   0  -7    0.25    0.70
  -9   0  -7    0.96    1.15
   0   9  -7    0.96    0.92
   0  -9  -7    0.71    0.94
   9   0  -7    1.46    0.85
   0  -9   7    0.20    0.78
   0  -9   7    0.18    0.72
  -9   0   7   -1.03    0.69
   9   0   7    0.17    0.66
   0   9   7   -0.07    0.66
  -1  -9  -7   51.89    3.75
   1   9  -7   50.92    3.76
  -9   1  -7   49.13    3.25
   9  -1  -7   48.29    3.46
  -9   1  -7   48.92    4.13
  -1  -9   7   57.76    3.60
   1   9   7   49.87    3.83
  -9   1   7   55.52    3.71
  -1  -9   7   53.22    3.69
  -9   2  -7   12.53    1.56
  -2  -9  -7   12.32    1.85
   2   9  -7   10.83    1.83
   9  -2  -7   10.99    1.57
  -9   2  -7    9.81    2.05
  -2  -9   7   12.85    1.84
  -2  -9   7   11.31    1.59
  -9   2   7   13.94    1.78
   2   9   7    8.58    1.61
   9  -2   7   10.00    1.60
  -9   2   7   11.65    1.72
   3   9  -7   21.75    2.47
  -9   3  -7   18.82    2.45
  -3  -9  -7   23.64    2.57
  -9   3  -7   21.44    2.10
  -9   3   7   18.72    2.06
   9  -3   7   19.86    2.19
  -9   3   7   21.28    2.18
  -3  -9   7   17.98    2.11
  -3  -9   7   17.68    1.93
   3   9   7   17.82    2.31
  -9   4  -7    4.09    1.05
  -9   4  -7    1.08    1.32
  -4  -9  -7    5.31    1.57
  -4  -9   7    4.03    1.27
  -9   4   7    7.21    1.23
   9  -4   7    6.82    1.57
  -4  -9   7    7.26    1.26
  -9   4   7    4.24    1.18
   4   9   7    2.90    1.37
  -9   5  -7   42.93    3.46
  -5  -9  -7   45.11    4.00
  -5  -9   7   41.32    3.06
  -9   5   7   42.32    3.40
  -9   5   7   48.69    3.20
   5   9   7   45.64    3.70
   9  -5   7   41.02    3.72
  -6  -9  -7    1.73    1.19
  -9   6  -7    0.43    1.23
  -9   6  -7    1.97    0.96
  -9   6   7    3.84    1.00
  -6  -9   7    2.16    0.98
   6   9   7    0.05    1.15
   9  -6   7    1.73    0.96
  -9   7  -7   23.96    2.41
  -7  -9  -7   26.28    2.90
  -7  -9   7   28.52    2.52
  -9   7   7   33.70    2.99
   7   9   7   18.19    2.58
  -7  -9   7   26.01    2.28
  -6  10   7   28.57    3.22
 -10  -5  -7   12.83    2.13
  -5  10  -7   12.59    2.19
   5 -10   7    9.22    1.61
 -10  -5   7   12.74    1.91
  -5  10   7    9.66    1.68
   5 -10   7   10.35    1.61
  -4  10  -7   30.70    3.20
 -10  -4  -7   26.16    3.11
   4 -10   7   32.18    2.82
  10   4   7   31.47    2.36
  -4  10   7   34.68    3.20
 -10  -4   7   30.81    2.89
   4 -10   7   33.37    2.78
 -10  -3  -7    0.19    1.19
 -10  -3  -7    0.60    0.98
   3 -10   7    1.29    0.83
 -10  -3   7    0.42    0.91
  10   3   7    1.43    0.60
   3 -10   7    0.47    0.89
 -10  -2  -7   26.04    2.22
  -2  10  -7   22.12    2.68
  -2  10   7   26.03    2.78
  10   2   7   25.48    2.24
   2 -10   7   27.38    2.87
  -1  10  -7   32.61    3.13
 -10  -1  -7   36.01    2.61
  10   1  -7   32.99    2.68
   1 -10   7   31.37    2.98
  10   1   7   32.80    2.71
   1 -10   7   33.29    2.84
  -1  10   7   32.05    3.10
   0  10  -7   16.84    2.23
 -10   0  -7   17.57    1.98
  10   0  -7   18.03    2.00
   0 -10  -7   18.25    2.32
 -10   0   7   17.93    2.36
  10   0   7   21.86    2.18
   0 -10   7   23.18    2.30
   0  10   7   19.25    2.39
   0 -10   7   20.21    2.06
   1  10  -7   37.01    3.15
  -1 -10  -7   33.83    2.95
 -10   1  -7   33.59    2.60
  10  -1   7   34.73    2.81
   1  10   7   29.19    2.91
  -1 -10   7   34.09    2.76
 -10   1   7   29.07    3.00
  -1 -10   7   32.23    2.80
  -2 -10  -7   24.35    2.63
   2  10  -7   27.20    2.68
 -10   2  -7   28.59    2.40
  -2 -10   7   25.67    2.74
   2  10   7   22.74    2.65
 -10   3  -7    4.10    1.14
   3  10  -7   -1.43    1.02
  -3 -10  -7    0.46    0.84
 -10   3  -7    1.09    1.08
  10  -3   7    2.16    1.10
   3  10   7   -0.67    0.86
 -10   4  -7   33.90    2.74
 -10   4  -7   28.92    3.21
  10  -4   7   29.89    2.75
  -4 -10   7   31.77    2.76
  -4 -10   7   33.51    3.02
 -10   5  -7   12.96    2.09
 -10   5  -7   13.61    1.74
  -5 -10  -7   14.73    2.12
 -10   5   7   15.02    1.89
 -10   5   7   11.43    1.54
  -5 -10   7   13.85    1.83
   5  10   7    8.61    2.07
  -5 -10   7   10.27    1.58
  10  -5   7   10.05    1.73
 -10   6   7   28.91    2.38
  -6 -10   7   28.72    2.50
  -6 -10   7   26.19    2.74
   6  10   7   26.90    2.97
  11   4   7    2.83    0.95
  -3  11  -7   46.82    3.99
  -3  11   7   57.30    4.23
  11   3   7   54.87    3.41
   3 -11   7   52.10    3.63
   3 -11   7   47.61    3.91
 -11  -2  -7    0.88    0.95
  -2  11  -7    0.99    1.09
  -2  11   7    0.59    0.99
   2 -11   7    1.29    0.83
 -11  -2   7    0.36    0.93
  11   2   7    1.16    0.85
   2 -11   7    0.92    0.77
 -11  -1  -7   20.08    2.72
  11   1  -7   20.08    2.26
  -1  11  -7   18.24    2.43
   1 -11   7   17.50    2.05
   1 -11   7   21.84    2.22
 -11  -1   7   19.09    2.23
  -1  11   7   20.90    2.55
 -11   0  -7    0.42    1.03
   0  11   7    0.35    1.03
 -11   0   7   -0.77    0.71
   0 -11   7   -0.41    0.69
   0 -11   7    1.55    0.90
  11   0   7    0.12    0.58
 -11   1  -7   19.50    2.28
 -11   1  -7   16.67    2.39
  -1 -11   7   18.94    2.07
  -1 -11   7   20.06    2.12
  11  -1   7   19.25    2.09
   1  11   7   17.17    2.25
 -11   1   7   20.78    2.25
 -11   2  -7    2.45    0.89
 -11   2  -7    0.23    1.13
  11  -2  -7    1.27    0.82
   2  11   7    0.02    1.05
  -2 -11   7    0.54    0.71
 -11   2   7    1.11    0.93
  -2 -11   7    1.74    0.88
  11  -2   7    0.97    0.76
 -11   3  -7   61.53    3.87
  11  -3  -7   58.67    4.11
 -11   3  -7   70.02    5.42
  -3 -11  -7   53.81    4.07
  -3 -11   7   57.73    3.85
  -3 -11   7   60.95    3.90
   3  11   7   54.31    4.28
  11  -3   7   60.63    4.44
 -11   3   7   54.03    3.80
  -4 -11  -7    5.63    1.37
  -4 -11   7    7.98    1.42
 -11   4   7    7.59    1.30
  12   1  -7    7.59    1.16
  12   0  -7   27.68    2.88
  -1 -12  -7    6.72    1.82
   0   0   8   94.64    5.12
  -1   0  -8   -0.73    0.83
   0  -1  -8    0.05    1.12
   1   0   8    0.23    0.74
  -1   0   8    0.03    0.70
   0   1   8    0.44    0.68
   0  -1   8    0.06    0.71
  -1  -1  -8   51.44    3.55
  -1   1  -8   50.19    3.56
  -1   1   8   45.47    3.20
   1  -1   8   42.59    3.22
   1   1   8   44.65    3.18
  -1  -1   8   43.56    3.26
  -2  -1  -8    3.85    1.51
  -2  -1   8    8.51    1.48
  -1   2   8    8.17    1.34
   2   1   8    9.40    1.47
   1  -2   8    6.36    1.36
   0  -2  -8   43.91    3.28
  -2   0  -8   41.79    3.32
   0  -2   8   41.37    3.09
  -2   0   8   40.56    3.05
   2   0   8   40.51    3.03
   0   2   8   35.53    2.80
  -1  -2  -8    5.59    1.43
  -2   1  -8    2.73    1.37
   1   2  -8    3.65    1.47
   2  -1   8    6.59    1.33
  -1  -2   8   10.07    1.57
   1   2   8   10.28    1.46
  -2   1   8    6.87    1.34
  -2   2  -8   37.38    3.21
  -2  -2  -8   37.92    3.24
   2  -2   8   42.36    3.12
   2   2   8   38.48    2.87
  -2   2   8   40.33    2.96
   2  -2   8   41.34    2.59
  -2  -2   8   41.72    3.17
  -3  -2  -8    1.31    1.09
  -2   3  -8    1.95    1.03
   2  -3   8    0.26    0.63
   2  -3   8    1.08    0.77
  -2   3   8    0.72    0.74
  -3  -2   8    1.39    0.90
   3   2   8    1.54    0.78
  -1   3  -8   22.83    2.43
  -3  -1  -8   22.78    2.56
  -3  -1   8   25.98    2.39
  -1   3   8   25.45    2.22
   1  -3   8   25.68    2.47
   3   1   8   26.79    2.35
  -3   0  -8   -0.34    0.84
   0   3  -8   -0.51    0.91
   0  -3   8   -0.12    0.80
   0  -3   8    1.09    0.68
  -3   0   8   -0.91    0.57
   0   3   8    0.12    0.60
   3   0   8   -0.05    0.61
  -3   1  -8   21.93    2.53
  -1  -3  -8   23.58    2.45
   3  -1   8   26.69    2.42
   1   3   8   24.01    2.16
  -1  -3   8   28.93    2.57
  -3   1   8   26.56    2.33
  -3   2  -8    1.99    1.29
  -2  -3  -8    0.66    1.06
   3  -2   8    0.78    0.62
   2   3   8    1.10    0.68
  -2  -3   8    1.40    0.95
  -3   2   8    1.04    0.67
  -3  -3  -8   57.43    4.10
  -3   3  -8   58.93    4.16
  -3  -3   8   59.45    3.93
  -3   3   8   59.15    3.58
   3  -3   8   59.17    3.89
   3   3   8   48.36    3.31
  -3   4  -8    0.40    1.07
  -4  -3  -8   -0.63    0.98
  -3   4   8    1.03    0.65
  -4  -3   8    0.69    0.84
   3  -4   8    0.85    0.93
   3  -4   8    0.82    0.65
   4   3   8    1.31    0.66
  -4  -2  -8   25.77    2.84
  -2   4  -8   23.53    2.66
   2  -4   8   24.56    2.42
  -2   4   8   21.82    2.01
   4   2   8   22.42    2.10
  -4  -2   8   22.86    2.33
  -1   4  -8   36.80    3.05
  -4  -1  -8   36.53    3.23
   4   1   8   33.78    2.69
   1  -4   8   34.70    2.96
  -4  -1   8   36.10    2.90
  -1   4   8   30.97    2.53
  -4   0  -8   42.69    3.62
   0   4  -8   44.20    3.39
   0  -4   8   43.60    3.34
   0   4   8   42.65    2.92
  -4   0   8   43.64    3.23
   4   0   8   48.19    3.31
   1   4  -8   35.79    2.97
  -4   1  -8   30.68    3.04
  -1  -4  -8   35.79    2.96
  -1  -4   8   30.67    2.75
  -4   1   8   33.00    2.68
  -1  -4   8   30.55    2.26
   1   4   8   35.25    2.50
   4  -1   8   29.66    2.64
  -2  -4  -8   23.88    2.64
  -4   2  -8   27.38    2.07
  -4   2  -8   27.38    2.82
  -2  -4   8   17.89    1.86
  -4   2   8   22.06    2.16
   4  -2   8   22.09    2.30
   2   4   8   19.87    1.93
  -2  -4   8   21.92    2.39
  -3  -4  -8    0.75    1.23
  -4   3  -8    1.69    1.15
   4  -3   8    1.08    0.77
  -3  -4   8    1.32    0.92
  -4   3   8    1.95    0.85
   4  -3   8    0.67    0.61
   3   4   8    1.43    0.73
  -4   4  -8   17.41    2.37
  -4  -4  -8   21.35    2.48
   4  -4   8   16.40    2.07
  -4   4   8   17.96    2.10
  -4  -4   8   16.39    2.31
  -4   4   8   19.32    1.88
  -4   5  -8    2.39    1.26
  -5  -4  -8    4.07    1.49
   5   4   8    5.50    0.99
   4  -5   8    2.79    1.31
   4  -5   8    4.37    1.05
  -4   5   8    2.23    1.14
  -4   5   8    4.16    0.88
  -5  -3  -8   52.65    4.01
  -3   5  -8   42.93    3.62
  -3   5   8   42.59    3.27
   3  -5   8   45.82    3.10
  -3   5   8   46.81    3.00
  -5  -3   8   45.14    3.79
   5   3   8   49.95    3.16
   3  -5   8   43.24    3.79
  -2   5  -8    6.97    1.73
  -5  -2  -8    5.83    1.64
   2  -5   8    6.98    1.21
   5   2   8    8.76    1.38
   2  -5   8    5.93    1.36
  -5  -2   8    7.98    1.45
  -2   5   8    5.90    1.47
  -1   5  -8   18.87    2.35
  -5  -1  -8   18.55    2.38
   5   1   8   13.42    1.67
  -1   5   8   15.52    1.56
  -5  -1   8   13.41    1.82
   1  -5   8   11.05    1.76
   1  -5   8   14.92    1.67
   0   5  -8   -0.37    0.91
  -5   0  -8   -0.54    1.02
   0  -5   8   -0.29    0.78
  -5   0   8    0.12    0.75
   0  -5   8    1.08    0.71
   0   5   8    1.28    0.65
   5   0   8   -0.23    0.60
  -5   1  -8   20.04    3.10
  -5   1  -8   19.24    2.43
  -1  -5  -8   15.99    2.13
   1   5  -8   18.27    2.35
  -1  -5   8   15.11    1.60
   5  -1   8   11.46    1.68
  -1  -5   8   15.45    1.92
   1   5   8   11.40    1.45
  -5   1   8   12.44    1.72
  -5   2  -8    4.07    1.53
  -2  -5  -8    2.89    1.27
  -5   2  -8    7.54    1.25
   5  -2   8    6.04    1.18
  -5   2   8    5.99    1.20
  -2  -5   8    7.31    1.13
  -2  -5   8    8.76    1.53
  -5   3  -8   53.15    3.21
  -5   3  -8   44.90    3.80
  -3  -5  -8   48.76    3.82
   5  -3   8   48.82    3.48
  -5   3   8   46.29    3.23
  -3  -5   8   46.78    3.97
  -4  -5  -8    3.16    1.33
  -5   4  -8    1.63    1.05
  -5   4   8    5.98    0.98
   5  -4   8    3.99    0.91
  -4  -5   8    1.41    1.09
  -5   4   8    2.25    1.22
   5  -5   8   85.69    5.03
  -5  -5   8   86.83    5.15
   5  -5   8   81.78    4.97
  -5   5   8   87.27    4.57
  -6  -5  -8    1.50    1.26
  -5   6  -8    1.16    1.08
   5  -6   8    0.50    0.61
  -5   6   8    3.75    0.73
  -6  -5   8    2.14    0.95
   5  -6   8    2.37    1.04
  -6  -4  -8   24.13    3.31
  -4   6   8   30.97    2.33
   4  -6   8   32.73    2.92
  -6  -4   8   31.16    2.85
  -4   6   8   32.99    2.82
  -3   6  -8   10.62    1.87
  -6  -3   8   12.01    1.79
  -3   6   8   13.98    1.41
  -3   6   8   14.40    1.95
   3  -6   8    9.88    1.72
   6   3   8   14.02    1.60
  -6  -2  -8   31.67    3.12
  -2   6  -8   28.27    2.83
  -2   6   8   29.76    2.70
  -2   6   8   26.14    2.03
   2  -6   8   27.24    2.30
   6   2   8   24.70    2.27
  -6  -1  -8   11.72    2.04
  -1   6  -8    8.65    1.65
   1  -6   8   10.58    1.37
  -1   6   8   10.34    1.81
  -6  -1   8   10.55    1.83
   6   1   8   13.79    1.71
  -6   0  -8   45.77    3.93
   0   6  -8   49.46    3.68
   6   0   8   59.29    3.69
   0   6   8   51.12    3.73
  -6   0   8   58.13    4.17
   1   6  -8   11.79    2.16
  -6   1  -8   12.33    1.78
  -6   1  -8    9.89    1.94
  -1  -6  -8   10.03    2.03
  -6   1   8   10.49    1.50
   6  -1   8   10.98    1.56
  -1  -6   8   10.06    1.40
  -2  -6  -8   27.54    2.83
  -6   2  -8   33.24    2.47
  -6   2   8   23.91    2.29
  -2  -6   8   27.04    2.20
  -3  -6  -8   12.50    2.00
  -6   3  -8   14.51    1.67
  -3  -6   8   12.49    1.87
  -3  -6   8   12.24    1.36
   6  -3   8   16.36    2.20
  -6   3   8   11.50    1.57
  -6   4  -8   27.43    2.63
  -6   4  -8   35.42    3.36
  -4  -6   8   32.41    2.86
   6  -4   8   33.82    2.88
  -4  -6   8   35.32    2.43
  -6   4   8   39.43    3.06
  -5  -6  -8    1.23    1.01
  -6   5  -8    2.56    1.34
   6  -5   8    1.50    0.88
   6  -5   8    0.97    0.96
  -5  -6   8    3.19    1.14
  -6  -6  -8   10.22    1.90
  -6   6   8    9.12    1.47
   6  -6   8    7.98    1.37
  -6   6   8   14.04    1.48
  -5   7   8   24.27    2.56
  -4   7  -8    8.79    1.83
  -7  -4  -8    6.58    1.75
  -4   7   8    9.53    1.73
   4  -7   8    9.79    1.85
   4  -7   8   12.47    1.56
  -7  -3  -8   20.17    2.60
  -3   7  -8   12.44    2.46
  -7  -3   8   17.70    2.17
  -3   7   8   17.16    2.33
   3  -7   8   19.75    2.23
  -7  -2  -8   17.09    2.42
  -2   7   8   16.35    2.05
   2  -7   8   16.60    2.07
  -7  -2   8   15.05    1.98
  -1   7  -8   38.03    3.39
   1  -7   8   50.97    3.63
  -7  -1   8   50.21    3.53
  -1   7   8   42.99    3.63
   0   7  -8   -0.91    1.05
  -7   0  -8    1.03    1.36
  -7   0   8   -0.64    0.58
   0   7   8   -1.56    0.95
   0  -7   8    0.18    0.80
  -7   1  -8   48.61    3.04
  -7   1  -8   40.20    3.70
   1   7  -8   33.91    3.48
   7  -1   8   45.22    3.22
   1   7   8   44.43    3.64
  -1  -7   8   43.20    3.42
  -7   1   8   33.75    3.21
  -1  -7   8   45.36    3.02
  -7   2  -8   17.92    1.82
  -7   2  -8   17.25    2.49
  -2  -7   8   15.62    2.06
   7  -2   8   15.76    1.93
  -7   2   8   13.64    1.71
  -2  -7   8   14.92    1.62
  -7   3  -8   16.52    2.45
   7  -3   8   17.87    2.05
  -3  -7   8   16.67    2.13
  -7   3   8   19.60    1.95
  -4  -7  -8   10.26    1.92
  -7   4  -8    7.73    1.83
  -7   4  -8   11.99    1.61
  -4  -7   8   10.49    1.98
  -7   4   8   12.86    1.58
   7  -4   8   10.01    1.77
  -7   5  -8   23.45    2.15
  -5  -7  -8   18.91    2.43
  -7   5   8   22.81    2.33
  -4   8   8   42.32    3.82
  -3   8  -8    5.56    1.62
  -3   8   8    8.52    1.72
  -2   8  -8   25.03    2.79
  -8  -2  -8   27.69    3.37
   2  -8   8   26.39    2.32
   8   2   8   26.90    2.33
  -2   8   8   25.57    2.59
  -8  -1  -8    4.36    1.58
  -1   8  -8    4.17    1.65
   1  -8   8    7.04    1.12
  -8  -1   8    1.93    1.08
   8   1   8    6.40    1.15
   1  -8   8    5.24    1.47
  -8   0  -8   32.62    3.34
   0  -8   8   34.78    2.71
  -8   0   8   36.03    2.98
   0  -8   8   38.25    3.13
   8   0   8   29.60    2.60
  -8   1  -8    3.48    1.54
  -1  -8   8    5.02    1.09
  -8   1   8    4.42    1.17
  -1  -8   8    7.08    1.65
   8  -1   8    4.78    1.23
  -8   2  -8   24.22    3.15
  -8   2  -8   26.08    2.28
  -8   2   8   23.21    2.30
   8  -2   8   22.52    2.36
  -2  -8   8   25.67    2.92
  -8   3  -8   11.67    1.64
  -3  -8  -8   10.14    1.74
  -3  -8   8    8.31    1.15
  -8   4   8   44.84    3.52
   0   9   8   -0.28    1.08
   0   0   0    0.00    0.00
;
_shelx_hkl_checksum              89901
loop_
_space_group_symop_operation_xyz
'x, y, z'
'-x, -y, z'
'-y, x, z'
'y, -x, z'
'x+1/2, -y+1/2, z'
'-x+1/2, y+1/2, z'
'-y+1/2, -x+1/2, z'
'y+1/2, x+1/2, z'
loop_
_atom_site_label
_atom_site_type_symbol
_atom_site_fract_x
_atom_site_fract_y
_atom_site_fract_z
_atom_site_U_iso_or_equiv
_atom_site_adp_type
_atom_site_occupancy
_atom_site_site_symmetry_order
_atom_site_calc_flag
_atom_site_refinement_flags_posn
_atom_site_refinement_flags_adp
_atom_site_refinement_flags_occupancy
La1A La 0.17982(2) 0.67982(2) 0.97421(11) 0.01044(12) Uani 0.585(3) 2 d S T P
Ca1A Ca 0.17982(2) 0.67982(2) 0.97421(11) 0.01044(12) Uani 0.268(5) 2 d S T P
La1B La 0.1746(3) 0.6746(3) 0.8006(11) 0.01044(12) Uani 0.0352(18) 2 d S T P
Ca1B Ca 0.1746(3) 0.6746(3) 0.8006(11) 0.01044(12) Uani 0.113(5) 2 d S T P
La2 La 0.0000 0.0000 0.00000(8) 0.00487(10) Uani 0.974(4) 4 d S T P
Ca2 Ca 0.0000 0.0000 0.00000(8) 0.00487(10) Uani 0.026(4) 4 d S T P
Ca3 Ca 0.0709(3) 0.5709(3) 0.4331(9) 0.0064(9) Uani 0.196(2) 2 d S T P
Si1 Si 0.07979(8) 0.20816(8) 0.4637(2) 0.00495(17) Uani 1 1 d . . .
Si2 Si 0.61880(8) 0.11880(8) 0.9546(3) 0.0044(2) Uani 1 2 d S T P
N1 N 0.0751(3) 0.2318(3) 0.8128(6) 0.0064(5) Uani 1 1 d . . .
N2 N 0.1805(3) 0.0800(3) 0.3570(6) 0.0073(5) Uani 1 1 d . . .
N3 N 0.6505(3) 0.1505(3) 0.3043(8) 0.0042(6) Uani 1 2 d S T P
N4 N 0.5000 0.0000 0.9281(16) 0.0179(14) Uani 1 4 d S T P
loop_
_atom_site_aniso_label
_atom_site_aniso_U_11
_atom_site_aniso_U_22
_atom_site_aniso_U_33
_atom_site_aniso_U_23
_atom_site_aniso_U_13
_atom_site_aniso_U_12
La1A 0.00492(12) 0.00492(12) 0.0215(2) 0.00103(13) 0.00103(13) -0.00069(9)
Ca1A 0.00492(12) 0.00492(12) 0.0215(2) 0.00103(13) 0.00103(13) -0.00069(9)
La1B 0.00492(12) 0.00492(12) 0.0215(2) 0.00103(13) 0.00103(13) -0.00069(9)
Ca1B 0.00492(12) 0.00492(12) 0.0215(2) 0.00103(13) 0.00103(13) -0.00069(9)
La2 0.00484(11) 0.00484(11) 0.00493(14) 0.000 0.000 0.000
Ca2 0.00484(11) 0.00484(11) 0.00493(14) 0.000 0.000 0.000
Ca3 0.0075(11) 0.0075(11) 0.0041(19) -0.0003(9) -0.0003(9) 0.0012(14)
Si1 0.0056(3) 0.0056(3) 0.0037(4) -0.0002(3) 0.0002(3) -0.0031(2)
Si2 0.0048(3) 0.0048(3) 0.0035(5) 0.0003(3) 0.0003(3) 0.0001(3)
N1 0.0077(12) 0.0061(11) 0.0053(12) -0.0003(9) 0.0005(9) -0.0024(9)
N2 0.0091(12) 0.0050(11) 0.0080(12) 0.0005(9) -0.0029(10) 0.0008(9)
N3 0.0036(9) 0.0036(9) 0.0055(15) 0.0000(8) 0.0000(8) 0.0003(11)
N4 0.0115(17) 0.0115(17) 0.030(4) 0.000 0.000 -0.0087(18)
loop_
_atom_type_symbol
_atom_type_description
_atom_type_scat_dispersion_real
_atom_type_scat_dispersion_imag
_atom_type_scat_source
N N 0.0061 0.0033 'International Tables Vol C Tables 4.2.6.8 and 6.1.1.4'
Si Si 0.0817 0.0704 'International Tables Vol C Tables 4.2.6.8 and 6.1.1.4'
Ca Ca 0.2262 0.3064 'International Tables Vol C Tables 4.2.6.8 and 6.1.1.4'
La La -0.2871 2.4523 'International Tables Vol C Tables 4.2.6.8 and 6.1.1.4'
loop_
_geom_angle_atom_site_label_1
_geom_angle_atom_site_label_2
_geom_angle_atom_site_label_3
_geom_angle
_geom_angle_site_symmetry_1
_geom_angle_site_symmetry_3
La1B La1A N2 137.79(7) . 6_556
La1B La1A N2 137.79(7) . 4_566
N2 La1A N2 84.17(13) 6_556 4_566
La1B La1A N4 80.0(3) . 3
N2 La1A N4 100.10(15) 6_556 3
N2 La1A N4 100.10(15) 4_566 3
La1B La1A N1 76.9(2) . 6
N2 La1A N1 77.32(9) 6_556 6
N2 La1A N1 118.56(9) 4_566 6
N4 La1A N1 140.45(12) 3 6
La1B La1A N1 76.9(2) . 4_565
N2 La1A N1 118.56(9) 6_556 4_565
N2 La1A N1 77.32(9) 4_566 4_565
N4 La1A N1 140.45(12) 3 4_565
N1 La1A N1 62.72(12) 6 4_565
La1B La1A Ca3 140.3(3) . 1_556
N2 La1A Ca3 57.35(9) 6_556 1_556
N2 La1A Ca3 57.35(9) 4_566 1_556
N4 La1A Ca3 60.3(2) 3 1_556
N1 La1A Ca3 134.48(9) 6 1_556
N1 La1A Ca3 134.48(9) 4_565 1_556
La1B La1A N1 71.70(13) . 7
N2 La1A N1 70.84(9) 6_556 7
N2 La1A N1 146.12(9) 4_566 7
N4 La1A N1 63.78(7) 3 7
N1 La1A N1 78.62(12) 6 7
N1 La1A N1 134.60(8) 4_565 7
Ca3 La1A N1 89.44(7) 1_556 7
La1B La1A N1 71.70(13) . 2_565
N2 La1A N1 146.12(9) 6_556 2_565
N2 La1A N1 70.84(9) 4_566 2_565
N4 La1A N1 63.78(7) 3 2_565
N1 La1A N1 134.60(8) 6 2_565
N1 La1A N1 78.62(12) 4_565 2_565
Ca3 La1A N1 89.44(8) 1_556 2_565
N1 La1A N1 119.59(12) 7 2_565
La1B La1A Si2 93.1(3) . 2_665
N2 La1A Si2 85.00(7) 6_556 2_665
N2 La1A Si2 85.00(7) 4_566 2_665
N4 La1A Si2 173.07(18) 3 2_665
N1 La1A Si2 35.93(6) 6 2_665
N1 La1A Si2 35.93(6) 4_565 2_665
Ca3 La1A Si2 126.63(10) 1_556 2_665
N1 La1A Si2 114.18(6) 7 2_665
N1 La1A Si2 114.18(6) 2_565 2_665
La1B La1A N3 128.7(3) . 2_666
N2 La1A N3 60.02(8) 6_556 2_666
N2 La1A N3 60.02(8) 4_566 2_666
N4 La1A N3 151.35(19) 3 2_666
N1 La1A N3 59.94(9) 6 2_666
N1 La1A N3 59.94(9) 4_565 2_666
Ca3 La1A N3 91.05(12) 1_556 2_666
N1 La1A N3 120.21(6) 7 2_666
N1 La1A N3 120.21(6) 2_565 2_666
Si2 La1A N3 35.58(8) 2_665 2_666
La1A La1B Ca3 145.5(4) . .
La1A La1B N4 81.0(3) . 3
Ca3 La1B N4 64.6(2) . 3
La1A La1B N1 84.4(3) . 6
Ca3 La1B N1 123.8(2) . 6
N4 La1B N1 144.65(14) 3 6
La1A La1B N1 84.4(3) . 4_565
Ca3 La1B N1 123.8(2) . 4_565
N4 La1B N1 144.65(14) 3 4_565
N1 La1B N1 64.26(16) 6 4_565
La1A La1B N1 90.81(17) . 2_565
Ca3 La1B N1 75.76(12) . 2_565
N4 La1B N1 66.00(10) 3 2_565
N1 La1B N1 146.48(13) 6 2_565
N1 La1B N1 82.28(13) 4_565 2_565
La1A La1B N1 90.81(17) . 7
Ca3 La1B N1 75.76(12) . 7
N4 La1B N1 66.00(10) 3 7
N1 La1B N1 82.28(13) 6 7
N1 La1B N1 146.48(13) 4_565 7
N1 La1B N1 131.1(2) 2_565 7
La1A La1B N2 139.86(14) . 6
Ca3 La1B N2 58.73(15) . 6
N4 La1B N2 108.3(2) 3 6
N1 La1B N2 65.31(11) 6 6
N1 La1B N2 103.60(18) 4_565 6
N1 La1B N2 129.0(2) 2_565 6
N1 La1B N2 60.78(10) 7 6
La1A La1B N2 139.86(14) . 4_565
Ca3 La1B N2 58.73(15) . 4_565
N4 La1B N2 108.3(2) 3 4_565
N1 La1B N2 103.60(18) 6 4_565
N1 La1B N2 65.31(11) 4_565 4_565
N1 La1B N2 60.78(10) 2_565 4_565
N1 La1B N2 129.0(2) 7 4_565
N2 La1B N2 75.75(19) 6 4_565
La1A La1B Si1 119.3(3) . 6
Ca3 La1B Si1 89.92(18) . 6
N4 La1B Si1 141.14(17) 3 6
N1 La1B Si1 35.00(8) 6 6
N1 La1B Si1 73.64(12) 4_565 6
N1 La1B Si1 138.35(17) 2_565 6
N1 La1B Si1 80.06(8) 7 6
N2 La1B Si1 34.50(8) 6 6
N2 La1B Si1 78.24(14) 4_565 6
La1A La1B Si1 119.3(3) . 4_565
Ca3 La1B Si1 89.92(18) . 4_565
N4 La1B Si1 141.14(17) 3 4_565
N1 La1B Si1 73.64(12) 6 4_565
N1 La1B Si1 35.00(8) 4_565 4_565
N1 La1B Si1 80.06(8) 2_565 4_565
N1 La1B Si1 138.35(17) 7 4_565
N2 La1B Si1 78.24(14) 6 4_565
N2 La1B Si1 34.50(8) 4_565 4_565
Si1 La1B Si1 60.70(9) 6 4_565
N1 La2 N1 83.01(4) 2_554 3_554
N1 La2 N1 139.16(13) 2_554 1_554
N1 La2 N1 83.01(4) 3_554 1_554
N1 La2 N1 83.01(4) 2_554 4_554
N1 La2 N1 139.16(13) 3_554 4_554
N1 La2 N1 83.01(4) 1_554 4_554
N1 La2 N2 134.45(9) 2_554 .
N1 La2 N2 139.02(9) 3_554 .
N1 La2 N2 76.08(9) 1_554 .
N1 La2 N2 72.83(9) 4_554 .
N1 La2 N2 139.02(9) 2_554 3
N1 La2 N2 76.08(9) 3_554 3
N1 La2 N2 72.83(9) 1_554 3
N1 La2 N2 134.45(9) 4_554 3
N2 La2 N2 64.27(7) . 3
N1 La2 N2 72.83(9) 2_554 4
N1 La2 N2 134.45(9) 3_554 4
N1 La2 N2 139.02(9) 1_554 4
N1 La2 N2 76.08(9) 4_554 4
N2 La2 N2 64.27(7) . 4
N2 La2 N2 97.57(13) 3 4
N1 La2 N2 76.08(9) 2_554 2
N1 La2 N2 72.83(9) 3_554 2
N1 La2 N2 134.45(9) 1_554 2
N1 La2 N2 139.02(9) 4_554 2
N2 La2 N2 97.57(13) . 2
N2 La2 N2 64.27(7) 3 2
N2 La2 N2 64.27(7) 4 2
N1 La2 Si1 102.29(6) 2_554 4
N1 La2 Si1 155.08(7) 3_554 4
N1 La2 Si1 106.41(6) 1_554 4
N1 La2 Si1 65.69(6) 4_554 4
N2 La2 Si1 32.53(6) . 4
N2 La2 Si1 84.62(7) 3 4
N2 La2 Si1 32.69(6) 4 4
N2 La2 Si1 84.71(7) 2 4
N1 La2 Si1 106.41(6) 2_554 3
N1 La2 Si1 65.69(6) 3_554 3
N1 La2 Si1 102.29(6) 1_554 3
N1 La2 Si1 155.08(7) 4_554 3
N2 La2 Si1 84.71(7) . 3
N2 La2 Si1 32.69(6) 3 3
N2 La2 Si1 84.62(7) 4 3
N2 La2 Si1 32.53(6) 2 3
Si1 La2 Si1 89.57(4) 4 3
N1 La2 Si1 65.69(6) 2_554 2
N1 La2 Si1 102.29(6) 3_554 2
N1 La2 Si1 155.08(7) 1_554 2
N1 La2 Si1 106.41(6) 4_554 2
N2 La2 Si1 84.62(7) . 2
N2 La2 Si1 84.71(7) 3 2
N2 La2 Si1 32.53(6) 4 2
N2 La2 Si1 32.69(6) 2 2
Si1 La2 Si1 59.75(2) 4 2
Si1 La2 Si1 59.75(2) 3 2
N1 La2 Si1 155.08(7) 2_554 .
N1 La2 Si1 106.41(6) 3_554 .
N1 La2 Si1 65.69(6) 1_554 .
N1 La2 Si1 102.29(6) 4_554 .
N2 La2 Si1 32.69(6) . .
N2 La2 Si1 32.53(6) 3 .
N2 La2 Si1 84.71(7) 4 .
N2 La2 Si1 84.62(7) 2 .
Si1 La2 Si1 59.75(2) 4 .
Si1 La2 Si1 59.75(2) 3 .
Si1 La2 Si1 89.57(4) 2 .
Ca3 Ca3 La1B 129.48(16) 2_565 .
Ca3 Ca3 N3 65.66(10) 2_565 4_565
La1B Ca3 N3 117.38(13) . 4_565
Ca3 Ca3 N3 65.66(10) 2_565 3
La1B Ca3 N3 117.38(13) . 3
N3 Ca3 N3 121.9(2) 4_565 3
Ca3 Ca3 N2 136.43(10) 2_565 6
La1B Ca3 N2 69.66(15) . 6
N3 Ca3 N2 70.87(8) 4_565 6
N3 Ca3 N2 148.2(2) 3 6
Ca3 Ca3 N2 136.43(10) 2_565 4_565
La1B Ca3 N2 69.66(15) . 4_565
N3 Ca3 N2 148.2(2) 4_565 4_565
N3 Ca3 N2 70.87(8) 3 4_565
N2 Ca3 N2 84.68(19) 6 4_565
Ca3 Ca3 N4 67.30(12) 2_565 3
La1B Ca3 N4 62.18(17) . 3
N3 Ca3 N4 94.44(15) 4_565 3
N3 Ca3 N4 94.44(15) 3 3
N2 Ca3 N4 114.51(15) 6 3
N2 Ca3 N4 114.51(15) 4_565 3
Ca3 Ca3 N4 67.70(12) 2_565 3_554
La1B Ca3 N4 162.8(2) . 3_554
N3 Ca3 N4 66.83(13) 4_565 3_554
N3 Ca3 N4 66.83(13) 3 3_554
N2 Ca3 N4 98.01(15) 6 3_554
N2 Ca3 N4 98.01(15) 4_565 3_554
N4 Ca3 N4 135.00(19) 3 3_554
Ca3 Ca3 Si1 100.68(10) 2_565 7
La1B Ca3 Si1 80.76(10) . 7
N3 Ca3 Si1 39.89(6) 4_565 7
N3 Ca3 Si1 161.5(2) 3 7
N2 Ca3 Si1 38.10(7) 6 7
N2 Ca3 Si1 122.32(18) 4_565 7
N4 Ca3 Si1 91.17(10) 3 7
N4 Ca3 Si1 96.98(10) 3_554 7
Ca3 Ca3 Si1 100.68(10) 2_565 2_565
La1B Ca3 Si1 80.76(10) . 2_565
N3 Ca3 Si1 161.5(2) 4_565 2_565
N3 Ca3 Si1 39.89(6) 3 2_565
N2 Ca3 Si1 122.32(18) 6 2_565
N2 Ca3 Si1 38.10(7) 4_565 2_565
N4 Ca3 Si1 91.17(10) 3 2_565
N4 Ca3 Si1 96.98(10) 3_554 2_565
Si1 Ca3 Si1 157.70(19) 7 2_565
Ca3 Ca3 La1A 124.72(10) 2_565 1_554
La1B Ca3 La1A 105.8(2) . 1_554
N3 Ca3 La1A 91.38(14) 4_565 1_554
N3 Ca3 La1A 91.38(14) 3 1_554
N2 Ca3 La1A 57.79(11) 6 1_554
N2 Ca3 La1A 57.79(11) 4_565 1_554
N4 Ca3 La1A 168.0(2) 3 1_554
N4 Ca3 La1A 57.01(11) 3_554 1_554
Si1 Ca3 La1A 86.56(10) 7 1_554
Si1 Ca3 La1A 86.56(10) 2_565 1_554
N2 Si1 N1 107.29(14) 3 .
N2 Si1 N2 109.8(2) 3 .
N1 Si1 N2 114.78(15) . .
N2 Si1 N3 112.00(16) 3 4_565
N1 Si1 N3 109.55(16) . 4_565
N2 Si1 N3 103.48(16) . 4_565
N2 Si1 Ca3 65.73(14) 3 2_565
N1 Si1 Ca3 85.72(14) . 2_565
N2 Si1 Ca3 158.89(14) . 2_565
N3 Si1 Ca3 62.54(16) 4_565 2_565
N2 Si1 Ca1B 157.75(12) 3 3_655
N1 Si1 Ca1B 59.62(14) . 3_655
N2 Si1 Ca1B 66.05(13) . 3_655
N3 Si1 Ca1B 89.98(12) 4_565 3_655
Ca3 Si1 Ca1B 126.12(12) 2_565 3_655
N2 Si1 La1B 157.75(12) 3 3_655
N1 Si1 La1B 59.62(14) . 3_655
N2 Si1 La1B 66.05(13) . 3_655
N3 Si1 La1B 89.98(12) 4_565 3_655
Ca3 Si1 La1B 126.12(12) 2_565 3_655
Ca1B Si1 La1B 0.00(11) 3_655 3_655
N2 Si1 La2 56.00(10) 3 .
N1 Si1 La2 141.87(10) . .
N2 Si1 La2 56.01(10) . .
N3 Si1 La2 108.56(12) 4_565 .
Ca3 Si1 La2 111.18(10) 2_565 .
Ca1B Si1 La2 121.63(9) 3_655 .
La1B Si1 La2 121.63(9) 3_655 .
N2 Si1 La1B 58.32(13) 3 2_565
N1 Si1 La1B 55.25(13) . 2_565
N2 Si1 La1B 152.30(12) . 2_565
N3 Si1 La1B 104.21(15) 4_565 2_565
Ca3 Si1 La1B 44.60(12) 2_565 2_565
Ca1B Si1 La1B 114.44(17) 3_655 2_565
La1B Si1 La1B 114.44(17) 3_655 2_565
La2 Si1 La1B 113.41(8) . 2_565
N2 Si1 Ca1B 58.32(13) 3 2_565
N1 Si1 Ca1B 55.25(13) . 2_565
N2 Si1 Ca1B 152.30(12) . 2_565
N3 Si1 Ca1B 104.21(15) 4_565 2_565
Ca3 Si1 Ca1B 44.60(12) 2_565 2_565
Ca1B Si1 Ca1B 114.44(17) 3_655 2_565
La1B Si1 Ca1B 114.44(17) 3_655 2_565
La2 Si1 Ca1B 113.41(8) . 2_565
La1B Si1 Ca1B 0.0(2) 2_565 2_565
N2 Si1 Ca1A 116.10(11) 3 3_654
N1 Si1 Ca1A 136.38(10) . 3_654
N2 Si1 Ca1A 46.21(10) . 3_654
N3 Si1 Ca1A 58.33(13) 4_565 3_654
Ca3 Si1 Ca1A 115.43(10) 2_565 3_654
Ca1B Si1 Ca1A 77.76(10) 3_655 3_654
La1B Si1 Ca1A 77.76(10) 3_655 3_654
La2 Si1 Ca1A 68.11(2) . 3_654
La1B Si1 Ca1A 159.92(8) 2_565 3_654
Ca1B Si1 Ca1A 159.92(8) 2_565 3_654
N4 Si2 N1 114.03(17) . 3_655
N4 Si2 N1 114.03(17) . 5
N1 Si2 N1 106.8(2) 3_655 5
N4 Si2 N3 109.2(3) . 1_556
N1 Si2 N3 106.14(13) 3_655 1_556
N1 Si2 N3 106.14(13) 5 1_556
N4 Si2 La1A 177.5(3) . 2_665
N1 Si2 La1A 64.81(10) 3_655 2_665
N1 Si2 La1A 64.81(10) 5 2_665
N3 Si2 La1A 73.28(13) 1_556 2_665
N4 Si2 Ca1A 177.5(3) . 2_665
N1 Si2 Ca1A 64.81(10) 3_655 2_665
N1 Si2 Ca1A 64.81(10) 5 2_665
N3 Si2 Ca1A 73.28(13) 1_556 2_665
La1A Si2 Ca1A 0.00(2) 2_665 2_665
N4 Si2 Ca1B 161.3(3) . 2_665
N1 Si2 Ca1B 58.30(11) 3_655 2_665
N1 Si2 Ca1B 58.30(11) 5 2_665
N3 Si2 Ca1B 89.51(17) 1_556 2_665
La1A Si2 Ca1B 16.23(10) 2_665 2_665
Ca1A Si2 Ca1B 16.23(10) 2_665 2_665
N4 Si2 La1B 161.3(3) . 2_665
N1 Si2 La1B 58.30(11) 3_655 2_665
N1 Si2 La1B 58.30(11) 5 2_665
N3 Si2 La1B 89.51(17) 1_556 2_665
La1A Si2 La1B 16.23(10) 2_665 2_665
Ca1A Si2 La1B 16.23(10) 2_665 2_665
Ca1B Si2 La1B 0.0(2) 2_665 2_665
N4 Si2 Ca3 60.4(3) . 4_556
N1 Si2 Ca3 106.64(13) 3_655 4_556
N1 Si2 Ca3 144.80(13) 5 4_556
N3 Si2 Ca3 53.34(14) 1_556 4_556
La1A Si2 Ca3 121.88(6) 2_665 4_556
Ca1A Si2 Ca3 121.88(6) 2_665 4_556
Ca1B Si2 Ca3 136.53(11) 2_665 4_556
La1B Si2 Ca3 136.53(11) 2_665 4_556
N4 Si2 Ca3 60.4(3) . 3_656
N1 Si2 Ca3 144.80(13) 3_655 3_656
N1 Si2 Ca3 106.64(13) 5 3_656
N3 Si2 Ca3 53.34(14) 1_556 3_656
La1A Si2 Ca3 121.88(6) 2_665 3_656
Ca1A Si2 Ca3 121.88(6) 2_665 3_656
Ca1B Si2 Ca3 136.53(11) 2_665 3_656
La1B Si2 Ca3 136.53(11) 2_665 3_656
Ca3 Si2 Ca3 38.63(17) 4_556 3_656
N4 Si2 La1A 56.84(3) . 3_655
N1 Si2 La1A 157.50(12) 3_655 3_655
N1 Si2 La1A 65.50(10) 5 3_655
N3 Si2 La1A 96.36(8) 1_556 3_655
La1A Si2 La1A 123.340(18) 2_665 3_655
Ca1A Si2 La1A 123.340(18) 2_665 3_655
Ca1B Si2 La1A 122.79(2) 2_665 3_655
La1B Si2 La1A 122.79(2) 2_665 3_655
Ca3 Si2 La1A 86.95(8) 4_556 3_655
Ca3 Si2 La1A 52.79(8) 3_656 3_655
N4 Si2 Ca1A 56.84(3) . 3_655
N1 Si2 Ca1A 157.50(12) 3_655 3_655
N1 Si2 Ca1A 65.50(10) 5 3_655
N3 Si2 Ca1A 96.36(8) 1_556 3_655
La1A Si2 Ca1A 123.340(18) 2_665 3_655
Ca1A Si2 Ca1A 123.340(18) 2_665 3_655
Ca1B Si2 Ca1A 122.79(2) 2_665 3_655
La1B Si2 Ca1A 122.79(2) 2_665 3_655
Ca3 Si2 Ca1A 86.95(8) 4_556 3_655
Ca3 Si2 Ca1A 52.79(8) 3_656 3_655
La1A Si2 Ca1A 0.00(2) 3_655 3_655
Si2 N1 Si1 120.93(17) 4_565 .
Si2 N1 Ca1B 87.38(13) 4_565 3_655
Si1 N1 Ca1B 85.38(16) . 3_655
Si2 N1 La1B 87.38(13) 4_565 3_655
Si1 N1 La1B 85.38(16) . 3_655
Ca1B N1 La1B 0.0(3) 3_655 3_655
Si2 N1 Ca2 135.75(15) 4_565 1_556
Si1 N1 Ca2 103.30(13) . 1_556
Ca1B N1 Ca2 95.23(12) 3_655 1_556
La1B N1 Ca2 95.23(12) 3_655 1_556
Si2 N1 La2 135.75(15) 4_565 1_556
Si1 N1 La2 103.30(13) . 1_556
Ca1B N1 La2 95.23(12) 3_655 1_556
La1B N1 La2 95.23(12) 3_655 1_556
Ca2 N1 La2 0.000(17) 1_556 1_556
Si2 N1 Ca1A 79.26(11) 4_565 3_655
Si1 N1 Ca1A 103.99(13) . 3_655
Ca1B N1 Ca1A 18.67(12) 3_655 3_655
La1B N1 Ca1A 18.67(12) 3_655 3_655
Ca2 N1 Ca1A 89.39(9) 1_556 3_655
La2 N1 Ca1A 89.39(9) 1_556 3_655
Si2 N1 La1A 79.26(11) 4_565 3_655
Si1 N1 La1A 103.99(13) . 3_655
Ca1B N1 La1A 18.67(12) 3_655 3_655
La1B N1 La1A 18.67(12) 3_655 3_655
Ca2 N1 La1A 89.39(9) 1_556 3_655
La2 N1 La1A 89.39(9) 1_556 3_655
Ca1A N1 La1A 0.000(10) 3_655 3_655
Si2 N1 La1B 86.63(14) 4_565 2_565
Si1 N1 La1B 93.01(16) . 2_565
Ca1B N1 La1B 171.88(15) 3_655 2_565
La1B N1 La1B 171.88(15) 3_655 2_565
Ca2 N1 La1B 92.89(12) 1_556 2_565
La2 N1 La1B 92.89(12) 1_556 2_565
Ca1A N1 La1B 161.85(16) 3_655 2_565
La1A N1 La1B 161.85(16) 3_655 2_565
Si2 N1 Ca1B 86.63(14) 4_565 2_565
Si1 N1 Ca1B 93.01(16) . 2_565
Ca1B N1 Ca1B 171.88(15) 3_655 2_565
La1B N1 Ca1B 171.88(15) 3_655 2_565
Ca2 N1 Ca1B 92.89(12) 1_556 2_565
La2 N1 Ca1B 92.89(12) 1_556 2_565
Ca1A N1 Ca1B 161.85(16) 3_655 2_565
La1A N1 Ca1B 161.85(16) 3_655 2_565
La1B N1 Ca1B 0.0(2) 2_565 2_565
Si2 N1 La1A 81.05(11) 4_565 2_565
Si1 N1 La1A 110.13(13) . 2_565
Ca1B N1 La1A 163.92(16) 3_655 2_565
La1B N1 La1A 163.92(16) 3_655 2_565
Ca2 N1 La1A 85.50(8) 1_556 2_565
La2 N1 La1A 85.50(8) 1_556 2_565
Ca1A N1 La1A 145.77(11) 3_655 2_565
La1A N1 La1A 145.77(11) 3_655 2_565
La1B N1 La1A 17.49(12) 2_565 2_565
Ca1B N1 La1A 17.49(12) 2_565 2_565
Si2 N1 Ca1A 81.05(11) 4_565 2_565
Si1 N1 Ca1A 110.13(13) . 2_565
Ca1B N1 Ca1A 163.92(16) 3_655 2_565
La1B N1 Ca1A 163.92(16) 3_655 2_565
Ca2 N1 Ca1A 85.50(8) 1_556 2_565
La2 N1 Ca1A 85.50(8) 1_556 2_565
Ca1A N1 Ca1A 145.77(11) 3_655 2_565
La1A N1 Ca1A 145.77(11) 3_655 2_565
La1B N1 Ca1A 17.49(12) 2_565 2_565
Ca1B N1 Ca1A 17.49(12) 2_565 2_565
La1A N1 Ca1A 0.000(4) 2_565 2_565
Si1 N2 Si1 135.04(19) 4 .
Si1 N2 Ca3 76.17(13) 4 3_655
Si1 N2 Ca3 124.40(17) . 3_655
Si1 N2 Ca1A 120.25(15) 4 3_654
Si1 N2 Ca1A 104.55(13) . 3_654
Ca3 N2 Ca1A 64.87(12) 3_655 3_654
Si1 N2 La1A 120.25(15) 4 3_654
Si1 N2 La1A 104.55(13) . 3_654
Ca3 N2 La1A 64.87(12) 3_655 3_654
Ca1A N2 La1A 0.000(19) 3_654 3_654
Si1 N2 La2 91.47(12) 4 .
Si1 N2 La2 91.30(12) . .
Ca3 N2 La2 139.94(16) 3_655 .
Ca1A N2 La2 90.98(10) 3_654 .
La1A N2 La2 90.98(10) 3_654 .
Si1 N2 La1B 90.01(14) 4 3_655
Si1 N2 La1B 79.45(14) . 3_655
Ca3 N2 La1B 51.61(14) 3_655 3_655
Ca1A N2 La1B 98.37(12) 3_654 3_655
La1A N2 La1B 98.37(12) 3_654 3_655
La2 N2 La1B 168.21(15) . 3_655
Si1 N2 Ca1B 90.01(14) 4 3_655
Si1 N2 Ca1B 79.45(14) . 3_655
Ca3 N2 Ca1B 51.61(14) 3_655 3_655
Ca1A N2 Ca1B 98.37(12) 3_654 3_655
La1A N2 Ca1B 98.37(12) 3_654 3_655
La2 N2 Ca1B 168.21(15) . 3_655
La1B N2 Ca1B 0.00(10) 3_655 3_655
Si2 N3 Si1 119.80(12) 1_554 3_655
Si2 N3 Si1 119.80(12) 1_554 5
Si1 N3 Si1 116.9(2) 3_655 5
Si2 N3 Ca3 91.39(19) 1_554 3_655
Si1 N3 Ca3 119.2(2) 3_655 3_655
Si1 N3 Ca3 77.56(14) 5 3_655
Si2 N3 Ca3 91.39(19) 1_554 4
Si1 N3 Ca3 77.56(14) 3_655 4
Si1 N3 Ca3 119.2(2) 5 4
Ca3 N3 Ca3 48.7(2) 3_655 4
Si2 N3 La1A 71.15(13) 1_554 2_664
Si1 N3 La1A 90.39(14) 3_655 2_664
Si1 N3 La1A 90.39(14) 5 2_664
Ca3 N3 La1A 150.43(14) 3_655 2_664
Ca3 N3 La1A 150.43(14) 4 2_664
Si2 N3 Ca1A 71.15(13) 1_554 2_664
Si1 N3 Ca1A 90.39(14) 3_655 2_664
Si1 N3 Ca1A 90.39(14) 5 2_664
Ca3 N3 Ca1A 150.43(14) 3_655 2_664
Ca3 N3 Ca1A 150.43(14) 4 2_664
La1A N3 Ca1A 0.000(19) 2_664 2_664
Si2 N4 Si2 171.3(5) . 2_655
Si2 N4 Ca1B 91.06(5) . 4
Si2 N4 Ca1B 91.06(5) 2_655 4
Si2 N4 Ca1B 91.06(5) . 3_655
Si2 N4 Ca1B 91.06(5) 2_655 3_655
Ca1B N4 Ca1B 151.9(4) 4 3_655
Si2 N4 La1B 91.06(5) . 4
Si2 N4 La1B 91.06(5) 2_655 4
Ca1B N4 La1B 0.0(3) 4 4
Ca1B N4 La1B 151.9(4) 3_655 4
Si2 N4 La1B 91.06(5) . 3_655
Si2 N4 La1B 91.06(5) 2_655 3_655
Ca1B N4 La1B 151.9(4) 4 3_655
Ca1B N4 La1B 0.0(3) 3_655 3_655
La1B N4 La1B 151.9(4) 4 3_655
Si2 N4 La1A 89.62(4) . 3_655
Si2 N4 La1A 89.62(4) 2_655 3_655
Ca1B N4 La1A 171.0(4) 4 3_655
Ca1B N4 La1A 19.06(12) 3_655 3_655
La1B N4 La1A 171.0(4) 4 3_655
La1B N4 La1A 19.06(12) 3_655 3_655
Si2 N4 Ca1A 89.62(4) . 4
Si2 N4 Ca1A 89.62(4) 2_655 4
Ca1B N4 Ca1A 19.06(12) 4 4
Ca1B N4 Ca1A 171.0(4) 3_655 4
La1B N4 Ca1A 19.06(12) 4 4
La1B N4 Ca1A 171.0(4) 3_655 4
La1A N4 Ca1A 170.0(4) 3_655 4
Si2 N4 Ca1A 89.62(4) . 3_655
Si2 N4 Ca1A 89.62(4) 2_655 3_655
Ca1B N4 Ca1A 171.0(4) 4 3_655
Ca1B N4 Ca1A 19.06(12) 3_655 3_655
La1B N4 Ca1A 171.0(4) 4 3_655
La1B N4 Ca1A 19.06(12) 3_655 3_655
La1A N4 Ca1A 0.00(2) 3_655 3_655
Ca1A N4 Ca1A 170.0(4) 4 3_655
Si2 N4 La1A 89.62(4) . 4
Si2 N4 La1A 89.62(4) 2_655 4
Ca1B N4 La1A 19.06(12) 4 4
Ca1B N4 La1A 171.0(4) 3_655 4
La1B N4 La1A 19.06(12) 4 4
La1B N4 La1A 171.0(4) 3_655 4
La1A N4 La1A 170.0(4) 3_655 4
Ca1A N4 La1A 0.00(2) 4 4
Ca1A N4 La1A 170.0(4) 3_655 4
Si2 N4 Ca3 94.0(2) . 3_655
Si2 N4 Ca3 94.0(2) 2_655 3_655
Ca1B N4 Ca3 98.7(3) 4 3_655
Ca1B N4 Ca3 53.25(19) 3_655 3_655
La1B N4 Ca3 98.7(3) 4 3_655
La1B N4 Ca3 53.25(19) 3_655 3_655
La1A N4 Ca3 72.32(15) 3_655 3_655
Ca1A N4 Ca3 117.7(3) 4 3_655
Ca1A N4 Ca3 72.32(15) 3_655 3_655
La1A N4 Ca3 117.7(3) 4 3_655
Si2 N4 Ca3 94.0(2) . 4
Si2 N4 Ca3 94.0(2) 2_655 4
Ca1B N4 Ca3 53.25(19) 4 4
Ca1B N4 Ca3 98.7(3) 3_655 4
La1B N4 Ca3 53.25(19) 4 4
La1B N4 Ca3 98.7(3) 3_655 4
La1A N4 Ca3 117.7(3) 3_655 4
Ca1A N4 Ca3 72.32(15) 4 4
Ca1A N4 Ca3 117.7(3) 3_655 4
La1A N4 Ca3 72.32(15) 4 4
Ca3 N4 Ca3 45.4(2) 3_655 4
loop_
_geom_bond_atom_site_label_1
_geom_bond_atom_site_label_2
_geom_bond_distance
_geom_bond_site_symmetry_2
La1A La1B 0.854(6) .
La1A N2 2.556(3) 6_556
La1A N2 2.556(3) 4_566
La1A N4 2.5820(9) 3
La1A N1 2.655(3) 6
La1A N1 2.655(3) 4_565
La1A Ca3 2.735(5) 1_556
La1A N1 2.841(3) 7
La1A N1 2.841(3) 2_565
La1A Si2 2.8821(12) 2_665
La1A N3 2.917(4) 2_666
La1B Ca3 2.332(7) .
La1B N4 2.574(5) 3
La1B N1 2.598(5) 6
La1B N1 2.598(5) 4_565
La1B N1 2.698(3) 2_565
La1B N1 2.698(3) 7
La1B N2 2.790(5) 6
La1B N2 2.790(5) 4_565
La1B Si1 3.002(4) 6
La1B Si1 3.002(4) 4_565
La2 N1 2.629(3) 2_554
La2 N1 2.629(3) 3_554
La2 N1 2.629(3) 1_554
La2 N1 2.629(3) 4_554
La2 N2 2.654(3) .
La2 N2 2.654(3) 3
La2 N2 2.654(3) 4
La2 N2 2.654(3) 2
La2 Si1 3.2006(10) 4
La2 Si1 3.2006(10) 3
La2 Si1 3.2006(10) 2
La2 Si1 3.2007(10) .
Ca3 Ca3 2.029(9) 2_565
Ca3 N3 2.462(4) 4_565
Ca3 N3 2.462(4) 3
Ca3 N2 2.543(5) 6
Ca3 N2 2.543(5) 4_565
Ca3 N4 2.629(9) 3
Ca3 N4 2.674(9) 3_554
Ca3 Si1 2.7090(12) 7
Ca3 Si1 2.7090(12) 2_565
Ca3 La1A 2.735(5) 1_554
Si1 N2 1.721(3) 3
Si1 N1 1.727(3) .
Si1 N2 1.729(3) .
Si1 N3 1.779(2) 4_565
Si1 Ca3 2.7090(12) 2_565
Si1 Ca1B 3.002(4) 3_655
Si1 La1B 3.002(4) 3_655
Si1 La1B 3.279(3) 2_565
Si1 Ca1B 3.279(3) 2_565
Si1 Ca1A 3.4270(10) 3_654
Si2 N4 1.7042(13) .
Si2 N1 1.721(3) 3_655
Si2 N1 1.721(3) 5
Si2 N3 1.772(4) 1_556
Si2 La1A 2.8822(12) 2_665
Si2 Ca1A 2.8822(12) 2_665
Si2 Ca1B 3.050(4) 2_665
Si2 La1B 3.050(4) 2_665
Si2 Ca3 3.068(4) 4_556
Si2 Ca3 3.068(4) 3_656
Si2 La1A 3.0841(7) 3_655
Si2 Ca1A 3.0841(7) 3_655
N1 Si2 1.721(3) 4_565
N1 Ca1B 2.598(5) 3_655
N1 La1B 2.598(5) 3_655
N1 Ca2 2.629(3) 1_556
N1 La2 2.629(3) 1_556
N1 Ca1A 2.655(3) 3_655
N1 La1A 2.655(3) 3_655
N1 La1B 2.698(3) 2_565
N1 Ca1B 2.698(3) 2_565
N1 La1A 2.841(3) 2_565
N1 Ca1A 2.841(3) 2_565
N2 Si1 1.721(3) 4
N2 Ca3 2.543(5) 3_655
N2 Ca1A 2.556(3) 3_654
N2 La1A 2.556(3) 3_654
N2 La1B 2.790(5) 3_655
N2 Ca1B 2.790(5) 3_655
N3 Si2 1.772(4) 1_554
N3 Si1 1.779(2) 3_655
N3 Si1 1.779(2) 5
N3 Ca3 2.462(4) 3_655
N3 Ca3 2.462(4) 4
N3 La1A 2.917(4) 2_664
N3 Ca1A 2.917(4) 2_664
N4 Si2 1.7042(13) 2_655
N4 Ca1B 2.574(5) 4
N4 Ca1B 2.574(5) 3_655
N4 La1B 2.574(5) 4
N4 La1B 2.574(5) 3_655
N4 La1A 2.5819(8) 3_655
N4 Ca1A 2.5819(8) 4
N4 Ca1A 2.5819(8) 3_655
N4 La1A 2.5819(8) 4
N4 Ca3 2.629(9) 3_655
N4 Ca3 2.629(9) 4
