#------------------------------------------------------------------------------
#$Date: 2019-10-29 23:31:52 +0200 (Tue, 29 Oct 2019) $
#$Revision: 220446 $
#$URL: file:///home/coder/svn-repositories/cod/cif/4/00/30/4003027.cif $
#------------------------------------------------------------------------------
#
# This file is available in the Crystallography Open Database (COD),
# http://www.crystallography.net/
#
# All data on this site have been placed in the public domain by the
# contributors.
#
data_4003027
loop_
_publ_author_name
'Elzer, Eugenia'
'Niklaus, Robin'
'Strobel, Philipp J.'
'Weiler, Volker'
'Schmidt, Peter J.'
'Schnick, Wolfgang'
_publ_section_title
;
 MBe20N14:Eu2+ (M = Sr, Ba): Highly Condensed Nitridoberyllates with
 Exceptional Highly Energetic Eu2+ Luminescence
;
_journal_issue                   9
_journal_name_full               'Chemistry of Materials'
_journal_page_first              3174
_journal_paper_doi               10.1021/acs.chemmater.8b05133
_journal_volume                  31
_journal_year                    2019
_chemical_formula_sum            'Be20 Eu N14'
_chemical_formula_weight         528.30
_space_group_crystal_system      tetragonal
_space_group_IT_number           87
_space_group_name_Hall           '-I 4'
_space_group_name_H-M_alt        'I 4/m'
_symmetry_space_group_name_Hall  '-I 4'
_symmetry_space_group_name_H-M   'I 4/m'
_audit_creation_method           SHELXL-2016/6
_cell_angle_alpha                90
_cell_angle_beta                 90
_cell_angle_gamma                90
_cell_formula_units_Z            2
_cell_length_a                   6.5241(8)
_cell_length_b                   6.5241(8)
_cell_length_c                   12.1357(17)
_cell_measurement_reflns_used    9347
_cell_measurement_temperature    293(2)
_cell_measurement_theta_max      18.727
_cell_measurement_theta_min      3.357
_cell_volume                     516.54(12)
_computing_cell_refinement       'SAINT V8.34A (Bruker AXC Inc., 2013)'
_computing_data_collection       'Bruker Instrument Service v3.0.21'
_computing_data_reduction        'SAINT V8.34A (Bruker AXC Inc., 2013)'
_computing_molecular_graphics    'DIAMOND (Brandenburg, 2014)'
_computing_publication_material  SHELXL-2014
_computing_structure_refinement  'SHELXL-2016/6 (Sheldrick, 2016)'
_computing_structure_solution    'SHELXL-2016/6 (Sheldrick, 2016)'
_diffrn_ambient_temperature      293(2)
_diffrn_measured_fraction_theta_full 1.000
_diffrn_measured_fraction_theta_max 1.000
_diffrn_measurement_device_type  'D8 Venture'
_diffrn_measurement_method       'mix of omega and phi scans'
_diffrn_radiation_type           MoK\a
_diffrn_radiation_wavelength     0.71073
_diffrn_reflns_av_R_equivalents  0.0414
_diffrn_reflns_av_unetI/netI     0.0213
_diffrn_reflns_Laue_measured_fraction_full 1.000
_diffrn_reflns_Laue_measured_fraction_max 1.000
_diffrn_reflns_limit_h_max       11
_diffrn_reflns_limit_h_min       -11
_diffrn_reflns_limit_k_max       11
_diffrn_reflns_limit_k_min       -11
_diffrn_reflns_limit_l_max       20
_diffrn_reflns_limit_l_min       -20
_diffrn_reflns_number            6557
_diffrn_reflns_point_group_measured_fraction_full 1.000
_diffrn_reflns_point_group_measured_fraction_max 1.000
_diffrn_reflns_theta_full        25.242
_diffrn_reflns_theta_max         37.454
_diffrn_reflns_theta_min         3.357
_diffrn_source                   'rotating anode generator'
_exptl_absorpt_coefficient_mu    6.099
_exptl_absorpt_correction_T_max  1.0000
_exptl_absorpt_correction_T_min  0.9278
_exptl_absorpt_correction_type   multi-scan
_exptl_absorpt_process_details   'SADABS V2015/15 (Bruker AXS Inc.)'
_exptl_crystal_colour            yellow
_exptl_crystal_density_diffrn    3.397
_exptl_crystal_density_method    'not measured'
_exptl_crystal_description       block-like
_exptl_crystal_F_000             482
_exptl_crystal_size_max          0.007
_exptl_crystal_size_mid          0.005
_exptl_crystal_size_min          0.003
_refine_diff_density_max         0.729
_refine_diff_density_min         -0.524
_refine_diff_density_rms         0.129
_refine_ls_extinction_method     none
_refine_ls_goodness_of_fit_ref   1.122
_refine_ls_hydrogen_treatment    undef
_refine_ls_matrix_type           full
_refine_ls_number_parameters     44
_refine_ls_number_reflns         712
_refine_ls_number_restraints     0
_refine_ls_restrained_S_all      1.122
_refine_ls_R_factor_all          0.0161
_refine_ls_R_factor_gt           0.0160
_refine_ls_shift/su_max          0.000
_refine_ls_shift/su_mean         0.000
_refine_ls_structure_factor_coef Fsqd
_refine_ls_weighting_details
'w=1/[\s^2^(Fo^2^)+(0.0152P)^2^] where P=(Fo^2^+2Fc^2^)/3'
_refine_ls_weighting_scheme      calc
_refine_ls_wR_factor_gt          0.0320
_refine_ls_wR_factor_ref         0.0320
_reflns_Friedel_coverage         0.000
_reflns_number_gt                709
_reflns_number_total             712
_reflns_threshold_expression     'I > 2\s(I)'
_cod_data_source_file            cm8b05133_si_003.cif
_cod_data_source_block           shelx
_cod_original_cell_volume        516.54(15)
_cod_database_code               4003027
_shelx_shelxl_version_number     2016/6
_shelx_space_group_comment
;
The symmetry employed for this shelxl refinement is uniquely defined
by the following loop, which should always be used as a source of
symmetry information in preference to the above space-group names.
They are only intended as comments.
;
_shelx_res_file
;
TITL I4_m in I4/m
    shelx.res
    created by SHELXL-2016/6 at 16:32:30 on 18-Jun-2018
CELL 0.71073   6.52410   6.52410  12.13570  90.0000  90.0000  90.0000
ZERR    2.00   0.00080   0.00080   0.00170   0.0000   0.0000   0.0000
LATT  2
SYMM -X, -Y, Z
SYMM -Y, X, Z
SYMM Y, -X, Z
SFAC Be N Eu
UNIT 40 28 2
OMIT 0 75
L.S. 20
BOND
FMAP 2
PLAN 20
ACTA

WGHT    0.015200
FVAR       0.13516
EU1   3    0.000000    0.000000    0.000000    10.12500    0.01386    0.01386 =
         0.00975    0.00000    0.00000    0.00000
BE1   1    0.225537    0.089799    0.233773    11.00000    0.00877    0.00597 =
         0.00783   -0.00137   -0.00072    0.00020
BE2   1    0.194362    0.135460    0.414551    11.00000    0.00730    0.00807 =
         0.00708    0.00025    0.00172    0.00056
BE3   1    0.000000    0.500000    0.092704    10.50000    0.00557    0.00650 =
         0.00670    0.00000    0.00000    0.00058
N1    2    0.116871    0.298655   -0.167671    11.00000    0.00380    0.00438 =
         0.00590   -0.00105   -0.00020   -0.00022
N2    2    0.204864    0.560439    0.000000    10.50000    0.00389    0.00527 =
         0.00415    0.00000    0.00000   -0.00019
N3    2    0.000000    0.000000    0.329339    10.25000    0.00508    0.00508 =
         0.00523    0.00000    0.00000    0.00000
HKLF 4




REM  I4_m in I4/m
REM R1 =  0.0160 for     709 Fo > 4sig(Fo)  and  0.0161 for all     712 data
REM     44 parameters refined using      0 restraints

END

WGHT      0.0152      0.0000

REM Highest difference peak  0.729,  deepest hole -0.524,  1-sigma level  0.129
Q1    1   0.0670  0.2876 -0.1662  11.00000  0.05    0.66
Q2    1   0.2071  0.6100  0.0000  10.50000  0.05    0.59
Q3    1  -0.0058  0.0987  0.0000  10.50000  0.05    0.59
Q4    1   0.1344  0.3223 -0.2016  11.00000  0.05    0.57
Q5    1   0.1137  0.3455 -0.1553  11.00000  0.05    0.55
Q6    1   0.1779  0.3030 -0.1619  11.00000  0.05    0.53
Q7    1   0.0000  0.5000 -0.2500  10.25000  0.05    0.44
Q8    1   0.2384  0.5350 -0.0314  11.00000  0.05    0.42
Q9    1   0.2398  0.2766 -0.1513  11.00000  0.05    0.39
Q10   1   0.3504  0.6247  0.0000  10.50000  0.05    0.38
Q11   1   0.2415  0.4303  0.0000  10.50000  0.05    0.38
Q12   1   0.0042  0.2012  0.0000  10.50000  0.05    0.36
Q13   1  -0.0570  0.7153  0.0000  10.50000  0.05    0.33
Q14   1   0.1905  0.2655 -0.1016  11.00000  0.05    0.33
Q15   1   0.1077  0.1734  0.4422  11.00000  0.05    0.33
Q16   1   0.1670  0.1725 -0.1541  11.00000  0.05    0.31
Q17   1   0.0000  0.0000  0.3603  10.25000  0.05    0.31
Q18   1   0.1038  0.5185  0.0000  10.50000  0.05    0.31
Q19   1   0.0257  0.2176 -0.1134  11.00000  0.05    0.30
Q20   1   0.2226  0.2400 -0.2116  11.00000  0.05    0.30
;
_shelx_res_checksum              38091
_shelx_hkl_file
;
   1   1   0  165.56    3.51
   1   1   0  172.10    3.13
   1  -1   0  167.31    3.22
   1  -1   0  169.03    3.22
   1  -1   0  171.34    2.59
   1  -1   0  164.99    3.18
  -1   1   0  163.79    3.51
  -1  -1   0  170.18    3.12
  -1  -1   0  165.91    3.26
   0   2   0  131.90    2.78
   0   2   0  131.94    2.86
   0  -2   0  138.93    3.06
  -2   0   0  134.00    3.02
   2   0   0  127.44    2.76
  -2   0   0  132.39    2.68
   2   0   0  133.53    2.69
   0   2   0  129.41    2.80
   2  -2   0  156.21    2.49
  -2  -2   0  158.03    3.56
   2  -2   0  157.32    2.49
   2   2   0  159.41    3.20
  -2   2   0  157.65    3.74
   2   2   0  159.40    3.87
   2  -2   0  151.83    3.70
   3   1   0  137.24    3.46
   3   1   0  134.18    3.10
  -1   3   0  137.91    3.50
  -1   3   0  136.98    3.02
  -1   3   0  136.17    3.39
  -3  -1   0  135.32    3.48
   1   3   0  318.66    5.91
   3  -1   0  322.40    5.39
   3  -1   0  324.60    6.32
  -3   1   0  334.51    5.41
   1   3   0  320.73    6.04
  -3   1   0  327.61    6.54
   1   3   0  317.98    6.51
  -3  -3   0  117.65    3.41
   3  -3   0  104.80    3.97
   3   3   0  120.59    2.94
   2  -4   0  713.22   11.30
   2  -4   0  697.85   12.76
   4   2   0  691.66   12.86
   4   2   0  703.19   11.82
  -4   0   0  145.32    4.05
   0   4   0  139.41    3.77
   0   4   0  150.96    3.75
   0   4   0  143.09    3.74
   4   0   0  144.05    3.52
   4   0   0  141.45    3.70
   4  -2   0  131.23    3.93
   2   4   0  132.27    3.35
  -2  -4   0  131.28    3.67
   4  -2   0  132.96    2.30
  -4   2   0  133.43    4.10
   2   4   0  132.71    4.19
  -4   2   0  128.91    2.27
   4   4   0   55.54    2.96
  -4  -4   0   57.23    2.72
  -4   4   0   53.81    2.82
   4   4   0   59.03    2.18
   4  -4   0   57.10    2.90
   5   3   0   40.98    2.58
   5   3   0   39.04    1.84
  -3   5   0   40.11    2.33
   3  -5   0   39.42    1.35
   3  -5   0   38.06    2.41
  -5  -3   0   38.00    2.30
  -1   5   0   48.84    2.09
   5   1   0   50.13    2.33
   5   1   0   48.04    2.13
  -5  -1   0   48.69    2.52
  -1   5   0   52.10    2.37
  -1   5   0   50.67    2.43
   1   5   0   78.15    2.74
   1   5   0   80.59    3.18
  -5   1   0   78.07    3.25
   5  -1   0   77.33    2.29
   5  -1   0   79.01    3.03
   3   5   0   49.93    2.07
   3   5   0   47.45    2.86
  -5   3   0   53.00    2.90
  -3  -5   0   46.58    2.38
   5  -3   0   48.76    2.68
   5   5   0   50.17    3.33
   5  -5   0   52.16    3.13
  -5   5   0   53.96    3.22
  -5  -5   0   52.82    2.91
   6   4   0   50.67    2.26
  -6  -4   0   52.55    3.02
  -4   6   0   47.82    3.02
   6   4   0   51.40    3.32
   2  -6   0   26.30    1.59
  -6  -2   0   27.33    2.19
   6   2   0   28.48    2.16
  -2   6   0   27.45    2.07
   6   2   0   28.24    1.77
   2  -6   0   28.36    2.16
   0   6   0   73.40    3.15
   6   0   0   77.29    2.85
  -6   0   0   78.09    3.53
   0   6   0   76.23    3.11
   6   0   0   78.77    3.16
   0   6   0   74.66    3.06
   6  -2   0  317.24    7.80
  -2  -6   0  313.76    7.41
  -6   2   0  284.83    5.43
  -6   2   0  301.47    7.96
   2   6   0  313.67    6.90
   2   6   0  321.12    8.21
   6  -4   0   33.93    2.57
   4   6   0   35.17    1.90
  -4  -6   0   32.87    2.39
   6   6   0   63.23    2.59
   6   6   0   58.72    4.07
   6  -6   0   60.00    3.88
  -6  -6   0   60.12    3.44
  -6   6   0   53.31    3.67
   7   5   0   21.73    2.66
  -5   7   0   20.30    2.41
   5  -7   0   23.43    2.46
  -7  -5   0   25.89    2.45
   7   5   0   26.40    1.69
   7   3   0   40.28    2.19
   7   3   0   44.55    3.06
   3  -7   0   41.42    1.69
   3  -7   0   42.89    2.89
  -7  -3   0   44.21    3.07
  -1   7   0   59.99    3.03
   1  -7   0   54.12    3.01
   7   1   0   54.59    2.76
   7   1   0   51.40    2.77
   1  -7   0   53.60    2.72
  -1   7   0   50.57    2.90
  -7  -1   0   55.75    3.23
  -1  -7   0   44.78    2.67
   7  -1   0   43.06    2.72
   1   7   0   42.69    2.82
   1   7   0   41.11    2.46
  -7   1   0   43.09    2.82
   7  -1   0   43.79    2.02
   1   7   0   39.95    2.35
   3   7   0   15.93    1.51
   7  -3   0   14.77    1.91
  -3  -7   0   17.27    1.77
   3   7   0   15.11    2.12
  -7   3   0   13.66    2.03
   5   7   0   20.53    1.57
   5   7   0   18.92    2.38
   7  -5   0   19.48    2.44
  -5  -7   0   22.44    2.30
  -7   5   0   24.34    2.63
  -7   7   0   12.28    2.26
  -7  -7   0   11.62    2.09
   7  -7   0   10.50    2.18
   7   7   0   13.81    2.55
   8   6   0   16.77    2.69
  -8  -6   0   18.83    2.42
  -6   8   0   17.42    2.44
   6  -8   0   20.05    2.74
   8   4   0   95.46    3.52
   4  -8   0   94.45    4.94
  -8  -4   0  102.77    4.92
  -4   8   0   93.99    4.68
   8   4   0  103.53    5.22
  -2   8   0   65.62    3.58
  -8  -2   0   59.51    3.63
   8   2   0   62.80    3.54
   8   2   0   64.38    3.06
   2  -8   0   66.17    2.87
   2  -8   0   62.49    3.64
   0   8   0   37.88    2.69
   8   0   0   38.56    2.35
   0   8   0   35.21    2.60
   0  -8   0   40.48    2.68
   0   8   0   40.08    2.82
   8   0   0   40.83    2.70
  -8   0   0   35.94    2.90
  -2  -8   0   12.37    1.68
   2   8   0   11.08    1.49
  -8   2   0   15.45    2.18
   8  -2   0   11.61    1.91
   2   8   0   11.55    2.00
   4   8   0   38.29    2.20
   8  -4   0   35.15    3.09
   4   8   0   33.04    3.28
  -4  -8   0   37.69    2.74
  -8   4   0   37.26    3.30
   8  -6   0   47.46    3.77
   6   8   0   46.38    4.13
  -8   6   0   49.61    4.01
  -6  -8   0   55.18    3.51
   8  -8   0    3.07    2.32
  -8  -8   0    1.82    1.62
  -8   8   0    2.23    1.91
   8   8   0    3.82    2.40
   7  -9   0   11.74    4.82
  -9  -7   0   19.33    2.26
  -7   9   0   19.81    4.02
   9   5   0    4.55    2.20
  -5   9   0    3.95    1.91
   5  -9   0    3.29    1.93
  -3   9   0   10.79    1.95
  -9  -3   0   10.40    2.15
   9   3   0   13.38    2.11
   9   3   0   14.90    1.51
   3  -9   0    8.89    1.91
   1  -9   0    8.40    1.69
  -9  -1   0   10.48    1.93
   9   1   0    6.55    1.47
   9   1   0    9.28    1.62
  -1   9   0   10.36    1.77
   1  -9   0   10.90    1.52
  -9   1   0   21.50    2.62
   9  -1   0   26.76    2.56
   1   9   0   21.56    2.40
  -1  -9   0   22.15    2.32
  -1  -9   0   21.87    2.04
   9  -3   0   24.44    2.75
  -3  -9   0   25.23    2.36
   3   9   0   26.81    2.16
   3   9   0   24.76    2.88
  -9   3   0   28.18    2.99
  -9   5   0   15.76    2.51
  -5  -9   0   15.28    2.11
   9  -5   0   18.91    2.70
   5   9   0   16.73    2.52
  -9   7   0    0.97    1.81
  -6  10   0   13.89    2.32
   6 -10   0    9.87    2.27
 -10  -6   0   17.83    2.28
  10   6   0   14.45    2.49
   4 -10   0    1.33    1.59
  10   4   0    2.94    1.72
 -10  -4   0    1.58    1.52
  -4  10   0    4.74    2.06
  10   2   0   21.14    2.12
  10   2   0   24.96    2.63
  -2  10   0   29.44    3.18
 -10  -2   0   29.66    3.01
   2 -10   0   26.55    2.76
  10   0   0   67.87    3.90
   0 -10   0   61.04    3.91
   0 -10   0   53.80    3.50
   0 -10   0   67.49    3.86
 -10   0   0   63.37    4.28
  -2 -10   0   22.50    2.43
  -2 -10   0   31.17    2.38
 -10   2   0   26.64    3.07
 -10   4   0   16.98    2.66
  10  -4   0   20.77    2.80
   4  10   0   22.60    2.97
   6  10   0    9.04    2.23
 -10   6   0    5.36    2.41
  10  -6   0    2.22    1.97
 -11  -5   0   19.10    3.52
  -3  11   0   16.64    2.29
 -11  -3   0   16.56    2.36
   3 -11   0   14.08    2.34
  11   3   0   12.58    2.14
 -11  -1   0    5.22    2.01
   1 -11   0    5.58    1.28
   1 -11   0    6.69    1.48
  11  -1   0    9.35    2.06
  -1 -11   0   10.81    1.57
 -11   1   0    8.08    2.58
  -1 -11   0    8.13    1.62
  -3 -11   0    2.01    1.49
  11  -3   0    2.04    1.58
   0   1  -1  121.53    2.29
  -1   0  -1  122.71    2.27
   0  -1  -1  116.84    2.37
   0  -1  -1  120.51    2.06
  -1   0  -1  120.17    2.35
  -1   0  -1  119.67    2.21
   0  -1  -1  120.61    2.35
   1   0  -1  119.60    2.13
   1   0  -1  120.09    2.39
   1   0  -1  122.97    2.13
   0  -1  -1  118.15    2.36
   0   1  -1  119.40    2.34
   1   0  -1  122.58    2.32
   0  -1   1  118.27    2.14
  -1   0   1  117.61    2.40
   1   0   1  122.16    2.30
   0  -1   1  122.09    2.40
   0   1   1  121.70    2.40
   0   1   1  120.46    2.06
   0   1   1  122.69    2.36
   1   0   1  122.74    2.38
   0  -1   1  121.16    2.33
   0  -1   1  119.87    2.14
   1   0   1  120.18    2.23
  -1   0   1  115.39    2.27
   2   1  -1  155.22    2.84
  -2  -1  -1  156.07    3.24
   1  -2  -1  157.18    3.02
   2   1  -1  155.18    3.48
  -1   2  -1  154.91    3.40
   1  -2  -1  151.27    3.02
  -1   2  -1  157.57    2.82
  -2  -1   1  154.83    3.46
   2   1   1  150.37    3.43
  -1   2   1  157.98    3.46
  -2  -1   1  152.05    2.80
   1  -2   1  154.03    2.80
   1  -2   1  157.18    3.38
  -1   2   1  153.09    3.28
   2   1   1  152.85    3.23
   2  -1  -1  287.41    4.75
  -2   1  -1  293.56    5.45
  -1  -2  -1  289.72    5.02
  -2   1  -1  282.15    4.38
  -1  -2  -1  280.09    4.88
   1   2  -1  288.80    5.51
   2  -1  -1  281.16    5.29
  -2   1  -1  280.96    4.36
  -1  -2   1  281.84    5.38
   2  -1   1  285.06    5.37
   1   2   1  281.30    5.16
  -2   1   1  287.48    4.74
   1   2   1  285.79    5.56
  -2   1   1  281.97    5.47
  -1  -2   1  286.49    4.73
  -3  -2  -1   79.51    2.45
   3   2  -1   76.98    2.72
   2  -3  -1   77.28    1.89
   3   2  -1   76.21    1.96
  -2   3  -1   75.78    2.64
   2  -3  -1   73.86    1.90
  -2   3   1   75.52    2.55
   3   2   1   75.72    2.32
  -2   3   1   76.50    2.69
   3   2   1   76.17    2.75
  -3  -2   1   75.27    2.59
   2  -3   1   77.28    1.63
   2  -3   1   76.15    2.59
   3   0  -1  146.33    3.28
  -3   0  -1  146.86    3.63
   0   3  -1  142.69    3.46
   3   0  -1  147.11    3.30
   0   3  -1  144.66    3.31
   0   3  -1  140.74    3.40
   0   3   1  145.16    3.22
   3   0   1  142.70    3.48
   0   3   1  143.39    3.47
   0   3   1  142.70    3.52
  -3   0   1  150.54    3.79
   3   0   1  147.55    3.23
  -3   2  -1  135.90    3.79
   2   3  -1  137.87    2.91
  -2  -3  -1  137.02    3.33
   3  -2  -1  143.57    3.75
   2   3  -1  134.26    3.86
   3  -2  -1  134.09    2.58
  -3   2   1  136.70    3.77
  -2  -3   1  132.77    3.62
   2   3   1  135.86    3.89
   2   3   1  137.31    3.33
   3  -2   1  134.89    3.69
  -3   2   1  134.82    2.58
  -3   4  -1   19.48    1.65
   4   3  -1   21.65    1.13
  -4  -3  -1   22.50    1.61
   3  -4  -1   19.12    1.65
   4   3  -1   22.18    1.73
   3  -4  -1   20.12    0.85
   3  -4   1   20.58    1.59
   4   3   1   20.52    1.32
  -3   4   1   20.20    1.62
   4   3   1   19.67    1.75
  -4  -3   1   20.11    1.65
   4   1  -1  146.01    3.42
  -1   4  -1  136.27    3.82
  -1   4  -1  139.24    3.38
   1  -4  -1  141.23    3.59
   4   1  -1  133.44    3.77
  -4  -1  -1  139.79    3.91
  -1   4  -1  145.41    3.90
   1  -4   1  136.95    3.77
  -1   4   1  137.42    3.89
  -4  -1   1  144.70    4.12
  -1   4   1  138.28    3.66
   4   1   1  147.04    3.88
   4   1   1  131.83    3.60
  -4   1  -1   90.78    3.12
   1   4  -1   81.09    2.98
   1   4  -1   87.32    2.51
   4  -1  -1   88.33    2.85
   1   4  -1   90.18    2.87
   4  -1  -1   86.23    2.31
   4  -1   1   89.54    2.96
   4  -1   1   88.24    2.18
  -4   1   1   79.71    3.47
   1   4   1   83.17    2.69
   1   4   1   89.99    2.61
   1   4   1   87.89    3.11
   4  -3  -1   60.31    2.70
  -4   3  -1   63.09    2.88
   3   4  -1   59.57    2.88
  -3  -4  -1   63.56    2.49
   3   4  -1   61.97    1.98
   4  -3   1   65.27    2.86
   3   4   1   58.88    2.86
   3   4   1   60.24    2.27
  -4   3   1   66.08    2.91
  -3  -4   1   61.77    2.65
   5   4  -1   78.03    2.50
   4  -5  -1   78.83    3.70
  -5  -4  -1   85.17    3.39
   5   4  -1   77.97    3.85
  -4   5  -1   70.40    3.43
   5   4   1   75.15    2.85
   4  -5   1   80.00    3.68
   5   4   1   78.45    3.85
  -5  -4   1   86.86    3.67
  -4   5   1   77.66    3.55
  -2   5  -1   77.26    3.14
   2  -5  -1   76.88    2.46
  -5  -2  -1   70.14    2.96
   5   2  -1   73.00    3.11
   5   2  -1   74.91    2.44
  -2   5  -1   77.36    2.34
   5   2   1   72.72    2.74
  -5  -2   1   76.02    3.24
   2  -5   1   72.52    3.08
   5   2   1   72.09    3.07
  -2   5   1   77.21    3.02
  -2   5   1   76.46    3.19
   5   0  -1   51.81    2.25
   0   5  -1   53.75    2.30
  -5   0  -1   52.66    2.52
   0   5  -1   53.21    2.41
   5   0  -1   50.83    2.14
   0   5  -1   52.59    2.37
   0   5   1   53.63    2.37
   0   5   1   55.16    2.25
   0   5   1   51.53    2.42
   5   0   1   52.12    2.40
   5   0   1   48.71    2.06
  -5   0   1   48.83    2.58
   5  -2  -1   96.65    2.29
  -5   2  -1   81.71    1.61
   2   5  -1   92.76    2.82
  -5   2  -1   94.58    3.72
  -2  -5  -1   99.03    3.22
   2   5  -1  104.02    3.93
   5  -2  -1   97.67    3.54
   2   5   1   95.57    3.82
   2   5   1   96.19    3.19
  -5   2   1   94.07    3.67
  -2  -5   1   97.69    3.49
   5  -2   1   96.99    3.58
   4   5  -1   70.57    3.64
   5  -4  -1   76.80    3.59
  -4  -5  -1   69.91    3.02
  -5   4  -1   73.38    3.57
   4   5  -1   73.16    2.41
   4   5   1   69.02    2.73
  -4  -5   1   76.01    3.42
  -5   4   1   71.08    3.50
   4   5   1   76.27    3.83
   5  -4   1   71.50    3.51
  -5   6  -1   29.46    2.64
  -6  -5  -1   28.10    2.37
   5  -6  -1   25.36    2.49
   6   5  -1   26.52    1.48
   6   5  -1   22.85    2.57
   5  -6   1   33.11    2.66
   6   5   1   26.60    1.83
  -6  -5   1   26.16    2.42
   6   5   1   24.47    2.61
  -5   6   1   29.44    2.58
  -3   6  -1   38.74    2.60
   3  -6  -1   39.42    1.62
   6   3  -1   45.30    2.83
  -6  -3  -1   44.18    2.63
   6   3  -1   39.12    1.86
   3  -6  -1   41.52    2.68
   6   3   1   39.76    2.73
  -6  -3   1   39.92    2.70
   3  -6   1   40.29    1.38
   3  -6   1   42.05    2.71
  -3   6   1   45.11    2.67
   6   3   1   41.83    2.17
   6   1  -1   94.92    3.29
   6   1  -1   96.29    3.63
   1  -6  -1   97.34    3.46
  -6  -1  -1   96.91    3.83
  -1   6  -1  100.19    3.65
  -1   6  -1   96.12    3.70
   1  -6   1   90.76    3.55
  -6  -1   1   99.34    3.98
   6   1   1   92.08    3.51
  -1   6   1   95.57    3.50
  -1   6   1   93.43    3.73
   6   1   1   95.08    3.48
   1   6  -1   14.72    1.50
   6  -1  -1   12.19    1.45
   1   6  -1   13.18    1.57
  -6   1  -1   13.73    1.68
   6  -1  -1   14.47    1.17
   1   6  -1   12.38    1.23
  -6   1   1   12.83    1.68
   1   6   1   11.72    1.31
   6  -1   1   13.74    1.60
   1   6   1   11.29    1.57
   1   6   1   12.81    1.37
   6  -1   1   11.45    1.01
  -6   3  -1   67.34    3.57
   3   6  -1   66.68    2.51
   6  -3  -1   68.03    3.38
  -3  -6  -1   67.18    2.96
   3   6  -1   66.34    3.56
   3   6   1   68.63    2.86
   3   6   1   67.56    3.60
  -3  -6   1   69.42    3.26
   6  -3   1   67.12    3.37
  -6   3   1   64.58    3.51
  -6   5  -1   15.68    2.13
   5   6  -1   17.14    2.31
  -5  -6  -1   19.27    1.98
   6  -5  -1   17.56    2.01
   5   6  -1   19.12    1.26
   5   6   1   20.64    2.46
  -6   5   1   18.84    2.23
  -5  -6   1   15.85    2.05
   6  -5   1   15.92    1.96
   5   6   1   18.12    1.55
   7   6  -1    3.78    1.89
  -6   7  -1    5.38    2.09
  -7  -6  -1    6.58    2.08
   6  -7  -1    7.69    1.89
   6  -7   1    5.53    1.76
   7   6   1    8.89    1.16
  -6   7   1    7.74    2.27
   7   6   1    5.20    1.89
  -7  -6   1    5.70    2.02
   7   4  -1   21.51    1.41
   7   4  -1   18.84    2.34
   4  -7  -1   18.54    2.27
  -7  -4  -1   19.19    2.10
  -4   7  -1   23.94    2.42
  -7  -4   1   20.56    2.29
  -4   7   1   19.91    2.14
   7   4   1   21.97    1.68
   4  -7   1   20.15    2.29
   7   2  -1   29.80    2.39
   2  -7  -1   30.34    2.46
  -7  -2  -1   26.76    2.28
  -2   7  -1   29.99    2.35
   2  -7  -1   31.02    1.92
   7   2  -1   30.82    1.93
  -2   7   1   29.54    2.25
  -7  -2   1   30.77    2.59
   2  -7   1   31.07    2.40
   2  -7   1   33.53    2.04
   7   2   1   29.35    2.05
   7   2   1   28.32    2.31
   7   0  -1   49.14    2.66
   0   7  -1   48.24    2.75
  -7   0  -1   46.81    2.94
   0   7  -1   42.68    2.51
   0   7  -1   44.00    2.75
   7   0  -1   44.34    2.41
   0   7   1   47.34    2.79
   7   0   1   46.86    2.37
   0   7   1   45.40    2.67
   7   0   1   44.13    2.67
  -7   0   1   47.88    3.09
   0  -7   1   41.98    2.46
   0   7   1   45.32    2.54
  -2  -7  -1   18.85    1.75
  -7   2  -1   21.16    2.70
   2   7  -1   21.34    2.21
   7  -2  -1   18.86    1.07
   7  -2  -1   20.93    2.05
   2   7  -1   20.67    1.67
  -7   2   1   20.20    2.08
   7  -2   1   21.52    2.16
   2   7   1   17.01    1.65
   2   7   1   19.64    2.06
  -2  -7   1   17.89    1.88
   7  -4  -1   15.20    2.08
   4   7  -1   13.14    1.20
  -4  -7  -1   12.84    1.69
   4   7  -1   11.24    2.02
  -7   4  -1   12.21    2.05
   7  -4   1   13.55    2.07
  -7   4   1   15.32    2.16
   4   7   1   14.87    1.50
   4   7   1   13.48    2.24
  -4  -7   1    9.94    1.75
  -7   6  -1   41.11    3.46
   7  -6  -1   36.64    3.14
   6   7  -1   33.82    3.42
  -6  -7  -1   36.65    2.82
   7  -6   1   37.53    3.20
   6   7   1   31.82    3.34
  -6  -7   1   31.75    2.80
   6   7   1   42.69    2.35
  -7   6   1   32.39    3.09
   7  -8  -1   13.02    2.47
  -7   8  -1   11.85    2.27
  -8  -7  -1   11.50    1.89
   8   7  -1   10.52    2.40
   7  -8   1   11.28    2.11
  -7   8   1    7.70    2.40
   8   7   1   10.38    2.32
  -8  -7   1   11.87    2.22
   5  -8  -1    0.65    1.43
  -8  -5  -1    0.66    1.17
   8   5  -1    0.99    1.22
  -5   8  -1    5.59    2.15
   8   5   1    4.70    0.99
  -8  -5   1    2.61    1.79
  -5   8   1    4.74    1.89
   8   5   1    2.54    1.78
   5  -8   1    0.64    1.16
   8   3  -1   40.33    2.14
  -3   8  -1   34.11    2.84
   8   3  -1   38.76    3.09
   3  -8  -1   34.91    2.95
   3  -8  -1   29.06    1.77
  -8  -3  -1   36.87    2.95
   8   3   1   40.64    3.19
   3  -8   1   36.79    2.98
   8   3   1   35.43    2.31
  -3   8   1   36.57    2.77
  -8  -3   1   39.84    3.13
  -1   8  -1   21.89    2.18
   1  -8  -1   21.67    2.21
   8   1  -1   26.71    2.26
   1  -8  -1   24.41    2.02
  -8  -1  -1   19.61    2.15
   8   1  -1   21.31    1.90
   8   1   1   23.33    2.13
  -1   8   1   18.07    1.99
   8   1   1   19.58    1.99
   1  -8   1   21.87    1.91
   1  -8   1   19.85    2.08
  -1   8   1   22.03    2.20
  -8  -1   1   21.58    2.41
   8  -1  -1   25.16    1.89
  -1  -8  -1   22.21    2.08
  -8   1  -1   25.46    1.52
  -8   1  -1   27.43    2.61
   8  -1  -1   23.64    2.25
   1   8   1   28.44    2.25
  -8   1   1   23.26    2.34
  -1  -8   1   26.18    2.01
   1   8   1   24.31    2.39
   8  -1   1   28.88    2.50
  -3  -8  -1   39.72    2.63
  -8   3  -1   37.78    3.05
   3   8  -1   40.03    2.23
   3   8  -1   35.63    3.14
   8  -3  -1   39.11    3.02
   3   8   1   38.65    2.50
  -8   3   1   36.50    3.15
   8  -3   1   34.68    2.99
  -3  -8   1   40.80    2.96
   3   8   1   34.77    3.14
  -5  -8  -1    7.04    1.58
   8  -5  -1    4.37    1.93
   5   8  -1    4.10    2.04
  -8   5  -1    4.94    2.06
  -5  -8   1    5.49    2.09
   5   8   1    6.48    1.23
   5   8   1    5.40    2.19
   8  -5   1    3.27    1.76
  -8   5   1    5.24    2.12
  -8   7  -1   20.23    2.77
  -7  -8  -1   24.03    2.38
   7   8  -1   16.15    2.79
   8  -7  -1   18.76    2.55
  -7  -8   1   20.20    2.51
   7   8   1   16.01    2.80
   8  -7   1   23.76    3.08
  -8   7   1   23.27    2.90
   6  -9  -1   13.99    2.55
  -6   9  -1   15.56    2.45
   9   6  -1   12.98    2.54
  -9  -6  -1   20.22    2.36
   6  -9   1   15.86    2.68
   9   6   1   15.51    2.66
  -6   9   1   13.32    2.23
  -9  -6   1   16.95    2.50
   4  -9  -1   24.62    2.83
  -9  -4  -1   21.60    2.56
  -4   9  -1   27.57    4.54
   9   4  -1   29.50    3.04
   9   4   1   26.43    2.03
   9   4   1   29.13    2.97
  -4   9   1   23.00    2.57
  -9  -4   1   27.66    2.88
   2  -9  -1    4.98    1.78
  -2   9  -1    3.15    1.68
   2  -9  -1    5.41    1.13
  -9  -2  -1    6.69    2.05
   9   2  -1    4.01    1.74
   9   2  -1    3.13    1.08
  -9  -2   1    3.16    1.78
   9   2   1    5.14    1.54
   9   2   1    3.11    1.64
   2  -9   1    4.73    1.75
  -2   9   1    4.40    1.77
   2  -9   1    4.58    1.00
   0   9  -1   36.67    2.84
   0  -9  -1   33.87    2.80
   9   0  -1   31.52    2.57
  -9   0  -1   30.66    2.87
   9   0  -1   33.98    2.36
  -9   0  -1   32.94    2.19
   0   9  -1   31.58    2.71
   0  -9  -1   29.02    2.51
   0  -9   1   34.63    2.75
  -9   0   1   34.98    3.11
   0   9   1   28.65    2.58
   9   0   1   32.00    2.67
   0   9   1   30.18    2.44
   0  -9   1   33.26    2.55
   2   9  -1   21.17    2.58
  -9   2  -1   19.63    2.55
  -2  -9  -1   22.53    2.23
  -2  -9  -1   21.25    2.70
   9  -2  -1   24.24    2.52
  -2  -9   1   18.01    2.04
   9  -2   1   22.46    2.56
   2   9   1   18.31    2.46
  -2  -9   1   19.46    2.25
   2   9   1   19.11    1.99
  -9   2   1   16.93    2.46
   4   9  -1    5.18    2.55
  -9   4  -1    6.88    2.32
  -4  -9  -1    8.84    1.70
  -9   4   1   10.00    2.18
   4   9   1   13.40    1.68
   4   9   1   12.59    2.34
  -4  -9   1   12.62    2.06
   9  -4   1    7.83    2.82
  -9   6  -1    2.66    1.97
   9  -6  -1    3.01    1.99
   6   9  -1    1.31    1.92
   6   9   1    0.81    1.77
  -6  -9   1    4.04    1.94
   9  -6   1    1.55    1.89
  -9   6   1    1.87    1.67
  10   5  -1    8.54    2.10
  -5  10  -1    4.08    1.72
 -10  -5  -1    8.15    1.83
   5 -10  -1    3.78    1.94
 -10  -5   1    4.62    1.89
  10   5   1    9.26    2.08
   5 -10   1    5.33    2.02
  -5  10   1    2.37    1.78
 -10  -3  -1   16.74    2.27
   3 -10  -1   14.64    2.36
  -3  10  -1   17.75    2.55
  -3  10   1   12.70    2.17
  10   3   1   21.37    3.09
 -10  -3   1   17.35    2.46
  10   3   1   15.51    2.56
   3 -10   1   13.37    2.25
 -10  -1  -1    2.31    1.70
  -1  10  -1    1.42    1.53
 -10  -1  -1   -0.28    1.42
  10   1  -1    2.21    1.30
   1 -10  -1    0.91    1.31
   1 -10  -1    2.23    1.23
  10   1  -1    2.70    1.39
  -1  10   1    1.26    1.38
   1 -10   1    2.69    1.30
  10   1   1    1.81    1.30
 -10  -1   1    1.74    1.75
   1 -10   1    2.67    1.42
  -1 -10  -1   17.77    2.01
  -1 -10  -1   19.78    2.17
  10  -1  -1   21.04    2.37
 -10   1  -1   14.52    2.34
   1  10  -1   21.86    2.57
  -1 -10  -1   20.11    2.43
  -1 -10   1   21.49    2.08
  10  -1   1   20.16    2.47
 -10   1   1   14.95    2.48
  -1 -10   1   17.51    2.34
  -1 -10   1   17.69    2.34
  10  -3  -1    4.01    2.02
  -3 -10  -1    6.18    1.74
 -10   3  -1    2.79    1.92
   3  10  -1    6.14    2.21
  -3 -10  -1    6.71    2.36
 -10   3   1    5.50    2.15
  -3 -10   1    7.30    1.57
   3  10   1    6.47    1.73
  10  -3   1    5.93    2.10
  -5 -10  -1    4.43    2.25
  10  -5  -1    3.48    1.81
   5  10  -1    3.74    2.15
 -10   5  -1    4.50    2.23
  10  -5   1    1.66    1.70
 -10   5   1    4.51    2.23
  -5 -10   1    6.42    2.15
   5  10   1    5.88    2.54
   4 -11  -1    2.61    1.59
  -4  11  -1    3.27    1.84
 -11  -4  -1    2.68    2.40
  -4  11   1    3.24    3.41
 -11  -4   1    5.02    1.92
   4 -11   1    1.52    1.83
 -11  -2  -1   11.71    2.12
   2 -11  -1   11.96    2.02
  -2  11  -1    9.34    1.96
   2 -11   1    8.63    2.03
 -11  -2   1    5.88    2.18
  -2  11   1   14.39    2.07
 -11   0  -1    6.23    2.28
   0 -11  -1    7.19    1.53
  11   0  -1   11.84    1.89
   0 -11  -1   14.01    1.92
   0 -11  -1    8.02    1.66
  11   0   1    8.04    1.77
 -11   0   1   12.66    2.48
   0 -11   1    9.46    1.90
   0 -11   1    6.49    1.55
  11  -2  -1    3.62    1.81
 -11   2  -1    4.25    2.01
  -2 -11  -1    3.85    1.67
  -2 -11   1    0.80    1.22
  11  -2   1    1.75    1.61
 -11   2   1    0.94    1.62
  -2 -11   1    0.67    1.38
 -11   4  -1   18.08    2.67
  11  -4  -1   25.21    3.01
  -4 -11  -1   16.60    2.65
   4  11  -1   17.61    2.85
 -11   4   1   13.19    2.44
  -4 -11   1   16.78    2.70
  11  -4   1   19.77    3.05
   1 -12  -1    5.00    1.73
   1 -12   1   10.50    1.75
  12  -1   1   11.65    2.54
   0   0  -2  139.55    2.66
   0   0  -2  139.36    2.37
   0   0   2  138.64    2.50
   0   0   2  137.68    2.63
   0   0   2  139.09    2.41
   0   0   2  136.83    2.36
  -1   1  -2  144.38    2.95
  -1  -1  -2  138.67    2.38
   1  -1  -2  135.96    2.82
  -1   1  -2  141.02    2.54
   1  -1  -2  141.90    2.99
  -1  -1  -2  135.19    3.08
   1   1  -2  142.01    3.09
  -1   1   2  140.98    2.92
  -1   1   2  136.50    3.09
  -1  -1   2  142.44    3.07
  -1   1   2  141.40    2.79
   1   1   2  138.94    3.10
   1   1   2  139.68    2.37
   1   1   2  139.53    2.96
   1  -1   2  136.45    2.88
  -2   0  -2  239.52    4.49
  -2   0  -2  244.18    4.55
   0  -2  -2  243.69    4.78
   2   0  -2  242.09    4.27
   0   2  -2  244.39    4.72
   0   2  -2  241.97    4.59
  -2   0  -2  243.33    4.45
   2   0  -2  247.92    4.67
   0  -2  -2  240.54    4.14
   0   2   2  242.33    4.13
   0  -2   2  242.15    4.30
   0  -2   2  244.08    4.32
   2   0   2  238.31    4.73
   0   2   2  250.94    4.77
   2   0   2  241.77    4.49
  -2   0   2  239.48    4.81
   2   2  -2  134.97    2.33
   2  -2  -2  134.01    2.85
  -2   2  -2  132.66    3.43
  -2   2  -2  134.70    2.22
  -2  -2  -2  137.26    2.90
   2   2  -2  133.18    3.54
   2   2   2  139.55    3.66
  -2  -2   2  136.76    3.52
   2   2   2  130.03    3.22
  -2   2   2  134.47    2.86
  -2  -2   2  132.76    2.32
   2  -2   2  136.34    3.41
  -2   2   2  133.70    3.34
   2  -2   2  134.91    2.22
  -2   2   2  137.55    3.45
   3   1  -2   64.89    2.32
   3   1  -2   63.78    1.68
  -3  -1  -2   64.72    2.11
  -1   3  -2   62.01    1.82
  -1   3  -2   62.85    2.22
   1  -3  -2   66.86    2.05
   3   1   2   64.12    2.25
  -1   3   2   62.33    2.00
   3   1   2   60.42    2.15
  -3  -1   2   65.37    1.66
  -3  -1   2   62.49    2.38
   1  -3   2   65.65    2.17
  -1   3   2   63.48    2.31
   1   3  -2  133.50    3.42
  -3   1  -2  129.57    3.48
   3  -1  -2  124.55    3.23
  -3   1  -2  130.21    2.61
   1   3  -2  131.18    2.78
  -3   1  -2  129.04    2.57
   3  -1  -2  135.41    3.02
   1   3  -2  131.25    3.54
   1   3   2  132.14    3.65
  -3   1   2  134.72    3.64
   1   3   2  130.23    3.37
   3  -1   2  135.45    3.55
   1   3   2  132.03    2.84
  -3   3  -2  154.05    4.35
   3   3  -2  154.57    3.01
   3  -3  -2  153.71    3.18
  -3  -3  -2  149.42    3.68
   3   3  -2  157.09    4.53
   3  -3  -2  153.39    4.34
  -3  -3   2  149.73    2.95
   3  -3   2  147.03    4.23
   3   3   2  153.57    3.93
  -3   3   2  155.54    4.26
  -3  -3   2  149.61    4.28
   3   3   2  146.99    4.45
  -3   3   2  158.04    4.37
  -2   4  -2   61.64    2.61
  -4  -2  -2   57.22    2.27
   2  -4  -2   58.25    1.98
  -2   4  -2   57.67    1.68
   4   2  -2   59.76    1.75
   4   2  -2   55.77    2.59
   2  -4   2   54.97    2.38
   4   2   2   56.18    2.27
  -2   4   2   57.44    2.34
  -2   4   2   58.98    2.61
  -4  -2   2   55.60    2.59
  -4   0  -2  130.58    3.74
   0   4  -2  130.18    3.71
   0   4  -2  135.00    3.64
   0   4  -2  129.27    3.40
   4   0  -2  136.02    3.55
   4   0  -2  129.36    3.33
   0   4   2  131.11    3.70
   0  -4   2  134.81    3.40
   0   4   2  142.31    3.35
   4   0   2  132.55    3.75
  -4   0   2  129.54    4.05
   0   4   2  133.67    3.82
   4   0   2  134.98    3.40
  -4   2  -2   75.10    2.99
   4  -2  -2   76.33    2.07
   2   4  -2   77.68    2.08
   2   4  -2   73.60    3.05
  -2  -4  -2   70.92    2.34
   4  -2  -2   71.88    3.20
  -4   2   2   73.28    2.96
   2   4   2   72.75    3.08
   4  -2   2   71.72    2.88
   2   4   2   72.82    2.63
   4  -4  -2  102.63    3.92
  -4   4  -2  104.26    4.01
  -4  -4  -2  106.69    3.39
   4  -4  -2  100.21    2.23
   4   4  -2  103.21    2.49
   4   4  -2   97.70    4.02
   4   4   2  104.89    3.44
   4   4   2  100.60    4.13
   4  -4   2  101.76    3.94
  -4   4   2  100.30    3.83
  -4  -4   2  101.41    3.87
   3  -5  -2   62.88    3.17
   5   3  -2   70.16    3.37
   3  -5  -2   67.78    2.13
  -5  -3  -2   69.87    2.88
  -3   5  -2   67.69    3.14
   5   3  -2   67.61    2.08
  -5  -3   2   67.61    3.24
   3  -5   2   65.96    3.06
  -3   5   2   66.02    3.22
  -3   5   2   69.88    3.06
   5   3   2   66.66    2.74
   3  -5   2   65.78    1.37
   5   3   2   68.74    3.32
   1  -5  -2   24.78    1.59
  -1   5  -2   27.21    1.56
  -1   5  -2   24.16    1.76
   5   1  -2   24.72    1.74
   5   1  -2   27.06    1.44
  -5  -1  -2   21.85    1.73
   1  -5   2   25.44    1.67
  -1   5   2   24.35    1.80
   5   1   2   26.77    1.73
  -5  -1   2   21.91    1.89
  -1   5   2   24.48    1.55
   5   1   2   25.47    1.71
   1   5  -2   87.85    3.38
   1   5  -2   85.50    3.14
  -5   1  -2   84.87    2.41
   5  -1  -2   81.17    3.00
   5  -1  -2   88.16    2.69
   1   5  -2   84.57    2.69
  -5   1  -2   85.84    3.37
   1   5   2   86.75    3.46
   1   5   2   82.55    2.68
  -5   1   2   82.05    3.47
   1   5   2   82.92    3.06
   5  -1   2   81.29    3.22
  -5   3  -2    8.05    1.43
   5  -3  -2    6.18    1.22
   3   5  -2    7.53    0.77
   3   5  -2    6.11    1.39
  -3  -5  -2    6.09    0.97
   3   5   2    5.52    0.97
   3   5   2   12.16    1.69
  -3  -5   2    6.97    1.29
  -5   3   2    7.65    0.55
  -5   3   2    6.71    1.34
   5  -3   2    7.01    1.17
  -5   5  -2   26.66    2.69
  -5  -5  -2   31.00    2.09
   5   5  -2   30.07    1.27
   5  -5  -2   25.92    2.29
  -5  -5   2   31.95    2.49
   5  -5   2   32.16    3.02
   5   5   2   30.64    2.03
   5   5   2   26.08    2.55
  -5   5   2   33.32    2.54
   4  -6  -2   32.61    2.64
  -6  -4  -2   30.64    2.29
   6   4  -2   30.82    2.68
   6   4  -2   29.85    1.40
  -4   6   2   33.71    2.49
   6   4   2   33.06    2.08
   6   4   2   31.55    2.69
  -6  -4   2   32.48    2.60
   6   2  -2   62.23    2.31
  -2   6  -2   65.45    2.35
   2  -6  -2   62.91    2.55
  -2   6  -2   61.71    3.05
   6   2  -2   58.11    3.07
  -6  -2  -2   60.24    2.92
  -2   6   2   59.62    3.16
   6   2   2   60.46    2.80
  -6  -2   2   64.72    3.36
  -2   6   2   62.09    2.86
   6   2   2   60.12    3.05
   2  -6   2   55.60    2.84
  -6   0  -2   95.28    3.81
   0   6  -2   98.98    3.76
   0   6  -2   97.46    3.61
   0  -6  -2   98.11    3.85
   6   0  -2  103.77    3.54
   6   0  -2   97.24    3.43
   6   0   2   95.88    3.74
   0   6   2   99.20    3.78
   6   0   2   99.77    3.30
   0   6   2   98.20    3.80
  -6   0   2  100.24    4.14
   0   6   2   95.48    3.31
   0  -6   2   98.82    3.42
   6  -2  -2   27.75    2.08
   2   6  -2   27.50    2.18
  -6   2  -2   25.02    2.19
   2   6  -2   27.19    1.58
  -2  -6  -2   26.53    1.77
   6  -2  -2   27.89    1.38
  -2  -6   2   25.79    2.10
   6  -2   2   28.26    2.26
   2   6   2   26.37    2.20
  -6   2   2   25.06    2.22
   2   6   2   24.17    1.81
   6  -4  -2   52.53    3.19
   4   6  -2   56.97    2.03
  -4  -6  -2   58.29    2.81
  -6   4  -2   59.29    3.49
   4   6  -2   58.64    3.66
   6  -4   2   57.37    3.32
   4   6   2   60.12    2.86
   4   6   2   56.63    3.55
  -4  -6   2   61.56    3.30
  -6   6  -2   15.22    2.22
   6  -6  -2   14.81    2.17
  -6  -6  -2   16.18    1.92
   6   6  -2   14.92    2.33
   6   6   2   14.91    2.34
   6   6   2   16.55    1.64
   6  -6   2   15.22    2.27
  -6   6   2   15.64    2.17
  -6  -6   2   19.14    2.45
   5  -7  -2   42.95    3.39
  -5   7  -2   43.32    3.29
   7   5  -2   42.14    3.49
  -5   7   2   43.52    3.16
   7   5   2   46.37    2.59
  -7  -5   2   43.24    3.25
   5  -7   2   44.56    3.37
   7   5   2   44.14    3.56
   3  -7  -2   10.13    1.07
   7   3  -2   13.38    1.11
  -7  -3  -2   10.34    1.58
  -3   7  -2   13.27    1.90
   3  -7  -2   10.85    1.64
   7   3   2   11.62    1.79
   3  -7   2   12.59    0.86
  -7  -3   2   14.27    2.02
  -3   7   2   11.85    1.77
   3  -7   2   16.88    1.85
   7   3   2   15.11    1.63
  -1   7  -2   33.06    2.09
   7   1  -2   28.71    2.26
   1  -7  -2   30.02    2.08
   7   1  -2   30.77    1.93
  -7  -1  -2   34.10    2.45
  -1   7  -2   32.13    2.42
   1  -7   2   27.35    2.10
  -1   7   2   28.94    2.07
   7   1   2   32.09    2.26
  -7  -1   2   24.34    2.39
  -1   7   2   30.43    2.39
   7   1   2   31.60    2.27
   1   7  -2   69.40    3.52
   7  -1  -2   69.46    3.09
  -7   1  -2   68.22    2.40
  -1  -7  -2   65.20    3.04
   1   7  -2   65.54    3.27
  -7   1  -2   62.55    3.46
   7  -1  -2   74.20    3.36
   7  -1   2   67.81    3.51
  -1  -7   2   68.02    2.87
  -1  -7   2   75.45    3.72
  -7   1   2   61.83    4.09
   1   7   2   66.94    3.51
   1   7   2   68.62    3.34
   7  -3  -2   24.46    2.34
  -7   3  -2   26.87    2.56
   3   7  -2   24.81    2.54
   3   7  -2   23.14    1.57
  -3  -7  -2   23.75    1.91
  -7   3   2   24.08    2.47
  -3  -7   2   25.74    2.33
   3   7   2   21.40    1.85
   3   7   2   24.59    2.43
   7  -3   2   22.63    2.35
   5   7  -2   23.36    2.73
  -7   5  -2   20.69    2.52
  -5  -7  -2   21.90    2.07
   7  -5  -2   16.58    2.24
  -7   5   2   16.05    2.30
   5   7   2   15.50    2.38
   5   7   2   19.70    1.77
   7  -5   2   18.02    2.21
  -5  -7   2   19.24    2.28
  -7   7  -2    0.07    1.30
  -7  -7  -2    0.82    1.20
   7  -7  -2   -0.96    0.75
   7   7  -2   -0.13    1.57
  -7  -7   2    1.28    1.63
   7   7   2    0.13    1.64
   7  -7   2    1.00    1.65
  -7   7   2    2.42    1.75
  -6   8  -2   25.93    2.89
  -8  -6  -2   27.94    2.52
   6  -8  -2   26.81    3.08
   8   6  -2   23.38    3.05
   8   6   2   33.55    3.48
  -8  -6   2   25.31    2.80
  -6   8   2   26.57    2.84
   6  -8   2   27.35    3.13
   8   4  -2    8.81    1.93
   4  -8  -2    9.23    1.93
  -4   8  -2    8.45    1.88
  -8  -4  -2    9.10    1.77
   8   4   2    7.95    1.35
  -8  -4   2    9.95    2.05
  -4   8   2    9.07    1.75
   8   4   2    7.53    1.79
   4  -8   2    9.70    1.92
  -8  -2  -2   28.82    2.59
   8   2  -2   34.74    2.73
   2  -8  -2   28.39    2.03
   2  -8  -2   29.67    2.56
  -2   8  -2   30.62    2.64
   8   2  -2   31.61    1.96
   8   2   2   29.61    2.48
   2  -8   2   31.03    1.93
   8   2   2   29.06    2.29
  -2   8   2   23.99    2.20
   2  -8   2   33.24    2.64
  -8  -2   2   26.67    2.54
  -8   0  -2   14.06    1.98
   0   8  -2   16.01    1.97
   8   0  -2   16.24    1.74
  -8   0  -2   16.21    1.52
   0  -8  -2   12.45    1.74
   8   0  -2   15.43    1.68
   0   8  -2   15.37    1.82
   0   8   2   13.14    1.76
  -8   0   2   13.33    2.10
   0   8   2   11.92    1.53
   8   0   2   15.75    1.94
   0  -8   2   11.93    1.59
  -2  -8  -2   28.72    2.22
   8  -2  -2   28.03    2.48
   8  -2  -2   36.00    2.45
  -8   2  -2   25.63    2.62
   2   8  -2   34.48    2.93
   2   8   2   28.80    2.77
  -8   2   2   31.00    2.75
   8  -2   2   30.98    2.76
   2   8   2   30.72    2.40
  -2  -8   2   28.51    2.59
  -2  -8   2   29.11    1.97
  -4  -8  -2   27.53    2.22
   4   8  -2   24.98    2.88
  -8   4  -2   29.65    2.98
   8  -4  -2   31.84    2.78
   4   8   2   23.59    2.69
   8  -4   2   22.42    2.68
  -4  -8   2   31.13    2.80
  -8   4   2   26.68    2.83
  -8   6  -2    0.68    1.56
  -6  -8  -2    2.73    1.43
   6   8  -2    1.08    1.76
   8  -6  -2    3.67    1.87
  -8   6   2    3.43    1.82
   6   8   2    2.88    2.13
   8  -6   2    4.67    2.22
  -6  -8   2    5.21    2.21
  -8   8   2   14.91    2.34
  -8  -8   2   12.32    2.37
   7  -9  -2    2.33    1.62
  -7   9  -2    3.98    3.70
  -7   9   2    2.75    1.63
   7  -9   2    1.28    1.99
  -9  -7   2    3.73    1.63
  -9  -5  -2   14.05    2.02
   9   5  -2    9.30    2.17
  -5   9  -2   17.10    2.45
   5  -9  -2   14.96    2.49
   5  -9   2   14.81    2.48
  -9  -5   2   14.39    2.34
  -5   9   2   15.10    2.38
   9   5   2   13.03    2.40
   3  -9  -2    1.76    1.57
  -9  -3  -2   -0.89    1.11
   9   3  -2    2.54    1.64
  -3   9  -2    1.14    1.49
   9   3   2    3.97    1.29
   9   3   2    1.14    1.43
  -3   9   2    1.94    1.52
  -9  -3   2    1.77    1.74
   3  -9   2    1.41    1.43
   1  -9  -2   28.09    2.30
  -9  -1  -2   28.43    2.67
   1  -9  -2   36.00    2.99
  -9  -1  -2   28.54    2.33
   9   1  -2   31.95    2.23
  -1   9  -2   32.07    2.80
   9   1  -2   28.53    2.52
   1  -9   2   29.69    2.59
  -9  -1   2   24.38    2.74
   9   1   2   34.23    2.70
  -1   9   2   28.34    2.67
  -1   9   2   30.01    2.42
   1  -9   2   29.10    2.29
   9  -1  -2    1.68    1.35
   1   9  -2    1.35    1.47
  -1  -9  -2    0.11    1.22
  -1  -9  -2    2.68    1.33
  -9   1  -2    2.85    1.72
  -1  -9   2    2.22    1.07
  -9   1   2    0.51    1.21
   1   9   2    0.00    1.19
  -1  -9   2    3.50    1.89
   9  -1   2    3.42    1.69
  -3  -9  -2    9.99    2.24
  -9   3  -2   10.24    2.09
   3   9  -2    4.31    1.82
  -3  -9  -2    5.60    1.34
   9  -3  -2    9.23    1.99
  -9   3   2    8.19    2.54
  -3  -9   2    8.55    1.80
   9  -3   2    7.79    1.95
   3   9   2    8.16    2.03
   3   9   2    9.56    1.57
  -9   5  -2   26.64    3.11
   5   9  -2   22.23    3.02
   9  -5  -2   26.32    3.00
  -5  -9  -2   22.75    3.20
  -5  -9   2   23.03    2.96
  -9   5   2   26.22    3.07
   5   9   2   21.61    3.04
   9  -5   2   19.74    2.85
   9  -7  -2    5.02    2.75
  -9   7  -2   10.72    2.84
  -7  -9  -2   10.63    2.50
   7   9  -2    5.24    2.32
  -7  -9   2    6.39    2.35
   7   9   2    4.42    2.39
  -9   7   2    8.47    2.01
   9  -7   2    3.32    2.00
  -6  10  -2    1.96    1.74
  10   6  -2    2.58    1.81
 -10  -6  -2    7.39    2.74
   6 -10  -2    6.25    2.34
 -10  -6   2    7.10    2.76
  -6  10   2    6.84    2.17
 -10  -4  -2   12.27    2.59
  10   4  -2    9.69    2.28
   4 -10  -2    9.92    2.11
  -4  10  -2   13.92    2.29
 -10  -4  -2   14.34    2.10
  10   4   2    5.67    2.02
 -10  -4   2    6.66    2.22
  -4  10   2    9.66    1.99
   4 -10   2   11.84    2.29
 -10  -2  -2   25.84    2.85
 -10  -2  -2   35.99    3.01
  10   2  -2   31.20    2.80
  -2  10  -2   28.13    2.89
   2 -10  -2   28.38    2.94
  10   2   2   31.39    2.60
  -2  10   2   32.01    2.78
 -10  -2   2   27.93    3.12
   0 -10  -2    6.72    1.89
 -10   0  -2    7.47    2.30
   0 -10  -2    5.07    1.62
  10   0  -2    7.01    1.59
   0 -10  -2    8.74    1.58
   0 -10   2    2.28    1.24
   0 -10   2    6.04    1.44
 -10   0   2    7.15    2.38
   0 -10   2    7.40    2.39
  10   0   2    6.77    1.68
  -2 -10  -2   22.46    2.13
 -10   2  -2   20.66    2.64
  -2 -10  -2   22.53    2.81
  10  -2  -2   23.26    2.59
   2  10   2   21.47    2.29
  -2 -10   2   21.32    2.52
 -10   2   2   26.62    3.14
  10  -2   2   20.90    2.64
 -10   4  -2    6.88    2.41
   4  10  -2    7.20    2.39
  10  -4  -2    2.63    1.94
  -4 -10  -2    6.18    2.54
  -4 -10   2    3.25    1.82
  10  -4   2    3.92    1.89
 -10   4   2    2.11    2.02
  10  -6  -2    7.04    2.55
  -6 -10  -2   11.34    2.54
 -10   6  -2   10.37    2.20
   6  10  -2    5.42    2.35
  10  -6   2   12.75    2.51
  -6 -10   2    7.02    2.50
 -10   6   2   10.60    2.23
  11   3  -2    5.13    1.96
  -3  11  -2    3.39    1.87
 -11  -3  -2    8.23    1.70
   3 -11  -2    4.53    2.09
  -3  11   2    5.27    1.95
   3 -11   2    3.58    1.87
  -1  11  -2   11.68    2.03
   1 -11  -2   17.19    2.04
   1 -11  -2    9.19    1.82
   1 -11   2   14.54    2.16
 -11  -1   2   12.48    2.31
  11   1   2   14.19    2.21
   1 -11   2   16.32    2.24
 -11   1  -2    1.96    1.47
  -1 -11  -2    6.01    1.91
  11  -1  -2    5.43    2.00
  -1 -11  -2    6.92    1.42
  -1 -11   2    2.04    1.22
  11  -1   2    4.32    1.59
 -11   1   2    1.86    1.86
  -1 -11   2    8.52    1.81
 -11   3  -2   14.29    3.87
   3  11  -2   13.35    2.59
  -3 -11  -2   11.07    2.35
  11  -3  -2    5.94    2.21
 -11   3   2    6.02    2.41
  -3 -11   2   13.90    2.18
  11  -3   2   10.47    2.26
   0 -12  -2    7.66    1.47
   0 -12   2    4.81    1.68
  12   0   2    6.68    2.67
   1   0  -3  153.56    2.81
   0  -1  -3  153.01    3.33
   0   1  -3  150.86    2.81
   0   1  -3  154.28    3.13
   0   1  -3  148.30    3.18
  -1   0  -3  148.91    2.78
   1   0  -3  151.37    3.26
  -1   0  -3  153.72    3.17
   0  -1  -3  148.66    2.48
   0   1   3  150.77    2.50
   0   1   3  154.19    3.22
  -1   0   3  151.03    2.80
   1   0   3  149.39    3.18
  -1   0   3  151.10    3.14
   1   0   3  151.71    2.79
   0  -1   3  150.29    2.82
   1   0   3  153.61    3.33
   2   1  -3  861.59   60.70
   1  -2  -3 1000.00   58.25
   2   1   3  841.30   64.54
  -2  -1   3  999.97   66.29
  -1   2   3  951.78   55.05
   1  -2   3  988.97   58.55
   2   1   3  865.90   68.53
   1   2  -3  177.57    4.10
   2  -1  -3  179.43    3.78
  -1  -2  -3  178.23    2.96
  -1  -2  -3  172.59    4.17
  -1  -2  -3  177.81    2.92
  -2   1  -3  177.94    3.36
  -2   1  -3  186.61    3.92
   1   2   3  176.18    3.96
  -2   1   3  177.75    3.77
  -1  -2   3  180.05    2.94
   2  -1   3  177.01    4.00
  -2   1   3  171.00    3.94
   2  -1   3  176.54    3.36
  -1  -2   3  173.75    4.09
  -1  -2   3  179.68    2.93
  -2   3  -3  109.32    3.33
  -3  -2  -3  107.64    2.76
   2  -3  -3  112.82    2.86
   3   2  -3  107.54    1.91
   3   2  -3  107.06    3.43
   3   2  -3  106.26    1.91
   3   2   3  104.91    3.17
  -2   3   3  105.53    3.34
  -3  -2   3  113.70    3.49
   2  -3   3  105.52    2.28
   3   2   3  107.30    3.48
   2  -3   3  108.14    3.25
  -2   3   3  109.00    3.08
   0  -3  -3  122.13    3.39
  -3   0  -3  122.25    3.08
   3   0  -3  123.00    3.26
   0   3  -3  121.75    3.32
  -3   0  -3  123.58    3.15
   3   0  -3  122.71    2.82
   0   3  -3  121.89    3.20
   0   3   3  123.85    2.65
  -3   0   3  123.17    3.48
   0   3   3  121.97    3.36
   0  -3   3  121.16    2.85
   3   0   3  121.58    3.36
  -2  -3  -3  112.80    2.60
   2   3  -3  117.32    3.60
  -3   2  -3  114.96    3.43
   3  -2  -3  116.57    2.85
  -3   2  -3  111.51    2.03
  -3   2  -3  112.74    2.03
   2   3   3  113.31    3.68
  -2  -3   3  113.26    2.07
   2   3   3  109.28    3.25
  -2  -3   3  111.33    3.49
  -3   2   3  112.94    3.33
   3  -2   3  109.99    3.39
  -3   2   3  113.33    3.37
   4   3  -3   74.00    3.28
  -3   4  -3   75.90    3.18
   4   3  -3   70.88    1.56
   3  -4  -3   70.37    2.23
  -4  -3  -3   70.40    2.48
  -4  -3   3   70.41    1.55
  -3   4   3   73.54    3.10
  -3   4   3   71.08    2.87
  -4  -3   3   67.63    3.09
   3  -4   3   67.66    2.96
   4   3   3   69.11    2.76
   4   3   3   68.39    3.18
  -1   4  -3   65.73    2.20
  -4  -1  -3   71.12    2.50
   1  -4  -3   67.77    2.48
  -1   4  -3   67.11    2.69
   4   1  -3   70.44    2.73
   4   1  -3   70.46    2.00
  -1   4   3   67.41    2.73
  -1   4   3   69.02    2.31
  -4  -1   3   69.20    2.88
   4   1   3   71.41    2.69
   1  -4   3   67.51    2.45
   4   1   3   67.50    2.60
   4  -1  -3  102.55    3.07
   4  -1  -3  103.38    2.95
  -4   1  -3   97.71    3.30
   1   4  -3  100.00    3.39
  -4   1  -3  101.07    2.53
   1   4  -3  107.01    3.40
   1   4   3  104.87    2.58
  -1  -4   3  104.03    2.58
   1   4   3   98.10    3.24
  -4   1   3   97.38    3.46
   4  -1   3  107.50    3.47
  -3  -4  -3  263.10    5.49
   4  -3  -3  266.65    6.56
   3   4  -3  262.93    4.51
   4  -3  -3  262.37    5.14
   3   4  -3  280.80    7.03
  -4   3  -3  266.75    6.63
   4  -3   3  260.48    6.60
  -3  -4   3  265.72    6.60
  -4   3   3  260.28    6.50
   3   4   3  253.80    6.90
  -3  -4   3  258.30    4.47
   3   4   3  270.24    6.23
   4  -5  -3   51.97    3.07
  -5  -4  -3   54.04    2.52
   5   4  -3   51.70    3.09
   4  -5  -3   51.62    1.78
  -4   5  -3   50.91    3.04
   4  -5   3   54.48    3.06
  -5  -4   3   53.18    1.32
   5   4   3   53.27    2.62
  -5  -4   3   53.43    3.10
  -4   5   3   47.57    2.72
   5   4   3   51.62    3.11
   5   2  -3   69.63    3.18
  -5  -2  -3   67.48    2.74
   2  -5  -3   67.01    2.52
   5   2  -3   67.65    2.02
  -2   5  -3   64.36    3.02
  -2   5  -3   69.11    2.19
   5   2   3   68.10    2.89
  -2   5   3   65.03    2.67
  -5  -2   3   69.39    3.28
   5   2   3   70.82    3.14
  -2   5   3   69.42    3.10
   2  -5   3   68.69    2.94
   0   5  -3  274.32    6.38
   5   0  -3  272.18    5.90
   0   5  -3  267.52    6.55
   0  -5  -3  264.02    6.63
  -5   0  -3  278.00    6.53
  -5   0  -3  284.86    6.15
   5   0  -3  272.64    6.28
   0  -5   3  281.88    5.99
   0   5   3  271.75    6.62
   0   5   3  281.65    5.78
  -5   0   3  272.62    7.00
   5   0   3  280.70    6.71
   5  -2  -3   63.21    2.75
   5  -2  -3   63.62    2.21
  -2  -5  -3   68.27    2.39
   2   5  -3   64.22    3.14
  -5   2  -3   67.33    3.04
  -5   2   3   69.19    3.21
  -2  -5   3   66.03    3.07
   2   5   3   64.75    2.77
   2   5   3   63.15    3.20
   5  -2   3   67.33    3.14
  -2  -5   3   64.85    2.02
   5  -4  -3   55.77    3.08
   5  -4  -3   49.88    1.51
  -5   4  -3   50.76    3.05
   4   5  -3   52.56    3.22
  -4  -5   3   50.81    2.96
  -5   4   3   56.07    3.01
   4   5   3   52.41    2.62
   4   5   3   50.24    3.14
   5  -4   3   54.33    3.13
  -5   6  -3   34.48    2.88
   6   5  -3   37.16    3.14
  -6  -5  -3   34.46    2.34
   5  -6  -3   32.47    2.70
   6   5   3   33.31    2.24
   6   5   3   34.31    2.90
  -6  -5   3   35.31    2.90
   5  -6   3   36.05    2.94
  -5   6   3   32.22    2.61
  -3   6  -3  129.24    4.95
   3  -6  -3  137.24    3.77
   6   3  -3  137.20    3.20
  -6  -3  -3  143.99    4.54
   6   3  -3  135.97    5.15
   3  -6  -3  138.22    5.15
  -3   6   3  132.65    5.10
  -3   6   3  133.47    4.59
   6   3   3  133.16    5.05
   6   3   3  135.80    4.49
  -6  -3   3  142.95    5.21
   3  -6   3  141.36    4.99
  -1   6  -3   70.69    3.31
   6   1  -3   70.89    3.20
   1  -6  -3   68.63    3.02
  -6  -1  -3   74.68    3.21
   6   1  -3   73.87    2.63
   1  -6   3   73.24    3.05
   6   1   3   75.23    3.18
   6   1   3   74.22    3.29
  -1   6   3   71.22    3.36
  -1   6   3   75.59    2.93
  -6  -1   3   74.51    3.59
  -1  -6  -3   48.36    2.99
  -1  -6  -3   51.73    2.32
   6  -1  -3   48.52    2.48
   6  -1  -3   51.12    2.28
   1   6  -3   47.45    2.68
  -6   1  -3   51.70    1.96
   1   6  -3   50.24    2.82
  -6   1  -3   49.59    2.74
   1   6   3   52.35    2.22
   1   6   3   53.44    2.75
   1   6   3   49.27    2.91
   6  -1   3   53.54    2.93
  -6   1   3   50.20    3.04
  -1  -6   3   49.81    2.16
   3   6  -3   33.79    2.69
  -3  -6  -3   29.59    1.82
   6  -3  -3   30.62    1.31
  -6   3  -3   29.55    2.48
   6  -3  -3   30.46    2.22
  -3  -6   3   31.41    1.41
  -3  -6   3   33.82    2.50
   3   6   3   31.21    2.65
   3   6   3   32.16    2.17
   6  -3   3   29.32    2.46
  -6   3   3   31.84    2.52
  -6   5  -3   29.84    2.77
   6  -5  -3   29.00    2.51
  -5  -6  -3   30.99    2.14
   5   6  -3   29.75    2.76
   5   6   3   24.75    2.72
  -5  -6   3   29.47    2.63
  -6   5   3   31.62    2.71
   6  -5   3   28.97    2.56
   5   6   3   32.82    2.30
  -7  -6  -3   48.34    2.90
   6  -7  -3   44.87    3.50
  -6   7  -3   41.12    3.45
   7   6  -3   48.45    3.83
   7   6   3   48.88    3.95
  -7  -6   3   44.98    3.51
   7   6   3   52.86    2.96
   6  -7   3   47.76    3.73
  -6   7   3   47.00    3.45
   7   4  -3   28.67    2.78
   4  -7  -3   28.08    1.35
  -4   7  -3   30.26    2.78
   4  -7  -3   28.24    2.59
  -7  -4  -3   31.45    2.35
  -4   7   3   33.75    2.63
  -7  -4   3   31.73    2.86
   7   4   3   28.64    2.73
   4  -7   3   27.05    2.57
   7   4   3   31.82    2.31
  -7  -2  -3   29.23    2.24
   7   2  -3   32.31    2.52
   2  -7  -3   28.39    1.98
  -2   7  -3   30.75    1.76
  -2   7  -3   30.11    2.58
   7   2  -3   28.41    1.61
   7   2   3   28.09    2.31
  -2   7   3   27.09    2.42
  -2   7   3   27.24    2.12
   2  -7   3   31.83    2.36
  -7  -2   3   25.28    2.38
   7   2   3   29.16    2.24
   0   7  -3   33.45    2.50
   0  -7  -3   28.21    2.30
   0   7  -3   30.55    2.21
  -7   0  -3   31.72    1.99
   7   0  -3   32.55    2.21
   7   0  -3   32.75    2.09
  -7   0  -3   31.32    2.39
   0   7   3   30.69    2.37
   0   7   3   29.44    1.98
   7   0   3   32.88    2.50
   0  -7   3   31.47    2.04
   7  -2  -3   45.37    2.78
  -7   2  -3   44.07    3.08
  -2  -7  -3   43.00    2.31
   2   7  -3   48.31    3.18
   7  -2  -3   43.53    1.99
  -2  -7   3   40.85    2.02
   7  -2   3   42.16    2.99
  -7   2   3   48.18    3.23
  -2  -7   3   40.34    2.89
   2   7   3   45.20    2.72
   2   7   3   42.01    3.32
  -4  -7  -3   79.46    3.34
   7  -4  -3   77.29    4.11
   4   7  -3   82.53    4.63
  -7   4  -3   76.56    4.31
   4   7   3   87.61    3.84
   7  -4   3   81.98    4.42
  -7   4   3   77.72    4.30
  -4  -7   3   81.75    4.24
   4   7   3   85.63    4.78
   6   7  -3   13.35    2.39
   7  -6  -3   13.14    2.23
  -7   6  -3   13.31    2.30
  -6  -7  -3   14.80    1.78
   6   7   3   13.16    1.62
  -6  -7   3    9.79    2.21
   6   7   3   11.00    2.01
   7  -6   3   13.10    2.29
  -7   6   3   12.92    2.13
  -7   8  -3   15.65    2.49
   7  -8  -3   15.44    2.56
  -8  -7  -3   17.69    2.65
   8   7  -3   10.02    2.18
  -8  -7   3   11.27    2.20
   8   7   3   11.98    2.46
   7  -8   3    9.97    2.07
  -7   8   3   14.68    2.32
  -5   8  -3   19.58    2.37
   8   5  -3   17.57    2.57
  -8  -5  -3   19.19    2.07
   5  -8  -3   20.44    2.63
   8   5   3   20.02    2.64
   5  -8   3   17.27    2.44
  -5   8   3   18.64    2.40
  -8  -5   3   14.33    2.33
   8   5   3   18.93    1.88
  -8  -3  -3    8.21    1.65
   3  -8  -3    8.37    1.13
   8   3  -3    8.73    1.85
  -3   8  -3    9.23    1.81
   3  -8  -3    8.83    1.85
   8   3   3    6.43    1.46
   8   3   3   11.12    2.00
  -3   8   3    9.14    1.68
   3  -8   3   10.27    1.82
  -8  -3   3    8.81    2.01
   8   1  -3   40.41    2.78
  -1   8  -3   39.91    2.98
   8   1  -3   45.25    2.36
  -8  -1  -3   38.66    2.56
  -8  -1  -3   34.43    2.67
   1  -8  -3   34.19    2.50
  -1   8  -3   39.15    2.45
   1  -8   3   41.62    2.68
  -1   8   3   38.18    2.51
   8   1   3   38.63    2.80
  -8  -1   3   43.56    3.34
  -1   8   3   35.08    2.83
  -8   1  -3   75.62    4.05
  -1  -8  -3   78.40    3.46
   1   8  -3   74.72    3.97
  -8   1  -3   82.89    2.70
   8  -1  -3   76.24    3.19
  -1  -8  -3   78.68    4.26
   8  -1  -3   82.00    3.77
   8  -1   3   75.77    3.98
  -1  -8   3   87.08    4.50
  -1  -8   3   76.96    3.24
  -8   1   3   70.41    4.17
   1   8   3   76.80    3.86
   8  -3  -3   34.38    2.82
  -3  -8  -3   34.07    2.27
  -8   3  -3   30.82    2.94
  -3  -8  -3   42.43    3.61
   3   8  -3   32.27    3.05
  -3  -8   3   33.46    2.91
   3   8   3   31.83    3.10
  -3  -8   3   35.61    1.81
  -8   3   3   33.60    3.06
   8  -3   3   35.90    3.11
   3   8   3   37.18    2.72
   8  -5  -3   17.91    2.44
  -5  -8  -3   20.90    2.77
  -8   5  -3   18.27    2.55
   5   8  -3   13.34    2.21
  -5  -8  -3   18.51    1.93
  -5  -8   3   17.90    2.36
   5   8   3   20.90    1.97
  -8   5   3   17.78    2.50
   5   8   3   14.32    2.41
   8  -5   3   15.14    2.45
  -8   7  -3    9.10    2.17
   8  -7  -3    8.45    2.09
   7   8  -3    6.47    2.49
  -7  -8  -3   12.58    2.57
   8  -7   3    9.64    2.37
  -8   7   3    6.46    2.20
  -7  -8   3    3.30    2.05
   7   8   3    9.22    2.35
   6  -9  -3    5.48    2.04
  -9  -6  -3    9.23    2.31
   9   6  -3    5.99    2.35
  -6   9  -3    9.76    2.82
   6  -9   3    5.61    2.37
  -6   9   3    7.54    2.24
  -9  -6   3    4.34    2.14
  -9  -4  -3   26.97    2.48
   4  -9  -3   20.25    2.67
   9   4  -3   18.34    2.56
  -9  -4  -3   24.03    2.88
  -4   9  -3   23.59    2.75
   9   4   3   25.26    2.24
   4  -9   3   13.43    2.69
   9   4   3   20.55    2.61
  -4   9   3   17.28    2.18
  -9  -4   3   17.28    2.97
   9   2  -3   57.57    3.70
  -9  -2  -3   56.97    3.61
  -2   9  -3   53.79    3.70
   2  -9  -3   49.26    3.67
   9   2  -3   51.01    2.92
  -9  -2  -3   52.80    3.52
   2  -9  -3   46.35    2.76
  -2   9   3   53.46    3.29
  -9  -2   3   56.15    4.02
   9   2   3   51.05    3.27
   2  -9   3   59.19    3.60
  -9   0  -3   24.52    2.56
   0   9  -3   24.97    2.46
   0  -9  -3   23.93    2.47
  -9   0  -3   26.20    1.92
   0   9  -3   24.90    2.54
   0  -9  -3   22.79    2.13
   9   0  -3   26.58    2.23
   9   0  -3   24.03    2.22
   0   9   3   28.87    2.67
  -9   0   3   27.14    2.90
   0   9   3   19.36    1.92
   0  -9   3   21.15    2.04
   9   0   3   28.93    2.69
  -2  -9  -3   15.90    1.72
   2   9  -3   12.52    2.12
  -9   2  -3   17.21    2.40
  -2  -9  -3   15.94    2.42
   9  -2  -3   18.34    2.22
  -2  -9   3   17.32    1.53
  -2  -9   3   14.73    2.37
   2   9   3   19.12    2.22
  -9   2   3   15.68    2.43
   9  -2   3   16.18    2.32
  -4  -9  -3    5.91    2.44
  -9   4  -3    4.90    2.07
   4   9  -3   11.58    2.28
   4   9   3    8.36    1.67
  -4  -9   3   10.39    1.98
   9  -4   3    8.57    2.11
  -9   4   3    6.88    2.30
  -9   6  -3   17.98    2.78
   6   9  -3   13.03    2.57
   9  -6  -3   15.29    2.60
  -6  -9  -3   15.91    2.86
  -9   6   3   18.50    2.80
   9  -6   3   16.88    2.82
  -6  -9   3   18.20    2.54
   5 -10  -3   25.60    3.16
  -5  10  -3   17.60    2.60
 -10  -5  -3   30.27    3.46
 -10  -5  -3   20.88    3.16
  10   5  -3   17.60    2.86
   5 -10   3   20.86    2.81
 -10  -5   3   18.09    2.77
  -5  10   3   17.84    2.27
  -3  10  -3   15.98    2.45
   3 -10  -3   19.63    2.62
  10   3  -3   18.32    2.55
 -10  -3  -3   17.74    2.21
 -10  -3   3   16.65    2.58
   3 -10   3   15.80    2.30
  10   3   3   19.40    2.28
   1 -10  -3   19.00    2.04
   1 -10  -3   15.62    2.24
  -1  10  -3   18.43    2.43
  10   1  -3   17.91    2.13
  10   1   3   20.85    2.38
 -10  -1   3   17.97    2.66
  -1  10   3   14.89    2.07
   1 -10   3   14.97    2.16
   1 -10   3   18.44    2.20
  -1 -10  -3    3.76    1.61
 -10   1  -3   -0.47    1.27
  -1 -10  -3    2.91    1.33
  10  -1  -3    0.80    1.25
   1  10  -3    2.56    1.60
 -10   1   3    3.32    2.15
  -1 -10   3    3.03    1.11
   1  10   3    3.20    1.53
  10  -1   3    4.17    1.79
   3  10  -3   21.39    2.88
  10  -3  -3   20.60    2.75
  -3 -10  -3   18.57    2.74
 -10   3  -3   21.65    2.75
  -3 -10   3   22.22    2.72
 -10   3   3   15.72    2.65
   3  10   3   19.14    2.17
  10  -3   3   20.22    2.70
 -10   5  -3   14.70    2.58
  10  -5  -3   16.30    2.66
   5  10  -3   22.94    3.09
  -5 -10  -3   20.59    3.04
  -5 -10   3   21.11    2.78
  10  -5   3   16.87    2.74
 -10   5   3   17.23    2.70
  -4  11  -3    8.96    2.66
  11   4  -3    7.48    2.70
   4 -11  -3    9.21    2.05
 -11  -4   3   10.91    2.19
   4 -11   3    5.42    2.12
   2 -11  -3    3.22    1.55
 -11  -2  -3    2.59    1.78
  -2  11  -3    2.02    2.08
 -11  -2   3    2.98    1.90
  11   2   3    3.09    1.76
   2 -11   3    1.10    1.47
 -11   0  -3   22.13    2.63
   0 -11  -3   13.44    2.12
   0 -11  -3   18.33    2.30
   0 -11   3   19.75    2.68
 -11   0   3   16.54    2.65
  11   0   3   18.12    2.39
 -11   2  -3   22.89    2.78
  -2 -11  -3   28.12    2.44
  11  -2  -3   26.23    2.98
   2  11  -3   28.63    3.10
  -2 -11  -3   20.14    2.79
  -2 -11   3   24.02    2.82
   2  11   3   30.55    3.11
 -11   2   3   16.51    2.73
  11  -2   3   28.73    3.06
 -11   4  -3   10.84    2.38
   4  11  -3   13.25    2.52
  11  -4  -3   11.17    2.25
  -4 -11  -3   12.71    2.41
  11  -4   3    6.41    2.17
 -11   4   3    9.84    2.27
  -4 -11   3   10.75    3.57
   0   0  -4  183.65    3.86
   0   0   4  183.55    3.33
   0   0   4  171.48    3.65
   0   0   4  184.09    3.58
  -1   1  -4  190.05    3.90
  -1  -1  -4  190.98    2.98
   1  -1  -4  192.50    4.17
   1   1  -4  194.85    4.30
  -1   1  -4  193.25    3.92
  -1  -1  -4  195.59    4.31
  -1   1   4  187.37    3.74
   1  -1   4  190.33    4.00
   1   1   4  193.70    3.01
   1   1   4  195.43    4.17
  -1  -1   4  191.68    3.25
  -1  -1   4  191.10    4.15
  -1   1   4  192.05    3.98
  -2   0  -4  136.16    3.34
  -2   0  -4  143.03    3.06
   0  -2  -4  149.64    3.73
   2   0  -4  142.36    3.53
   0   2  -4  144.87    3.48
   0  -2  -4  140.81    2.68
   0   2  -4  141.96    3.46
   0   2   4  140.52    3.52
   0   2   4  141.88    2.49
  -2   0   4  137.67    3.50
  -2   0   4  141.39    2.91
   2   0   4  144.76    3.58
   0  -2   4  144.43    2.98
   2  -2  -4   34.14    1.55
  -2   2  -4   35.18    1.26
  -2  -2  -4   38.06    1.91
   2   2  -4   39.23    1.95
  -2   2  -4   35.84    1.68
  -2  -2  -4   36.61    1.05
   2   2   4   36.55    1.06
  -2   2   4   33.99    1.62
  -2  -2   4   36.15    1.81
   2   2   4   35.95    1.71
   2  -2   4   37.80    1.77
  -2   2   4   33.10    1.56
  -1   3  -4  172.44    4.40
  -1   3  -4  174.28    3.91
   3   1  -4  177.05    3.20
   3   1  -4  176.48    4.56
  -3  -1  -4  179.66    4.47
  -3  -1  -4  180.06    3.80
   1  -3  -4  178.28    4.32
   3   1  -4  175.75    3.19
  -3  -1   4  174.85    4.57
   1  -3   4  172.57    4.09
   3   1   4  175.71    4.46
  -1   3   4  174.62    3.73
  -1   3   4  177.95    4.48
   3  -1  -4  103.62    3.01
  -1  -3  -4  104.55    2.06
  -1  -3  -4  105.70    2.11
  -3   1  -4  104.28    3.07
  -3   1  -4  105.14    2.60
  -1  -3  -4  108.93    3.46
   1   3  -4  104.64    3.30
   1   3  -4  110.29    3.29
  -1  -3   4  108.77    3.39
   1   3   4  110.11    3.27
   3  -1   4  104.20    3.29
  -3   1   4  104.93    2.91
  -3   1   4  104.77    3.29
  -1  -3   4  103.62    2.21
  -3   3  -4  128.56    2.40
   3  -3  -4  126.51    3.34
  -3  -3  -4  129.32    3.00
   3   3  -4  124.01    4.18
  -3   3  -4  127.15    4.00
   3  -3   4  135.46    4.09
   3   3   4  125.79    4.26
  -3  -3   4  127.78    4.13
  -3   3   4  124.22    3.92
   3   3   4  133.47    3.93
  -3   3   4  126.01    3.76
   2  -4  -4   75.83    2.62
  -2   4  -4   72.41    3.00
   4   2  -4   73.72    1.53
   4   2  -4   74.11    3.07
  -4  -2  -4   71.28    2.43
  -2   4  -4   73.48    2.12
  -2   4   4   72.98    2.57
  -4  -2   4   73.46    3.17
  -2   4   4   72.50    2.99
   2  -4   4   76.66    2.89
   4   2   4   67.61    2.81
   4   2   4   70.86    3.05
   0   4  -4  119.99    3.55
  -4   0  -4  124.13    3.41
   4   0  -4  116.38    3.04
   0  -4  -4  121.33    3.82
  -4   0  -4  117.57    3.46
   4   0  -4  118.36    3.60
   0   4  -4  123.60    3.79
   0  -4   4  122.01    3.14
   0   4   4  119.73    2.83
   4   0   4  119.42    3.81
   0   4   4  124.72    3.85
  -4   0   4  118.45    3.94
   4  -2  -4   52.85    2.38
  -4   2  -4   52.17    1.38
  -2  -4  -4   53.30    1.69
  -4   2  -4   51.52    2.42
  -2  -4  -4   58.97    2.90
  -4   2  -4   53.64    1.40
   4  -2  -4   55.46    2.10
   2   4  -4   52.57    2.59
  -2  -4   4   53.31    2.63
   2   4   4   51.67    2.74
  -2  -4   4   52.71    1.33
  -2  -4   4   53.65    1.35
  -4   2   4   57.17    2.66
   2   4   4   52.95    2.45
   4  -2   4   55.17    2.64
  -4   4  -4   39.40    2.44
  -4  -4  -4   37.81    1.77
   4   4  -4   32.24    2.48
   4  -4  -4   36.72    1.65
   4  -4  -4   38.67    2.47
  -4   4   4   39.72    2.43
   4  -4   4   40.01    2.51
  -4  -4   4   40.14    2.62
   4   4   4   37.24    2.53
   4   4   4   36.74    2.19
  -4   4   4   35.81    2.27
   3  -5  -4   60.25    2.36
  -3   5  -4   57.62    3.06
  -5  -3  -4   58.04    2.44
   5   3  -4   57.91    3.20
   3  -5   4   59.88    2.98
   3  -5   4   54.33    1.44
  -3   5   4   59.04    3.13
  -5  -3   4   57.95    3.20
   5   3   4   54.77    3.09
  -3   5   4   60.30    2.76
   5   3   4   61.53    2.86
  -5  -1  -4   59.78    2.54
  -1   5  -4   61.45    2.91
  -5  -1  -4   64.36    2.83
  -1   5  -4   63.02    2.49
   5   1  -4   62.89    2.08
   1  -5  -4   65.12    2.77
   5   1  -4   62.42    2.88
  -1   5   4   63.98    2.37
   1  -5   4   61.06    2.55
  -5  -1   4   62.27    3.13
  -1   5   4   60.28    2.86
   5   1   4   64.76    2.86
   1   5  -4  100.10    3.72
  -5   1  -4  104.58    2.88
   5  -1  -4   99.51    3.30
   5  -1  -4  101.72    3.28
   1   5  -4   99.61    3.73
  -5   1  -4   95.38    3.60
  -1  -5  -4  100.00    3.98
  -1  -5  -4  106.04    2.88
  -1  -5   4  104.14    2.82
   5  -1   4  101.80    3.86
   1   5   4  102.72    3.74
  -5   1   4   94.21    3.84
  -3  -5  -4   78.19    2.52
   5  -3  -4   78.79    2.53
   3   5  -4   73.32    3.58
   5  -3  -4   76.50    3.37
  -5   3  -4   76.69    3.54
   5  -3   4   81.18    3.66
   3   5   4   79.11    3.85
  -3  -5   4   76.88    3.58
  -5   3   4   77.79    3.51
  -3  -5   4   77.42    1.61
   3   5   4   79.21    3.32
  -5  -5  -4   22.47    1.71
   5   5  -4   21.41    2.39
   5  -5  -4   22.81    2.27
   5  -5  -4   24.08    1.21
  -5   5  -4   25.91    2.43
  -5   5   4   28.47    2.36
   5   5   4   22.43    2.43
  -5  -5   4   24.85    2.26
   5   5   4   25.81    2.03
   5  -5   4   23.47    2.33
  -4   6  -4    3.23    1.59
   4  -6  -4    2.37    1.17
   4  -6  -4    3.62    0.77
  -6  -4  -4    3.90    1.21
   6   4  -4    3.48    1.37
   6   4   4    2.44    1.18
   4  -6   4    2.37    1.41
  -6  -4   4    4.95    1.94
  -4   6   4    3.86    1.45
   6   4   4    2.22    1.55
   6   2  -4   68.94    3.47
  -2   6  -4   71.62    2.51
  -2   6  -4   69.81    3.48
   2  -6  -4   66.71    2.85
  -6  -2  -4   67.76    2.99
   6   2  -4   68.30    2.10
  -2   6   4   76.07    3.05
  -6  -2   4   65.03    3.57
   2  -6   4   66.31    3.14
   6   2   4   66.57    3.20
   6   2   4   71.78    3.42
  -2   6   4   64.54    3.39
  -6   0  -4   12.77    1.35
   6   0  -4   10.81    1.22
   0  -6  -4   10.02    1.47
   6   0  -4    8.94    1.26
   0   6  -4   10.84    1.39
  -6   0  -4    9.61    1.39
   0   6  -4    9.65    1.34
   0   6   4   10.72    1.36
  -6   0   4   10.81    1.54
   6   0   4   10.38    1.53
   0  -6   4    9.54    1.14
   0   6   4   10.85    1.12
   6  -2  -4   38.10    1.95
  -6   2  -4   35.45    2.55
  -6   2  -4   34.82    0.90
  -2  -6  -4   34.88    1.75
  -2  -6  -4   36.55    2.84
   6  -2  -4   37.61    2.33
   2   6  -4   36.69    2.64
   2   6   4   37.50    2.43
  -6   2   4   36.92    2.66
  -2  -6   4   32.98    2.50
  -2  -6   4   34.71    1.56
   6  -2   4   38.90    2.71
   4   6  -4   60.31    3.77
   6  -4  -4   62.43    1.87
  -4  -6  -4   64.81    2.66
  -6   4  -4   61.60    3.64
   4   6   4   61.36    3.77
  -6   4   4   67.27    3.67
   6  -4   4   56.15    3.49
   4   6   4   65.33    3.29
   6   6  -4   25.55    2.88
  -6   6  -4   18.97    2.44
   6  -6  -4   20.49    2.29
  -6  -6  -4   18.68    1.77
   6  -6   4   19.87    2.52
  -6   6   4   22.21    2.42
   6   6   4   21.17    2.00
   6   6   4   16.64    2.46
  -6  -6   4   20.77    2.52
   5  -7  -4   32.04    2.98
   7   5  -4   27.23    2.92
  -5   7  -4   27.70    2.84
  -7  -5  -4   25.08    2.78
  -7  -5  -4   37.06    2.42
   7   5   4   32.89    3.12
   7   5   4   32.56    2.47
   5  -7   4   30.13    2.89
  -5   7   4   34.53    2.79
  -7  -5   4   29.25    2.93
   7   3  -4   71.50    1.90
   7   3  -4   63.77    3.81
   3  -7  -4   70.89    2.89
  -3   7  -4   70.52    3.91
  -7  -3  -4   66.58    3.24
  -7  -3   4   68.28    4.03
  -3   7   4   68.59    3.84
  -3   7   4   71.40    3.39
   3  -7   4   69.27    3.64
   7   3   4   74.19    3.55
   3  -7   4   64.52    1.93
  -7  -1  -4   25.71    2.11
  -1   7  -4   22.10    2.70
   7   1  -4   28.41    1.72
   7   1  -4   29.89    2.32
  -1   7  -4   25.56    1.94
  -7  -1  -4   24.89    2.05
   1  -7  -4   25.00    2.04
  -1   7   4   29.49    1.98
  -7  -1   4   23.91    2.50
   1  -7   4   27.37    2.04
   7   1   4   29.10    2.35
  -1  -7  -4   62.11    3.60
  -7   1  -4   54.34    3.22
   1   7  -4   52.45    3.15
   1   7  -4   57.00    3.28
  -7   1  -4   61.34    2.29
  -1  -7  -4   57.72    2.59
   7  -1  -4   60.73    2.94
   7  -1  -4   58.08    2.77
  -1  -7   4   57.88    2.49
   1   7   4   55.73    3.17
  -7   1   4   52.51    3.46
  -1  -7   4   55.61    3.49
   7  -3  -4   20.83    2.10
   7  -3  -4   21.53    1.29
  -7   3  -4   18.20    2.22
  -3  -7  -4   18.07    1.49
   3   7  -4   20.79    2.41
  -3  -7  -4   17.94    2.25
  -3  -7   4   20.88    2.31
  -7   3   4   21.07    2.38
   3   7   4   22.82    2.09
   7  -3   4   19.47    2.33
  -3  -7   4   21.46    1.15
  -5  -7  -4   39.50    3.66
  -7   5  -4   36.96    3.21
   7  -5  -4   36.30    3.06
  -5  -7  -4   36.81    2.26
   5   7  -4   32.57    3.09
  -5  -7   4   36.76    3.22
   5   7   4   33.96    3.34
   5   7   4   40.75    2.81
   7  -5   4   38.24    3.30
  -7   5   4   32.48    2.95
   7  -7  -4   13.27    2.14
   7   7  -4   11.36    2.38
  -7   7  -4   12.73    2.35
  -7  -7  -4   17.57    2.73
   7  -7   4   10.81    2.32
   7   7   4   14.84    1.78
  -7   7   4   14.37    2.35
  -7  -7   4    8.64    2.64
   8   6  -4    6.52    2.37
   6  -8  -4   10.07    2.17
  -6   8  -4    8.84    2.08
  -8  -6  -4    9.26    2.29
   8   6   4   12.43    1.74
   6  -8   4    8.36    2.09
  -6   8   4   10.56    1.96
  -8  -6   4   11.63    2.29
   8   4  -4    9.95    2.04
   4  -8  -4    8.67    1.72
  -8  -4  -4    9.52    2.10
  -4   8  -4    8.04    1.64
  -8  -4  -4    8.26    1.55
   8   4   4    8.12    1.66
   8   4   4    8.72    1.55
  -4   8   4   12.81    1.83
  -8  -4   4   10.55    2.20
   4  -8   4    8.97    1.89
  -8  -2  -4   33.72    2.53
  -2   8  -4   34.95    2.03
   2  -8  -4   30.42    2.23
   8   2  -4   29.72    1.96
   8   2  -4   36.37    2.99
  -2   8  -4   38.97    3.08
  -2   8   4   32.73    2.33
  -8  -2   4   40.53    3.37
   8   2   4   37.06    2.75
  -2   8   4   27.56    2.68
   2  -8   4   34.34    2.63
   0  -8  -4    7.91    1.48
   0   8  -4    7.65    1.62
   0   8  -4    7.54    2.04
   8   0  -4    8.02    1.48
  -8   0  -4    9.06    1.83
  -8   0  -4   12.76    1.39
   8   0  -4    8.95    1.40
   0   8   4    7.80    1.18
  -8   0   4    7.84    1.64
   0   8   4    9.55    1.72
   8   0   4   11.73    1.83
   0  -8   4    9.31    1.39
   8  -2  -4   28.44    1.79
   2   8  -4   25.85    2.63
   8  -2  -4   26.87    2.46
  -2  -8  -4   26.23    2.81
  -8   2  -4   28.89    2.72
  -2  -8  -4   24.58    1.80
   8  -2   4   24.78    2.62
  -8   2   4   21.28    2.55
  -2  -8   4   25.03    2.62
   2   8   4   30.26    2.53
  -2  -8   4   26.58    1.69
  -8   4  -4    1.41    1.69
   4   8  -4   -0.39    1.01
  -4  -8  -4   -0.35    1.03
  -4  -8  -4    2.33    1.08
   8  -4  -4    1.19    1.42
  -8   4   4   -0.14    1.35
  -4  -8   4    1.29    1.58
   8  -4   4    1.35    1.58
   4   8   4    1.36    1.03
   6   8  -4    3.64    2.07
   8  -6  -4    1.68    1.67
  -8   6  -4    6.68    2.38
  -6  -8  -4    4.97    1.96
  -8   6   4    4.14    2.11
   8  -6   4    3.80    2.02
   6   8   4    6.71    1.49
  -6  -8   4    1.33    1.94
  -8  -8  -4   18.61    2.90
   8  -8  -4   13.89    2.49
   8   8  -4   10.77    2.28
  -8   8  -4   19.80    2.79
  -8  -8   4   22.49    2.81
   8  -8   4   12.20    2.71
   9   7  -4   -0.82    1.62
   7  -9  -4    3.47    1.87
  -9  -7  -4    6.30    2.45
  -7   9  -4    0.89    1.82
   7  -9   4    1.59    1.97
  -9  -5  -4    9.89    2.23
  -9  -5  -4   13.92    1.69
   5  -9  -4    9.60    1.90
  -5   9  -4   12.43    2.27
   9   5  -4    9.28    2.12
  -9  -5   4    9.86    2.34
  -5   9   4   10.09    1.81
   9   5   4   14.36    1.91
   5  -9   4    9.91    2.14
  -9  -3  -4    8.07    1.65
   9   3  -4    7.20    1.83
  -3   9  -4   12.26    4.30
  -9  -3  -4    5.45    1.93
  -3   9   4    7.67    1.65
   9   3   4    9.46    1.63
  -9  -3   4    3.71    2.23
   3  -9   4    7.47    1.75
  -1   9  -4   19.10    2.41
   9   1  -4   18.61    2.16
   9   1  -4   19.87    1.69
  -9  -1  -4   20.60    1.99
  -1   9  -4   18.70    1.85
  -9  -1  -4   18.05    2.22
   1  -9  -4   18.99    2.15
  -1   9   4   17.41    2.31
  -9  -1   4   18.44    2.62
   9   1   4   18.51    2.21
   1  -9   4   18.06    1.99
  -1   9   4   23.18    1.98
   9  -1  -4   40.68    2.47
   1   9  -4   42.42    3.22
  -9   1  -4   39.01    3.16
  -1  -9  -4   37.80    3.22
   9  -1  -4   48.72    3.02
  -1  -9  -4   41.83    2.48
  -1  -9   4   39.90    2.43
  -9   1   4   40.45    3.51
   9  -1   4   39.85    3.26
  -1  -9   4   38.73    3.43
   1   9   4   44.79    3.26
   9  -3  -4    7.54    1.79
  -3  -9  -4    8.84    2.17
  -9   3  -4    4.92    2.19
   3   9  -4    7.07    2.26
  -9   3   4    8.91    2.06
   3   9   4    8.69    1.68
  -3  -9   4    6.38    2.22
  -5  -9  -4   26.51    3.13
   9  -5  -4   21.01    2.70
  -9   5  -4   22.56    2.90
   5   9  -4   18.51    2.84
   9  -5   4   19.19    2.78
  -9   5   4   20.79    2.79
   5   9   4   26.56    2.54
  -5  -9   4   25.49    2.91
   7   9  -4    1.70    1.77
  -9   7  -4    7.82    2.50
  -7  -9   4   11.52    2.54
  -9   7   4    5.44    2.15
   9  -7   4    7.82    2.77
  10   6  -4    1.60    1.68
 -10  -6  -4    5.48    2.21
  -6  10  -4    4.02    2.53
   6 -10  -4   -0.52    1.39
   6 -10   4   -0.82    1.35
  -6  10   4    1.28    1.94
 -10  -6   4    0.98    1.62
   4 -10  -4   14.23    2.48
  10   4  -4   16.69    2.51
 -10  -4  -4   15.99    1.96
 -10  -4  -4   19.68    2.88
  -4  10  -4   16.32    2.40
 -10  -4   4   15.35    2.51
  10   4   4   14.89    2.16
  -4  10   4   18.26    2.27
   4 -10   4   11.20    2.18
  10   2  -4    3.22    1.52
 -10  -2  -4    4.87    1.95
   2 -10  -4    2.88    1.69
  -2  10  -4    2.35    1.61
 -10  -2   4    2.51    2.06
  -2  10   4    4.31    1.68
   0 -10  -4   11.70    2.24
   0  10  -4    5.55    1.94
   0 -10  -4    6.01    1.52
  10   0  -4    6.07    1.51
 -10   0  -4    5.03    1.94
  10   0   4    3.07    1.73
   0  10   4    5.08    1.77
   0 -10   4    4.51    2.30
   0 -10   4    3.98    1.47
 -10   0   4    6.19    2.21
  10  -2  -4   21.95    2.54
  -2 -10  -4   20.20    2.79
   2  10  -4   22.89    2.86
 -10   2  -4   20.26    2.63
  10  -2   4   18.85    2.62
 -10   2   4   21.32    2.88
  -2 -10   4   20.28    2.71
  -4 -10  -4   11.66    2.52
   4  10  -4    5.72    2.34
 -10   4  -4    4.53    1.91
  10  -4  -4    7.42    2.23
  -4 -10   4   10.17    2.14
   4  10   4    8.40    1.92
  10  -4   4    7.69    2.53
 -10   4   4    7.08    2.39
  -6 -10  -4    5.49    2.23
   6  10  -4    6.13    2.44
  10  -6  -4    7.41    2.51
 -10   6  -4    8.96    4.03
  10  -6   4    5.74    2.45
  -6 -10   4    5.34    2.48
 -10   6   4    4.66    2.04
   3 -11  -4    2.66    1.59
  11   3  -4    7.17    1.72
  -3  11  -4    2.57    1.73
 -11  -3  -4    6.71    1.51
 -11  -3   4    5.53    2.36
   3 -11   4   -0.16    1.65
   1 -11  -4   15.68    2.33
 -11  -1  -4   14.92    2.12
   1 -11   4   18.09    2.59
 -11  -1   4   12.43    2.45
  11   1   4   21.19    2.49
   1 -11   4   10.96    2.09
   1  11  -4    5.41    2.32
 -11   1  -4    5.71    2.04
  -1 -11  -4    7.11    1.39
  -1 -11  -4    7.58    1.95
  -1 -11   4    4.93    2.00
  11  -1   4    3.23    1.92
   1  11   4    3.13    1.65
 -11   1   4    5.72    2.35
 -11   3  -4    6.50    2.13
  11  -3  -4   10.88    2.22
  -3 -11  -4    5.85    2.40
 -11   3   4    7.60    2.61
  11  -3   4    8.07    2.42
   3  11   4   16.15    2.75
  -3 -11   4   22.57    6.54
   0   1  -5  201.69    4.18
  -1   0  -5  204.90    3.76
   0   1  -5  199.94    4.45
   0  -1  -5  204.10    4.59
   1   0  -5  199.79    4.55
  -1   0  -5  195.92    4.41
   0   1   5  199.46    3.43
   1   0   5  195.83    4.31
   1   0   5  201.61    3.77
   0   1   5  197.76    3.49
  -1   0   5  201.46    3.92
   0   1   5  204.24    4.36
  -1   0   5  195.62    4.15
   0  -1   5  201.49    3.94
   2   1  -5  102.84    1.99
   1  -2  -5   97.63    2.99
  -2  -1  -5  101.64    2.13
   2   1  -5  103.61    3.21
  -1   2  -5  102.19    2.77
  -1   2  -5  101.09    2.92
  -2  -1  -5   96.75    3.09
   2   1   5  101.41    3.09
   2   1   5  100.35    2.16
  -1   2   5  100.82    3.02
  -2  -1   5   99.56    1.96
   1  -2   5   98.94    2.78
  -1   2   5  103.08    2.44
  -2  -1   5  103.62    3.14
   2  -1  -5   93.87    2.89
   1   2  -5   93.46    1.90
   1   2  -5   95.20    3.05
  -2   1  -5   94.63    2.57
  -2   1  -5   93.54    2.64
  -1  -2  -5   87.92    3.03
  -1  -2   5   94.94    1.92
   1   2   5   92.17    2.92
  -1  -2   5   90.32    2.99
  -2   1   5   89.92    2.58
   2  -1   5   95.15    2.88
  -2   1   5   93.57    2.74
  -3  -2  -5  167.93    3.39
   3   2  -5  164.50    4.76
  -2   3  -5  159.67    4.47
  -3  -2  -5  164.80    4.78
   2  -3  -5  170.00    4.30
  -2   3  -5  166.31    3.70
   2  -3   5  163.23    4.34
  -2   3   5  166.65    4.00
  -2   3   5  167.52    4.58
  -3  -2   5  168.85    4.76
   3   2   5  162.52    4.52
   0  -3  -5   29.61    1.73
   0  -3  -5   26.95    0.94
   0   3  -5   28.82    1.63
  -3   0  -5   28.10    1.36
   0   3  -5   27.09    1.66
  -3   0  -5   29.74    1.57
   3   0  -5   26.44    1.66
  -3   0   5   28.24    1.73
   3   0   5   27.43    1.63
  -3   0   5   28.90    1.23
   0   3   5   27.39    0.91
   0  -3   5   29.06    1.28
   0   3   5   28.29    1.64
   2   3  -5   82.71    3.23
  -2  -3  -5   85.29    1.59
  -3   2  -5   82.89    2.94
   3  -2  -5   87.98    2.84
  -2  -3  -5   82.98    3.27
  -3   2  -5   83.63    2.23
  -2  -3  -5   83.50    1.56
  -2  -3   5   83.41    3.20
  -3   2   5   82.59    2.86
  -3   2   5   87.52    3.00
   3  -2   5   83.12    3.09
   2   3   5   85.76    3.08
  -3   4  -5   56.05    2.83
   3  -4  -5   57.47    2.37
  -4  -3  -5   56.25    3.09
  -3   4  -5   55.92    1.60
   4   3  -5   55.89    2.99
  -4  -3  -5   57.96    2.04
   4   3   5   57.83    2.78
  -3   4   5   56.65    2.79
   3  -4   5   58.49    2.83
  -3   4   5   60.37    2.58
  -4  -3   5   56.94    2.93
  -4  -1  -5  149.89    3.77
   1  -4  -5  152.70    4.37
  -1   4  -5  152.05    3.92
  -4  -1  -5  140.96    4.27
  -1   4  -5  140.93    4.36
   4   1  -5  147.48    4.46
   4   1  -5  148.67    3.08
  -1   4   5  150.21    4.48
  -1   4   5  153.42    3.54
   4   1   5  145.09    4.40
   1  -4   5  151.18    4.00
  -4  -1   5  144.14    4.59
   1   4  -5   37.84    2.16
  -1  -4  -5   38.60    1.14
  -1  -4  -5   37.17    2.30
   1   4  -5   40.49    2.22
   4  -1  -5   39.08    1.86
   4  -1  -5   37.00    1.94
  -4   1  -5   39.84    1.69
  -1  -4   5   38.99    1.37
  -4   1   5   37.16    2.23
   1   4   5   41.61    2.23
   4  -1   5   37.02    2.19
  -1  -4   5   36.68    2.15
  -4   3  -5   49.34    1.05
  -3  -4  -5   50.49    1.62
  -3  -4  -5   50.75    2.92
  -4   3  -5   51.59    1.06
   4  -3  -5   53.19    2.22
  -4   3  -5   50.83    2.70
   3   4  -5   51.32    2.88
   3   4   5   52.14    2.64
  -4   3   5   54.74    2.68
   4  -3   5   53.45    2.80
  -4   3   5   49.98    2.55
  -3  -4   5   49.52    2.78
  -5  -4  -5   51.06    3.35
   5   4  -5   46.19    3.15
  -4   5  -5   48.09    2.92
   4  -5  -5   44.89    2.84
  -5  -4  -5   48.29    2.11
   4  -5  -5   45.76    2.13
   5   4   5   39.62    2.53
  -5  -4   5   42.01    2.97
   5   4   5   44.27    2.99
  -4   5   5   50.70    3.08
   4  -5   5   46.73    2.92
  -4   5   5   45.24    2.65
  -5  -2  -5   61.17    3.03
  -2   5  -5   60.68    2.98
   5   2  -5   57.75    1.39
   5   2  -5   56.01    1.36
  -2   5  -5   59.26    2.18
   2  -5  -5   65.31    2.76
  -5  -2  -5   56.08    2.34
   5   2  -5   58.19    3.07
   5   2   5   60.21    2.88
  -2   5   5   53.13    2.86
  -2   5   5   57.00    2.40
   2  -5   5   56.58    2.68
  -5  -2   5   58.60    3.10
  -5   0  -5   55.10    2.52
   5   0  -5   57.02    2.68
   5   0  -5   56.60    2.16
   0  -5  -5   52.20    2.77
  -5   0  -5   55.44    2.44
   0   5  -5   56.34    2.67
   0   5  -5   52.98    2.78
   0   5   5   55.78    2.83
  -5   0   5   62.58    3.16
   5   0   5   54.53    2.83
   0   5   5   58.59    1.94
   0  -5   5   56.07    2.21
  -5   2  -5  127.91    2.81
   5  -2  -5  131.62    3.88
  -2  -5  -5  130.92    4.97
   5  -2  -5  131.48    4.20
   2   5  -5  127.62    4.67
  -5   2  -5  130.59    4.45
  -2  -5  -5  128.96    2.98
  -5   2   5  129.96    4.63
   5  -2   5  132.52    4.66
  -2  -5   5  130.53    2.70
  -2  -5   5  131.46    4.65
   2   5   5  129.47    4.47
  -5   4  -5   15.70    1.89
  -4  -5  -5   13.38    1.84
   5  -4  -5   13.02    1.19
   5  -4  -5   13.54    1.58
   4   5  -5   10.10    1.57
  -4  -5  -5   14.62    1.12
   4   5   5   12.54    1.57
  -4  -5   5   13.42    1.84
  -5   4   5   13.44    1.71
   5  -4   5   15.29    1.90
  -5   6  -5   34.24    2.82
  -6  -5  -5   38.88    3.20
   6   5  -5   39.75    3.29
   5  -6  -5   34.20    2.89
  -6  -5  -5   38.49    2.13
   5  -6  -5   37.08    1.65
  -6  -5   5   39.93    3.21
  -5   6   5   36.23    2.69
   5  -6   5   38.79    3.07
   6   5   5   32.22    3.01
  -6  -3  -5   17.00    2.08
  -3   6  -5   17.96    0.97
   6   3  -5   17.24    1.94
   3  -6  -5   17.56    1.53
  -6  -3  -5   19.28    1.59
  -3   6  -5   18.05    2.52
  -3   6   5   17.07    1.70
   3  -6   5   16.55    1.85
   6   3   5   18.91    1.88
  -3   6   5   13.35    1.97
  -1   6  -5   34.03    2.06
   6   1  -5   31.91    2.31
  -6  -1  -5   32.33    2.15
  -1   6  -5   33.38    2.45
   6   1  -5   35.42    1.65
  -6  -1  -5   34.04    2.28
   1  -6  -5   35.16    2.34
   6   1   5   35.10    2.37
  -1   6   5   34.11    1.87
   1  -6   5   35.88    2.16
  -1   6   5   34.13    2.50
  -6  -1   5   34.89    2.72
  -1  -6  -5   61.79    3.33
  -6   1  -5   57.06    2.22
  -1  -6  -5   57.16    2.13
   1   6  -5   55.85    3.07
   6  -1  -5   55.67    2.70
   1   6  -5   55.40    2.98
   6  -1  -5   55.68    2.62
  -6   1  -5   55.24    2.94
  -1  -6   5   62.01    3.40
   1   6   5   56.89    3.08
  -1  -6   5   56.00    2.18
  -6   1   5   55.49    3.27
   6  -1   5   59.41    3.24
   3   6  -5   40.43    2.90
   6  -3  -5   44.59    2.08
  -6   3  -5   38.06    2.75
   6  -3  -5   43.28    2.69
  -3  -6  -5   43.31    1.80
  -6   3   5   40.38    2.83
  -3  -6   5   41.07    2.92
   3   6   5   39.54    2.61
   6  -3   5   29.30    2.84
  -6   5  -5    5.12    1.69
   6  -5  -5    8.12    1.71
  -5  -6  -5    8.26    2.35
   5   6  -5    4.67    1.71
  -5  -6  -5    7.15    1.11
   6  -5   5    6.19    2.02
  -5  -6   5    8.60    2.26
   5   6   5    6.52    1.95
  -6   5   5    5.24    1.82
   6  -7  -5   10.39    1.85
  -6   7  -5    9.19    2.03
  -7  -6  -5    8.13    2.09
   7   6  -5   10.72    2.21
  -7  -6   5    8.74    2.47
   6  -7   5    8.97    2.06
   7   6   5    9.76    1.70
  -6   7   5   12.65    2.12
  -7  -4  -5   43.68    3.31
   4  -7  -5   41.92    3.27
  -7  -4  -5   42.53    2.45
   4  -7  -5   36.75    2.00
   7   4  -5   41.84    3.35
  -4   7  -5   40.36    3.22
  -4   7   5   46.03    2.88
   7   4   5   41.78    2.89
  -7  -4   5   39.28    3.29
   4  -7   5   41.84    3.10
   7   2  -5    6.57    0.70
  -7  -2  -5    5.91    1.47
  -2   7  -5    4.57    0.90
   7   2  -5    3.59    1.59
  -2   7  -5    4.03    1.75
  -7  -2  -5    4.25    1.40
   2  -7  -5    4.74    1.42
  -7  -2   5    8.57    2.40
  -2   7   5    6.42    1.88
   7   2   5    5.55    1.83
  -2   7   5    5.81    1.12
   2  -7   5    5.96    1.58
  -7   0  -5   35.96    2.53
   7   0  -5   38.47    2.51
   0  -7  -5   36.34    2.69
   0   7  -5   38.51    2.54
  -7   0  -5   40.52    2.30
   0   7  -5   36.70    2.75
   7   0  -5   40.58    2.22
  -7   0   5   36.23    2.96
   0   7   5   36.93    2.78
   0   7   5   38.64    1.98
   0  -7   5   37.41    2.17
  -2  -7  -5   23.43    2.39
   7  -2  -5   25.36    2.11
   2   7  -5   18.51    2.48
   7  -2  -5   23.48    1.73
  -2  -7  -5   22.00    1.42
  -7   2  -5   23.18    2.28
  -7   2   5   21.92    2.25
  -2  -7   5   23.14    1.34
   7  -2   5   21.19    2.32
  -2  -7   5   18.47    2.24
  -7   4  -5   10.42    1.75
   4   7  -5    8.35    1.95
   7  -4  -5   11.86    1.83
  -4  -7  -5   12.91    2.06
   7  -4   5   11.45    1.84
  -7   4   5    8.60    1.86
   4   7   5   12.06    1.77
  -4  -7   5   13.11    2.06
  -6  -7  -5   34.70    3.76
   7  -6  -5   35.77    3.21
  -7   6  -5   27.70    3.38
   6   7  -5   38.11    4.02
   7  -6   5   33.64    3.22
  -6  -7   5   37.35    3.33
   6   7   5   39.43    2.89
  -7   6   5   30.56    2.89
  -7   8  -5    5.00    2.09
   7  -8  -5    7.54    2.40
  -8  -7  -5    3.07    2.04
   8   7  -5    3.20    1.78
  -7   8   5    3.77    1.83
   7  -8   5    7.40    2.72
  -8  -7   5    2.58    2.15
  -5   8  -5    6.57    2.22
  -8  -5  -5    3.88    1.81
   5  -8  -5    3.25    1.64
  -8  -5  -5    5.74    1.14
  -5   8   5    3.29    1.79
   8   5   5    4.26    1.42
   5  -8   5    3.71    2.10
   3  -8  -5   38.44    2.37
   3  -8  -5   37.16    3.21
   8   3  -5   40.29    3.26
  -8  -3  -5   41.02    3.24
  -3   8  -5   34.26    3.04
   8   3   5   38.99    2.95
   3  -8   5   34.67    2.84
  -8  -3   5   41.93    3.39
  -3   8   5   40.63    2.72
  -3   8   5   35.82    3.17
  -1   8  -5   24.99    2.03
   8   1  -5   23.14    2.29
   1  -8  -5   23.14    2.43
   8   1  -5   22.14    1.58
  -1   8  -5   21.10    2.44
  -8  -1  -5   23.72    2.13
  -8  -1  -5   25.45    2.35
   1  -8   5   23.34    2.11
  -1   8   5   26.82    2.60
  -1   8   5   28.55    1.96
   8   1   5   25.49    2.47
  -8  -1   5   22.21    2.64
  -1  -8  -5   10.64    1.25
   8  -1  -5   10.68    1.47
  -1  -8  -5    8.97    1.85
  -8   1  -5   11.08    1.85
  -8   1  -5   10.36    1.14
   8  -1  -5   10.04    1.60
   1   8  -5    8.38    1.69
  -1  -8   5    9.51    2.05
   8  -1   5   11.84    1.98
  -8   1   5    9.57    2.53
  -1  -8   5    8.86    1.25
   1   8   5   13.06    1.91
  -8   3  -5   26.25    2.58
   8  -3  -5   29.76    2.64
   3   8  -5   35.70    3.22
  -3  -8  -5   26.59    2.84
   8  -3   5   28.02    2.88
   3   8   5   29.49    2.68
  -8   3   5   28.66    2.86
  -3  -8   5   30.91    2.99
   5   8  -5   19.36    2.62
  -5  -8  -5   21.15    2.96
  -8   5  -5   20.57    2.72
   8  -5  -5   17.26    2.35
   8  -5   5   19.81    2.76
  -5  -8   5   18.87    2.58
   5   8   5   19.87    2.22
   7   8  -5    6.16    2.36
  -8   7  -5    7.35    2.49
  -7  -8  -5    9.36    2.91
   8  -7  -5   10.04    2.22
  -8   7   5    9.43    2.05
   8  -7   5    7.39    2.52
   7   8   5    6.75    2.02
  -7  -8   5    7.02    2.48
  -6   9  -5   11.51    2.43
   6  -9  -5   11.06    2.31
   9   6  -5    4.62    2.26
  -9  -6  -5   16.90    2.73
   6  -9   5    9.81    2.33
  -6   9   5   11.76    2.15
  -9  -6   5   10.66    2.39
  -9  -4  -5    7.50    1.39
   4  -9  -5   10.18    2.16
   9   4  -5    9.23    2.08
  -4   9  -5   11.96    2.20
  -4   9   5   12.06    1.83
   4  -9   5   10.68    2.06
  -9  -4   5   11.40    2.41
   9   4   5   11.57    1.91
  -9  -2  -5   14.48    1.89
   9   2  -5   14.02    2.10
  -9  -2  -5   13.85    1.98
  -2   9  -5   12.90    2.18
   2  -9  -5   13.14    1.71
  -2   9   5   16.43    2.35
  -2   9   5   16.15    1.74
   9   2   5   14.75    2.07
   2  -9   5   14.05    1.94
  -9  -2   5   13.84    2.43
   0   9  -5   29.37    2.87
   9   0  -5   37.51    2.75
   0   9  -5   43.13    3.03
   0  -9  -5   34.96    2.99
  -9   0  -5   33.58    2.89
   9   0  -5   32.55    2.22
   0  -9  -5   35.02    2.29
   9   0   5   38.74    3.20
   0   9   5   33.01    2.98
  -9   0   5   31.39    3.23
   0  -9   5   32.55    2.39
   0  -9   5   36.87    3.39
   9  -2  -5    5.33    1.84
  -9   2  -5    1.89    1.59
   2   9  -5    1.22    1.48
  -2  -9  -5    3.72    1.76
   9  -2   5    2.67    1.74
  -2  -9   5    5.19    2.11
   2   9   5    2.94    1.57
  -9   2   5    4.41    2.22
  -9   4  -5   15.82    2.48
  -4  -9  -5   19.56    2.76
   4   9  -5   19.50    2.75
  -9   4   5   16.93    2.56
  -4  -9   5   21.70    2.75
   4   9   5   23.98    2.47
   9  -4   5   18.44    2.48
  -6  -9  -5    2.91    1.89
   6   9  -5    3.50    1.96
   9  -6  -5    1.96    1.75
  -9   6  -5    2.08    1.89
  -6  -9   5   -1.70    1.74
  -9   6   5    2.86    1.89
   9  -6   5    1.83    1.94
  -5  10  -5   -1.17    1.47
   5 -10  -5    2.52    1.71
 -10  -5  -5   -0.73    1.54
  -5  10   5   -0.24    1.70
  10   3  -5    9.88    2.16
   3 -10  -5    5.85    1.97
 -10  -3  -5   10.47    2.20
  -3  10  -5    9.07    2.00
  -3  10   5   13.24    2.00
 -10  -3   5    6.79    2.36
  10   3   5   10.59    1.99
   3 -10   5    6.23    2.02
  10   1  -5    6.65    1.66
   1 -10  -5    8.63    1.66
  -1  10  -5    9.56    2.67
 -10  -1   5    5.24    2.40
   1 -10   5    6.66    1.63
  -1  10   5    6.41    2.08
  10   1   5    8.04    2.26
 -10   1  -5   11.70    2.03
   1  10  -5   12.46    2.15
  10  -1  -5   14.38    1.99
  -1 -10  -5   12.87    2.11
 -10   1   5   13.45    2.50
   1  10   5   15.07    2.28
  -1 -10   5   15.31    2.49
  10  -1   5   17.47    2.43
  10  -3  -5    3.95    2.01
  -3 -10  -5    7.27    2.41
   3  10  -5    3.87    2.09
 -10   3  -5    3.40    1.81
  -3 -10   5    2.65    1.71
 -10   3   5    5.62    2.41
   3  10   5    3.81    1.77
  10  -3   5    4.86    1.99
   5  10  -5    1.30    1.78
 -10   5  -5    3.91    2.00
  10  -5  -5    3.17    1.87
  -5 -10  -5   -0.59    1.56
  10  -5   5   -1.03    1.55
  -5 -10   5   -0.09    1.64
 -10   5   5    3.75    2.15
  11   4  -5    0.71    1.74
 -11  -4  -5    1.02    3.87
   4 -11   5   -0.63    1.42
 -11  -2  -5    8.43    1.57
   2 -11   5    2.46    1.68
 -11  -2   5    4.15    1.99
  11   2   5    7.89    1.70
 -11   0  -5    8.46    1.77
   0 -11  -5    3.37    1.50
   0 -11  -5    6.91    1.69
   0  11   5    4.34    1.84
   0 -11   5    7.18    2.60
  11   0   5   10.07    1.97
   2  11  -5    4.36    2.09
  -2 -11  -5    2.71    1.92
 -11   2   5    2.20    1.84
   2  11   5    5.55    1.95
  -2 -11   5    3.95    2.19
  -4 -11   5   14.00    2.48
   0   0  -6  358.85    7.19
   0   0   6  367.29    6.75
   0   0   6  361.02    6.44
  -1   1  -6  136.54    3.30
   1  -1  -6  139.10    3.83
  -1  -1  -6  136.24    3.82
   1   1  -6  142.09    3.90
  -1   1  -6  138.28    3.60
  -1  -1   6  134.72    3.61
  -1   1   6  137.34    3.47
   1  -1   6  137.81    3.49
  -1  -1   6  136.24    2.88
   1   1   6  135.27    2.49
  -1   1   6  135.17    3.13
   1   1   6  139.35    3.70
   0   2  -6  127.07    3.57
   2   0  -6  125.52    3.70
  -2   0  -6  125.56    2.88
   0   2  -6  125.48    3.46
  -2   0  -6  120.09    3.46
   0  -2  -6  116.24    2.75
   0  -2  -6  124.79    3.71
   0   2   6  123.01    2.21
   0  -2   6  122.87    2.91
   2   0   6  121.90    3.52
  -2   0   6  120.09    2.85
   0   2   6  121.89    3.55
  -2   0   6  120.97    3.42
   2  -2  -6   79.93    2.86
   2   2  -6   76.56    3.00
  -2   2  -6   80.61    2.76
  -2   2  -6   80.68    2.49
  -2   2   6   75.42    2.48
   2  -2   6   78.59    2.81
  -2   2   6   80.06    2.76
   2   2   6   77.71    2.93
  -3  -1  -6   97.38    2.43
  -3  -1  -6   98.75    3.39
   1  -3  -6   95.69    3.32
  -1   3  -6   98.42    3.02
  -1   3  -6   95.15    3.25
   3   1  -6   94.00    3.40
   3   1  -6   94.98    2.06
  -3  -1   6   91.52    3.36
   3   1   6   95.44    3.33
  -1   3   6   99.19    3.38
  -1   3   6   95.26    2.42
   1  -3   6   92.17    2.89
  -3   1  -6  737.34   12.60
  -3   1  -6  730.07   12.38
   3  -1  -6  719.40   13.04
  -1  -3  -6  733.02   13.58
  -1  -3   6  716.89   13.39
  -3   1   6  734.28   13.05
  -1  -3   6  714.61   11.29
  -3   1   6  730.22   12.43
  -1  -3   6  730.84   11.31
  -3   3  -6   60.06    2.76
  -3  -3  -6   61.19    1.40
   3   3  -6   63.56    3.03
  -3  -3  -6   59.59    3.05
  -3  -3  -6   61.43    1.43
   3  -3  -6   62.66    2.58
  -3   3  -6   62.76    2.00
  -3   3   6   59.84    2.75
  -3  -3   6   60.49    2.97
   3  -3   6   64.57    2.89
  -3   3   6   54.83    2.84
   3   3   6   59.76    2.80
  -4  -2  -6  105.39    2.81
   2  -4  -6  105.18    3.59
  -4  -2  -6  105.57    3.99
   4   2  -6  104.54    4.04
  -2   4  -6  107.97    3.09
  -2   4  -6  106.49    3.87
   2  -4   6  101.77    3.56
  -4  -2   6  105.21    4.01
  -2   4   6  105.32    3.16
  -2   4   6  101.99    3.85
   4   2   6  109.84    3.90
   0   4  -6   78.57    3.21
   4   0  -6   81.87    3.21
  -4   0  -6   80.71    2.73
  -4   0  -6   85.69    3.05
   0  -4  -6   79.97    3.27
   4   0  -6   81.89    2.43
   0   4  -6   72.57    3.39
   0   4   6   79.31    1.90
   0   4   6   79.64    3.22
  -4   0   6   81.62    3.29
   4   0   6   80.62    3.29
   0  -4   6   81.12    2.51
   2   4  -6   47.38    2.68
  -4   2  -6   39.60    2.26
   4  -2  -6   44.62    2.49
  -4   2  -6   47.96    1.74
  -2  -4  -6   46.49    2.68
  -2  -4   6   51.02    2.76
  -4   2   6   43.01    2.21
   4  -2   6   45.12    2.49
  -4   2   6   47.57    2.51
   2   4   6   47.24    2.49
   4  -4  -6   52.32    2.68
  -4  -4  -6   52.95    3.19
  -4   4  -6   49.20    2.90
  -4  -4  -6   50.91    1.68
   4   4  -6   48.12    3.06
  -4   4   6   52.18    2.93
   4  -4   6   54.05    2.95
   4   4   6   53.15    2.87
  -4   4   6   53.32    2.73
  -4  -4   6   48.07    3.03
  -3   5  -6   84.50    2.32
  -3   5  -6   74.68    3.65
  -5  -3  -6   81.10    2.67
   3  -5  -6   88.81    3.28
  -5  -3  -6   84.67    4.04
   5   3  -6   78.17    3.88
   5   3   6   81.64    3.65
  -5  -3   6   82.00    4.00
   3  -5   6   79.47    3.49
  -3   5   6   88.28    3.93
  -3   5   6   81.99    3.21
  -1   5  -6   73.09    3.34
  -5  -1  -6   63.68    2.94
   5   1  -6   71.28    2.06
   5   1  -6   70.24    3.24
  -5  -1  -6   70.51    3.12
   1  -5  -6   72.38    3.21
  -5  -1   6   68.14    3.43
   1  -5   6   74.85    2.86
  -1   5   6   70.87    3.29
   5   1   6   74.37    3.33
  -1   5   6   72.82    2.38
   1   5  -6   36.25    2.40
   5  -1  -6   36.23    2.16
  -5   1  -6   41.94    2.31
  -1  -5  -6   40.46    1.62
   1   5  -6   36.49    2.38
  -5   1  -6   36.62    1.84
   5  -1  -6   35.02    1.91
  -1  -5  -6   37.95    2.59
   1   5   6   34.18    2.35
   5  -1   6   35.36    2.43
  -5   1   6   37.54    2.54
  -1  -5   6   35.03    1.49
  -1  -5   6   40.16    2.53
   5  -3  -6   68.41    2.80
  -3  -5  -6   56.55    2.09
   3   5  -6   68.67    3.64
   5  -3  -6   66.51    3.18
  -5   3  -6   64.46    3.29
   5  -3   6   63.68    3.34
  -3  -5   6   60.38    3.37
   3   5   6   64.74    3.25
  -5   3   6   68.34    3.31
  -5  -5  -6  178.33    6.72
  -5   5  -6  172.45    6.24
   5  -5  -6  168.76    6.08
  -5  -5   6  184.09    6.47
   5  -5   6  167.28    6.15
  -5   5   6  178.35    5.83
   5   5   6  173.00    5.83
  -6  -4  -6   20.38    1.48
   6   4  -6   20.47    2.24
  -4   6  -6   23.21    2.41
  -6  -4  -6   20.29    2.46
   4  -6  -6   18.28    1.56
  -4   6   6   21.06    2.34
  -6  -4   6   21.46    2.48
  -4   6   6   15.58    1.74
   4  -6   6   17.86    2.08
  -2   6  -6   42.82    2.80
  -6  -2  -6   41.24    2.23
  -2   6  -6   45.25    2.13
   6   2  -6   43.78    1.04
   6   2  -6   40.71    2.83
  -6  -2  -6   41.67    2.81
   2  -6  -6   42.04    2.55
   2  -6   6   47.11    2.65
  -2   6   6   44.52    2.26
  -2   6   6   46.96    2.95
   6   2   6   45.60    2.88
  -6  -2   6   44.12    3.11
   0   6  -6   44.48    2.83
   0   6  -6   42.56    2.53
  -6   0  -6   41.55    2.38
  -6   0  -6   42.67    2.49
   6   0  -6   44.89    2.64
   0  -6  -6   48.94    2.99
  -6   0   6   45.21    3.10
   0   6   6   42.33    2.78
   0  -6   6   45.80    2.18
   0   6   6   45.54    1.80
   6   0   6   41.24    2.79
  -6   2  -6   60.50    3.22
  -2  -6  -6   57.01    1.69
   6  -2  -6   59.57    2.73
  -6   2  -6   58.01    1.77
  -2  -6  -6   58.31    3.60
   2   6  -6   58.49    3.38
   6  -2  -6   56.54    2.85
   6  -2   6   57.25    3.38
  -2  -6   6   56.35    1.62
   2   6   6   62.99    3.36
  -2  -6   6   53.07    3.32
  -6   2   6   50.90    3.20
  -4  -6  -6   38.08    1.46
   6  -4  -6   36.74    2.73
  -6   4  -6   41.06    3.05
   4   6  -6   43.69    3.21
  -4  -6  -6   40.83    3.23
  -6   4   6   40.73    2.81
  -4  -6   6   43.29    3.16
   4   6   6   31.42    2.96
   6  -4   6   40.92    3.00
   6  -6  -6    7.69    1.59
  -6  -6  -6   10.23    2.14
  -6   6  -6    8.25    2.38
   6   6  -6    6.63    2.19
   6  -6   6    9.80    2.09
   6   6   6    8.44    1.70
  -6   6   6    8.48    1.70
  -6  -6   6   10.37    2.15
  -7  -5  -6    9.90    1.21
   5  -7  -6    6.25    2.02
   7   5  -6    6.77    2.21
  -5   7  -6    8.76    1.96
  -7  -5  -6   10.96    2.20
   5  -7   6   11.05    1.86
  -5   7   6   10.57    1.74
   7   5   6    8.26    1.59
  -7  -5   6    9.22    2.13
  -7  -3  -6   42.63    3.19
  -7  -3  -6   37.96    2.31
   7   3  -6   32.58    2.88
   3  -7  -6   36.21    2.35
  -3   7  -6   37.52    3.04
   3  -7   6   37.75    2.80
  -3   7   6   36.16    3.02
   7   3   6   36.06    2.74
  -7  -3   6   36.83    3.21
  -3   7   6   38.45    2.42
  -1   7  -6  174.16    6.31
  -1   7  -6  193.92    5.57
   7   1  -6  186.54    4.43
  -7  -1  -6  188.42    5.80
   1  -7  -6  178.09    5.98
  -7  -1  -6  195.30    5.76
   7   1  -6  188.83    6.25
   1  -7   6  187.37    5.56
   7   1   6  190.80    6.43
  -1   7   6  180.32    6.44
  -7  -1   6  180.17    6.73
  -1   7   6  181.87    4.80
  -7   1  -6   50.21    3.07
  -1  -7  -6   53.35    3.49
   7  -1  -6   51.77    2.74
  -1  -7  -6   50.37    2.00
   7  -1  -6   48.10    2.78
   1   7  -6   56.52    3.32
  -7   1  -6   51.02    2.20
   1   7   6   50.53    3.21
  -7   1   6   47.43    3.38
   7  -1   6   52.43    3.40
  -1  -7   6   48.68    3.46
   3   7  -6   42.23    3.32
   7  -3  -6   44.78    2.95
  -7   3  -6   44.46    3.20
   7  -3  -6   47.74    2.35
  -3  -7  -6   43.36    3.55
  -3  -7   6   38.17    3.15
  -7   3   6   39.24    3.08
   3   7   6   43.19    3.01
   7  -3   6   45.60    3.40
   7  -5  -6   17.81    2.30
   5   7  -6   15.03    2.24
  -5  -7  -6   16.59    2.59
  -7   5  -6   15.09    2.32
  -7   5   6   17.08    2.28
   7  -5   6   17.60    2.52
  -5  -7   6   16.54    2.42
   5   7   6   14.81    1.95
   7  -7  -6   24.89    2.93
  -7   7  -6   20.08    2.79
  -7  -7  -6   18.82    2.93
   7   7  -6   15.88    2.72
  -7   7   6   20.77    2.59
  -7  -7   6   23.60    3.02
   7   7   6   26.33    2.46
   7  -7   6   20.11    2.89
  -8  -6  -6   12.10    2.49
  -6   8  -6    9.36    2.17
   8   6  -6   10.68    2.45
   6  -8  -6   12.58    2.25
  -6   8   6   14.74    2.18
  -8  -6   6   15.06    2.63
   8   6   6   16.44    1.98
   6  -8   6   13.09    2.40
  -8  -4  -6   27.26    2.04
   4  -8  -6   31.34    2.96
  -4   8  -6   31.85    2.95
  -8  -4  -6   30.42    3.23
   8   4  -6   28.60    3.04
   8   4   6   32.28    2.69
   4  -8   6   29.11    2.80
  -4   8   6   22.45    2.27
  -8  -4   6   28.05    3.17
  -2   8  -6   14.25    2.01
  -8  -2  -6   15.94    2.02
   2  -8  -6   18.59    1.99
  -2   8  -6   14.41    1.45
   8   2  -6   14.41    2.08
  -2   8   6   16.32    1.63
  -2   8   6   15.19    2.05
   8   2   6   15.04    2.08
   2  -8   6   17.23    2.03
  -8  -2   6   20.45    2.72
   0   8  -6   16.72    2.16
  -8   0  -6   13.53    1.50
   8   0  -6   13.43    1.76
   8   0  -6   13.87    1.46
   0  -8  -6   16.50    1.45
  -8   0  -6   15.68    1.91
   0   8  -6   13.68    2.08
   0  -8  -6   17.87    2.26
  -8   0   6   12.01    1.94
   0  -8   6   16.42    1.62
   0   8   6   13.99    2.09
   8   0   6   16.51    2.20
   8  -2  -6   14.82    1.55
   8  -2  -6   13.96    1.89
   2   8  -6   10.62    1.97
  -2  -8  -6   13.62    2.26
  -8   2  -6   12.98    1.98
   2   8   6   12.83    1.97
  -8   2   6   14.31    2.25
   8  -2   6   13.26    2.15
  -2  -8   6   11.83    1.92
   4   8  -6   11.02    2.02
   8  -4  -6   13.30    2.03
  -8   4  -6   16.69    2.38
  -4  -8  -6    8.65    2.63
  -4  -8   6   15.81    2.39
   4   8   6   14.36    2.00
   8  -4   6   14.24    2.38
  -8   4   6   13.68    2.24
  -8   6  -6   18.97    2.71
   8  -6  -6   18.73    2.58
  -6  -8  -6   20.77    3.10
   6   8  -6   15.54    2.66
   6   8   6   25.56    3.70
  -6  -8   6   18.62    2.97
   8  -6   6   18.68    2.78
  -8   6   6   20.86    2.65
   8  -8  -6    4.92    1.84
   8   8  -6    4.35    2.10
  -8  -8  -6    6.70    2.47
  -8   8  -6    7.61    2.66
  -8  -8   6    5.21    2.47
   8  -8   6   11.01    3.05
  -8   8   6    7.35    2.32
   7  -9  -6   12.19    2.37
   9   7  -6   13.46    2.48
  -9  -7  -6   25.34    3.24
  -7   9  -6   26.23    4.76
   7  -9   6   17.23    2.88
  -9  -7   6   18.99    2.86
  -7   9   6   26.54    2.88
   9   5  -6   35.78    3.63
  -5   9  -6   28.94    3.25
   5  -9  -6   34.13    3.46
  -9  -5  -6   29.84    3.30
   9   5   6   28.11    2.72
  -5   9   6   32.16    2.76
   5  -9   6   27.48    3.09
  -9  -5   6   30.82    3.51
  -9  -3  -6   23.36    2.19
   3  -9  -6   18.60    2.59
  -3   9  -6   18.43    2.61
  -9  -3  -6   19.14    2.42
   9   3  -6   23.36    2.67
  -3   9   6   16.50    2.51
   9   3   6   17.29    2.24
   3  -9   6   17.66    2.28
  -9  -3   6   17.44    2.81
  -3   9   6   16.59    1.99
  -9  -1  -6    6.41    1.88
  -1   9  -6    6.48    1.39
  -1   9  -6    5.75    2.10
  -9  -1  -6    6.66    1.69
   1  -9  -6    4.81    1.73
   9   1  -6    5.13    1.75
  -1   9   6    2.68    1.32
   1  -9   6    4.83    1.51
   9   1   6    6.38    2.05
  -1   9   6    3.82    1.79
  -9  -1   6    2.25    2.03
   9  -1  -6   30.23    2.40
  -1  -9  -6   38.68    3.38
   1   9  -6   34.60    3.05
  -9   1  -6   26.61    2.73
   1   9   6   34.87    3.11
   9  -1   6   32.00    3.08
  -1  -9   6   33.57    3.38
  -3  -9  -6   61.51    4.55
   9  -3  -6   64.34    3.87
  -9   3  -6   62.93    4.31
   9  -3   6   64.94    4.49
   3   9   6   61.10    3.91
  -3  -9   6   63.57    4.51
  -9   3   6   60.05    4.32
   5   9  -6   12.28    2.41
   9  -5  -6    9.65    2.10
  -5  -9  -6   12.45    2.35
  -9   5  -6   10.83    2.23
  -9   5   6   10.31    2.12
   5   9   6   13.31    2.18
  -5  -9   6   11.93    2.60
   9  -5   6    9.39    2.31
   7   9  -6   13.80    2.90
  -7  -9  -6   11.21    2.83
  -9   7  -6   14.72    2.45
   9  -7  -6   18.84    2.83
  -9   7   6   17.52    2.57
  -7  -9   6   18.44    2.97
   9  -7   6   22.69    3.55
  -4  10  -6    4.60    2.12
  10   4  -6    6.68    2.36
   4 -10  -6    5.12    1.95
 -10  -4  -6    4.66    2.35
 -10  -4   6    5.46    2.23
  10   4   6    4.61    1.78
   4 -10   6    1.43    1.74
  10   2  -6   17.16    2.35
 -10  -2  -6   17.39    2.42
  -2  10  -6   17.75    2.60
   2 -10  -6   14.19    2.19
 -10  -2   6   16.38    2.66
  10   2   6   13.17    2.14
  -2  10   6   14.94    2.44
   0  10  -6   23.59    2.54
 -10   0  -6   20.43    2.47
   0 -10  -6   20.90    2.72
   0  10   6   25.25    2.86
 -10   0   6   17.08    2.70
   0 -10   6   24.60    3.11
  10   0   6   23.94    2.77
 -10   2  -6   13.89    2.37
  10  -2  -6   12.76    2.03
  -2 -10  -6   11.99    2.50
   2  10  -6   11.08    2.26
  10  -2   6   13.45    2.34
 -10   2   6   13.54    2.48
  -2 -10   6   10.18    2.37
   2  10   6   16.61    2.35
   4  10  -6    4.87    2.22
  10  -4  -6    4.08    1.85
  -4 -10  -6    3.55    2.15
 -10   4  -6    2.37    1.76
 -10   4   6    3.45    1.89
  -4 -10   6    9.72    2.24
   4  10   6    7.31    1.71
  10  -4   6    3.33    1.78
   3 -11  -6   27.95    3.11
  -3  11  -6   24.58    3.02
  11   3  -6   26.76    3.17
 -11  -3   6   24.64    3.11
 -11  -1  -6   24.36    2.53
  11   1   6   26.85    2.82
 -11  -1   6   26.14    3.21
   1  11  -6   17.09    3.06
  -1 -11  -6   17.26    2.35
 -11   1  -6    9.52    1.95
   1  11   6   15.80    2.38
 -11   1   6   11.53    2.46
  -3 -11  -6    2.62    1.84
 -11   3  -6    3.91    1.70
   3  11  -6    3.59    2.31
  11  -3   6    4.47    2.04
 -11   3   6    1.14    1.76
  -3 -11   6    0.67    1.84
   0   1  -7  114.50    3.48
  -1   0  -7  116.45    3.55
   1   0  -7  112.78    3.58
  -1   0  -7  116.31    2.71
   0  -1  -7  114.25    3.62
   0   1   7  111.42    3.27
  -1   0   7  110.40    2.91
   0   1   7  111.79    2.70
   0   1   7  111.75    2.50
   0  -1   7  110.98    3.19
  -1   0   7  117.04    3.12
   0  -1   7  111.50    2.96
   1   0   7  114.36    3.30
  -1   2  -7  103.83    3.22
  -2  -1  -7  105.86    3.56
  -1   2  -7  100.19    3.15
   2   1  -7  106.23    3.59
  -2  -1   7  101.10    2.33
   2   1   7  101.64    2.20
   2   1   7   99.51    3.36
  -1   2   7  101.67    2.54
  -1   2   7   96.42    3.23
   1  -2   7  103.92    3.05
  -2  -1   7  102.86    3.38
   2  -1  -7  131.12    4.01
  -2   1  -7  131.29    3.43
  -2   1  -7  134.61    3.71
   1   2  -7  115.08    4.39
  -1  -2  -7  128.63    4.11
   2  -1   7  129.38    3.82
   1   2   7  131.97    3.95
  -1  -2   7  132.06    2.82
  -1  -2   7  130.18    3.94
  -2   1   7  133.87    3.57
  -2   1   7  129.01    3.47
  -3  -2  -7   97.16    2.03
  -2   3  -7   93.70    3.44
   3   2  -7   97.64    3.83
   2  -3  -7   98.46    3.48
  -3  -2  -7   97.25    3.73
  -2   3  -7   98.70    3.08
   3   2   7   95.98    3.62
  -2   3   7  103.47    2.95
   2  -3   7   97.04    3.38
  -2   3   7   97.31    3.52
  -3  -2   7  100.56    3.74
   3   2   7   98.00    2.06
   3   0  -7   42.38    2.31
   0   3  -7   40.44    2.16
   0  -3  -7   42.69    2.37
  -3   0  -7   43.14    2.16
  -3   0  -7   43.40    1.76
   0  -3  -7   41.56    0.92
  -3   0   7   40.56    2.19
  -3   0   7   41.57    1.63
   0  -3   7   40.52    1.65
   0   3   7   39.91    2.21
   3   0   7   41.96    2.27
   0   3   7   41.28    0.89
   2   3  -7  109.61    3.99
   3  -2  -7  104.01    3.63
  -2  -3  -7  110.53    4.08
  -3   2  -7  107.48    3.53
  -3   2  -7  104.39    3.08
  -3   2   7  107.90    3.50
   2   3   7  104.36    3.79
   3  -2   7  108.82    3.79
  -2  -3   7  111.83    4.01
  -3   4  -7   50.01    1.94
  -4  -3  -7   47.56    1.46
   4   3  -7   48.89    3.00
  -4  -3  -7   48.06    2.88
   3  -4  -7   48.17    2.53
  -3   4  -7   44.64    2.66
  -3   4   7   51.12    2.36
  -4  -3   7   46.07    2.93
  -3   4   7   47.56    2.68
   3  -4   7   51.80    2.78
   4   3   7   47.07    2.69
   4   1  -7   69.50    1.81
  -4  -1  -7   69.43    3.11
   4   1  -7   70.01    3.18
  -4  -1  -7   67.36    2.29
  -1   4  -7   69.98    3.06
   1  -4  -7   71.98    3.12
  -1   4  -7   72.12    2.82
   1  -4   7   70.68    2.71
  -1   4   7   71.49    2.10
  -1   4   7   70.28    3.13
   4   1   7   73.25    3.26
  -4  -1   7   67.00    3.22
  -1  -4  -7   49.87    2.87
  -4   1  -7   46.48    2.28
  -4   1  -7   48.91    2.19
   1   4  -7   48.35    2.65
   4  -1  -7   45.43    2.40
  -1  -4   7   49.01    2.78
   1   4   7   48.11    2.59
  -4   1   7   45.57    2.57
   4  -1   7   46.28    2.55
  -1  -4   7   47.04    1.53
  -4   1   7   47.50    2.11
  -4   3  -7   41.55    2.53
  -3  -4  -7   43.86    2.92
   3   4  -7   44.77    2.87
  -4   3  -7   46.41    1.71
   4  -3  -7   46.02    2.44
  -4   3   7   42.30    2.47
  -4   3   7   42.68    2.41
   3   4   7   42.03    2.62
  -3  -4   7   43.37    2.78
   4  -3   7   48.72    2.74
   4  -5  -7   78.94    3.25
  -5  -4  -7   79.38    2.26
  -5  -4  -7   69.20    4.48
   5   4  -7   75.48    4.12
  -4   5  -7   73.28    3.84
  -4   5   7   80.89    3.45
  -5  -4   7   88.51    4.28
   4  -5   7   75.39    3.83
   5   4   7   74.64    3.73
  -4   5   7   80.26    3.92
  -5  -2  -7   42.42    2.69
  -5  -2  -7   40.93    1.87
  -2   5  -7   42.68    2.07
   2  -5  -7   39.80    2.44
   5   2  -7   38.45    2.62
  -2   5  -7   41.23    2.69
  -2   5   7   39.66    2.67
  -2   5   7   41.13    1.98
   2  -5   7   41.89    2.43
   5   2   7   41.13    2.67
  -5  -2   7   41.50    2.89
  -5   0  -7   63.71    2.85
   5   0  -7   59.23    3.04
  -5   0  -7   62.11    2.64
   0  -5  -7   61.78    3.26
   0   5  -7   63.74    2.99
   5   0  -7   60.42    2.24
   0   5  -7   64.50    3.22
   0   5   7   61.04    1.66
   0   5   7   61.59    3.14
   0  -5   7   60.44    2.35
  -5   0   7   59.73    3.26
   5   0   7   62.00    3.21
   5  -2  -7   60.73    2.87
  -5   2  -7   66.82    3.16
   5  -2  -7   69.21    3.08
  -2  -5  -7   63.09    3.46
   2   5  -7   66.90    3.46
  -5   2  -7   64.44    2.20
  -2  -5   7   56.03    3.25
   5  -2   7   62.82    3.28
  -5   2   7   63.57    3.27
   2   5   7   60.11    3.23
   5  -4  -7   17.30    1.60
   4   5  -7   18.87    2.27
   5  -4  -7   16.89    1.91
  -4  -5  -7   18.57    2.16
   4   5   7   17.96    1.95
  -5   4   7   18.91    1.93
   5  -4   7   16.29    2.05
  -4  -5   7   19.25    2.23
   5  -6  -7   39.30    2.19
  -5   6  -7   41.82    3.30
   6   5  -7   42.90    3.54
   5  -6  -7   43.24    3.30
  -6  -5  -7   39.80    3.44
   6   5   7   42.12    3.02
  -6  -5   7   39.44    3.36
   5  -6   7   43.01    3.29
  -5   6   7   47.93    3.07
  -3   6  -7   19.87    2.24
   6   3  -7   16.66    2.16
  -6  -3  -7   18.53    1.43
  -3   6  -7   21.24    1.24
   3  -6  -7   17.12    1.75
   3  -6   7   19.53    2.02
  -3   6   7   16.89    1.64
   6   3   7   18.37    2.05
  -3   6   7   18.80    2.04
  -6  -3   7   16.82    2.31
  -1   6  -7   60.85    5.17
   1  -6  -7   57.68    3.16
   6   1  -7   52.37    3.14
  -6  -1  -7   55.48    3.07
   6   1  -7   53.80    1.86
  -6  -1  -7   54.33    2.60
  -1   6  -7   59.51    2.83
   6   1   7   51.81    3.17
  -6  -1   7   56.90    3.58
  -1   6   7   51.08    2.05
   1  -6   7   58.49    2.76
  -1   6   7   57.94    3.91
   6  -1  -7   52.07    2.47
   1   6  -7   45.45    2.91
  -6   1  -7   44.97    2.73
   6  -1  -7   47.92    2.72
  -1  -6  -7   47.03    3.09
  -6   1  -7   48.91    2.28
  -1  -6   7   46.99    1.89
   6  -1   7   43.84    3.03
  -1  -6   7   48.63    3.80
  -6   1   7   49.92    3.20
   1   6   7   49.37    3.10
  -3  -6  -7   30.29    2.88
   6  -3  -7   25.78    2.18
   3   6  -7   28.86    2.68
   6  -3  -7   25.71    1.91
  -6   3  -7   23.57    2.27
   6  -3   7   25.32    2.51
   3   6   7   24.69    2.22
  -6   3   7   27.25    2.43
  -3  -6   7   25.33    2.54
   6  -5  -7    6.28    1.86
  -5  -6  -7    5.71    2.24
  -6   5  -7    8.65    1.87
   6  -5  -7    6.39    1.10
   5   6  -7    5.03    1.78
   6  -5   7    6.02    1.53
  -5  -6   7    5.67    2.18
  -6   5   7    6.44    2.07
   5   6   7    6.46    1.53
  -7  -6  -7    7.73    2.51
   7   6  -7    6.04    2.32
  -6   7  -7    7.28    2.49
   6  -7  -7    6.49    2.07
   7   6   7    6.16    1.83
  -7  -6   7    7.89    2.62
  -6   7   7    7.08    1.65
   6  -7   7    7.76    1.80
   7   4  -7   27.60    2.93
  -7  -4  -7   28.84    1.80
   4  -7  -7   29.69    2.10
  -4   7  -7   22.98    2.64
  -7  -4  -7   31.24    3.01
  -4   7   7   21.56    2.56
  -4   7   7   30.89    2.29
  -7  -4   7   23.26    2.80
   7   4   7   27.86    2.55
   4  -7   7   26.98    2.65
  -7  -2  -7    3.29    1.29
  -2   7  -7    3.28    1.79
  -2   7  -7    4.23    0.93
   2  -7  -7    3.81    1.50
  -7  -2  -7    2.51    1.45
   7   2  -7    1.52    1.37
   7   2   7    3.95    1.36
   2  -7   7    5.05    1.65
  -7  -2   7    4.43    1.73
  -2   7   7    4.05    1.73
  -2   7   7    2.35    0.97
  -7   0  -7   59.05    2.90
   0  -7  -7   56.35    2.10
   7   0  -7   58.65    3.30
   7   0  -7   57.12    2.50
   0   7  -7   60.06    3.63
  -7   0  -7   61.76    3.24
   0   7  -7   60.17    3.33
   0  -7  -7   55.82    3.51
  -7   0   7   57.99    3.80
   0  -7   7   56.76    2.62
   0   7   7   55.94    3.53
   7   0   7   58.63    3.60
   2   7  -7   17.38    2.22
   7  -2  -7   19.37    1.88
   7  -2  -7   20.15    1.81
  -2  -7  -7   20.96    2.53
  -7   2  -7   16.13    2.03
  -7   2   7   18.25    2.27
  -2  -7   7   20.19    2.48
   7  -2   7   21.44    2.30
   2   7   7   21.52    2.18
  -4  -7  -7   14.61    2.25
  -7   4  -7   17.21    2.26
   7  -4  -7   20.47    2.25
   7  -4  -7   17.54    1.49
   4   7  -7   12.75    2.24
   7  -4   7   16.69    2.20
  -4  -7   7   17.83    2.46
  -7   4   7   17.75    2.28
   4   7   7   18.87    2.21
  -7   6  -7   14.65    2.44
   6   7  -7   17.57    2.74
  -6  -7  -7   15.98    2.66
   7  -6  -7   15.84    2.14
   6   7   7   15.05    2.02
   7  -6   7   18.52    2.49
  -7   6   7   16.71    2.27
  -6  -7   7   16.89    2.65
   7  -8  -7    3.61    1.72
  -7   8  -7    4.16    3.33
  -8  -7  -7    6.60    2.45
   8   7  -7    2.32    2.01
  -7   8   7    9.14    1.79
   7  -8   7    6.51    2.41
  -8  -7   7    7.91    2.90
   8   7   7    5.23    1.99
   8   5  -7    4.09    1.99
   5  -8  -7   10.84    2.08
  -5   8  -7   10.14    2.20
  -8  -5  -7    9.71    2.26
   8   5   7    9.27    1.72
  -8  -5   7   11.40    2.42
  -5   8   7    8.43    1.71
   5  -8   7    6.77    2.36
   8   3  -7   14.20    2.23
  -8  -3  -7   17.29    1.69
  -3   8  -7   15.62    2.38
   3  -8  -7   16.67    2.03
  -8  -3  -7   15.17    2.16
  -8  -3   7   22.20    2.87
  -3   8   7   16.11    1.94
   3  -8   7   15.93    2.24
  -3   8   7   14.99    2.15
   8   3   7   20.54    2.35
  -8  -1  -7   23.24    2.18
   1  -8  -7   28.09    2.54
  -8  -1  -7   28.57    2.33
   8   1  -7   23.35    2.43
  -1   8  -7   23.57    2.63
  -1   8  -7   28.72    2.21
   1  -8   7   27.81    2.26
   8   1   7   26.98    2.68
  -8  -1   7   23.89    2.86
  -1   8   7   23.95    2.62
  -1   8   7   26.61    1.68
   8  -1  -7    5.13    1.55
  -8   1  -7    6.18    1.86
   1   8  -7    5.41    1.91
  -1  -8  -7    8.18    2.41
   8  -1  -7    6.12    1.44
   8  -1   7    3.25    1.67
  -1  -8   7    5.25    1.05
  -1  -8   7    5.57    2.29
   1   8   7    5.77    1.87
  -8   1   7    2.32    1.72
  -8   3  -7   43.22    3.39
   8  -3  -7   46.35    3.16
   3   8  -7   48.10    3.78
  -3  -8  -7   42.90    3.76
  -3  -8   7   50.75    3.85
   3   8   7   47.08    3.42
  -8   3   7   43.31    3.50
   8  -3   7   46.08    3.57
  -5  -8  -7   14.68    2.66
  -8   5  -7   13.86    2.36
   5   8  -7   16.67    2.66
   8  -5  -7   11.92    2.10
  -5  -8   7   14.85    2.49
  -8   5   7   15.11    2.29
   5   8   7   16.73    2.19
   8  -5   7   10.13    2.23
  -7  -8  -7   10.53    3.08
   7   8  -7    5.51    2.56
   8  -7  -7    7.26    2.35
  -8   7  -7   12.63    2.41
  -8   7   7    7.02    2.24
  -7  -8   7    4.11    2.25
   8  -7   7    6.96    2.53
   7   8   7   10.79    1.98
  -6   9  -7   12.76    2.49
   6  -9  -7   25.65    3.03
  -9  -6  -7   20.28    3.17
  -6   9   7   23.69    2.81
   6  -9   7   21.34    3.38
   9   6   7   19.73    2.60
  -9  -4  -7   12.95    2.28
  -4   9  -7   14.10    2.38
   4  -9  -7   10.44    2.10
   9   4  -7   12.75    2.29
   9   4   7   11.88    1.91
  -9  -4   7   10.06    2.38
   4  -9   7   10.51    2.27
  -4   9   7    9.69    1.79
  -9  -2  -7   16.79    2.22
   2  -9  -7   18.27    2.17
  -9  -2  -7   14.14    1.89
   9   2  -7   16.83    2.30
  -2   9  -7   16.91    2.46
   9   2   7   15.51    2.24
   2  -9   7   17.07    2.18
  -2   9   7   17.86    2.38
  -9  -2   7   18.52    2.77
   0  -9  -7   22.34    2.58
   9   0  -7   20.11    2.19
  -9   0  -7   18.67    2.14
   0   9  -7   20.80    2.36
   0   9   7   20.06    2.43
   9   0   7   21.04    2.43
  -9   0   7   15.31    2.59
   0  -9   7   16.04    1.77
  -2  -9  -7    2.48    2.11
   9  -2  -7    2.50    1.45
   2   9  -7    2.07    1.64
  -9   2  -7    2.68    1.80
   9  -2   7    2.25    1.52
  -9   2   7    3.35    1.91
  -2  -9   7    3.26    2.08
   2   9   7    1.41    1.47
  -4  -9  -7   21.61    3.01
   4   9  -7   27.52    3.20
   9  -4  -7   21.13    2.62
  -9   4  -7   21.14    2.74
   9  -4   7   19.01    2.73
  -9   4   7   22.51    2.73
  -4  -9   7   19.02    2.76
   4   9   7   19.91    2.52
   9  -6  -7    4.53    1.93
  -9   6  -7    0.01    1.60
  -6  -9  -7    4.09    2.19
   6   9  -7    1.42    1.48
  -9   6   7    6.43    3.90
   6   9   7    4.42    2.09
   9  -6   7    2.57    1.82
   5 -10  -7    1.15    1.57
 -10  -5  -7    0.72    2.27
  10   5  -7    1.53    1.49
  -5  10  -7    2.62    1.80
   5 -10   7    1.61    1.96
 -10  -5   7    3.34    1.85
  10   5   7    4.09    2.03
  10   3  -7   11.79    2.32
 -10  -3  -7   16.35    2.78
  -3  10  -7    9.19    2.13
   3 -10  -7   11.66    2.20
 -10  -3   7   12.51    2.56
  10   3   7   16.87    2.22
   3 -10   7   12.95    2.14
  -1  10  -7    9.22    1.98
 -10  -1  -7    9.06    1.66
   1 -10  -7    9.97    1.99
 -10  -1   7    6.30    2.28
   1 -10   7   10.61    2.25
  10   1   7   10.88    2.01
  -1  10   7    9.35    2.07
 -10   1  -7    9.56    1.82
   1  10  -7    9.18    1.94
  -1 -10  -7   11.48    2.21
  -1 -10   7    8.92    2.80
 -10   1   7    7.40    2.49
   1  10   7    7.58    1.85
  10  -1   7    8.38    2.05
 -10   3  -7    8.44    1.89
  -3 -10  -7    6.48    2.33
  10  -3  -7    3.33    2.23
   3  10  -7    6.34    2.17
  10  -3   7    5.30    2.04
  -3 -10   7    5.00    2.31
   3  10   7    5.37    1.88
 -10   3   7    3.78    2.05
   5  10  -7    2.59    1.75
  -5 -10  -7    0.87    1.65
 -10   5  -7    0.81    1.50
  10  -5  -7   -0.03    1.79
  10  -5   7   -0.14    1.43
 -10   5   7    3.15    1.93
  -5 -10   7    2.37    1.93
  -2  11  -7    9.64    2.15
   2 -11  -7   14.09    2.32
 -11  -2   7    7.24    2.56
   2 -11   7   13.33    2.32
  11   2   7   11.17    2.08
   0 -11  -7    6.74    1.72
 -11   0  -7    6.40    2.01
   0  11   7    7.48    2.33
 -11   0   7    2.87    2.01
  11   0   7    4.29    2.34
   0 -11   7    2.51    1.82
  -2 -11  -7   11.04    2.50
 -11   2  -7    9.55    1.87
   2  11   7    8.31    1.99
  -2 -11   7    9.65    2.80
  11  -2   7    9.00    2.07
 -11   2   7    9.38    2.20
   0   0  -8  104.52    4.07
   0   0   8  107.75    2.91
   0   0   8  105.01    3.13
  -1   1  -8   89.40    3.19
  -1  -1  -8   95.50    3.49
  -1   1  -8   93.23    2.82
   1  -1  -8   91.53    3.43
   1   1  -8   92.87    3.38
  -1  -1   8   93.68    3.13
  -1  -1   8   93.75    2.55
  -1   1   8   94.20    2.66
   1   1   8   92.23    3.19
   1  -1   8   92.55    3.01
  -1   1   8   90.54    2.96
   1   1   8   92.17    2.03
   0  -2  -8   99.11    3.69
   2   0  -8  100.27    3.67
  -2   0  -8  100.72    2.67
   0   2  -8  103.41    3.56
  -2   0   8  102.37    2.83
   2   0   8  102.04    3.47
   0   2   8   99.05    1.99
  -2   0   8  103.61    3.33
   0   2   8  100.57    3.46
   0   2   8  102.09    2.05
   0  -2   8  100.69    2.84
   2  -2  -8   37.04    2.26
   2   2  -8   39.12    1.13
  -2   2  -8   40.89    2.04
   2   2  -8   38.66    2.33
  -2  -2  -8   39.69    2.43
  -2   2  -8   44.20    2.18
   2   2   8   37.64    2.24
  -2   2   8   43.29    1.88
   2  -2   8   42.50    2.18
  -2  -2   8   38.99    1.12
  -2   2   8   43.83    2.16
  -2  -2   8   38.18    2.26
  -1   3  -8   79.76    3.59
  -3  -1  -8   87.40    3.50
   3   1  -8   91.51    3.73
  -3  -1  -8   93.37    2.33
   1  -3  -8   87.64    3.56
  -1   3  -8   90.54    3.31
   1  -3   8   90.09    3.03
  -3  -1   8   91.38    2.20
   3   1   8   89.67    3.50
  -1   3   8   88.28    2.29
  -1   3   8   85.19    3.39
  -3  -1   8   92.01    3.55
   1   3  -8   46.52    2.59
  -3   1  -8   47.89    2.33
  -1  -3  -8   50.54    2.71
  -3   1  -8   51.15    2.18
   3  -1  -8   49.67    2.60
   3  -1   8   47.38    2.53
  -1  -3   8   49.70    1.59
  -3   1   8   48.42    2.13
   1   3   8   46.02    2.53
  -1  -3   8   49.44    2.65
  -3   1   8   54.53    2.52
  -3  -3  -8   73.36    3.56
   3   3  -8   65.50    3.41
   3  -3  -8   69.60    3.07
  -3   3  -8   74.23    3.21
  -3   3  -8   73.84    2.64
  -3  -3   8   67.91    3.31
   3   3   8   74.54    3.36
   3  -3   8   77.22    3.34
  -3   3   8   70.60    3.14
  -3   3   8   73.98    2.85
  -4  -2  -8   52.32    1.66
  -2   4  -8   51.85    2.40
   4   2  -8   53.71    3.10
  -2   4  -8   51.89    2.82
   2  -4  -8   52.14    2.73
  -4  -2  -8   52.73    2.95
  -4  -2   8   55.03    3.11
   4   2   8   52.95    2.87
  -2   4   8   55.09    2.13
  -2   4   8   50.66    2.84
   2  -4   8   48.00    2.53
   0  -4  -8   86.52    3.70
  -4   0  -8   88.78    2.94
   4   0  -8   87.51    3.66
  -4   0  -8   88.28    3.43
   0   4  -8   89.65    3.56
   4   0  -8   92.50    2.72
   0   4  -8   89.57    3.64
   0  -4   8   88.72    2.76
  -4   0   8   89.37    3.71
   4   0   8   91.82    3.73
   0   4   8   88.85    3.71
  -4   2  -8   43.90    2.04
   2   4  -8   41.66    2.72
   4  -2  -8   44.07    2.51
  -2  -4  -8   47.13    3.02
  -4   2  -8   43.44    2.40
  -4   2   8   41.88    2.28
   4  -2   8   44.13    2.63
   2   4   8   43.70    2.69
  -2  -4   8   43.04    2.77
  -4   2   8   46.19    2.53
   4   4  -8   35.47    2.83
  -4   4  -8   38.09    2.66
  -4  -4  -8   34.71    2.86
  -4   4  -8   36.80    1.53
   4  -4  -8   35.24    2.27
  -4  -4   8   36.16    2.70
   4  -4   8   38.58    2.73
  -4   4   8   35.67    2.55
  -4   4   8   41.19    2.39
   4   4   8   36.45    2.62
  -3   5  -8   44.21    4.48
  -5  -3  -8   36.06    1.43
   3  -5  -8   39.85    2.49
  -5  -3  -8   36.42    2.84
  -3   5  -8   37.26    1.79
   5   3   8   37.73    2.73
  -3   5   8   35.62    2.09
  -5  -3   8   29.28    3.01
   3  -5   8   35.97    2.53
  -3   5   8   30.70    2.57
  -1   5  -8   34.11    2.15
   1  -5  -8   27.57    2.28
  -1   5  -8   27.73    2.31
   5   1  -8   28.67    1.16
  -5  -1  -8   31.45    1.75
   5   1  -8   30.35    2.41
  -5  -1  -8   28.07    2.23
  -5  -1   8   29.76    2.49
   5   1   8   32.59    2.38
   1  -5   8   27.80    1.85
  -1   5   8   30.38    1.34
  -1   5   8   32.54    2.45
  -5   1  -8   54.70    2.67
   5  -1  -8   55.17    2.97
   5  -1  -8   54.48    2.45
  -1  -5  -8   56.86    3.37
   1   5  -8   52.02    3.02
  -5   1  -8   54.00    2.51
  -5   1   8   57.86    3.23
  -1  -5   8   56.71    3.35
   1   5   8   54.59    3.05
   5  -1   8   54.32    3.15
  -1  -5   8   54.27    1.80
  -5   3  -8   34.85    2.53
   5  -3  -8   37.33    2.48
   3   5  -8   34.70    2.95
   5  -3  -8   37.18    2.39
  -3  -5  -8   33.27    2.74
  -5   3  -8   38.39    1.53
  -5   3   8   37.51    2.55
  -5   3   8   38.25    2.50
   3   5   8   38.13    2.73
  -3  -5   8   29.62    2.95
   5  -5  -8   12.16    1.49
   5  -5  -8   11.40    1.83
  -5   5  -8   11.29    1.92
  -5  -5  -8   10.69    2.12
   5   5  -8   12.25    1.91
   5  -5   8   12.18    1.97
  -5  -5   8   12.80    1.95
   5   5   8   10.60    1.76
  -5   5   8    8.53    1.71
   6   4  -8    3.28    1.69
  -4   6  -8    1.92    1.53
   4  -6  -8    3.70    1.35
  -6  -4  -8    3.98    1.86
  -4   6   8    4.38    1.70
  -4   6   8    5.67    1.52
   6   4   8    4.93    1.71
  -6  -4   8    5.43    2.16
   4  -6   8    2.91    1.61
  -6  -2  -8   62.51    3.55
  -6  -2  -8   58.06    2.47
   6   2  -8   52.99    3.34
   2  -6  -8   57.02    3.24
  -2   6  -8   61.06    2.72
  -2   6  -8   60.39    3.48
  -6  -2   8   59.06    3.73
   6   2   8   55.31    3.40
  -2   6   8   59.45    3.57
  -2   6   8   61.65    2.44
   2  -6   8   59.36    3.08
   0   6  -8   12.58    1.63
   0   6  -8   12.53    1.82
   0  -6  -8   12.98    1.88
   6   0  -8   14.66    1.32
  -6   0  -8   14.07    1.58
  -6   0  -8   15.22    1.55
   6   0  -8   12.82    1.72
   0  -6   8   12.91    1.29
   0   6   8   11.42    1.79
   6   0   8   11.09    1.61
  -6   0   8   15.91    2.13
  -2  -6  -8   30.76    2.73
   6  -2  -8   27.54    2.04
   2   6  -8   20.50    2.64
  -6   2  -8   28.77    2.32
  -6   2  -8   27.62    1.50
   6  -2  -8   25.86    2.09
   2   6   8   30.34    2.47
  -6   2   8   27.39    2.50
   6  -2   8   26.33    2.39
  -2  -6   8   28.33    2.50
   6  -4  -8   53.85    2.77
  -6   4  -8   47.06    3.30
  -4  -6  -8   52.46    3.86
   6  -4  -8   53.50    3.29
   4   6  -8   52.09    3.74
  -4  -6   8   46.21    3.34
  -6   4   8   58.92    3.45
   6  -4   8   50.62    3.58
   4   6   8   44.91    3.19
  -6   6  -8   19.23    2.59
  -6  -6  -8   18.37    2.66
   6  -6  -8   18.14    2.37
   6   6  -8   14.51    2.27
   6   6   8   16.71    2.17
  -6   6   8   18.87    2.18
   6  -6   8   22.40    2.74
  -6  -6   8   17.05    2.59
   5  -7  -8   23.09    2.67
  -5   7  -8   18.89    2.85
  -7  -5  -8   22.31    2.81
   7   5  -8   17.28    2.90
   5  -7   8   23.13    2.68
   7   5   8   21.37    2.42
  -5   7   8   22.02    2.28
  -7  -5   8   20.39    2.84
  -3   7  -8   37.06    3.13
  -7  -3  -8   39.67    3.22
   3  -7  -8   35.83    2.61
  -7  -3  -8   36.80    2.08
   7   3  -8   30.50    2.95
  -3   7   8   35.30    3.08
   7   3   8   36.72    2.97
   3  -7   8   35.24    2.77
  -3   7   8   38.99    2.27
  -7  -3   8   40.14    3.46
  -1   7  -8   13.71    1.59
  -7  -1  -8   14.34    1.80
  -1   7  -8   13.46    2.06
  -7  -1  -8   13.17    1.59
   1  -7  -8   13.68    1.95
   7   1  -8   14.35    1.97
   7   1   8   11.00    1.87
  -1   7   8   13.11    1.08
   1  -7   8   13.31    1.66
  -7  -1   8   11.05    2.16
  -1   7   8   11.81    1.79
   7  -1  -8   40.30    2.34
  -7   1  -8   39.16    2.12
   1   7  -8   40.09    2.99
   7  -1  -8   36.68    2.71
  -1  -7  -8   37.59    3.17
  -1  -7   8   36.23    3.21
  -1  -7   8   38.57    1.74
   1   7   8   32.43    2.83
  -7   1   8   37.69    3.00
   7  -1   8   36.54    3.04
   7  -3  -8   10.57    1.63
   3   7  -8   14.21    2.24
  -7   3  -8    9.25    1.77
  -3  -7  -8   11.20    2.23
   7  -3  -8   13.98    1.61
   3   7   8    9.56    1.78
   7  -3   8   11.83    2.07
  -7   3   8   12.00    1.97
  -3  -7   8   13.67    2.04
   7  -5  -8   20.14    2.41
  -7   5  -8   19.00    2.48
   5   7  -8   14.58    2.67
   5   7   8   23.89    2.56
  -7   5   8   24.56    2.62
   7  -5   8   18.32    2.64
  -5  -7   8   23.54    2.87
   7   7  -8    4.40    2.10
   7  -7  -8    6.00    2.17
  -7   7  -8    5.37    2.25
  -7  -7  -8    3.13    1.90
  -7   7   8    4.84    2.07
   7  -7   8    3.17    1.96
   7   7   8    6.93    1.65
  -7  -7   8    2.61    2.22
   6  -8  -8   10.80    2.15
   8   6  -8    4.76    2.25
  -8  -6  -8   11.80    2.40
  -6   8  -8    9.50    2.15
  -8  -6   8    7.80    2.52
   8   6   8   12.05    2.03
   6  -8   8    7.85    2.44
  -6   8   8   13.93    2.15
   4  -8  -8    8.06    1.95
  -4   8  -8    6.40    2.30
  -8  -4  -8    9.30    2.11
   8   4  -8    1.33    1.73
  -8  -4   8    6.93    2.48
   8   4   8   10.01    1.90
   4  -8   8    7.81    2.26
  -4   8   8    8.02    1.41
  -4   8   8    5.45    2.03
  -8  -2  -8   27.68    2.75
   2  -8  -8   26.28    2.52
   8   2  -8   28.02    2.84
  -2   8  -8   29.85    2.09
  -2   8  -8   24.10    2.80
  -8  -2  -8   29.18    2.19
  -2   8   8   27.05    1.89
   8   2   8   23.72    2.61
  -8  -2   8   30.54    3.25
   2  -8   8   28.67    2.46
  -2   8   8   25.08    2.79
   8   0  -8    5.89    1.14
   8   0  -8    5.79    1.44
   0   8  -8   10.76    1.74
   0   8  -8    5.99    2.14
   0  -8  -8    8.50    1.85
  -8   0  -8   10.21    1.40
  -8   0  -8    8.21    1.49
  -8   0   8   10.83    2.20
   0   8   8    6.66    2.01
   0  -8   8   11.24    1.42
   8   0   8    8.06    1.64
   0  -8   8    8.44    2.41
   2   8  -8   22.59    2.65
  -8   2  -8   22.79    2.45
   8  -2  -8   28.63    2.29
   8  -2  -8   25.38    2.31
  -2  -8  -8   29.20    3.19
   8  -2   8   22.03    2.68
  -8   2   8   18.38    2.52
   2   8   8   23.85    2.61
  -2  -8   8   26.06    2.97
   4   8  -8    3.01    1.96
  -4  -8  -8    0.55    1.80
   8  -4  -8    1.30    1.39
   4   8   8    0.82    1.35
   8  -4   8   -0.57    1.46
  -4  -8   8    1.99    1.81
  -8   6  -8    4.90    2.28
   8  -6  -8    4.01    1.91
   6   8  -8    1.48    1.81
  -6  -8  -8    4.51    2.19
  -8   6   8    5.67    2.06
  -6  -8   8    2.01    2.02
   8  -6   8    2.30    1.98
   6   8   8    3.67    1.65
  -5   9  -8    5.08    2.11
   9   5  -8    5.35    2.22
   5  -9  -8    6.17    2.12
  -9  -5  -8    9.92    2.92
   9   5   8    5.27    1.80
   5  -9   8    6.74    2.24
  -9  -5   8   -0.17    1.91
  -9  -3  -8    5.96    2.31
   9   3  -8    1.80    1.56
  -3   9  -8    2.62    1.92
  -3   9   8    2.75    1.68
   3  -9   8    4.02    1.85
   9   3   8    3.97    1.75
  -9  -3   8    2.14    2.02
  -9  -1  -8   10.37    1.62
   9   1  -8   14.36    2.29
  -1   9  -8   12.83    2.35
  -1   9  -8   13.90    1.90
   1  -9  -8   13.15    2.16
  -9  -1  -8   13.16    1.86
  -9  -1   8   13.34    2.54
   9   1   8   13.42    2.22
   1  -9   8   11.30    1.76
  -1   9   8    6.30    1.99
   9  -1  -8   20.72    2.13
   9  -1  -8   17.49    1.98
  -9   1  -8   17.06    2.16
   1   9  -8   22.93    2.70
  -9   1   8   21.36    2.78
   9  -1   8   16.08    2.48
   1   9   8   22.35    2.69
  -1  -9   8   20.63    2.90
   3   9  -8    4.48    2.06
  -3  -9  -8    3.93    1.96
   9  -3  -8    3.15    1.73
  -9   3  -8    2.40    1.81
  -9   3   8    3.65    2.08
   3   9   8    2.73    1.60
   9  -3   8    2.01    1.70
  -3  -9   8    2.37    1.91
  -5  -9  -8   18.42    2.81
   5   9  -8   18.74    2.84
   9  -5  -8   19.17    2.51
  -9   5  -8   11.97    2.36
  -5  -9   8   24.45    3.29
   9  -5   8   18.59    2.82
   5   9   8   17.61    2.41
  -9   5   8   20.91    2.68
   4 -10  -8   12.60    2.30
  -4  10  -8   11.57    2.47
 -10  -4  -8   17.60    2.95
 -10  -4   8   12.96    2.57
  10   4   8   12.06    2.08
   4 -10   8    8.77    2.04
  -2  10  -8    5.76    2.41
  10   2  -8    7.58    1.81
  10   2   8    2.79    1.54
  -2  10   8    1.94    1.65
 -10  -2   8    4.11    2.01
   0 -10  -8    7.63    1.86
 -10   0  -8    6.72    1.49
   0  10   8    3.51    1.74
  10   0   8    3.09    1.79
 -10   0   8    3.48    2.10
   0 -10   8    2.60    1.86
  -2 -10  -8   19.66    2.89
 -10   2  -8   22.22    2.51
   2  10  -8   21.69    2.74
 -10   2   8   20.82    2.94
  -2 -10   8   19.03    2.94
   2  10   8   21.09    2.70
  10  -2   8   19.57    2.78
  10  -4  -8    6.67    2.33
  -4 -10  -8    5.48    2.34
 -10   4  -8    4.87    2.23
   4  10  -8    7.06    2.33
 -10   4   8    4.03    1.86
   4  10   8    5.49    2.18
  -4 -10   8    9.79    2.29
  10  -4   8    4.43    1.92
  -1  11   8   14.13    2.51
  11   1   8   15.22    2.27
   1 -11   8   11.70    2.31
 -11  -1   8   12.06    2.80
  -1 -11  -8    4.38    1.85
 -11   1  -8    9.33    1.88
 -11   1   8    3.36    2.28
   1  11   8    3.75    1.64
  -1 -11   8    3.18    1.96
  11  -1   8    1.73    1.76
   0  -1  -9  101.38    3.77
   0   1  -9   97.30    3.64
  -1   0  -9   99.77    3.70
   1   0  -9  104.88    3.85
   1   0   9   95.36    3.31
   0  -1   9  103.15    3.31
   0   1   9  102.91    3.43
   1   0   9  101.03    2.85
  -1   0   9  108.55    3.17
   0  -1   9  104.58    3.13
  -1   0   9  103.92    3.20
   0   1   9  103.14    2.60
  -2  -1  -9  309.52    7.48
   1  -2  -9  291.84    7.40
  -1   2  -9  302.53    7.03
   2   1  -9  289.90    7.39
  -1   2  -9  295.22    6.71
   2   1   9  300.76    5.28
   2   1   9  296.63    7.13
  -2  -1   9  294.09    5.66
  -2  -1   9  303.03    7.04
  -1   2   9  295.18    6.95
  -1   2   9  301.37    5.72
   1   2  -9   55.29    2.84
   2  -1  -9   54.30    2.83
  -1  -2  -9   57.30    2.88
  -2   1  -9   52.17    2.18
  -2   1  -9   53.28    2.58
   2  -1   9   51.01    2.50
   1   2   9   52.07    2.57
  -2   1   9   52.04    2.26
  -1  -2   9   52.20    1.83
  -1  -2   9   57.65    2.70
  -2   1   9   53.44    2.28
  -3  -2  -9   78.85    3.60
  -2   3  -9   81.98    3.34
  -2   3  -9   78.81    3.06
   3   2  -9   76.29    3.68
   2  -3  -9   82.57    3.59
   3   2   9   81.02    3.59
  -3  -2   9   77.82    3.56
  -2   3   9   77.83    3.30
  -2   3   9   77.33    2.58
   2  -3   9   81.18    3.24
   0   3  -9   60.26    2.82
  -3   0  -9   58.96    2.13
   0  -3  -9   58.56    3.00
   3   0  -9   59.34    3.07
   0   3  -9   55.27    2.84
  -3   0  -9   59.36    2.88
  -3   0   9   58.91    2.15
   3   0   9   61.85    2.99
  -3   0   9   54.96    2.74
   0  -3   9   59.52    2.20
   0   3   9   59.04    2.87
  -2  -3  -9   37.92    2.66
  -3   2  -9   35.88    2.11
   2   3  -9   38.40    2.61
  -3   2  -9   40.19    2.17
   3  -2  -9   36.64    2.43
  -3   2   9   38.59    2.17
   3  -2   9   44.74    2.56
  -2  -3   9   42.63    2.65
  -3   2   9   39.26    2.18
   2   3   9   42.75    2.59
  -3   4  -9   33.76    2.47
  -3   4  -9   41.85    2.29
  -4  -3  -9   42.93    3.06
   3  -4  -9   42.91    2.68
   4   3  -9   40.71    2.86
  -4  -3   9   38.14    2.73
  -3   4   9   37.61    2.11
   4   3   9   40.70    2.78
  -3   4   9   38.88    2.62
   3  -4   9   37.88    2.46
   4   1  -9   76.08    1.99
  -1   4  -9   79.46    3.28
   1  -4  -9   76.16    3.62
  -4  -1  -9   77.62    2.39
  -1   4  -9   70.45    3.36
   4   1  -9   71.66    3.55
  -4  -1  -9   82.00    3.63
  -1   4   9   75.49    2.02
  -4  -1   9   73.17    3.47
  -1   4   9   71.47    3.41
   1  -4   9   80.97    3.03
   4   1   9   72.56    3.53
  -1  -4  -9   46.57    3.00
  -4   1  -9   48.73    2.49
  -4   1  -9   51.00    2.44
   4  -1  -9   47.94    2.75
   1   4  -9   51.34    2.97
   4  -1   9   52.23    2.87
  -1  -4   9   49.55    1.66
  -4   1   9   55.09    2.98
   1   4   9   51.84    2.97
  -4   1   9   51.70    2.35
  -1  -4   9   47.65    2.94
  -4   3  -9  162.68    5.25
  -3  -4  -9  160.26    6.01
   3   4  -9  149.13    5.64
   4  -3  -9  149.65    5.07
  -4   3  -9  159.39    4.21
  -4   3   9  155.70    5.08
   3   4   9  151.52    5.44
  -4   3   9  152.78    4.83
  -3  -4   9  163.19    5.74
   4  -3   9  154.64    5.39
  -5  -4  -9   14.78    2.04
  -4   5  -9   14.33    1.01
  -4   5  -9   12.61    1.93
   5   4  -9   13.11    2.12
   4  -5  -9   13.63    1.69
  -4   5   9   13.62    1.93
  -5  -4   9   12.94    2.15
  -4   5   9   12.33    1.55
   4  -5   9   13.28    1.93
   5   4   9   14.36    1.98
   2  -5  -9   50.86    3.05
  -5  -2  -9   53.46    3.28
  -5  -2  -9   50.65    1.88
  -2   5  -9   51.51    2.62
  -2   5  -9   48.06    3.09
   5   2  -9   49.81    3.26
   2  -5   9   57.03    2.96
   5   0  -9  157.24    3.91
  -5   0  -9  144.68    4.29
   5   0  -9  137.81    5.15
  -5   0  -9  146.81    4.85
   0   5  -9  149.74    5.32
   0  -5  -9  142.85    5.36
   0   5  -9  151.53    5.14
   0   5   9  150.43    5.47
   0  -5   9  145.61    3.95
   5   0   9  139.15    5.29
  -5   0   9  143.45    5.33
   2   5  -9   73.18    3.87
   5  -2  -9   74.30    3.22
  -5   2  -9   75.20    3.43
   5  -2  -9   71.61    3.50
  -5   2   9   73.96    3.62
  -2  -5   9   65.00    4.30
   4   5  -9   27.09    2.60
  -5   4  -9   29.39    2.57
  -4  -5  -9   32.61    3.04
   5  -4  -9   29.63    2.21
  -4  -5   9   24.42    2.64
   5  -4   9   28.92    2.68
  -5   4   9   28.42    2.44
   4   5   9   31.35    2.58
  -5   4   9   25.75    2.27
  -5   6  -9   18.61    2.45
   5  -6  -9   20.38    1.95
   5  -6  -9   14.94    2.21
   6   5  -9   19.94    2.69
  -6  -5  -9   14.47    2.25
   6   5   9   18.01    2.29
  -6  -5   9   13.20    2.40
   5  -6   9   15.25    2.25
  -5   6   9   12.99    2.12
  -5   6   9   17.14    1.96
  -6  -3  -9   91.44    2.64
   6   3  -9   90.49    4.72
  -6  -3  -9   99.31    4.92
  -3   6  -9  102.46    4.81
   3  -6  -9   93.50    4.16
   6   3   9   94.78    4.65
  -3   6   9   93.82    4.67
  -3   6   9   99.68    3.53
  -6  -3   9   96.13    4.99
   3  -6   9  102.72    4.44
   6   1  -9   30.59    1.16
  -1   6  -9   28.27    2.57
  -1   6  -9   32.17    2.32
   1  -6  -9   27.96    2.77
  -6  -1  -9   26.39    1.82
   6   1  -9   28.74    2.57
  -6  -1  -9   26.64    2.32
  -1   6   9   29.38    1.24
  -1   6   9   32.96    2.78
   6   1   9   27.05    2.54
  -6  -1   9   29.39    2.78
   1  -6   9   30.91    2.12
   6  -1  -9   27.32    2.44
  -6   1  -9   29.54    2.01
   1   6  -9   30.27    2.56
  -1  -6  -9   30.18    2.81
  -6   1  -9   28.98    2.17
   6  -1  -9   29.82    1.92
  -6   1   9   34.87    2.85
   1   6   9   32.60    2.75
   6  -1   9   29.45    2.64
  -1  -6   9   28.23    1.32
  -1  -6   9   25.51    2.60
   6  -3  -9   31.72    2.34
  -3  -6  -9   30.16    2.89
  -6   3  -9   28.55    2.50
   3   6  -9   26.52    2.72
  -6   3   9   29.33    2.54
   6  -3   9   31.99    2.89
  -3  -6   9   28.31    2.79
   3   6   9   31.74    2.75
   6  -5  -9   21.48    1.90
   6  -5  -9   26.75    2.63
  -5  -6  -9   24.18    2.98
  -6   5  -9   26.11    2.72
   5   6  -9   22.73    2.63
  -5  -6   9   25.57    2.92
   6  -5   9   24.29    2.75
  -6   5   9   23.87    2.37
   5   6   9   21.93    2.47
  -7  -6  -9   39.82    3.83
   6  -7  -9   33.66    3.27
   7   6  -9   32.06    3.52
  -6   7  -9   31.15    3.25
   6  -7   9   38.79    3.53
  -6   7   9   34.70    2.90
   7   6   9   38.67    3.27
  -7  -6   9   29.26    3.40
   7   4  -9   28.11    3.07
  -7  -4  -9   32.96    3.22
  -4   7  -9   27.53    2.92
   4  -7  -9   30.86    2.39
  -7  -4   9   26.34    3.07
  -4   7   9   28.12    2.91
  -4   7   9   25.16    2.00
   4  -7   9   24.18    2.56
   7   4   9   28.44    2.64
  -7  -2  -9   24.74    1.81
  -7  -2  -9   30.12    2.81
  -2   7  -9   30.09    2.05
  -2   7  -9   23.70    2.64
   2  -7  -9   25.78    2.42
   7   2  -9   27.14    2.61
  -2   7   9   24.15    2.66
  -2   7   9   27.86    1.62
  -7  -2   9   28.27    3.00
   2  -7   9   20.96    2.59
   7   2   9   24.62    2.59
  -7   0  -9    6.72    1.39
   7   0  -9    6.81    1.03
   7   0  -9    7.55    1.60
  -7   0  -9    6.09    1.34
   0   7  -9    7.89    2.31
   0  -7  -9    7.50    1.54
   0   7  -9    7.60    2.19
   0  -7   9    8.48    1.13
   0  -7   9    6.08    2.19
   7   0   9    6.33    1.98
   0   7   9    7.42    1.54
  -7   0   9    6.57    2.27
  -7   2  -9   29.16    2.52
   2   7  -9   28.51    2.76
  -2  -7  -9   28.60    3.07
   7  -2  -9   29.23    2.27
   7  -2  -9   28.18    2.41
   7  -2   9   28.80    2.87
  -7   2   9   27.81    2.77
  -2  -7   9   26.68    2.85
   2   7   9   28.32    2.74
  -7   4  -9   49.39    3.59
  -4  -7  -9   51.68    4.03
   4   7  -9   52.82    4.03
   7  -4  -9   46.22    3.29
   7  -4   9   46.57    3.74
  -7   4   9   47.47    3.44
  -4  -7   9   50.51    3.89
   4   7   9   55.34    3.75
   6   7  -9   24.35    3.10
  -7   6  -9   20.12    2.69
   7  -6  -9   19.80    2.55
  -6  -7  -9   17.49    2.82
  -7   6   9   21.62    2.57
   6   7   9   23.41    2.67
   7  -6   9   22.09    2.82
  -6  -7   9   17.08    2.78
   7  -8  -9    9.68    2.04
  -7   8  -9    9.23    2.11
  -8  -7  -9    6.54    2.44
   8   7  -9   10.16    2.34
  -7   8   9   12.02    2.47
   7  -8   9   10.50    2.28
  -8  -7   9   10.69    2.45
  -5   8  -9    9.99    2.13
   8   5  -9    9.55    2.26
  -8  -5  -9    8.04    2.56
   5  -8  -9    9.27    1.98
   8   5   9    5.62    1.91
  -5   8   9   10.52    1.79
  -8  -5   9    7.72    2.75
   5  -8   9    7.46    2.25
   3  -8  -9   16.71    2.05
  -3   8  -9   16.34    2.30
   8   3  -9   20.34    2.63
  -8  -3  -9   18.41    2.54
  -8  -3   9   14.05    2.30
   3  -8   9   16.63    2.20
   8   3   9   19.13    2.41
  -3   8   9   16.83    2.33
  -8  -1  -9   26.35    2.15
  -8  -1  -9   22.70    2.28
   8   1  -9   25.53    2.62
   1  -8  -9   27.68    2.69
  -1   8  -9   25.24    2.82
  -1   8  -9   27.77    2.29
  -1   8   9   23.26    2.73
   1  -8   9   25.51    2.51
  -8  -1   9   22.42    2.88
   8   1   9   24.57    2.76
  -8   1  -9   66.08    3.70
   1   8  -9   63.89    3.97
   8  -1  -9   66.32    3.78
   8  -1  -9   67.86    3.11
  -1  -8  -9   65.89    4.41
   1   8   9   60.01    4.07
   8  -1   9   65.70    4.34
  -8   1   9   60.79    4.23
  -1  -8   9   67.94    4.58
   3   8  -9   14.02    2.28
   8  -3  -9   14.19    1.89
  -8   3  -9   14.92    2.13
  -3  -8  -9    9.88    2.39
   8  -3  -9   13.31    1.84
   3   8   9   12.54    2.10
   8  -3   9    9.88    2.13
  -8   3   9   16.03    2.36
  -3  -8   9   11.16    2.30
  -5  -8  -9   15.67    2.74
   5   8  -9    9.62    2.26
  -8   5  -9   11.46    2.15
   8  -5  -9   11.92    2.10
   8  -5   9   10.59    2.29
  -8   5   9   11.96    2.29
  -5  -8   9    9.39    2.86
   5   8   9   10.89    2.01
   8  -7  -9    7.86    1.99
  -7  -8  -9   11.16    2.49
  -8   7  -9    8.47    2.56
   7   8  -9   10.31    2.44
   8  -7   9    8.09    2.61
  -7  -8   9    7.31    2.71
   6  -9  -9    3.01    1.82
  -9  -6  -9    3.95    2.39
   9   6  -9    3.60    1.75
  -6   9  -9    2.67    2.88
   9   6   9    1.33    1.41
   6  -9   9    3.01    1.98
  -9  -6   9    2.50    1.90
   9   4  -9   22.64    2.91
   4  -9  -9   16.44    2.53
  -9  -4  -9   21.88    2.84
  -4   9  -9   17.93    2.71
   9   4   9   19.88    2.50
  -9  -4   9   19.77    3.08
   9   2  -9   32.51    3.31
   2  -9  -9   33.98    2.94
  -9  -2  -9   35.51    2.97
  -2   9  -9   28.97    3.13
  -9  -2   9   34.49    3.62
   9   2   9   38.74    3.39
   2  -9   9   30.47    2.62
  -2   9   9   34.39    3.29
  -9   0  -9   24.66    2.36
   0   9  -9   28.08    2.72
   9   0  -9   26.13    2.62
   9   0   9   29.92    3.17
  -9   0   9   25.34    3.05
   0   9   9   28.97    3.10
   0  -9   9   28.49    3.39
   2   9  -9   15.87    2.49
  -2  -9  -9   15.25    2.68
   9  -2  -9   16.58    2.11
  -9   2  -9   13.05    2.10
  -9   2   9   14.53    2.41
   9  -2   9   14.78    2.39
   2   9   9   16.60    2.38
  -2  -9   9   15.44    2.71
  -9   4  -9    2.99    1.60
  -4  -9  -9    2.64    1.98
   4   9  -9    4.84    2.12
   9  -4  -9    1.49    1.52
  -9   4   9    4.43    2.15
  -4  -9   9    4.58    2.47
   4   9   9    8.47    2.19
   9  -4   9    4.25    1.93
  -6  -9  -9   11.80    2.92
   6   9  -9   14.25    2.66
   9  -6  -9   11.31    2.18
  -9   6  -9   12.85    2.18
  -9   6   9   12.77    2.20
  -6  -9   9   10.62    2.45
   6   9   9   13.25    2.15
   9  -6   9    9.81    2.38
  -3  10  -9   13.03    2.44
   3 -10  -9   12.47    2.27
 -10  -3  -9   11.66    3.14
  10   3   9   12.06    2.07
  -3  10   9   11.79    2.40
 -10  -3   9   10.89    2.39
   1 -10  -9    7.64    1.94
  10   1  -9    6.47    2.08
  -1  10   9    1.89    1.79
   1 -10   9    6.18    2.50
 -10  -1   9    3.95    2.24
  10   1   9    8.04    1.92
   1  10  -9    6.23    2.14
 -10   1  -9    3.99    1.71
  -1 -10  -9    3.54    2.10
  -1 -10   9    6.20    2.24
 -10   1   9    5.29    2.17
  10  -1   9    4.93    2.12
   1  10   9    6.95    2.08
   3  10  -9   15.85    2.58
  -3 -10  -9   18.76    3.31
 -10   3  -9   12.25    2.23
  10  -3   9   18.19    2.74
   3  10   9   14.44    2.55
  -3 -10   9    6.94    2.73
 -10   3   9   17.51    2.75
   0 -11  -9   15.60    2.48
   0   0 -10  122.41    4.31
   0   0  10  118.45    3.35
   0   0  10  116.74    3.69
  -1  -1 -10   57.25    2.95
   1  -1 -10   49.93    2.79
  -1   1 -10   55.85    2.29
  -1   1 -10   52.55    2.69
   1   1 -10   50.12    2.75
  -1  -1  10   56.00    2.59
  -1  -1  10   54.43    2.13
   1  -1  10   51.53    2.31
   1  -1  10   54.01    2.48
  -1   1  10   57.81    2.19
   1   1  10   54.55    1.68
   1   1  10   54.81    2.62
  -1   1  10   53.52    2.46
  -2   0 -10   94.35    2.75
   2   0 -10   93.87    3.94
   0  -2 -10  103.06    4.17
  -2   0 -10   98.38    3.90
   0   2 -10  100.74    3.84
   0  -2  10   96.47    3.64
  -2   0  10   98.63    3.06
   0  -2  10   95.42    3.05
  -2   0  10  100.53    3.53
   2   0  10   92.84    3.64
   0   2  10  101.04    3.77
   0   2  10   94.83    2.06
  -2   2 -10   77.64    3.25
  -2   2 -10   77.15    3.04
  -2  -2 -10   79.25    3.75
   2   2 -10   73.85    3.56
   2  -2 -10   78.00    3.56
  -2   2  10   77.78    2.76
   2  -2  10   73.66    3.16
   2   2  10   76.84    3.47
  -2  -2  10   77.73    2.07
  -2   2  10   78.35    3.19
  -2  -2  10   75.86    3.40
  -3  -1 -10   33.51    1.31
  -1   3 -10   29.23    2.08
  -3  -1 -10   30.49    2.24
   1  -3 -10   30.36    2.29
   3   1 -10   30.84    2.45
  -1   3 -10   31.74    2.20
  -1   3  10   30.17    1.23
   1  -3  10   30.37    1.85
  -1   3  10   29.80    2.11
  -3  -1  10   31.54    2.29
  -3  -1  10   32.36    1.40
   3   1  10   35.24    2.33
  -3   1 -10   40.20    2.04
  -3   1 -10   41.29    2.44
  -1  -3 -10   41.92    2.83
   3  -1 -10   39.36    2.64
   1   3 -10   38.69    2.54
  -3   1  10   41.12    2.08
  -1  -3  10   40.32    2.59
   3  -1  10   39.25    2.49
  -3   1  10   37.96    2.28
   1   3  10   37.89    2.52
  -1  -3  10   42.79    1.63
   3   3 -10   58.10    3.41
  -3   3 -10   64.54    3.15
  -3   3 -10   64.31    2.86
  -3  -3 -10   63.38    3.53
   3  -3 -10   65.41    3.38
  -3   3  10   64.85    2.72
  -3  -3  10   67.29    3.56
   3   3  10   64.57    3.43
  -3   3  10   60.79    3.03
   3  -3  10   66.67    3.27
  -4  -2 -10   60.53    3.47
  -2   4 -10   62.22    2.92
   4   2 -10   58.50    3.43
  -2   4 -10   60.48    3.21
  -4  -2 -10   56.02    1.25
   2  -4 -10   54.95    3.14
   2  -4  10   63.34    3.00
  -2   4  10   57.17    3.12
   4   2  10   58.89    3.29
  -2   4  10   61.04    2.20
  -4  -2  10   58.58    3.43
   0  -4 -10   68.39    3.56
   4   0 -10   68.11    3.61
  -4   0 -10   70.90    3.38
   0   4 -10   68.79    3.33
   0   4 -10   72.78    3.48
  -4   0 -10   71.23    2.64
   0   4  10   72.09    3.57
   0  -4  10   70.63    3.51
   0  -4  10   69.97    2.57
   4   0  10   67.57    3.43
  -4   0  10   71.09    2.51
  -4   0  10   72.12    3.48
  -2  -4 -10   47.44    3.22
   4  -2 -10   46.11    2.91
   2   4 -10   45.21    3.06
  -4   2 -10   46.67    2.58
  -4   2 -10   45.14    2.44
  -4   2  10   47.79    2.58
   2   4  10   46.36    2.91
  -4   2  10   49.20    2.72
  -2  -4  10   48.57    3.16
   4  -2  10   47.38    2.98
   4  -4 -10   61.51    3.31
  -4  -4 -10   57.90    3.73
   4   4 -10   53.56    3.63
  -4   4 -10   61.98    3.46
  -4   4  10   57.45    3.29
   4  -4  10   57.25    3.43
  -4  -4  10   57.88    3.59
  -4   4  10   58.92    2.90
   4   4  10   54.20    3.44
   3  -5 -10   31.67    2.54
  -5  -3 -10   27.36    2.74
  -3   5 -10   28.83    2.55
  -3   5 -10   31.75    1.96
   5   3 -10   26.95    2.71
   5   3  10   27.28    2.45
  -5  -3  10   28.51    2.77
   3  -5  10   30.36    2.45
  -3   5  10   30.82    2.66
  -3   5  10   30.42    1.83
  -5  -1 -10   12.12    1.78
  -1   5 -10   12.46    1.61
   5   1 -10   12.31    0.73
  -5  -1 -10    9.65    1.07
  -1   5 -10    9.47    1.69
   1  -5 -10    9.20    1.69
   1  -5  10   11.99    1.33
   5   1  10    9.47    1.52
  -1   5  10   13.22    1.84
  -5   1 -10   42.89    2.56
  -1  -5 -10   42.70    3.04
  -5   1 -10   42.26    2.45
   5  -1 -10   43.93    2.26
   5  -1 -10   41.04    2.88
   1   5 -10   41.21    2.90
  -1  -5  10   41.45    1.52
   1   5  10   42.31    3.00
  -5   1  10   39.46    2.83
  -1  -5  10   42.87    3.11
   5  -1  10   40.78    2.86
  -3  -5 -10    5.96    2.14
   5  -3 -10    3.13    1.38
   3   5 -10    5.63    1.71
  -5   3 -10    3.19    1.37
  -5   3  10    4.50    1.48
  -3  -5  10    4.45    1.86
   3   5  10    5.12    1.25
  -5   3  10    5.95    1.80
   5  -3  10    7.29    1.65
   5   5 -10   10.32    2.08
  -5   5 -10   13.40    2.09
   5  -5 -10   13.30    1.72
  -5  -5 -10    8.31    2.44
   5  -5  10   14.51    2.15
  -5  -5  10    8.87    2.12
   5   5  10   12.95    2.04
  -5   5  10   13.05    1.83
  -5   5  10   12.55    1.97
  -6  -4 -10   19.59    2.44
   4  -6 -10   21.88    2.14
   6   4 -10   21.09    2.69
  -4   6 -10   17.14    2.34
  -4   6  10   18.65    1.73
   6   4  10   18.56    2.37
   4  -6  10   18.44    2.28
  -4   6  10   23.59    2.56
  -6  -4  10   19.49    2.67
   6   2 -10   35.47    2.94
  -6  -2 -10   34.58    2.90
  -2   6 -10   38.92    2.37
  -2   6 -10   36.90    3.03
   2  -6 -10   39.54    2.97
  -6  -2 -10   39.21    1.81
   6   2  10   35.69    2.95
  -2   6  10   34.60    2.84
  -6  -2  10   41.29    3.34
   2  -6  10   42.67    2.67
  -2   6  10   39.12    1.76
  -6   0 -10   53.63    2.71
   0   6 -10   52.45    3.46
   0  -6 -10   57.06    3.59
  -6   0 -10   57.10    3.14
   0   6 -10   56.93    3.34
   6   0 -10   51.97    3.31
  -6   0  10   62.37    3.84
   0  -6  10   59.63    2.45
   0   6  10   57.63    3.64
   0  -6  10   56.26    3.76
   6   0  10   57.58    3.70
  -2  -6 -10   29.50    3.03
   2   6 -10   30.27    2.78
   6  -2 -10   29.88    2.86
  -6   2 -10   31.50    1.88
   6  -2 -10   31.32    2.22
   6  -2  10   29.68    2.81
  -6   2  10   35.30    2.82
   2   6  10   28.86    2.71
  -2  -6  10   24.68    2.71
  -6   4 -10   35.52    3.05
   6  -4 -10   34.11    2.59
   4   6 -10   38.69    3.40
  -4  -6 -10   33.35    3.42
   6  -4 -10   36.80    2.84
  -6   4  10   37.61    2.90
   4   6  10   35.92    3.08
  -4  -6  10   36.83    3.31
   6  -4  10   36.92    3.24
   6  -6 -10   16.56    2.29
  -6  -6 -10   17.18    2.77
   6   6 -10   15.90    2.65
  -6   6 -10   12.44    2.25
   6  -6  10   17.52    2.51
   6   6  10   14.36    2.25
  -6  -6  10   13.30    2.49
  -6   6  10   19.06    2.13
  -7  -5 -10   24.77    3.13
   7   5 -10   23.99    3.11
   5  -7 -10   24.83    2.85
  -5   7 -10   20.79    2.77
   5  -7  10   26.06    2.87
   7   5  10   33.09    3.13
  -7  -5  10   24.31    2.91
  -5   7  10   27.02    2.31
  -7  -3 -10    8.10    1.94
   3  -7 -10   10.15    1.72
   7   3 -10   10.24    2.03
  -3   7 -10   11.58    2.13
   7   3  10   11.17    2.00
  -3   7  10   11.47    2.07
   3  -7  10    9.34    1.69
  -7  -3  10    9.62    2.24
  -3   7  10   10.97    1.38
   7   1 -10   10.37    1.96
  -1   7 -10    9.78    1.98
  -7  -1 -10   11.22    1.39
  -1   7 -10   12.87    1.79
  -7  -1 -10   10.95    1.93
   1  -7 -10   10.30    1.93
   7   1  10   11.18    2.01
  -1   7  10   13.18    2.13
  -7  -1  10   13.47    2.36
   1  -7  10   12.36    1.52
  -7   1 -10   38.59    2.29
   7  -1 -10   35.28    2.16
  -1  -7 -10   30.91    2.92
   7  -1 -10   38.03    2.93
  -7   1 -10   36.23    2.63
   1   7 -10   35.16    2.97
   1   7  10   34.67    3.09
  -1  -7  10   33.55    3.25
   7  -1  10   31.77    3.03
  -7   1  10   39.37    3.28
  -3  -7 -10    9.23    2.26
   7  -3 -10    8.81    1.67
  -7   3 -10    9.79    1.95
   3   7 -10    9.81    2.06
   7  -3 -10    9.45    1.63
   3   7  10    9.64    1.90
  -3  -7  10   10.45    2.18
   7  -3  10    6.99    2.20
  -7   3  10    8.14    1.80
   5   7 -10   13.17    2.24
  -7   5 -10   11.67    2.33
  -5  -7 -10   15.56    2.51
   7  -5  10   11.22    2.28
   5   7  10   12.11    2.17
  -7   5  10   10.95    1.90
  -5  -7  10   14.11    2.29
  -7  -7 -10    1.15    1.84
   7  -7 -10    1.13    1.26
  -7   7 -10   -0.34    1.44
   7   7 -10    0.18    1.72
   7   7  10    2.37    1.68
  -7  -7  10   -1.84    1.63
   7  -7  10    1.69    1.68
  -7   7  10    0.18    1.72
  -8  -6 -10   23.20    3.17
   6  -8 -10   23.87    3.35
   6  -8  10   22.45    2.80
   8   6  10   21.18    2.54
  -8  -4 -10   10.07    2.27
  -4   8 -10    4.94    2.07
   8   4 -10    8.84    2.13
   4  -8 -10    6.27    1.43
   4  -8  10   11.00    2.03
  -4   8  10    9.68    2.08
  -8  -4  10   11.40    2.53
   8   4  10   11.20    2.08
   8   2 -10   23.22    2.70
  -2   8 -10   22.37    2.77
   2  -8 -10   25.01    2.73
  -8  -2 -10   24.75    2.56
   2  -8  10   23.98    2.35
  -8  -2  10   22.39    3.01
  -2   8  10   22.70    2.63
   8   2  10   21.59    3.07
  -8   0 -10   11.80    1.69
   0   8 -10   14.94    2.04
   0  -8 -10   14.43    2.30
   8   0 -10   12.68    2.18
   8   0  10   11.75    2.45
  -8   0  10   10.48    2.22
   2   8 -10   22.05    2.69
   8  -2 -10   18.68    1.97
   8  -2 -10   22.43    2.28
  -8   2 -10   22.35    2.46
   8  -2  10   24.85    2.90
   2   8  10   16.21    2.39
  -2  -8  10   20.88    2.89
  -8   4 -10   20.13    2.56
   4   8 -10   17.84    2.52
  -4  -8 -10   18.99    2.96
  -8   4  10   19.48    2.52
   8  -4  10   17.90    2.67
  -4  -8  10   20.08    2.86
   4   8  10   17.58    2.45
   8  -6 -10    4.64    1.76
  -8   6 -10    1.92    2.18
  -8   6  10    3.79    1.94
   6   8  10    7.06    1.68
  -5   9 -10    9.54    2.25
   9   5 -10    5.44    2.11
   5  -9 -10    4.00    1.93
  -9  -5  10    2.65    2.35
   5  -9  10    2.06    1.82
   9   3 -10    1.50    1.48
  -9  -3 -10    0.20    1.57
  -3   9 -10    0.62    1.58
  -9  -3  10    1.68    2.08
  -3   9  10    0.29    1.48
   3  -9  10    1.66    1.48
   9   3  10    2.47    1.67
   1  -9 -10   13.63    2.19
   9   1 -10   13.75    2.17
   1  -9  10   15.98    2.64
  -9  -1  10   20.64    2.92
   9   1  10   16.64    2.49
  -1   9  10   14.43    2.44
  -9   1 -10    3.58    1.48
   9  -1 -10    4.70    1.49
   1   9 -10   -0.02    1.66
  -1  -9 -10    0.72    1.65
  -9   1  10    1.89    1.99
  -1  -9  10    4.18    2.08
   1   9  10    3.22    1.83
   9  -1  10    2.84    1.79
  -3  -9 -10    4.27    2.13
   3   9 -10    4.98    2.04
   9  -3 -10    3.20    1.81
  -9   3 -10    2.19    1.78
   9  -3  10    3.83    1.88
  -3  -9  10    2.49    2.02
   3   9  10    2.74    1.50
  -9   3  10    5.75    2.29
   5   9 -10   17.27    2.78
  -9   5 -10   11.70    2.31
   9  -5 -10   13.81    2.25
  -5  -9 -10   12.27    2.61
  -5  -9  10   13.78    2.63
   9  -5  10   16.38    2.60
 -10  -4 -10    2.55    2.64
  -2  10 -10   24.47    2.99
  10   2 -10   21.01    2.64
   2 -10  10   17.61    2.84
  10   2  10   10.42    2.57
  -2  10  10   19.55    2.81
 -10  -2  10   16.75    2.90
   0 -10 -10   10.98    2.19
  10   0  10   10.47    2.10
   0  10  10    6.37    2.22
   2  10 -10   19.88    2.93
 -10   2 -10   14.99    2.15
 -10   2  10   12.16    2.56
  10  -2  10   19.64    2.80
  -2 -10  10   15.85    2.78
  -1   0 -11   25.79    2.21
   0  -1 -11   27.29    2.29
   0   1 -11   22.99    1.95
   1   0 -11   23.51    2.03
  -1   0  11   23.29    1.60
   1   0  11   24.64    1.50
   0  -1  11   26.90    1.71
   0   1  11   24.91    1.86
   1   0  11   23.65    1.83
   0   1  11   25.44    1.37
   0  -1  11   22.70    1.73
   1  -2 -11   52.00    3.04
  -2  -1 -11   48.69    2.90
  -1   2 -11   43.20    2.67
  -1   2 -11   48.11    2.45
   2   1 -11   46.31    2.95
  -2  -1  11   48.12    1.96
   2   1  11   50.80    1.56
  -1   2  11   51.56    2.73
   2   1  11   47.68    2.76
   1  -2  11   49.34    2.43
  -2  -1  11   47.93    2.66
  -1   2  11   47.40    1.84
  -2   1 -11  124.07    3.73
   2  -1 -11  121.13    4.72
  -1  -2 -11  119.14    4.81
   1   2 -11  114.49    4.59
  -2   1 -11  131.77    4.63
  -1  -2  11  125.56    4.44
  -1  -2  11  122.86    3.36
   1   2  11  119.79    4.41
  -2   1  11  127.37    3.91
   2  -1  11  126.51    4.36
  -2   1  11  123.82    3.98
  -2   3 -11   15.69    1.71
   3   2 -11   14.34    1.94
  -3  -2 -11   12.24    1.87
  -2   3 -11   13.14    1.69
   2  -3 -11   16.44    2.01
   3   2  11   14.08    1.82
   2  -3  11   13.11    1.52
  -2   3  11   15.95    1.20
  -3  -2  11   16.70    1.96
  -2   3  11   14.68    1.58
  -3  -2  11   14.04    0.58
  -3   0 -11   73.14    2.52
   3   0 -11   71.15    3.72
  -3   0 -11   76.75    3.64
   0   3 -11   76.53    3.67
   0  -3 -11   75.92    3.87
   3   0  11   72.43    3.52
   0   3  11   71.55    3.53
  -3   0  11   76.15    3.40
   0  -3  11   77.52    3.63
  -3   0  11   76.22    2.70
  -3   2 -11   69.99    3.27
  -2  -3 -11   72.53    3.91
   2   3 -11   71.32    3.80
  -3   2 -11   71.68    3.15
   3  -2 -11   68.21    3.63
  -3   2  11   74.10    3.05
  -3   2  11   72.14    3.17
   3  -2  11   69.62    3.36
   2   3  11   71.28    3.65
  -2  -3  11   71.52    3.64
  -4  -3 -11    7.59    1.79
  -3   4 -11    9.70    1.98
   4   3 -11    6.56    1.64
   3  -4 -11    7.15    1.38
  -3   4 -11    7.29    1.18
  -3   4  11    7.63    1.11
  -4  -3  11    9.13    2.36
   4   3  11    6.13    1.33
   3  -4  11    7.08    1.43
  -3   4  11    7.02    1.48
  -4  -1 -11   29.58    2.38
   4   1 -11   23.61    2.43
  -4  -1 -11   28.13    1.34
  -1   4 -11   27.77    2.25
   1  -4 -11   28.53    2.57
  -1   4 -11   28.39    2.33
   4   1 -11   27.39    1.20
  -1   4  11   27.69    2.40
   1  -4  11   30.48    1.93
  -4  -1  11   23.86    2.30
   1   4 -11   41.70    2.95
  -4   1 -11   47.14    2.77
  -4   1 -11   43.84    2.33
   4  -1 -11   43.30    2.99
  -1  -4  11   41.94    2.93
  -4   1  11   43.56    2.83
  -4   1  11   43.46    2.30
  -1  -4  11   43.37    1.64
   4  -1  11   40.80    2.85
  -4   3 -11   22.58    2.09
  -4   3 -11   19.63    1.69
   4  -3 -11   22.21    2.23
   3   4 -11   18.15    2.29
  -3  -4 -11   21.38    2.33
   3   4  11   18.08    2.00
  -4   3  11   23.91    2.07
  -3  -4  11   23.78    2.32
   4  -3  11   18.52    2.13
  -4   3  11   19.80    1.86
  -4   5 -11   65.42    3.87
  -4   5 -11   63.51    2.58
   5   4 -11   59.78    4.01
   4  -5 -11   59.58    3.59
  -5  -4 -11   58.07    4.09
  -5  -4  11   59.37    3.92
  -4   5  11   57.12    3.64
   5   4  11   63.59    3.92
   4  -5  11   63.18    3.75
  -4   5  11   64.72    3.03
   2  -5 -11   24.22    2.44
  -2   5 -11   29.64    2.23
   5   2 -11   24.99    2.63
  -5  -2 -11   24.64    2.57
  -2   5 -11   24.75    2.31
  -2   5  11   25.23    2.49
   5   2  11   25.06    2.39
   2  -5  11   26.45    2.18
  -5  -2  11   20.64    2.46
  -2   5  11   24.95    1.32
  -5   0 -11   20.91    2.09
  -5   0 -11   22.66    1.70
   0  -5 -11   25.11    2.57
   5   0 -11   22.96    1.41
   0   5 -11   23.93    2.29
   5   0 -11   22.57    2.40
  -5   0  11   19.72    2.52
   0  -5  11   22.28    1.49
   0   5  11   23.48    2.26
   5   0  11   20.04    2.12
   0  -5  11   18.45    2.30
   2   5 -11   19.86    2.33
  -2  -5 -11   22.96    2.63
  -5   2 -11   21.95    1.79
  -5   2 -11   24.13    2.06
   2   5  11   22.93    2.43
  -5   2  11   20.68    2.13
   5  -2  11   20.20    2.31
  -2  -5  11   22.27    2.50
  -5   2  11   22.93    2.01
   4   5 -11   38.62    3.36
  -5   4 -11   39.95    3.00
   5  -4 -11   39.25    2.85
  -4  -5 -11   39.31    3.36
   5  -4  11   39.29    3.15
   4   5  11   33.53    2.94
  -5   4  11   41.32    2.74
  -5   4  11   38.88    2.89
  -4  -5  11   43.52    3.47
   6   5 -11   14.98    2.53
   5  -6 -11   13.46    1.92
   5  -6  11   15.24    2.31
  -5   6  11   12.11    2.12
  -6  -5  11   14.32    2.58
  -5   6  11   15.74    1.82
   3  -6 -11   19.21    2.28
  -3   6 -11   18.48    1.63
  -6  -3 -11   20.98    2.58
  -3   6 -11   19.31    2.40
   6   3 -11   17.96    2.52
   3  -6  11   20.40    2.20
  -6  -3  11   17.68    2.58
   6   3  11   18.67    2.20
  -3   6  11   17.06    2.34
  -3   6  11   21.02    1.55
   1  -6 -11   55.75    3.62
  -6  -1 -11   60.26    2.53
  -1   6 -11   63.51    3.45
   6   1 -11   60.32    3.90
  -6  -1 -11   68.32    3.77
  -1   6 -11   59.55    3.78
   6   1  11   66.99    3.97
   1  -6  11   65.03    3.00
  -6  -1  11   60.80    3.85
  -1   6  11   66.71    4.01
   1   6 -11    6.56    1.99
  -6   1 -11    3.10    1.22
  -1  -6 -11    6.27    2.02
  -6   1 -11    3.72    1.38
   6  -1 -11    5.53    0.96
   6  -1 -11    3.06    1.48
  -1  -6  11    4.38    1.91
   1   6  11    2.99    1.37
  -6   1  11    3.59    1.87
   6  -1  11    4.82    1.85
  -6   3 -11   23.61    2.44
  -3  -6 -11   19.98    2.53
   6  -3 -11   24.05    2.45
   6  -3 -11   23.19    2.22
   3   6 -11   21.29    2.60
   3   6  11   18.10    2.36
   6  -3  11   19.32    2.49
  -6   3  11   20.03    2.25
  -3  -6  11   20.53    2.60
  -5  -6 -11    4.58    2.15
  -6   5 -11    4.53    1.96
   6  -5 -11    8.48    1.61
   5   6 -11    4.26    1.99
   6  -5 -11    7.22    1.72
  -6   5  11    6.33    1.46
  -5  -6  11    8.39    2.63
   6  -7 -11    4.55    1.90
   7   6 -11   -0.08    1.40
  -7  -6 -11    5.72    2.55
  -6   7 -11    2.34    1.86
  -7  -6  11    3.84    2.15
   7   6  11    3.18    1.84
  -6   7  11    3.77    2.26
   6  -7  11    2.08    1.64
   7   4 -11    6.57    1.69
   4  -7 -11    7.71    1.66
  -4   7 -11    7.67    2.42
   4  -7  11    6.05    1.90
   7   4  11    4.82    1.89
  -7  -4  11    5.91    2.39
  -4   7  11    5.39    1.94
  -2   7 -11   10.06    2.03
  -7  -2 -11   10.97    2.04
   7   2 -11   11.40    2.13
   2  -7 -11   10.80    1.94
  -2   7 -11   11.61    1.49
   2  -7  11   11.58    1.70
  -7  -2  11   12.61    2.37
  -2   7  11    8.64    2.01
   7   2  11   10.39    1.97
  -7   0 -11   36.82    2.41
   0   7 -11   33.79    2.88
   0  -7 -11   37.63    3.33
   7   0 -11   32.89    2.97
   0   7  11   33.51    2.99
   0  -7  11   32.64    3.35
   7   0  11   33.20    3.11
  -7   0  11   37.38    3.33
   7  -2 -11   11.71    1.50
  -2  -7 -11    9.16    1.94
   2   7 -11   11.17    2.09
  -7   2 -11    4.89    1.70
   7  -2 -11    7.86    1.61
   7  -2  11    7.13    2.28
  -7   2  11    9.67    1.99
   2   7  11    5.48    1.79
  -2  -7  11    8.63    2.72
  -7   4 -11    7.71    2.23
  -4  -7 -11    8.95    2.84
   7  -4 -11    7.45    1.60
   4   7 -11    7.94    1.97
   7  -4 -11   10.00    1.65
   7  -4  11    6.65    2.16
  -4  -7  11    9.84    2.85
  -7   4  11   10.96    2.12
   4   7  11    8.11    1.84
  -6  -7 -11   11.28    2.50
   6   7 -11   10.97    2.44
  -7   6 -11    9.73    2.04
   7  -6 -11   15.45    2.42
  -7   6  11   13.06    2.13
   6   7  11   12.40    2.23
  -6  -7  11   14.29    2.69
   7  -6  11   16.05    2.53
   8   5 -11    0.62    1.47
  -8  -5 -11    1.80    1.90
  -5   8 -11    4.94    2.23
   5  -8 -11    3.74    1.51
   8   5  11    2.05    1.45
   5  -8  11    1.70    1.54
  -8  -5  11    1.58    1.80
  -3   8 -11   10.07    2.17
  -8  -3 -11    5.83    2.47
   8   3 -11   10.85    2.23
   3  -8 -11   12.23    1.95
  -3   8  11   12.84    2.33
   8   3  11   12.30    2.18
  -8  -3  11   13.87    2.59
   3  -8  11   10.34    1.75
  -8  -1 -11   13.72    2.00
  -1   8 -11   12.74    1.90
  -1   8 -11   12.22    2.27
   1  -8 -11   10.41    2.10
   8   1 -11   13.59    2.19
  -8  -1  11   11.22    2.28
   1  -8  11   11.16    2.32
  -1   8  11   11.99    2.29
   8   1  11   17.09    2.49
  -1  -8 -11   12.03    2.38
   8  -1 -11    8.34    1.83
   1   8 -11    7.92    1.82
  -8   1 -11    8.88    1.51
  -1  -8  11    9.34    2.81
  -8   1  11   10.85    2.21
   8  -1  11   11.46    2.19
   1   8  11    8.16    1.90
  -8   3 -11   36.80    3.04
  -3  -8 -11   35.60    3.75
   8  -3 -11   39.33    2.84
   3   8 -11   31.38    3.35
   8  -3 -11   34.69    2.78
   8  -3  11   31.64    3.17
  -8   3  11   32.21    3.13
  -3  -8  11   33.40    3.46
   3   8  11   37.97    3.44
   5   8 -11    4.39    2.14
  -8   5 -11    5.64    2.21
   8  -5 -11    3.59    1.78
  -5  -8 -11    4.16    2.36
  -8   5  11    3.76    1.45
   5   8  11    2.43    1.51
   8  -5  11    1.96    1.68
  -5  -8  11    0.96    1.78
  -9  -4 -11   12.39    2.45
   4  -9 -11   16.04    2.46
  -4   9 -11   11.00    2.29
  -9  -4  11   12.74    2.63
   4  -9  11   10.25    2.02
  -4   9  11   11.28    2.36
  -2   9 -11    1.88    1.71
  -9  -2 -11    4.18    2.10
   2  -9 -11    5.69    2.02
   9   2 -11    5.46    2.08
  -2   9  11    3.27    1.85
   9   2  11    3.16    1.67
  -9  -2  11    2.43    1.89
   0  -9 -11   12.53    2.34
   9   0 -11   11.24    1.97
   0   9  11    9.61    2.10
   0  -9  11   14.07    2.70
   9   0  11    9.92    2.18
  -9   0  11   10.56    2.35
  -2  -9 -11    8.66    2.81
  -9   2 -11    7.54    1.75
   2   9 -11    6.29    2.30
  -2  -9  11   11.96    3.37
   9  -2  11    8.91    2.12
  -9   2  11    8.08    2.53
   2   9  11    8.94    2.08
  -4  -9 -11   11.13    2.63
   9  -4 -11    4.33    2.45
  -9   4 -11    6.77    2.20
  -4  -9  11   11.14    3.30
  -9   4  11    9.12    2.79
   9  -4  11    5.20    2.12
  10   3 -11   14.33    2.19
   1 -10 -11    4.01    1.75
  10   1 -11    1.00    1.36
   1 -10  11    4.79    2.31
  -1  10  11    3.93    1.75
  10   1  11    3.50    1.69
 -10  -1  11    1.43    2.01
  -1 -10 -11    3.76    1.87
   1  10 -11    5.89    2.51
  -1 -10  11    4.37    2.10
  10  -1  11    8.98    2.03
   1  10  11   10.21    2.15
 -10   1  11    5.09    2.30
   3  10 -11    8.43    2.10
 -10   3 -11    4.11    1.61
   0   0 -12  362.56    9.24
   0   0  12  372.48    7.61
   0   0  12  366.04    8.24
  -1   1 -12   49.91    3.03
   1   1 -12   48.39    3.09
   1  -1 -12   47.86    3.02
  -1  -1 -12   50.45    3.20
  -1   1  12   48.39    2.16
  -1  -1  12   46.85    2.54
   1  -1  12   49.10    2.58
  -1  -1  12   49.28    2.23
   1  -1  12   50.41    2.49
   1   1  12   50.30    2.80
  -1   1  12   46.92    2.55
   1   1  12   48.72    1.69
   2   0 -12   48.14    3.13
   0  -2 -12   40.57    2.86
   0   2 -12   45.15    2.93
  -2   0 -12   47.12    2.93
  -2   0  12   43.71    2.18
   0   2  12   44.43    2.69
  -2   0  12   44.51    2.54
   0  -2  12   44.93    2.26
   2   0  12   44.14    1.98
   0  -2  12   43.55    2.56
   2   0  12   43.44    2.65
  -2   2 -12   52.14    3.00
  -2  -2 -12   56.42    3.38
   2  -2 -12   53.98    3.37
   2   2 -12   52.20    3.37
  -2   2 -12   51.04    2.68
  -2   2  12   50.40    2.76
   2   2  12   51.41    3.08
  -2  -2  12   52.69    1.90
  -2  -2  12   58.49    3.17
   2  -2  12   54.17    2.87
  -2   2  12   47.91    2.58
  -1   3 -12   36.95    2.44
  -3  -1 -12   36.26    2.82
   1  -3 -12   33.48    2.66
  -1   3 -12   40.85    2.73
   3   1  12   35.17    2.55
   3   1  12   36.78    1.33
  -1   3  12   37.06    2.60
  -1   3  12   35.11    1.26
   1  -3  12   34.65    2.13
   1  -3  12   38.43    2.63
  -3  -1  12   38.08    1.71
  -3  -1  12   35.52    2.58
  -3   1 -12   79.03    3.76
   3  -1 -12   73.22    3.95
   1   3 -12   80.00    3.98
  -3   1 -12   80.26    3.09
  -1  -3  12   77.11    3.79
  -1  -3  12   82.73    2.57
   3  -1  12   78.61    3.76
  -3   1  12   76.68    3.13
   1   3  12   72.56    3.73
  -3   1  12   80.65    3.50
  -3   3 -12   46.35    2.78
  -3   3 -12   48.36    2.85
   3  -3 -12   43.55    3.01
   3   3 -12   43.98    3.27
  -3  -3 -12   44.86    3.36
  -3   3  12   41.85    2.73
   3  -3  12   43.63    2.85
  -3  -3  12   47.92    3.28
  -3   3  12   47.42    2.36
   3   3  12   42.90    2.98
  -2   4 -12  204.17    6.48
  -2   4 -12  192.85    6.09
   4   2 -12  203.85    7.22
  -4  -2 -12  200.47    6.98
  -4  -2  12  208.93    6.92
  -2   4  12  210.65    6.72
   4   2  12  191.36    6.77
   0  -4 -12   37.95    2.94
   4   0 -12   43.14    3.20
   0   4 -12   39.99    2.88
  -4   0 -12   44.03    2.10
  -4   0 -12   43.68    2.97
   4   0  12   42.15    2.99
  -4   0  12   43.77    2.90
  -4   0  12   43.10    2.08
   0   4  12   44.85    2.95
   0  -4  12   45.70    2.18
  -4   2 -12   44.10    2.59
  -2  -4 -12   36.57    3.15
   4  -2 -12   42.61    3.09
   2   4 -12   40.66    3.04
  -4   2 -12   42.94    2.71
   2   4  12   37.43    2.91
   4  -2  12   43.29    3.02
  -4   2  12   45.94    2.62
  -2  -4  12   43.42    3.16
  -4   2  12   40.08    2.58
   4   4 -12   24.21    2.78
  -4   4 -12   27.66    1.95
  -4   4 -12   26.24    2.45
  -4  -4 -12   29.33    3.04
   4  -4 -12   24.35    2.45
   4   4  12   30.41    2.82
  -4  -4  12   26.30    2.79
  -4   4  12   27.99    2.46
  -4   4  12   26.49    1.97
   4  -4  12   23.92    2.40
  -5  -3 -12   16.74    2.43
  -3   5 -12   19.07    2.31
   5   3 -12   20.27    2.41
   3  -5 -12   24.56    2.56
  -3   5 -12   22.63    1.86
   5   3  12   16.26    2.25
  -3   5  12   22.11    2.28
  -3   5  12   23.29    1.56
  -5  -3  12   20.70    2.62
   3  -5  12   23.70    2.36
  -5  -1 -12   19.47    2.28
  -1   5 -12   19.02    2.18
  -5  -1 -12   16.76    1.20
   5   1 -12   19.27    2.38
   1  -5 -12   21.67    2.51
  -1   5 -12   17.04    2.14
  -1   5  12   18.20    2.10
   1  -5  12   19.69    1.73
  -5  -1  12   17.52    2.28
   5   1  12   15.37    2.14
  -5   1 -12   27.24    2.05
  -5   1 -12   33.85    2.55
   1   5 -12   27.75    2.52
  -1  -5 -12   28.44    2.89
   5  -1 -12   31.57    2.81
   5  -1 -12   31.39    1.98
  -1  -5  12   29.19    2.78
   5  -1  12   29.32    2.61
  -5   1  12   32.61    2.72
   1   5  12   26.45    2.59
   5  -3 -12   12.91    1.93
  -3  -5 -12    9.87    2.16
  -5   3 -12   15.37    1.51
   3   5 -12   13.30    1.99
  -5   3 -12   12.59    1.76
   5  -3  12   16.08    2.20
  -3  -5  12   15.13    2.27
  -5   3  12   19.01    1.98
  -5   3  12   12.21    1.80
   3   5  12   14.52    1.97
   5   5 -12   33.95    3.72
  -5  -5 -12   35.90    3.52
  -5   5 -12   33.53    2.97
   5  -5 -12   34.09    2.87
   5   5  12   31.02    3.07
   5  -5  12   33.47    3.03
  -5   5  12   33.54    2.94
  -5  -5  12   34.20    3.38
  -5   5  12   39.44    2.60
  -6  -4 -12   25.36    2.99
   4  -6 -12   23.16    2.51
  -4   6 -12   27.90    2.87
   6   4  12   22.65    3.10
  -4   6  12   18.32    2.46
   4  -6  12   25.03    2.56
  -4   6  12   23.64    2.67
   6   2 -12    9.27    2.00
   2  -6 -12   11.05    2.00
  -6  -2 -12    8.03    1.89
  -2   6 -12   10.02    1.98
  -2   6 -12   10.14    1.55
  -2   6  12   10.11    1.95
   6   2  12   11.64    2.09
  -6  -2  12   10.84    2.20
   2  -6  12   10.95    1.53
  -6   0 -12   44.69    3.00
  -6   0 -12   41.76    2.36
   0  -6 -12   42.45    3.35
   0   6 -12   43.16    3.12
   6   0 -12   35.76    3.14
   0   6  12   38.27    3.11
   0  -6  12   38.68    3.40
  -6   0  12   39.79    3.28
   0  -6  12   41.62    2.03
   6   0  12   36.20    3.13
  -2  -6 -12  111.17    5.83
   6  -2 -12  121.29    4.51
   6  -2 -12  113.38    5.19
   2   6 -12  114.56    5.51
  -6   2 -12  125.20    4.85
   6  -2  12  120.36    5.66
  -2  -6  12  111.02    5.62
  -6   2  12  130.05    5.44
   2   6  12  110.36    5.45
   6  -4 -12   16.52    2.12
  -6   4 -12   17.43    2.33
   6  -4 -12   20.79    2.37
  -6   4  12   12.87    1.92
   6  -4  12   14.84    2.14
   4   6  12   14.98    2.61
  -6  -6 -12   24.45    3.19
   6   6 -12   22.35    3.02
   6  -6 -12   22.31    2.76
  -6   6 -12   18.14    2.69
   6   6  12   18.65    2.54
  -6   6  12   23.38    2.37
   6  -6  12   20.72    2.81
  -6  -6  12   22.87    3.13
   7   5 -12   12.04    2.45
  -7  -5 -12   12.23    2.48
  -5   7 -12   10.69    2.14
   5  -7 -12   12.99    2.03
  -5   7  12   11.72    2.22
  -7  -5  12   11.90    2.56
   5  -7  12   10.88    2.06
   7   5  12   15.78    2.37
   7   3 -12   17.17    2.59
  -3   7 -12   16.57    2.47
  -7  -3 -12   18.60    2.59
   3  -7 -12   11.75    2.05
   3  -7  12   14.04    1.96
  -3   7  12   14.69    2.33
  -7  -3  12   13.40    2.53
   7   3  12   12.44    1.97
   7   1 -12   33.97    3.20
  -1   7 -12   35.28    3.25
  -1   7 -12   38.39    2.93
   1  -7 -12   36.73    3.30
  -7  -1 -12   38.65    3.19
  -7  -1  12   38.22    3.51
   7   1  12   40.35    3.41
  -1   7  12   43.79    3.46
   1  -7  12   37.46    2.35
   1  -7  12   33.23    3.35
   7  -1 -12   22.33    2.54
  -7   1 -12   25.50    2.28
  -7   1 -12   20.52    2.04
  -1  -7 -12   27.31    3.08
   1   7 -12   20.56    2.47
   7  -1  12   23.22    2.62
  -1  -7  12   20.99    2.60
  -7   1  12   27.73    2.91
   1   7  12   25.40    2.84
  -7   3 -12    5.78    1.88
   7  -3 -12   10.69    1.80
   3   7 -12    8.09    1.98
   7  -3 -12   11.78    1.84
  -3  -7 -12    7.34    2.54
   3   7  12   11.13    2.15
  -3  -7  12   11.76    2.38
   7  -3  12   12.00    2.25
  -7   3  12   10.49    2.06
   5   7 -12    9.26    2.28
  -7   5 -12   10.61    2.00
  -5  -7 -12   10.07    2.46
   7  -5 -12   12.30    2.03
   5   7  12    8.26    1.89
  -5  -7  12    7.47    2.76
   7  -5  12   11.47    2.26
  -7   5  12   11.53    2.06
  -7   7 -12    1.69    1.73
   7  -7 -12    9.19    1.91
  -7  -7 -12    3.47    1.79
   7   7 -12    8.16    1.95
   7   7  12    7.73    2.12
  -7  -7  12    3.91    2.40
   7  -7  12    8.95    1.93
   6  -8 -12   15.18    2.27
  -8  -6 -12   16.18    2.72
   8   6  12   13.35    2.20
   6  -8  12   14.13    2.24
   4  -8 -12   56.84    5.61
  -8  -4 -12   40.62    3.75
  -4   8 -12   39.95    3.70
   8   4 -12   35.69    3.67
  -8  -4  12   47.42    4.23
  -4   8  12   36.28    3.57
   4  -8  12   40.53    3.24
   8   2 -12   28.39    3.07
  -8  -2 -12   19.84    2.85
  -2   8 -12   21.54    2.84
   2  -8 -12   27.23    2.97
  -8  -2  12   26.16    3.30
   8   2  12   25.08    2.94
   2  -8  12   31.70    3.75
  -2   8  12   26.04    3.06
   0  -8 -12   13.55    2.41
  -8   0 -12   12.05    3.06
   0   8 -12   17.67    2.40
   0  -8  12   15.34    2.74
   0   8  12   12.71    2.30
   8   0  12   21.43    2.80
  -8   0  12   16.96    2.60
   8  -2 -12    6.27    1.50
   2   8 -12    3.20    1.87
  -2  -8 -12    6.17    2.37
  -8   2 -12    6.45    1.51
   8  -2  12    1.41    1.62
  -8   2  12    5.58    2.14
   2   8  12    2.79    1.61
  -2  -8  12    8.86    2.93
  -8   4 -12   26.26    2.71
  -4  -8 -12   19.50    3.11
   4   8 -12   16.81    2.73
   8  -4 -12   23.29    2.59
  -8   4  12   22.30    2.65
   8  -4  12   22.02    2.90
  -4  -8  12   27.20    3.29
   4   8  12   20.49    2.74
  -8   6 -12   16.16    2.50
   8  -6 -12   26.72    2.83
  -8   6  12   19.25    2.76
   6   8  12   27.73    2.98
   8  -6  12   29.43    3.78
  -3   9 -12    4.36    2.17
   9   3 -12    9.04    2.18
  -9  -3 -12    3.97    2.09
  -3   9  12    4.93    1.86
  -9  -3  12    6.21    2.63
   1  -9 -12    5.62    2.02
   9   1 -12    6.73    2.21
   9   1  12    5.62    1.99
   1  -9  12    4.93    2.26
  -1   9  12    4.35    1.84
  -9  -1  12    3.83    2.23
   1   9 -12   13.60    2.32
  -1  -9 -12    5.47    2.25
   9  -1 -12    8.26    1.74
   9  -1  12    8.87    2.16
  -9   1  12    6.52    2.37
  -1  -9  12   10.26    3.10
   1   9  12   10.22    2.15
  -9   3 -12   15.54    2.30
   3   9 -12   17.92    2.68
  -3  -9 -12   15.23    2.83
  -3  -9  12   19.47    3.02
   9  -3  12   21.83    2.89
  -9   3  12   22.64    3.12
  10   2 -12    3.57    1.87
   0 -10 -12   36.00    3.45
   0  10  12   22.58    3.50
   2  10 -12   14.11    2.81
  -1   0 -13   46.64    3.17
   0   1 -13   47.26    3.15
   0  -1 -13   45.63    3.22
   1   0 -13   48.60    3.16
  -1   0  13   45.83    2.48
   0   1  13   46.98    1.94
   0  -1  13   46.27    2.53
   0   1  13   49.75    2.81
   1   0  13   51.55    2.84
   0  -1  13   47.67    2.53
   1   0  13   49.57    2.17
  -1   0  13   46.98    2.47
   2   1 -13   45.47    3.26
  -1   2 -13   50.88    3.20
   1  -2 -13   46.54    3.32
  -2  -1 -13   48.39    3.68
  -2  -1  13   45.99    2.77
   2   1  13   49.49    3.03
  -1   2  13   46.40    2.81
   1  -2  13   49.19    2.63
   2   1  13   47.56    1.50
  -2  -1  13   45.92    2.12
   1  -2  13   51.70    2.89
  -1   2  13   47.14    1.87
  -1  -2 -13   36.82    3.02
   2  -1 -13   39.00    2.90
  -2   1 -13   41.81    2.82
  -2   1  13   45.44    2.42
   2  -1  13   44.85    2.41
   1   2  13   46.24    2.94
  -1  -2  13   40.04    2.01
  -1  -2  13   35.91    2.52
  -2   1  13   42.87    2.43
   2  -1  13   39.95    2.61
  -2   3 -13   32.51    2.42
   3   2 -13   29.47    2.83
   2  -3 -13   36.31    2.88
  -3  -2 -13   33.48    2.95
  -2   3 -13   33.61    2.55
  -3  -2  13   34.36    2.80
  -2   3  13   30.19    2.83
  -2   3  13   33.51    1.64
   3   2  13   31.41    2.70
  -3  -2  13   36.53    1.52
   2  -3  13   36.79    2.45
   0  -3 -13   42.37    3.12
   3   0 -13   36.80    2.88
  -3   0 -13   39.41    2.98
   3   0  13   41.43    1.95
  -3   0  13   37.95    2.09
   3   0  13   34.74    2.65
  -3   0  13   37.65    2.67
   0  -3  13   38.32    2.11
   0  -3  13   38.21    2.70
   0   3  13   35.83    2.70
   2   3 -13   30.90    2.68
   3  -2 -13   26.01    2.63
  -3   2 -13   29.39    2.43
  -2  -3 -13   28.31    2.80
  -3   2 -13   26.29    2.09
  -2  -3  13   26.48    1.08
   2   3  13   30.48    2.64
  -3   2  13   27.54    2.00
  -3   2  13   26.65    2.10
   3  -2  13   28.46    2.38
  -2  -3  13   29.11    2.56
  -3   4 -13    8.41    1.43
  -3   4 -13    8.35    1.67
   3  -4 -13    8.46    1.87
  -4  -3 -13    7.66    1.95
   4   3 -13    8.60    1.93
  -3   4  13   10.18    1.70
   3  -4  13    8.75    1.60
   4   3  13    4.63    1.73
  -3   4  13   11.18    1.19
  -4  -3  13    9.86    2.54
   1  -4 -13   58.27    3.88
   4   1 -13   62.32    3.89
  -4  -1 -13   63.55    3.86
   1  -4  13   62.91    3.70
  -1   4  13   59.21    3.60
  -4  -1  13   59.98    3.61
   4   1  13   61.35    3.72
   1  -4  13   64.52    2.99
  -4   1 -13   29.76    2.05
   4  -1 -13   23.77    2.42
  -1  -4 -13   28.04    2.70
  -4   1 -13   26.36    2.40
   1   4 -13   26.74    2.61
  -4   1  13   28.94    2.48
   4  -1  13   24.01    2.42
   1   4  13   27.22    2.47
  -4   1  13   28.27    2.00
  -1  -4  13   27.59    1.38
  -1  -4  13   24.52    2.52
   3   4 -13   27.06    2.83
   4  -3 -13   25.29    2.59
  -3  -4 -13   28.08    2.97
  -4   3 -13   28.66    2.18
  -4   3 -13   32.64    2.52
   3   4  13   26.60    2.55
   4  -3  13   28.30    2.49
  -3  -4  13   26.20    2.78
  -4   3  13   29.21    2.39
  -4   3  13   23.51    1.96
   4  -5 -13   17.57    2.41
  -4   5 -13   17.44    2.30
  -5  -4 -13   21.04    2.87
   5   4 -13   16.32    2.57
   4  -5  13   18.73    2.26
  -4   5  13   20.67    1.74
  -5  -4  13   18.07    2.63
  -4   5  13   16.59    2.22
   5   4  13   15.67    2.36
   5   2 -13   34.19    3.18
   2  -5 -13   34.27    3.12
  -2   5 -13   32.95    2.85
  -5  -2 -13   37.55    3.27
  -2   5  13   35.06    3.00
  -5  -2  13   38.63    3.27
   5   2  13   34.89    3.11
   5   0 -13   20.22    1.37
  -5   0 -13   19.44    1.52
  -5   0 -13   20.50    2.33
   0  -5 -13   18.39    2.53
   0   5 -13   18.50    2.24
   5   0 -13   18.95    2.47
   0  -5  13   20.41    1.49
  -5   0  13   17.88    2.40
   0   5  13   19.34    2.33
   5   0  13   18.04    2.33
   0  -5  13   16.45    2.33
  -2  -5 -13   55.17    4.03
  -5   2 -13   61.46    3.22
   5  -2 -13   46.17    3.44
   2   5 -13   49.59    3.66
  -5   2  13   51.53    3.28
  -5   2  13   52.18    3.00
   5  -2  13   55.69    3.74
  -2  -5  13   55.00    3.82
   2   5  13   54.14    3.75
   5  -4 -13   25.91    2.58
  -5   4 -13   23.46    2.44
   4   5 -13   21.86    2.64
  -4  -5 -13   21.40    2.69
   4   5  13   22.87    2.68
   5  -4  13   23.85    2.66
  -5   4  13   24.26    2.51
  -5   4  13   25.23    2.18
  -4  -5  13   21.31    2.79
   6   5 -13   10.15    2.31
  -6  -5 -13   10.95    2.39
   5  -6 -13   10.72    1.89
  -5   6 -13   11.08    2.14
  -5   6  13   12.52    2.14
   5  -6  13   12.80    2.17
  -6  -5  13   12.14    2.54
   6   5  13   11.80    2.19
  -6  -3 -13   17.40    2.60
   3  -6 -13   15.24    2.28
  -3   6 -13   20.59    2.01
  -3   6 -13   16.02    2.32
  -6  -3  13   16.91    2.60
  -3   6  13   13.83    2.23
   3  -6  13   19.36    2.22
   6   1 -13   25.63    2.82
  -6  -1 -13   25.74    2.70
  -1   6 -13   25.70    2.55
   1  -6 -13   23.92    2.82
   1  -6  13   23.90    1.87
  -6  -1  13   24.05    2.80
   1  -6  13   26.44    2.94
   6   1  13   22.76    2.67
  -1   6  13   28.24    2.86
   6  -1 -13    4.49    1.83
  -1  -6 -13    3.93    2.05
  -6   1 -13    7.61    1.38
  -6   1 -13    5.16    1.62
   1   6 -13    6.52    2.15
   6  -1 -13    7.21    1.09
  -6   1  13    7.48    2.23
   6  -1  13    3.25    1.67
  -1  -6  13    3.44    1.92
   1   6  13    5.28    2.04
  -6   3 -13   36.23    2.89
  -3  -6 -13   25.28    3.61
   6  -3 -13   37.45    2.79
   3   6 -13   34.40    3.35
   6  -3 -13   31.97    2.91
   6  -3  13   30.92    3.51
  -6   3  13   37.35    2.98
  -5  -6 -13    7.78    2.78
   6  -5 -13   10.65    1.90
  -6   5 -13    4.46    1.78
   6  -5 -13    7.77    1.72
   5   6 -13    5.55    1.91
   6  -5  13    9.74    2.04
  -5  -6  13    8.48    2.80
  -6   5  13   12.79    1.97
   5   6  13   10.97    2.13
   7   6 -13    2.51    1.84
  -7  -6 -13    2.43    1.95
  -6   7 -13    3.24    1.87
  -7  -6  13    3.86    2.32
   7   6  13    2.21    1.57
  -7  -4 -13   14.68    2.57
  -4   7 -13   10.59    2.18
   7   4 -13    9.90    2.27
  -7  -4  13    8.26    2.59
   7   4  13    9.85    1.88
   4  -7  13   15.30    2.16
  -4   7  13   13.16    2.22
   7   2 -13   10.32    2.20
  -2   7 -13   11.72    2.25
  -7  -2 -13   13.93    2.46
  -2   7 -13   12.49    1.78
   2  -7 -13   11.61    2.09
   2  -7  13   11.84    1.63
  -2   7  13   14.03    2.20
   7   2  13   13.55    2.35
  -7  -2  13   11.71    2.32
  -7   0 -13   10.59    1.99
   7   0 -13   15.97    2.38
   0   7 -13   14.14    2.17
   7   0  13   12.52    2.22
   0   7  13   10.38    1.91
   0  -7  13   12.24    2.42
   2   7 -13    8.87    2.92
   7  -2 -13   10.86    2.04
  -2  -7 -13    9.22    2.34
  -7   2 -13    9.78    1.66
   7  -2 -13   12.11    1.55
   2   7  13    5.79    2.20
   7  -2  13    9.02    2.11
  -7   2  13    9.15    1.95
  -2  -7  13   10.09    2.24
  -4  -7 -13    5.08    2.09
   4   7 -13    5.23    2.27
   7  -4 -13    8.56    1.74
   7  -4 -13    5.84    1.75
  -7   4 -13    3.87    1.85
   7  -4  13    8.70    2.07
  -4  -7  13    5.59    2.41
  -7   4  13    6.47    2.10
   4   7  13    4.30    1.70
   6   7 -13   23.80    3.29
  -6  -7 -13   25.60    3.21
   7  -6 -13   31.06    3.35
  -7   6 -13   20.10    3.25
   7  -6  13   19.83    2.74
   6   7  13   32.46    3.27
  -6  -7  13   20.25    3.08
   5  -8 -13    1.24    1.35
  -8  -5 -13    0.92    2.13
   8   5 -13    2.11    1.70
  -5   8 -13    1.10    1.63
  -8  -5  13   -0.10    1.87
   8   5  13    2.88    1.42
   8   3 -13   26.87    3.20
  -8  -3 -13   23.93    2.85
   3  -8 -13   19.63    2.48
  -3   8 -13   25.78    3.04
  -3   8  13   24.89    3.05
  -8  -3  13   17.28    2.90
   8   3  13   28.90    3.16
   3  -8  13   30.03    2.68
   8   1 -13   10.03    2.14
  -1   8 -13    8.77    1.97
  -8  -1 -13    8.49    2.37
   1  -8 -13    9.19    2.08
  -1   8  13    7.42    2.35
   8   1  13    9.51    1.85
  -8  -1  13   11.57    2.32
   1  -8  13    9.58    2.23
   8  -1 -13   15.10    2.19
   1   8 -13   12.55    2.21
  -1  -8 -13   13.91    2.62
   8  -1  13   15.12    2.32
  -1  -8  13   18.28    2.89
   1   8  13   13.95    2.43
  -8   1  13   13.56    2.38
   3   8 -13   10.61    2.26
   8  -3 -13   15.23    2.05
  -3  -8 -13    6.27    2.65
  -8   3 -13   14.57    1.96
  -8   3  13   17.26    2.35
   3   8  13   11.45    2.29
   8  -3  13   13.58    2.46
  -3  -8  13   11.13    2.53
   5   8 -13    0.89    1.48
  -8   5 -13    3.96    1.88
  -5  -8 -13    5.59    2.52
   8  -5  13    4.21    1.91
  -5  -8  13    4.14    2.26
   5   8  13    7.67    2.28
  -9  -4 -13   15.03    3.13
   2  -9 -13    2.80    1.85
   9   2  13    2.58    1.61
  -2   9  13    3.08    1.84
   2  -9  13    2.77    2.10
  -9  -2  13    0.45    1.90
   9   0 -13   17.94    2.52
   0  -9 -13   24.32    3.03
   2   9 -13    7.55    2.44
  -2  -9 -13   11.26    2.52
   9  -2  13    9.17    2.20
   2   9  13   16.26    2.59
  -9   2  13    7.49    3.79
  -2  -9  13    7.00    2.70
  -9   4 -13    3.29    1.60
   0   0 -14   32.76    2.90
   0   0  14   36.01    2.38
   0   0  14   33.90    2.00
  -1   1 -14   37.74    2.86
  -1  -1 -14   39.83    3.20
   1  -1 -14   35.25    2.90
   1   1 -14   40.62    3.04
   1   1  14   38.38    2.75
   1  -1  14   35.88    2.43
  -1  -1  14   36.96    2.47
  -1   1  14   39.48    2.05
   1   1  14   37.09    1.51
  -1  -1  14   39.16    2.22
  -1   1  14   37.69    2.47
   1  -1  14   39.18    2.32
   2   0 -14   31.48    2.90
  -2   0 -14   29.87    2.76
   0  -2 -14   34.45    3.06
   0   2 -14   32.28    2.83
  -2   0  14   29.57    2.01
   0  -2  14   32.53    2.11
   0  -2  14   30.31    2.41
   2   0  14   30.41    1.70
   0   2  14   27.64    2.70
  -2   0  14   30.15    2.30
   2   0  14   29.88    2.34
  -2  -2 -14   18.16    2.23
  -2   2 -14   19.38    2.17
   2   2 -14   21.17    2.53
   2  -2 -14   19.01    2.48
   2  -2  14   19.37    1.95
  -2   2  14   20.68    1.49
  -2  -2  14   20.19    1.32
   2  -2  14   22.67    2.01
  -2   2  14   18.92    1.90
   2   2  14   19.47    2.21
  -3  -1 -14   30.11    2.87
  -1   3 -14   29.72    2.66
   1  -3 -14   27.01    2.69
   3   1 -14   27.35    2.83
   3   1  14   29.49    2.64
  -1   3  14   30.91    2.59
   1  -3  14   30.75    2.19
  -1  -3 -14   22.40    2.66
   1   3 -14   21.31    2.52
   3  -1 -14   26.01    2.77
  -3   1 -14   23.80    2.47
   3  -1  14   26.95    1.92
   1   3  14   25.39    2.46
  -1  -3  14   25.71    2.53
   3  -1  14   22.68    2.26
  -3   1  14   27.77    2.00
  -3   1  14   25.03    2.15
  -1  -3  14   24.91    1.57
  -3  -3 -14   41.84    3.51
  -3   3 -14   43.40    2.93
   3  -3 -14   48.25    3.58
   3   3 -14   39.86    3.27
  -3   3  14   45.17    2.97
  -3   3  14   46.80    2.32
   3  -3  14   45.22    3.13
  -3  -3  14   46.38    3.40
   3   3  14   48.58    3.49
   2  -4 -14   21.23    2.43
  -2   4 -14   14.78    1.97
  -2   4 -14   15.08    2.02
   4   2 -14   18.55    2.34
  -4  -2 -14   15.69    2.33
   2  -4  14   17.48    2.19
   4   2  14   16.12    2.22
  -2   4  14   20.99    2.30
   2  -4  14   18.60    1.87
  -4  -2  14   13.27    2.18
   0  -4 -14   27.74    2.93
  -4   0 -14   31.87    2.89
   0   4 -14   29.10    2.72
   4   0 -14   25.45    2.65
   0  -4  14   27.36    2.63
  -4   0  14   29.31    1.82
  -4   0  14   26.37    2.61
   0  -4  14   26.94    1.78
   4   0  14   30.12    2.73
   4   0  14   29.54    1.71
   0   4  14   28.76    2.69
  -4   2 -14   14.92    2.00
  -4   2 -14   15.66    1.81
   2   4 -14   14.69    2.26
   4  -2 -14   15.99    2.32
  -2  -4 -14   17.74    2.54
  -4   2  14   16.66    1.87
   2   4  14   13.55    1.94
  -2  -4  14   11.69    2.05
   4  -2  14   14.83    1.91
   4   4 -14   14.65    2.22
   4  -4 -14   16.39    2.32
  -4   4 -14   17.39    1.81
  -4  -4 -14   18.71    2.68
  -4   4 -14   15.29    2.15
   4   4  14   20.90    2.59
  -4  -4  14   19.57    2.62
  -4   4  14   14.93    2.01
  -4   4  14   19.03    1.71
   4  -4  14   19.34    2.33
  -3   5 -14   16.60    2.24
  -5  -3 -14   22.53    2.85
   3  -5 -14   25.49    2.80
   5   3 -14   19.14    2.52
  -3   5 -14   21.76    2.06
   5   3  14   22.09    2.67
   3  -5  14   21.74    2.21
  -3   5  14   22.51    2.55
  -5  -3  14   21.74    2.79
   5   1 -14    7.95    2.39
  -5  -1 -14   10.74    2.06
  -1   5 -14   11.39    2.01
   1  -5 -14   11.28    2.17
   1  -5  14   10.61    2.09
  -5  -1  14    9.00    2.03
  -1   5  14   10.90    2.01
   1  -5  14   10.28    1.43
   5   1  14    9.50    1.96
   5  -1 -14   29.32    1.94
  -1  -5 -14   27.96    3.09
  -5   1 -14   35.84    2.29
  -5   1 -14   32.91    2.84
   1   5 -14   33.34    3.03
   5  -1 -14   32.31    3.10
  -1  -5  14   33.61    3.14
   1   5  14   42.25    3.36
  -5   1  14   34.19    2.82
   5  -1  14   33.44    2.90
  -3  -5 -14    7.64    1.84
  -5   3 -14    7.62    1.56
   5  -3 -14    5.71    1.94
  -5   3 -14    8.47    1.47
   3   5 -14    5.82    1.86
  -5   3  14    7.32    1.62
   5  -3  14    6.43    1.54
  -5   3  14    8.08    1.49
  -3  -5  14    6.92    2.36
   3   5  14    7.13    1.80
  -5   5 -14    6.87    2.10
   5   5 -14    9.46    2.22
  -5  -5 -14    8.27    2.52
   5  -5 -14    6.72    1.61
  -5  -5  14    6.44    2.52
   5  -5  14    6.97    2.14
  -5   5  14    7.34    2.11
   5   5  14    7.47    2.28
  -6  -4 -14    3.40    1.94
  -4   6 -14    1.62    1.62
   6   4 -14    2.90    1.96
  -6  -4  14    6.34    2.53
  -4   6  14    4.41    1.92
   4  -6  14    5.26    2.23
   6   4  14    3.84    1.89
   2  -6 -14   19.47    2.61
   6   2 -14   18.61    2.67
  -6  -2 -14   16.00    2.46
  -2   6 -14   22.26    4.31
  -2   6 -14   18.99    2.15
  -2   6  14   11.83    2.14
   6   2  14   13.95    2.32
  -6  -2  14   16.89    2.96
   2  -6  14   15.05    1.83
   2  -6  14   24.96    3.31
  -6   0 -14   11.00    2.02
   0   6 -14   13.60    2.12
   0  -6 -14   15.15    2.30
   6   0 -14   12.70    2.20
   0  -6  14   13.72    2.37
  -6   0  14   13.67    2.30
   6   0  14   11.54    2.29
   0   6  14   13.63    2.53
   6  -2 -14   10.01    1.39
  -2  -6 -14    7.16    2.48
   6  -2 -14   10.94    2.02
   2   6 -14    9.88    2.03
  -6   2 -14    9.37    1.63
  -6   2 -14   12.61    1.77
   6  -2  14    9.29    2.07
   2   6  14    8.05    1.92
  -6   2  14   11.13    2.05
  -2  -6  14    4.66    2.25
  -4  -6 -14   15.41    2.73
  -6   4 -14   19.05    2.37
   6  -4 -14   19.70    2.68
   6  -4 -14   18.12    2.49
   4   6 -14   17.36    2.67
  -4  -6  14   16.93    2.70
   4   6  14   16.77    2.56
   6  -4  14   16.96    2.46
  -6   4  14   20.93    2.35
  -6   6 -14    8.54    2.35
   6  -6 -14    3.73    1.62
  -6  -6 -14    5.19    2.39
   6   6  14    4.99    2.09
  -6  -6  14    4.27    3.42
   6  -6  14    5.82    2.13
   7   5 -14   16.22    3.14
  -7  -5 -14   20.72    3.02
   5  -7 -14   16.72    2.43
   5  -7  14   27.78    2.70
   3  -7 -14   14.44    2.44
  -7  -3 -14    8.61    2.61
  -3   7 -14    9.76    2.14
   7   3 -14    9.88    2.31
  -7  -3  14   12.03    2.67
   7   3  14   11.69    2.23
  -3   7  14   10.56    2.12
   3  -7  14   13.28    1.80
   1  -7 -14    9.67    2.18
   7   1 -14    4.92    2.01
  -1   7 -14   10.75    1.95
  -7  -1 -14    7.25    2.33
   7   1  14    7.11    2.34
   1  -7  14   10.27    2.35
  -1   7  14   10.33    1.90
  -7  -1  14   10.78    2.39
   7  -1 -14   25.48    2.83
   1   7 -14   24.00    2.78
  -1  -7 -14   29.98    3.42
   1   7  14   24.22    2.92
  -7   1  14   29.11    3.01
   7  -1  14   38.07    3.53
  -1  -7  14   25.29    3.16
   3   7 -14    9.08    2.07
  -3  -7 -14    6.03    2.12
  -7   3 -14    7.85    1.71
   7  -3 -14    8.33    1.68
   7  -3 -14    6.37    1.54
   7  -3  14    8.56    2.04
  -3  -7  14    4.36    2.14
   3   7  14   10.09    2.05
  -7   3  14   10.35    2.05
   7  -5 -14   12.51    2.02
  -7   5 -14   14.99    2.20
  -5  -7  14   13.66    5.83
  -8  -4 -14    6.42    2.93
   8   4 -14    2.61    1.82
  -4   8 -14   -1.01    1.39
   8   4  14    2.50    1.36
  -8  -4  14   -0.44    1.79
  -4   8  14    3.04    1.92
   2  -8 -14    9.42    2.32
  -8  -2 -14   15.05    2.72
   8   2 -14    8.24    2.10
   2  -8  14   12.35    2.66
  -2   8  14   10.01    2.21
   8   2  14   12.98    2.34
  -8  -2  14   11.46    2.70
   8   0 -14    5.06    1.85
   0   8 -14    3.59    1.90
   0  -8 -14    4.22    2.17
   0  -8  14    2.84    2.26
   0   8  14    3.64    1.77
   8   0  14    1.96    1.63
  -8   0  14    3.53    2.19
   2   8 -14    4.97    1.95
   8  -2 -14    8.47    1.75
  -2  -8 -14    6.74    2.36
   2   8  14    9.24    2.09
  -2  -8  14    6.89    2.63
  -8   2  14   12.91    2.21
   8  -2  14   12.06    2.31
  -8   4 -14    1.25    1.81
  -4  -8 -14   -0.37    1.16
   4   8 -14    2.45    1.87
  -8   4  14    5.87    2.42
   8  -4  14    1.63    1.59
   4   8  14    5.07    1.79
  -4  -8  14    1.46    2.12
   1  -9 -14   12.82    2.29
   9   1 -14   11.72    2.31
  -9  -1  14   15.32    2.44
   9   1  14   11.64    2.27
   1  -9  14   11.06    2.59
  -1   9  14   14.24    2.51
  -1  -9 -14    4.91    2.15
   1   9  14    4.32    1.81
  -9   1  14    8.62    2.03
   9  -1  14    2.93    1.70
  -1  -9  14    5.24    2.45
   0  -1 -15   20.22    2.58
   1   0 -15   18.96    2.49
  -1   0 -15   22.97    2.63
   0   1 -15   24.01    2.47
   0   1  15   21.97    2.10
  -1   0  15   22.10    1.95
   1   0  15   25.15    1.64
  -1   0  15   24.98    1.97
   0   1  15   21.36    1.41
   0  -1  15   18.94    1.77
   1   0  15   23.02    2.14
   0  -1  15   20.88    1.88
   1  -2 -15  113.63    5.56
  -1   2 -15  115.18    5.17
   2   1 -15  116.01    5.55
  -2  -1 -15  116.04    5.58
  -1   2  15  117.89    4.83
  -1   2  15  106.40    3.04
  -2  -1  15  123.11    4.76
  -2  -1  15  120.16    3.83
   1  -2  15  115.06    4.52
   1  -2  15  120.38    4.53
   2   1  15  109.59    4.80
   2  -1 -15   47.30    3.64
  -2   1 -15   44.01    3.35
   1   2 -15   45.33    3.37
  -1  -2 -15   40.33    3.30
  -1  -2  15   48.43    2.37
   2  -1  15   48.14    2.51
  -2   1  15   46.30    2.50
   2  -1  15   43.17    2.95
   1   2  15   42.24    3.04
  -2   1  15   46.98    2.79
  -2   3 -15   19.37    2.31
  -3  -2 -15   20.56    2.68
   3   2 -15   17.41    2.50
   2  -3 -15   20.83    2.47
   2  -3  15   17.16    2.07
  -2   3  15   17.24    2.04
  -3  -2  15   22.79    2.45
   2  -3  15   23.00    2.12
   3   2  15   21.19    2.44
  -3   0 -15   31.64    2.98
   3   0 -15   26.92    2.90
   0   3 -15   26.50    2.75
   0  -3 -15   27.50    2.97
  -3   0  15   26.29    2.31
   0  -3  15   26.64    1.88
   0   3  15   26.56    2.58
  -3   0  15   30.73    2.01
   3   0  15   27.65    2.62
   0  -3  15   28.11    2.66
   2   3 -15   31.56    3.09
  -3   2 -15   32.98    2.83
  -2  -3 -15   32.78    3.28
   3  -2 -15   36.51    3.30
   2   3  15   29.65    2.69
   3  -2  15   35.70    2.51
  -2  -3  15   32.25    2.97
   3  -2  15   34.47    2.84
  -3   2  15   35.20    2.17
  -3   2  15   33.50    2.46
   4   3 -15   18.89    2.68
  -3   4 -15   19.28    2.26
  -3   4 -15   20.81    2.33
   3  -4 -15   17.09    2.52
  -4  -3 -15   18.85    2.51
   3  -4  15   16.21    2.01
   4   3  15   17.73    2.45
  -3   4  15   20.54    2.35
  -4  -3  15   20.63    2.66
  -1   4 -15   11.79    2.03
  -4  -1 -15   10.58    2.08
   1  -4 -15    5.59    2.19
   4   1 -15    7.98    2.03
   1  -4  15    9.88    1.91
  -1   4  15   10.82    1.90
   1  -4  15   10.52    1.42
   4   1  15    9.05    1.89
  -4  -1  15   11.07    1.95
  -4   1 -15   24.93    2.61
   4  -1 -15   22.93    2.77
  -1  -4 -15   24.71    2.93
   1   4 -15   20.86    2.58
   4  -1  15   24.76    1.80
  -1  -4  15   25.76    2.66
  -4   1  15   28.72    2.13
   4  -1  15   24.72    2.45
  -4   1  15   25.06    2.44
   1   4  15   25.53    2.71
  -3  -4 -15   68.49    4.71
   3   4 -15   63.98    4.39
  -4   3 -15   70.94    3.75
   4  -3 -15   65.64    4.34
  -4   3 -15   70.84    3.81
   4  -3  15   66.96    4.02
  -4   3  15   72.31    3.79
  -3  -4  15   66.47    4.32
   3   4  15   67.12    4.24
   4  -5 -15   24.42    2.75
  -4   5 -15   24.19    2.64
   5   4 -15   19.95    2.85
  -5  -4 -15   24.37    3.12
  -4   5  15   21.95    2.50
   5   4  15   24.76    2.77
  -5  -4  15   27.66    3.20
   2  -5 -15   16.16    2.52
  -5  -2 -15   17.25    2.59
  -2   5 -15   15.62    2.09
   5   2  15    8.40    2.69
  -5  -2  15   16.39    2.49
   2  -5  15   18.69    2.54
  -2   5  15   15.48    2.27
   2  -5  15   15.77    1.84
  -5   0 -15   79.92    4.61
   0  -5 -15   85.46    5.16
   0   5 -15   84.11    4.64
   5   0 -15   70.87    4.63
  -5   0  15   79.85    4.38
   5   0  15   66.50    4.22
   0  -5  15   79.28    4.63
   0   5  15   82.01    4.71
  -5   2 -15   11.79    1.63
   5  -2 -15   10.50    2.15
  -2  -5 -15    7.50    2.88
  -5   2 -15   12.03    1.82
   2   5 -15    7.58    1.95
  -5   2  15   11.85    1.70
  -5   2  15   11.21    1.88
   2   5  15    6.13    2.34
   5  -2  15   13.85    2.19
  -2  -5  15   13.12    2.43
   4   5 -15   13.58    2.53
  -4  -5 -15   15.34    2.77
   5  -4 -15   11.47    2.28
  -5   4 -15   17.76    2.32
   4   5  15   15.06    2.38
  -4  -5  15   14.30    2.58
  -5   4  15   16.73    2.17
   5  -4  15   13.28    2.21
  -5   6 -15   13.17    2.35
  -6  -5 -15   16.27    2.85
   6   5 -15   16.48    2.72
   5  -6 -15   13.63    2.17
  -5   6  15   11.43    2.13
  -6  -5  15   15.18    2.82
   5  -6  15   15.86    2.32
   6   5  15   12.89    2.28
  -3   6 -15   42.75    3.56
  -6  -3 -15   47.46    3.98
   6   3 -15   49.12    4.19
   3  -6 -15   49.29    3.96
  -3   6  15   49.57    3.86
  -6  -3  15   51.97    4.21
   3  -6  15   41.44    3.06
   6   3  15   36.21    3.46
   1  -6 -15   25.75    3.08
  -6  -1 -15   25.85    3.01
  -1   6 -15   33.05    3.01
   6   1 -15   28.93    3.18
   6   1  15   26.65    2.99
  -6  -1  15   30.23    3.66
  -1   6  15   31.23    3.03
   1  -6  15   32.81    3.32
  -1  -6 -15   17.60    2.86
   6  -1 -15   19.76    2.64
  -6   1 -15   14.77    2.16
  -1  -6  15   15.88    2.51
   1   6  15   12.25    2.27
  -6   1  15   18.49    2.39
   6  -1  15   15.14    2.43
   3   6 -15    4.33    2.03
  -3  -6 -15    1.91    1.87
   6  -3 -15    5.21    1.90
  -6   3 -15    4.45    1.63
  -3  -6  15    7.51    2.65
   3   6  15    5.93    2.12
   6  -3  15    7.70    2.43
  -6   3  15    5.22    1.74
  -5  -6 -15    5.01    2.11
  -6   5 -15    9.91    2.06
   6  -5 -15    5.03    1.83
   6  -5 -15   12.50    1.95
   5   6 -15   10.00    2.24
   6  -5  15    6.98    1.75
   5   6  15   10.00    1.91
  -5  -6  15    7.51    2.78
   4  -7 -15    7.39    1.76
  -7  -4 -15    9.88    2.44
  -4   7 -15   11.75    2.24
  -4   7  15   12.37    2.59
   4  -7  15   14.03    1.93
  -7  -2 -15    5.08    2.22
   7   2 -15    5.07    2.28
   2  -7 -15    3.57    1.75
  -7  -2  15    3.36    2.10
   2  -7  15    9.75    2.31
  -2   7  15    4.73    1.98
   7   2  15   10.32    2.14
   0   7 -15   12.54    2.12
   0  -7 -15   12.46    2.46
   7   0 -15   13.06    2.54
  -7   0 -15   12.60    2.45
   0  -7  15   14.87    2.61
   7   0  15    9.83    2.10
  -7   0  15   10.20    2.23
   0   7  15   14.66    2.48
   7  -2 -15   15.20    2.42
  -2  -7 -15   13.35    2.70
   2   7 -15   14.31    2.41
  -7   2  15   16.38    2.44
   2   7  15   13.39    2.40
  -2  -7  15   13.61    2.50
   7  -2  15   10.31    2.00
   7  -4 -15   29.25    2.74
  -4  -7 -15   23.75    3.80
  -7   4 -15   37.34    3.03
   7  -4 -15   40.29    3.12
   4   7  15   20.23    3.25
  -7   4  15   36.55    3.38
   7  -4  15   20.15    3.31
   8   3 -15    1.62    1.72
   3  -8  15    2.43    1.95
  -3   8  15    2.05    1.63
  -8  -3  15    1.31    2.08
   8   3  15    2.34    1.56
   8   1 -15   11.73    2.29
   1  -8 -15   11.68    2.34
   8   1  15   10.37    2.54
  -8  -1  15   15.77    3.02
   1   8 -15   23.45    2.93
  -1  -8 -15   18.71    3.27
   8  -1 -15   29.03    2.95
  -8   1  15   30.40    3.16
   8  -1  15   20.11    2.90
   1   8  15   20.47    2.93
  -3  -8 -15   19.07    3.13
   3   8 -15   21.29    2.84
   8  -3  15   18.84    2.69
   3   8  15   21.69    2.86
  -3  -8  15   18.75    2.96
   0   0 -16   10.85    2.13
   0   0  16   10.31    1.33
   0   0  16   11.29    1.61
  -1  -1 -16   30.19    3.08
  -1   1 -16   31.45    3.04
   1  -1 -16   30.93    3.15
   1   1 -16   31.44    2.97
   1  -1  16   38.11    2.29
  -1   1  16   32.07    2.44
  -1  -1  16   32.82    2.46
   1  -1  16   32.33    2.53
  -1   1  16   32.10    1.94
   1   1  16   33.68    2.73
  -1  -1  16   32.66    2.22
   0  -2 -16   31.07    3.02
   2   0 -16   29.03    3.07
   0   2 -16   25.05    2.81
  -2   0 -16   31.40    3.10
  -2   0  16   28.44    2.28
   2   0  16   28.44    2.58
  -2   0  16   29.09    2.10
   0  -2  16   28.10    2.12
   0  -2  16   26.73    2.34
   0   2  16   32.93    2.76
  -2   2 -16   12.18    2.12
   2   2 -16    8.37    2.04
  -2  -2 -16   12.47    2.36
   2  -2 -16    9.21    2.14
  -2   2  16    9.37    2.07
   2  -2  16   10.26    1.84
  -2  -2  16   11.11    1.84
   2   2  16    7.91    1.76
  -2   2  16   10.98    1.66
   2  -2  16   10.90    1.69
   1  -3 -16   30.96    3.22
  -1   3 -16   28.79    2.76
   3   1 -16   29.65    3.16
  -3  -1 -16   29.92    3.17
   1  -3  16   29.80    2.66
  -1   3  16   25.81    2.54
  -3  -1  16   34.15    2.86
   1  -3  16   26.73    2.19
   3   1  16   30.63    2.84
   3  -1 -16   51.11    3.95
  -3   1 -16   50.89    3.67
  -1  -3 -16   50.37    3.98
   1   3 -16   46.66    3.59
   1   3  16   45.77    3.43
  -3   1  16   44.70    3.18
  -3   1  16   50.82    2.94
   3  -1  16   47.80    2.50
   3  -1  16   48.24    3.35
  -1  -3  16   48.93    3.37
   3  -3 -16   29.57    3.00
  -3   3 -16   29.18    2.88
  -3  -3 -16   29.43    3.09
   3   3 -16   25.84    3.30
   3   3  16   26.27    2.85
   3  -3  16   27.67    2.55
   3  -3  16   34.56    2.86
  -3  -3  16   33.00    3.07
  -3   3  16   31.03    2.62
   2  -4 -16    7.63    2.45
  -2   4 -16    9.29    1.90
   4   2 -16    7.67    2.82
  -4  -2 -16    5.87    2.17
   2  -4  16    9.68    1.47
  -4  -2  16    9.64    2.71
  -2   4  16    8.89    1.74
   2  -4  16   10.50    2.15
  -4   0 -16   27.12    2.94
   0  -4 -16   20.80    2.68
   4   0 -16   22.69    2.71
   0   4 -16   22.62    2.65
   0  -4  16   23.16    2.60
   4   0  16   23.47    2.65
   0   4  16   23.86    2.61
  -4   0  16   30.77    2.70
   2   4 -16   13.71    2.38
   4  -2 -16    9.17    2.07
  -4   2 -16    9.50    2.00
   4  -2  16    9.89    1.87
  -2  -4  16    8.71    2.01
   4  -2  16   12.44    1.58
  -4   2  16   14.10    1.81
  -4   2  16   11.01    1.62
  -4  -4 -16   16.79    2.74
   4   4 -16   13.47    2.50
   4  -4 -16   11.63    2.24
  -4   4 -16   14.70    2.03
  -4   4 -16   13.06    2.31
   4   4  16   13.05    2.08
  -4  -4  16   12.48    2.45
  -3   5 -16   26.17    2.51
   3  -5 -16   16.58    2.55
  -5  -3 -16   27.39    3.27
   5   3 -16   17.56    2.78
   3  -5  16   19.16    2.70
  -5  -3  16   18.78    2.74
   3  -5  16   25.86    2.39
  -3   5  16   21.74    2.60
   5   3  16   20.77    2.71
   1  -5 -16   13.57    2.29
   5   1 -16   13.57    2.46
  -1   5 -16   15.16    2.35
  -5  -1 -16   15.71    2.52
  -1   5  16   23.69    2.72
   1  -5  16   13.18    2.41
   5   1  16   15.66    2.42
  -5  -1  16   15.12    2.49
   5  -1 -16   22.66    2.91
  -1  -5 -16   26.39    3.24
  -5   1 -16   24.75    2.79
   5  -1  16   22.59    2.55
  -5   1  16   28.87    2.73
   1   5  16   24.70    2.85
  -3  -5 -16   11.66    2.48
   3   5 -16   15.14    2.63
  -5   3 -16   15.89    2.11
  -5   3 -16   15.31    1.97
   5  -3 -16   15.15    2.54
  -3  -5  16   15.25    2.63
  -5   3  16   16.83    2.10
  -5   3  16   16.39    1.91
   3   5  16   16.83    2.52
   5  -3  16   15.09    2.28
   5  -5 -16   19.10    2.48
   5   5 -16   13.44    2.55
  -5  -5 -16   14.91    2.79
  -5   5 -16   15.38    2.27
  -5  -5  16   10.61    3.08
   5   5  16   11.66    2.27
   5  -5  16   15.96    2.30
  -5   5  16   12.73    2.19
   4  -6 -16   -0.91    1.46
   6   4 -16    3.62    1.80
  -6  -4 -16    2.77    2.12
  -4   6 -16    0.91    1.79
   4  -6  16    1.65    1.24
   6   4  16    3.01    1.53
  -4   6  16    1.77    1.24
  -6  -4  16    1.93    2.04
  -2   6 -16   21.86    2.48
  -6  -2 -16   19.23    2.82
   2  -6 -16   18.69    2.86
   6   2 -16   19.18    2.83
  -2   6  16   21.39    2.72
   6   2  16   18.24    2.66
  -6  -2  16   26.63    3.14
   2  -6  16   24.78    3.02
   6   0 -16    6.15    2.25
   0  -6 -16    9.52    2.35
  -6   0 -16    3.95    1.85
   0   6 -16    7.03    2.32
   0  -6  16    5.99    2.27
   6   0  16    5.33    2.04
   0   6  16    8.91    2.44
  -6   0  16    3.42    2.07
  -2  -6 -16    2.69    1.92
   6  -2 -16    6.14    2.20
   2   6 -16    4.97    2.04
  -6   2  16    3.57    2.20
   2   6  16    3.62    1.57
   6  -2  16    8.51    2.52
  -2  -6  16    2.54    1.91
   6  -4 -16   24.08    2.60
   4   6 -16   18.01    2.84
   6  -4 -16   22.38    2.63
  -6   4 -16   20.31    2.25
  -4  -6 -16   19.49    3.10
   4   6  16   24.10    3.01
   6  -4  16   24.15    2.82
  -4  -6  16   16.09    2.82
   3  -7 -16   17.89    2.55
  -7  -3 -16   16.91    2.75
   7   3 -16   17.65    2.78
   3  -7  16   15.36    4.72
   7   3  16   11.62    2.29
  -3   7  16    9.45    2.11
  -1   7 -16   13.65    2.49
   1  -7 -16   13.40    2.65
  -7  -1 -16   13.73    2.45
   7   1 -16   18.46    2.66
  -7  -1  16   13.69    2.56
   7   1  16   14.71    2.53
  -1   7  16   16.08    2.48
   1  -7  16   18.20    2.71
   7  -1 -16   16.82    2.60
  -1  -7 -16   17.51    2.89
   1   7 -16   23.99    2.80
  -1  -7  16   20.63    2.95
  -7   1  16   23.40    2.72
   1   7  16   19.05    2.69
   7  -1  16   18.57    2.53
   7  -3 -16    9.08    1.93
  -3  -7 -16    9.57    2.45
   7  -3  16    9.42    2.08
   3   7  16    8.85    2.08
  -3  -7  16    6.07    2.79
   8   2 -16    4.57    1.91
  -8  -2 -16    1.27    3.19
   2  -8 -16    3.86    2.01
  -8  -2  16   12.09    2.36
   0   8 -16   -0.53    2.11
   8   0 -16    1.34    1.52
   0  -8 -16    3.07    1.95
  -8   0  16    4.27    2.10
   8   0  16    2.54    1.73
   0  -8  16    6.35    2.53
   0   8  16    2.61    1.52
   8  -2 -16   16.65    2.36
   2   8 -16   13.53    2.39
  -8   2  16   11.63    2.37
   1   0 -17   29.14    3.04
  -1   0 -17   35.37    3.43
   0  -1 -17   36.96    3.53
   0   1 -17   36.62    3.44
   0  -1  17   37.67    2.56
   0  -1  17   31.07    2.28
   0   1  17   31.38    2.66
  -1   0  17   35.71    2.50
  -1   0  17   37.59    2.42
   1   0  17   35.67    2.77
  -2  -1 -17   14.29    2.53
  -1   2 -17   17.42    2.53
   2   1 -17   16.02    2.56
   1  -2 -17   13.86    2.45
  -2  -1  17   14.04    1.43
   1  -2  17   16.40    1.95
   1  -2  17   18.41    1.90
  -1   2  17   14.94    1.95
  -2  -1  17   18.15    2.18
   2   1  17   16.32    2.17
   2  -1 -17    9.40    2.23
  -1  -2 -17    7.63    2.38
   1   2 -17   10.81    2.19
  -2   1 -17    8.26    2.04
   2  -1  17    8.31    1.57
   1   2  17   11.29    1.91
   2  -1  17   10.58    1.51
  -2   1  17    9.37    1.45
  -1  -2  17    8.22    1.65
  -2   1  17   10.68    1.58
  -1  -2  17    9.01    1.28
   2  -3 -17   33.81    3.49
   3   2 -17   38.07    3.69
  -2   3 -17   30.98    3.07
   2  -3  17   34.20    2.70
  -3  -2  17   39.61    3.32
  -2   3  17   33.65    2.81
   3   2  17   25.27    3.26
   2  -3  17   37.32    2.89
   0   3 -17    4.12    2.01
  -3   0 -17    1.61    1.38
   3   0 -17    4.01    1.92
   0   3  17    4.18    1.60
   0  -3  17    6.91    2.04
   3   0  17    5.29    1.88
   0  -3  17    5.17    1.15
  -3   0  17    3.42    1.19
  -3   0  17    3.21    1.66
   3  -2 -17   10.85    2.34
   2   3 -17   10.59    2.05
  -2  -3 -17   11.51    2.42
  -3   2 -17   10.27    2.07
   3  -2  17   10.75    1.56
   3  -2  17   11.78    1.87
  -2  -3  17   15.17    2.42
  -3   2  17   13.33    1.80
   4   3 -17   10.30    2.20
  -4  -3 -17    7.31    2.57
   3  -4 -17   12.54    2.39
  -3   4 -17   10.10    2.10
   3  -4  17   11.07    1.94
  -3   4  17   10.36    1.84
   4   3  17   11.77    2.19
   3  -4  17    9.98    1.60
  -4  -3  17   10.00    2.87
   4   1 -17   34.11    3.55
   1  -4 -17   44.35    3.95
  -1   4 -17   36.06    3.25
   1  -4  17   32.85    2.31
   4   1  17   37.49    3.34
  -1   4  17   37.21    3.74
   1  -4  17   35.50    3.06
  -4  -1  17   34.49    3.03
  -1  -4 -17    6.16    2.37
   4  -1 -17    5.07    2.08
  -4   1 -17    6.89    2.21
   1   4 -17    5.21    2.11
  -1  -4  17    4.89    2.10
  -4   1  17    9.84    1.33
   1   4  17    5.16    1.84
   4  -1  17    4.42    2.01
  -4   1  17    7.04    1.95
   3   4 -17    8.63    2.19
  -3  -4 -17    9.86    2.39
  -4   3 -17    8.49    1.93
   4  -3 -17    9.12    2.23
   4  -3  17    9.45    1.94
   4  -3  17   12.23    2.07
  -4   3  17    7.30    1.59
  -3  -4  17   10.54    2.21
   3   4  17   10.00    2.13
  -5  -4 -17   12.80    2.69
   4  -5 -17   10.36    2.42
   5   4 -17    9.77    2.32
   4  -5  17   12.90    1.96
  -5  -4  17   10.01    3.02
  -4   5  17    7.89    1.77
   4  -5  17    9.34    2.14
   5   4  17    9.07    2.09
   2  -5 -17   12.42    2.51
   5   2 -17   17.42    2.68
  -5  -2 -17   19.11    2.82
   2  -5  17   16.18    2.54
   5   2  17   13.59    2.28
  -5  -2  17   16.36    2.79
   2  -5  17   13.56    1.72
  -2   5  17   13.87    2.35
   0   5 -17   10.95    2.36
  -5   0 -17    8.62    2.99
   5   0 -17    9.21    1.99
   0  -5 -17   10.15    2.42
   5   0  17    9.50    2.06
  -5   0  17   11.09    2.16
   0  -5  17   10.64    2.21
   0   5  17    9.04    1.81
  -2  -5 -17   30.13    3.55
   5  -2 -17   30.11    3.35
   2   5 -17   31.10    3.37
  -5   2 -17   37.31    3.29
  -2  -5  17   34.24    3.38
   5  -2  17   34.02    3.20
   2   5  17   30.94    3.19
  -5   2  17   35.42    2.91
  -4  -5 -17    3.29    2.03
  -5   4 -17    0.97    1.43
   5  -4 -17    5.61    1.80
   4   5 -17    2.15    1.83
  -5   4  17    3.08    1.55
   4   5  17    2.13    1.62
   5  -4  17    3.47    1.58
  -4  -5  17    1.65    1.89
   5  -6 -17   11.70    2.12
  -5   6 -17    8.57    3.12
  -5   6  17   12.92    2.16
   5  -6  17   14.04    1.92
  -6  -3 -17    2.17    2.17
   3  -6 -17    6.02    2.27
   3  -6  17    6.84    2.30
  -6  -3  17    0.67    1.99
  -3   6  17    4.04    1.83
   1  -6 -17    4.66    1.77
   6   1 -17    4.84    2.12
  -1   6 -17    4.91    2.30
  -6  -1 -17   10.01    2.74
  -6  -1  17    5.59    2.36
   1  -6  17    9.05    2.68
   6   1  17    6.44    2.19
  -1   6  17    4.85    1.99
   1   6 -17   13.43    2.38
  -1  -6 -17   13.64    2.71
  -6   1 -17    9.84    2.44
   6  -1 -17    8.05    2.06
   1   6  17   12.88    2.37
   6  -1  17   12.84    2.29
  -1  -6  17    9.97    2.27
  -6   1  17   12.47    2.23
   6  -3 -17   14.86    2.42
   3   6 -17   21.91    3.02
   6  -3  17    9.55    2.03
  -3  -6  17   11.16    2.34
  -6   5 -17    4.96    1.69
   6  -5 -17    5.83    2.11
   6  -5 -17    3.58    1.76
   7   2 -17    5.36    2.36
   2  -7 -17    0.54    1.74
  -7  -2  17    1.14    1.98
  -2   7  17    2.03    1.67
   7   2  17    2.01    1.43
   2  -7  17    0.52    1.78
   0  -7 -17    8.10    2.71
   0   7 -17    8.41    1.98
   0   7  17    2.65    1.82
  -7   0  17    9.10    2.05
   7   0  17    3.83    1.87
   7  -2 -17    7.51    2.68
   2   7 -17    5.73    2.49
  -2  -7 -17    6.30    2.58
  -7   2  17    7.50    2.65
  -2  -7  17    8.59    2.80
   2   7  17    5.45    2.07
   7  -2  17    4.50    1.96
   0   0  18   58.62    3.44
  -1   1 -18   16.73    2.65
   1  -1 -18   14.02    2.54
  -1  -1 -18   15.67    3.01
   1   1 -18   19.09    2.72
  -1  -1  18   18.68    2.11
   1  -1  18   18.26    2.12
  -1   1  18   16.96    2.08
  -1  -1  18   23.80    1.98
   1   1  18   16.70    2.26
   0  -2 -18   14.95    2.59
   2   0 -18   16.72    2.71
   0   2 -18   17.19    3.03
   0   2  18   19.08    2.24
  -2   0  18   13.72    1.92
   0  -2  18   19.45    2.20
   0  -2  18   18.30    1.85
   2   0  18   14.11    2.10
  -2   0  18   20.64    1.89
   2  -2 -18   13.26    2.49
   2   2 -18   11.36    2.39
  -2  -2 -18    9.96    2.34
  -2   2  18   11.70    1.82
  -2  -2  18    8.46    1.98
   2  -2  18   10.32    1.83
   2  -2  18   12.34    1.70
   2   2  18   10.95    1.97
  -3  -1 -18   21.80    2.75
   1  -3 -18   17.86    2.82
  -1   3 -18   15.48    2.48
   3   1 -18   16.11    2.73
   1  -3  18   20.91    2.35
  -3  -1  18   16.18    2.31
   1  -3  18   18.92    1.93
   3   1  18   15.49    2.30
   3  -1 -18   89.38    5.53
   1   3 -18   92.84    5.47
  -1  -3 -18   85.36    5.50
  -1  -3  18   89.98    4.71
   3  -3 -18   11.34    2.43
  -3  -3 -18    5.43    2.19
  -3   3 -18    9.29    2.04
   3   3 -18    5.54    2.32
   3  -3  18   13.69    1.99
   3  -3  18   13.56    1.92
  -3   3  18   12.84    1.97
  -3  -3  18    9.31    2.07
   3   3  18   13.07    2.24
  -4  -2 -18   44.52    4.07
   4   2 -18   37.89    3.81
   2  -4 -18   34.63    3.49
  -2   4 -18   42.35    3.62
   2  -4  18   30.82    2.45
   2  -4  18   42.65    3.38
   4   2  18   33.62    3.32
  -4  -2  18   34.90    3.36
  -2   4  18   40.56    3.33
   0  -4 -18   18.41    2.85
   4   0 -18   14.74    2.64
  -4   0 -18   19.29    2.77
   0   4 -18   18.06    2.64
  -4   0  18   17.40    2.51
   4   0  18   19.83    2.56
   0   4  18   19.38    2.52
   0  -4  18   21.92    2.53
  -2  -4 -18   11.20    2.53
   4  -2 -18   11.10    2.33
  -4   2 -18   10.87    2.31
   2   4 -18   13.80    2.48
   4  -2  18   11.62    2.15
  -2  -4  18   15.10    2.39
   2   4  18    7.68    1.92
  -4   2  18   11.52    1.66
   4  -4 -18    5.36    2.31
  -4  -4 -18   10.28    2.48
   4   4 -18   10.26    2.35
   4  -4  18    4.11    2.27
   4   4  18    5.59    2.04
  -4  -4  18    6.93    2.61
   4  -4  18    7.97    1.56
  -4   4  18    7.71    1.63
   3  -5 -18    9.03    2.23
  -5  -3 -18   11.38    2.48
  -3   5  18   13.73    2.27
   5   3  18   14.89    2.46
   3  -5  18    9.14    2.21
  -5  -3  18   12.53    2.48
   3  -5  18   12.76    2.43
  -1   5 -18   12.97    2.17
   5   1 -18    5.98    2.37
  -5  -1 -18   11.56    2.44
   1  -5 -18   13.96    2.34
  -5  -1  18   14.22    2.44
   1  -5  18   14.23    2.49
  -1   5  18   16.25    2.39
   5   1  18   10.86    2.23
   5  -1 -18    4.55    1.63
  -1  -5 -18    5.97    2.47
  -5   1 -18    8.97    2.14
   1   5 -18    8.28    2.68
   1   5  18    8.05    1.93
   5  -1  18    5.77    2.01
  -1  -5  18    7.18    2.44
  -5   1  18   10.58    2.08
   3   5 -18   17.47    2.73
   5  -3 -18   15.37    2.53
  -3  -5 -18   18.49    3.33
   3   5  18   14.72    2.47
   5  -3  18   17.85    2.43
  -3  -5  18   15.67    2.69
   5  -5 -18   29.78    3.06
  -5   5  18   42.26    3.27
   5  -5  18   34.91    3.79
   5  -5  18   34.24    3.06
   4  -6  18    8.72    3.03
   2  -6 -18    6.62    2.52
  -6  -2 -18    8.15    2.96
   6   2 -18    7.55    2.56
   2  -6  18   11.97    2.52
   6   2  18   10.23    1.93
  -6  -2  18   14.42    2.86
  -2   6  18    9.19    2.00
   6   0 -18    5.18    2.14
  -6   0 -18    7.56    2.67
   0   6 -18    8.45    2.50
   0  -6  18    9.12    2.78
  -6   0  18    4.06    2.11
   2   6 -18   18.68    3.45
  -2  -6 -18   28.15    3.57
   6  -2  18   31.26    3.21
   2   6  18   32.20    3.37
  -7  -1  18   38.39    3.48
   7  -1 -18    7.15    2.46
   1   7 -18   10.70    2.19
  -7   1  18    6.78    2.85
   0  -1 -19   12.70    2.55
  -1   0 -19   14.93    2.39
   0   1 -19   11.93    2.52
   1   0 -19   15.40    2.64
   0   1  19   12.57    1.97
   1   0  19   16.64    2.09
   0  -1  19   16.99    1.88
  -1   0  19   14.74    1.78
   1  -2 -19   17.14    2.83
   2   1 -19   15.84    2.75
  -2  -1 -19   17.19    2.77
  -1   2 -19   19.79    2.78
  -1   2  19   19.57    2.21
   1  -2  19   16.07    1.95
   2   1  19   13.38    2.23
  -2  -1  19   15.39    2.24
   2  -1 -19   23.08    3.11
  -1  -2 -19   26.82    3.31
  -2   1 -19   23.25    3.06
   1   2 -19   20.87    3.03
   2  -1  19   21.38    2.51
  -1  -2  19   20.04    2.46
   1   2  19   24.04    2.62
  -2   1  19   23.56    2.15
   2  -3 -19   12.99    2.65
   3   2 -19   14.26    2.55
  -3  -2 -19   19.67    2.97
  -2   3 -19   13.43    2.60
  -3  -2  19   16.21    2.59
   2  -3  19   14.56    2.13
   2  -3  19   16.63    2.00
   3   2  19   12.96    2.25
  -2   3  19   19.14    2.37
  -3   0 -19    9.03    2.28
   0   3 -19    9.97    2.83
   3   0 -19    6.04    2.14
   0  -3 -19    8.38    2.61
   3   0  19    5.30    1.95
   0   3  19   11.21    1.98
   2   3 -19   22.51    2.97
   3  -2 -19   21.19    3.11
  -3   2 -19   19.27    2.80
  -2  -3 -19   19.81    3.05
   2   3  19   15.92    2.42
  -2  -3  19   21.17    2.65
   3  -2  19   22.81    2.48
   3  -4 -19    4.02    1.96
  -3   4 -19    7.79    2.95
  -4  -3 -19    6.04    2.80
  -4  -3  19    7.09    2.50
   3  -4  19   14.05    1.82
  -3   4  19    9.07    1.61
   3  -4  19   14.69    2.55
  -1   4 -19   10.42    2.22
   4   1 -19   11.66    2.46
  -4  -1 -19   17.13    2.82
   1  -4 -19   11.92    2.55
  -1   4  19   12.20    2.04
  -4  -1  19   10.80    2.32
   1  -4  19   13.30    2.10
   4   1  19   15.88    2.38
   1   4 -19   12.23    2.42
  -1  -4 -19    7.01    2.44
   4  -1 -19    5.37    2.24
  -4   1 -19   12.11    2.58
   4  -1  19   11.60    2.16
  -1  -4  19   12.15    2.33
   1   4  19    9.62    2.03
  -4   3 -19    3.85    2.47
   4  -3 -19   10.66    2.31
  -3  -4  19   11.63    3.03
   4  -3  19   13.06    2.00
  -4   3  19   11.19    2.19
  -4   5  19   18.86    2.39
   5   2 -19    8.65    2.67
   2  -5 -19    9.77    2.37
  -2   5 -19   10.81    2.86
   2  -5  19   11.73    2.39
  -5  -2  19    6.09    2.48
   5   2  19   10.15    2.05
  -5   0 -19   19.39    2.78
   0   5 -19   14.57    2.65
   0  -5  19   10.16    2.10
   5   0  19   11.17    2.21
   0   5  19   12.02    2.15
  -5   0  19   13.89    2.61
   2   5 -19    6.30    2.97
  -2  -5 -19   10.67    2.62
   5  -2 -19    5.05    2.37
  -2  -5  19   20.87    4.11
   2   5  19   14.26    2.43
  -6  -1 -19   19.59    2.86
  -1   6 -19    4.57    3.02
   1  -6 -19   14.88    2.96
  -6  -1  19   20.08    2.84
  -1   6  19   13.74    2.77
   1  -6  19   15.15    2.50
   1   6 -19    9.79    2.17
   6  -1 -19    6.52    2.23
   6  -1  19    9.97    2.01
  -1  -6  19    7.55    2.66
   1   6  19    9.96    2.06
   0   0 -20   12.80    2.55
   0   0  20   10.80    1.95
   1   1 -20    7.10    2.49
  -1   1 -20    6.56    2.49
   1  -1 -20    9.33    2.16
  -1  -1 -20    8.83    2.86
   1   1  20   10.12    1.90
  -1   1  20    9.44    1.56
   1  -1  20    9.91    1.72
   2   0 -20   16.31    2.62
  -2   0 -20   20.71    3.01
   0   2 -20   19.75    3.02
   0  -2 -20   17.25    2.97
   0   2  20   14.98    2.21
   2   0  20   11.87    1.92
  -2   2 -20   10.61    2.64
   2   2 -20    7.05    2.43
  -2  -2 -20    7.91    2.71
   2  -2 -20    8.36    2.77
  -2   2  20   10.46    1.77
  -2  -2  20    9.39    2.95
   2  -2  20   11.61    1.77
   2   2  20   11.33    1.98
   1  -3 -20    4.32    1.95
  -3  -1 -20    7.20    2.65
  -1   3 -20    3.50    2.10
   3   1 -20    4.89    2.19
  -1   3  20    6.89    1.73
   3   1  20    4.35    1.56
  -3   1 -20    9.70    2.40
   3  -1 -20    8.70    2.70
  -1  -3 -20    6.67    2.53
   1   3 -20   10.11    2.32
   1   3  20    9.85    1.94
   3  -1  20   10.89    1.98
  -1  -3  20   11.30    2.52
   3  -3 -20    4.15    2.09
  -3   3 -20   11.61    2.73
   3   3 -20   11.65    2.48
  -3  -3 -20   10.15    2.50
   3  -3  20   14.23    1.95
  -3  -3  20   12.72    3.00
   3   3  20    8.08    1.92
  -3   3  20   12.70    1.82
  -2   4 -20    4.95    2.33
  -4  -2 -20    5.71    2.57
   4   2 -20    5.28    2.03
   2  -4 -20    4.47    2.25
  -4  -2  20   -1.60    2.31
   4   2  20    9.81    1.98
  -4   0 -20   16.69    2.71
   4   0 -20   12.31    2.56
   0   4 -20   18.99    2.85
   0  -4 -20   18.28    3.03
   0  -4  20   14.58    2.77
   4   0  20   16.22    3.90
   0   4  20   13.40    2.24
  -4   2 -20   10.05    2.49
   4  -2 -20    4.57    2.26
  -2  -4 -20    4.35    2.08
   2   4 -20    5.99    2.24
  -2  -4  20    5.58    2.70
   2   4  20    2.28    1.41
  -1   5 -20    0.68    1.89
   1  -5 -20    3.12    2.14
  -5  -1 -20    3.14    2.30
   5   1 -20    0.73    1.49
   5   1  20    3.18    2.66
   1  -5  20   -0.30    2.17
  -1   5  20    5.10    1.88
  -5   1 -20    4.69    2.51
   5  -1 -20    4.05    1.96
   1   5 -20    5.66    2.13
   5  -1  20   11.88    2.02
   1   5  20    7.97    1.84
  -1  -5  20    7.76    2.58
  -1   0 -21    9.64    2.32
   0   1 -21    7.21    2.72
   1   0  21   12.67    1.81
   0   1  21   11.07    1.86
   1  -2 -21   53.14    4.51
  -2  -1 -21   30.43    4.24
   2   1 -21   35.65    3.95
   2   1  21   51.51    3.72
  -1   2  21   42.05    3.21
  -1  -2 -21    7.57    2.77
   2  -1 -21    7.66    2.57
   1   2 -21    4.50    1.84
   1   2  21   10.58    1.80
   2  -1  21    8.91    1.66
   2  -3 -21    7.87    2.60
   3   2 -21   10.23    2.50
  -3  -2 -21   11.57    2.53
  -2   3 -21   10.28    2.39
   3   2  21   12.75    2.08
   3   0 -21    9.85    2.42
   0   3 -21   10.73    2.48
   0  -3 -21    8.62    2.83
  -3   0 -21    3.80    2.20
   3   0  21    9.63    2.34
   3  -2 -21    3.66    2.14
  -2  -3 -21    4.69    2.39
   2   3 -21    9.75    2.24
  -3   2 -21    6.14    2.75
   3  -2  21    4.62    1.86
   2   3  21    7.28    1.64
  -1   4 -21   14.76    2.56
  -4  -1 -21   10.01    2.54
  -1   4  21   17.09    2.31
  -4   1 -21    4.97    2.72
   4  -1  21    9.95    1.98
   0   0 -22   25.77    3.37
  -1   1 -22    6.17    2.51
   1   1  22   11.30    1.75
   2   0  22   14.28    1.86
   0   2  22   10.32    1.73
   0   0   0    0.00    0.00
;
_shelx_hkl_checksum              5918
loop_
_space_group_symop_operation_xyz
'x, y, z'
'-x, -y, z'
'-y, x, z'
'y, -x, z'
'x+1/2, y+1/2, z+1/2'
'-x+1/2, -y+1/2, z+1/2'
'-y+1/2, x+1/2, z+1/2'
'y+1/2, -x+1/2, z+1/2'
'-x, -y, -z'
'x, y, -z'
'y, -x, -z'
'-y, x, -z'
'-x+1/2, -y+1/2, -z+1/2'
'x+1/2, y+1/2, -z+1/2'
'y+1/2, -x+1/2, -z+1/2'
'-y+1/2, x+1/2, -z+1/2'
loop_
_atom_site_label
_atom_site_type_symbol
_atom_site_fract_x
_atom_site_fract_y
_atom_site_fract_z
_atom_site_U_iso_or_equiv
_atom_site_adp_type
_atom_site_occupancy
_atom_site_site_symmetry_order
_atom_site_calc_flag
_atom_site_refinement_flags_posn
_atom_site_refinement_flags_adp
_atom_site_refinement_flags_occupancy
Eu1 Eu 0.000000 0.000000 0.000000 0.01249(5) Uani 1 8 d S T P
Be1 Be 0.2255(2) 0.0898(2) 0.23377(11) 0.0075(2) Uani 1 1 d . . .
Be2 Be 0.1944(2) 0.1355(2) 0.41455(11) 0.0075(2) Uani 1 1 d . . .
Be3 Be 0.000000 0.500000 0.09270(15) 0.0063(3) Uani 1 2 d S T P
N1 N 0.11687(12) 0.29865(12) -0.16767(7) 0.00469(13) Uani 1 1 d . . .
N2 N 0.20486(17) 0.56044(18) 0.000000 0.00444(18) Uani 1 2 d S T P
N3 N 0.000000 0.000000 0.32934(14) 0.0051(3) Uani 1 4 d S T P
loop_
_atom_site_aniso_label
_atom_site_aniso_U_11
_atom_site_aniso_U_22
_atom_site_aniso_U_33
_atom_site_aniso_U_23
_atom_site_aniso_U_13
_atom_site_aniso_U_12
Eu1 0.01386(6) 0.01386(6) 0.00975(7) 0.000 0.000 0.000
Be1 0.0088(5) 0.0060(5) 0.0078(5) -0.0014(4) -0.0007(4) 0.0002(4)
Be2 0.0073(5) 0.0081(5) 0.0071(5) 0.0003(4) 0.0017(4) 0.0006(4)
Be3 0.0056(7) 0.0065(7) 0.0067(7) 0.000 0.000 0.0006(6)
N1 0.0038(3) 0.0044(3) 0.0059(3) -0.0010(2) -0.0002(2) -0.0002(2)
N2 0.0039(4) 0.0053(4) 0.0042(4) 0.000 0.000 -0.0002(3)
N3 0.0051(4) 0.0051(4) 0.0052(6) 0.000 0.000 0.000
loop_
_atom_type_symbol
_atom_type_description
_atom_type_scat_dispersion_real
_atom_type_scat_dispersion_imag
_atom_type_scat_source
Be Be 0.0005 0.0002 'International Tables Vol C Tables 4.2.6.8 and 6.1.1.4'
N N 0.0061 0.0033 'International Tables Vol C Tables 4.2.6.8 and 6.1.1.4'
Eu Eu -0.1578 3.6682 'International Tables Vol C Tables 4.2.6.8 and 6.1.1.4'
loop_
_geom_angle_atom_site_label_1
_geom_angle_atom_site_label_2
_geom_angle_atom_site_label_3
_geom_angle
_geom_angle_site_symmetry_1
_geom_angle_site_symmetry_3
N1 Eu1 N1 88.40(3) . 10
N1 Eu1 N1 91.60(3) . 2
N1 Eu1 N1 180.00(2) 10 2
N1 Eu1 N1 119.082(19) . 11
N1 Eu1 N1 60.918(19) 10 11
N1 Eu1 N1 119.082(19) 2 11
N1 Eu1 N1 60.918(19) . 3
N1 Eu1 N1 119.082(19) 10 3
N1 Eu1 N1 60.918(19) 2 3
N1 Eu1 N1 180.00(2) 11 3
N1 Eu1 N1 119.082(19) . 12
N1 Eu1 N1 60.918(19) 10 12
N1 Eu1 N1 119.082(19) 2 12
N1 Eu1 N1 91.60(3) 11 12
N1 Eu1 N1 88.40(3) 3 12
N1 Eu1 N1 60.918(19) . 4
N1 Eu1 N1 119.082(19) 10 4
N1 Eu1 N1 60.918(19) 2 4
N1 Eu1 N1 88.40(3) 11 4
N1 Eu1 N1 91.60(3) 3 4
N1 Eu1 N1 180.00(2) 12 4
N1 Eu1 N1 180.0 . 9
N1 Eu1 N1 91.60(3) 10 9
N1 Eu1 N1 88.40(3) 2 9
N1 Eu1 N1 60.918(19) 11 9
N1 Eu1 N1 119.082(19) 3 9
N1 Eu1 N1 60.918(19) 12 9
N1 Eu1 N1 119.082(19) 4 9
N1 Eu1 N2 121.25(2) . 11_455
N1 Eu1 N2 121.25(2) 10 11_455
N1 Eu1 N2 58.75(2) 2 11_455
N1 Eu1 N2 119.65(2) 11 11_455
N1 Eu1 N2 60.35(2) 3 11_455
N1 Eu1 N2 60.35(2) 12 11_455
N1 Eu1 N2 119.65(2) 4 11_455
N1 Eu1 N2 58.75(2) 9 11_455
N1 Eu1 N2 58.75(2) . 3_655
N1 Eu1 N2 58.75(2) 10 3_655
N1 Eu1 N2 121.25(2) 2 3_655
N1 Eu1 N2 60.35(2) 11 3_655
N1 Eu1 N2 119.65(2) 3 3_655
N1 Eu1 N2 119.65(2) 12 3_655
N1 Eu1 N2 60.35(2) 4 3_655
N1 Eu1 N2 121.25(2) 9 3_655
N2 Eu1 N2 180.0 11_455 3_655
N1 Eu1 N2 60.35(2) . 9_565
N1 Eu1 N2 60.35(2) 10 9_565
N1 Eu1 N2 119.65(2) 2 9_565
N1 Eu1 N2 121.25(2) 11 9_565
N1 Eu1 N2 58.75(2) 3 9_565
N1 Eu1 N2 58.75(2) 12 9_565
N1 Eu1 N2 121.25(2) 4 9_565
N1 Eu1 N2 119.65(2) 9 9_565
N2 Eu1 N2 90.0 11_455 9_565
N2 Eu1 N2 90.0 3_655 9_565
N1 Eu1 N2 119.65(2) . 1_545
N1 Eu1 N2 119.65(2) 10 1_545
N1 Eu1 N2 60.35(2) 2 1_545
N1 Eu1 N2 58.75(2) 11 1_545
N1 Eu1 N2 121.25(2) 3 1_545
N1 Eu1 N2 121.25(2) 12 1_545
N1 Eu1 N2 58.75(2) 4 1_545
N1 Eu1 N2 60.35(2) 9 1_545
N2 Eu1 N2 90.0 11_455 1_545
N2 Eu1 N2 90.0 3_655 1_545
N2 Eu1 N2 180.0 9_565 1_545
N1 Be1 N1 122.62(10) 11 10
N1 Be1 N1 120.61(10) 11 6
N1 Be1 N1 103.38(8) 10 6
N1 Be1 N3 105.17(8) 11 .
N1 Be1 N3 101.63(7) 10 .
N1 Be1 N3 99.32(8) 6 .
N1 Be1 Be1 147.72(12) 11 13
N1 Be1 Be1 51.78(6) 10 13
N1 Be1 Be1 51.61(6) 6 13
N3 Be1 Be1 107.04(10) . 13
N1 Be1 Be2 128.28(9) 11 .
N1 Be1 Be2 108.30(8) 10 .
N1 Be1 Be2 47.04(6) 6 .
N3 Be1 Be2 52.30(6) . .
Be1 Be1 Be2 72.70(8) 13 .
N1 Be1 Be1 50.19(7) 11 4
N1 Be1 Be1 124.09(6) 10 4
N1 Be1 Be1 128.23(7) 6 4
N3 Be1 Be1 55.22(3) . 4
Be1 Be1 Be1 162.05(10) 13 4
Be2 Be1 Be1 94.99(5) . 4
N1 Be1 Be1 126.32(6) 11 3
N1 Be1 Be1 46.63(7) 10 3
N1 Be1 Be1 112.21(8) 6 3
N3 Be1 Be1 55.22(3) . 3
Be1 Be1 Be1 75.64(11) 13 3
Be2 Be1 Be1 82.13(5) . 3
Be1 Be1 Be1 90.0 4 3
N1 Be1 Be3 43.71(4) 11 3_655
N1 Be1 Be3 99.06(7) 10 3_655
N1 Be1 Be3 98.23(7) 6 3_655
N3 Be1 Be3 148.86(7) . 3_655
Be1 Be1 Be3 104.03(9) 13 3_655
Be2 Be1 Be3 139.36(8) . 3_655
Be1 Be1 Be3 93.83(6) 4 3_655
Be1 Be1 Be3 137.48(5) 3 3_655
N1 Be1 Be2 99.79(8) 11 13
N1 Be1 Be2 38.53(5) 10 13
N1 Be1 Be2 93.96(7) 6 13
N3 Be1 Be2 140.12(7) . 13
Be1 Be1 Be2 54.94(7) 13 13
Be2 Be1 Be2 127.64(6) . 13
Be1 Be1 Be2 135.60(4) 4 13
Be1 Be1 Be2 84.94(7) 3 13
Be3 Be1 Be2 63.29(5) 3_655 13
N1 Be1 Be1 38.36(5) 11 16_545
N1 Be1 Be1 160.82(11) 10 16_545
N1 Be1 Be1 90.24(6) 6 16_545
N3 Be1 Be1 89.17(8) . 16_545
Be1 Be1 Be1 139.85(9) 13 16_545
Be2 Be1 Be1 90.85(8) . 16_545
Be1 Be1 Be1 50.68(8) 4 16_545
Be1 Be1 Be1 139.44(8) 3 16_545
Be3 Be1 Be1 65.21(4) 3_655 16_545
Be2 Be1 Be1 128.40(7) 13 16_545
N1 Be1 Be1 100.52(6) 11 15
N1 Be1 Be1 94.41(8) 10 15
N1 Be1 Be1 35.87(5) 6 15
N3 Be1 Be1 135.11(10) . 15
Be1 Be1 Be1 53.67(9) 13 15
Be2 Be1 Be1 82.91(8) . 15
Be1 Be1 Be1 139.44(8) 4 15
Be1 Be1 Be1 129.32(8) 3 15
Be3 Be1 Be1 65.21(4) 3_655 15
Be2 Be1 Be1 67.33(7) 13 15
Be1 Be1 Be1 88.775(17) 16_545 15
N1 Be2 N2 126.31(10) 6 15_455
N1 Be2 N2 105.43(9) 6 13
N2 Be2 N2 105.91(8) 15_455 13
N1 Be2 N3 107.33(9) 6 .
N2 Be2 N3 106.16(8) 15_455 .
N2 Be2 N3 103.63(8) 13 .
N1 Be2 Be2 127.42(6) 6 10_556
N2 Be2 Be2 52.67(5) 15_455 10_556
N2 Be2 Be2 54.19(5) 13 10_556
N3 Be2 Be2 123.78(6) . 10_556
N1 Be2 Be3 52.88(6) 6 13
N2 Be2 Be3 137.55(9) 15_455 13
N2 Be2 Be3 52.61(6) 13 13
N3 Be2 Be3 114.08(7) . 13
Be2 Be2 Be3 92.31(6) 10_556 13
N1 Be2 Be2 112.92(9) 6 4
N2 Be2 Be2 120.66(6) 15_455 4
N2 Be2 Be2 49.86(7) 13 4
N3 Be2 Be2 54.01(3) . 4
Be2 Be2 Be2 90.0 10_556 4
Be3 Be2 Be2 76.23(8) 13 4
N1 Be2 Be2 133.81(8) 6 3
N2 Be2 Be2 52.40(7) 15_455 3
N2 Be2 Be2 119.47(6) 13 3
N3 Be2 Be2 54.01(3) . 3
Be2 Be2 Be2 90.0 10_556 3
Be3 Be2 Be2 166.03(8) 13 3
Be2 Be2 Be2 90.0 4 3
N1 Be2 Be1 50.72(6) 6 .
N2 Be2 Be1 136.62(9) 15_455 .
N2 Be2 Be1 116.54(8) 13 .
N3 Be2 Be1 56.63(7) . .
Be2 Be2 Be1 170.66(5) 10_556 .
Be3 Be2 Be1 79.77(8) 13 .
Be2 Be2 Be1 83.35(5) 4 .
Be2 Be2 Be1 96.52(5) 3 .
N1 Be2 Be1 41.09(5) 6 13
N2 Be2 Be1 95.90(7) 15_455 13
N2 Be2 Be1 146.07(8) 13 13
N3 Be2 Be1 94.58(7) . 13
Be2 Be2 Be1 133.95(4) 10_556 13
Be3 Be2 Be1 93.89(6) 13 13
Be2 Be2 Be1 135.71(4) 4 13
Be2 Be2 Be1 94.41(7) 3 13
Be1 Be2 Be1 52.36(6) . 13
N1 Be2 Be3 95.85(7) 6 15_455
N2 Be2 Be3 40.73(5) 15_455 15_455
N2 Be2 Be3 146.05(8) 13 15_455
N3 Be2 Be3 94.61(6) . 15_455
Be2 Be2 Be3 91.87(5) 10_556 15_455
Be3 Be2 Be3 141.75(6) 13 15_455
Be2 Be2 Be3 141.77(6) 4 15_455
Be2 Be2 Be3 51.83(6) 3 15_455
Be1 Be2 Be3 97.41(7) . 15_455
Be1 Be2 Be3 57.49(5) 13 15_455
N1 Be2 Eu1 62.96(5) 6 5
N2 Be2 Eu1 71.12(6) 15_455 5
N2 Be2 Eu1 96.47(6) 13 5
N3 Be2 Eu1 159.57(7) . 5
Be2 Be2 Eu1 71.52(2) 10_556 5
Be3 Be2 Eu1 75.55(4) 13 5
Be2 Be2 Eu1 145.35(6) 4 5
Be2 Be2 Eu1 118.17(7) 3 5
Be1 Be2 Eu1 110.75(6) . 5
Be1 Be2 Eu1 66.10(4) 13 5
Be3 Be2 Eu1 69.87(3) 15_455 5
N1 Be3 N1 118.16(12) 9_565 10
N1 Be3 N2 99.48(4) 9_565 9_565
N1 Be3 N2 118.74(5) 10 9_565
N1 Be3 N2 118.74(5) 9_565 .
N1 Be3 N2 99.48(4) 10 .
N2 Be3 N2 102.17(10) 9_565 .
N1 Be3 Be2 47.70(4) 9_565 14_455
N1 Be3 Be2 135.61(8) 10 14_455
N2 Be3 Be2 51.83(5) 9_565 14_455
N2 Be3 Be2 124.56(8) . 14_455
N1 Be3 Be2 135.61(8) 9_565 13
N1 Be3 Be2 47.70(4) 10 13
N2 Be3 Be2 124.56(8) 9_565 13
N2 Be3 Be2 51.83(5) . 13
Be2 Be3 Be2 175.37(12) 14_455 13
N1 Be3 Be3 120.92(6) 9_565 9_565
N1 Be3 Be3 120.92(6) 10 9_565
N2 Be3 Be3 51.08(5) 9_565 9_565
N2 Be3 Be3 51.08(5) . 9_565
Be2 Be3 Be3 87.69(6) 14_455 9_565
Be2 Be3 Be3 87.69(6) 13 9_565
N1 Be3 Be1 39.80(5) 9_565 4_565
N1 Be3 Be1 94.43(8) 10 4_565
N2 Be3 Be1 138.51(5) 9_565 4_565
N2 Be3 Be1 95.50(4) . 4_565
Be2 Be3 Be1 87.28(6) 14_455 4_565
Be2 Be3 Be1 95.84(6) 13 4_565
Be3 Be3 Be1 132.26(4) 9_565 4_565
N1 Be3 Be1 94.43(8) 9_565 3
N1 Be3 Be1 39.80(5) 10 3
N2 Be3 Be1 95.50(4) 9_565 3
N2 Be3 Be1 138.51(5) . 3
Be2 Be3 Be1 95.84(6) 14_455 3
Be2 Be3 Be1 87.28(6) 13 3
Be3 Be3 Be1 132.26(4) 9_565 3
Be1 Be3 Be1 95.48(9) 4_565 3
N1 Be3 Be2 89.19(4) 9_565 15_455
N1 Be3 Be2 92.74(4) 10 15_455
N2 Be3 Be2 38.54(4) 9_565 15_455
N2 Be3 Be2 137.83(9) . 15_455
Be2 Be3 Be2 51.93(6) 14_455 15_455
Be2 Be3 Be2 127.88(6) 13 15_455
Be3 Be3 Be2 88.13(5) 9_565 15_455
Be1 Be3 Be2 123.76(6) 4_565 15_455
Be1 Be3 Be2 59.22(4) 3 15_455
N1 Be3 Be2 92.74(4) 9_565 16
N1 Be3 Be2 89.19(4) 10 16
N2 Be3 Be2 137.83(9) 9_565 16
N2 Be3 Be2 38.54(4) . 16
Be2 Be3 Be2 127.88(6) 14_455 16
Be2 Be3 Be2 51.93(6) 13 16
Be3 Be3 Be2 88.13(5) 9_565 16
Be1 Be3 Be2 59.22(4) 4_565 16
Be1 Be3 Be2 123.76(6) 3 16
Be2 Be3 Be2 176.26(10) 15_455 16
N1 Be3 Eu1 150.34(4) 9_565 .
N1 Be3 Eu1 57.73(3) 10 .
N2 Be3 Eu1 65.61(4) 9_565 .
N2 Be3 Eu1 90.19(5) . .
Be2 Be3 Eu1 111.69(4) 14_455 .
Be2 Be3 Eu1 66.68(4) 13 .
Be3 Be3 Eu1 70.97(3) 9_565 .
Be1 Be3 Eu1 152.16(6) 4_565 .
Be1 Be3 Eu1 63.53(3) 3 .
Be2 Be3 Eu1 62.92(3) 15_455 .
Be2 Be3 Eu1 115.71(4) 16 .
Be1 N1 Be2 171.87(9) 12 6_554
Be1 N1 Be1 83.18(10) 12 10
Be2 N1 Be1 100.39(8) 6_554 10
Be1 N1 Be1 105.77(7) 12 6_554
Be2 N1 Be1 82.23(8) 6_554 6_554
Be1 N1 Be1 76.61(8) 10 6_554
Be1 N1 Be3 96.49(7) 12 9_565
Be2 N1 Be3 79.43(7) 6_554 9_565
Be1 N1 Be3 175.94(8) 10 9_565
Be1 N1 Be3 107.33(7) 6_554 9_565
Be1 N1 Eu1 86.10(6) 12 .
Be2 N1 Eu1 86.96(6) 6_554 .
Be1 N1 Eu1 84.53(5) 10 .
Be1 N1 Eu1 156.12(6) 6_554 .
Be3 N1 Eu1 91.41(5) 9_565 .
Be2 N2 Be2 74.66(10) 16 7_554
Be2 N2 Be2 119.82(11) 16 6_554
Be2 N2 Be2 77.74(9) 7_554 6_554
Be2 N2 Be2 77.74(9) 16 13
Be2 N2 Be2 119.82(11) 7_554 13
Be2 N2 Be2 71.62(10) 6_554 13
Be2 N2 Be3 161.46(9) 16 9_565
Be2 N2 Be3 100.73(7) 7_554 9_565
Be2 N2 Be3 75.55(6) 6_554 9_565
Be2 N2 Be3 119.05(8) 13 9_565
Be2 N2 Be3 100.73(7) 16 .
Be2 N2 Be3 161.46(9) 7_554 .
Be2 N2 Be3 119.05(8) 6_554 .
Be2 N2 Be3 75.55(6) 13 .
Be3 N2 Be3 77.83(10) 9_565 .
Be2 N2 Eu1 78.13(6) 16 1_565
Be2 N2 Eu1 78.13(6) 7_554 1_565
Be2 N2 Eu1 144.13(5) 6_554 1_565
Be2 N2 Eu1 144.13(5) 13 1_565
Be3 N2 Eu1 83.36(4) 9_565 1_565
Be3 N2 Eu1 83.36(4) . 1_565
Be2 N3 Be2 71.99(6) . 3
Be2 N3 Be2 112.43(12) . 2
Be2 N3 Be2 71.99(6) 3 2
Be2 N3 Be2 71.99(6) . 4
Be2 N3 Be2 112.43(12) 3 4
Be2 N3 Be2 71.99(6) 2 4
Be2 N3 Be1 71.07(6) . .
Be2 N3 Be1 118.77(6) 3 .
Be2 N3 Be1 168.96(6) 2 .
Be2 N3 Be1 100.13(6) 4 .
Be2 N3 Be1 168.96(6) . 2
Be2 N3 Be1 100.13(6) 3 2
Be2 N3 Be1 71.07(6) 2 2
Be2 N3 Be1 118.77(6) 4 2
Be1 N3 Be1 107.57(11) . 2
Be2 N3 Be1 118.77(6) . 4
Be2 N3 Be1 168.96(6) 3 4
Be2 N3 Be1 100.13(6) 2 4
Be2 N3 Be1 71.07(6) 4 4
Be1 N3 Be1 69.57(6) . 4
Be1 N3 Be1 69.57(6) 2 4
Be2 N3 Be1 100.13(6) . 3
Be2 N3 Be1 71.07(6) 3 3
Be2 N3 Be1 118.77(6) 2 3
Be2 N3 Be1 168.96(6) 4 3
Be1 N3 Be1 69.57(6) . 3
Be1 N3 Be1 69.57(6) 2 3
Be1 N3 Be1 107.57(11) 4 3
loop_
_geom_bond_atom_site_label_1
_geom_bond_atom_site_label_2
_geom_bond_distance
_geom_bond_site_symmetry_2
Eu1 N1 2.9186(8) .
Eu1 N1 2.9186(8) 10
Eu1 N1 2.9186(8) 2
Eu1 N1 2.9186(8) 11
Eu1 N1 2.9186(8) 3
Eu1 N1 2.9186(8) 12
Eu1 N1 2.9186(8) 4
Eu1 N1 2.9186(8) 9
Eu1 N2 3.1639(12) 11_455
Eu1 N2 3.1639(12) 3_655
Eu1 N2 3.1639(12) 9_565
Eu1 N2 3.1639(12) 1_545
Be1 N1 1.6399(16) 11
Be1 N1 1.7329(16) 10
Be1 N1 1.7370(16) 6
Be1 N3 1.9630(17) .
Be1 Be1 2.151(3) 13
Be1 Be2 2.2233(19) .
Be1 Be1 2.2398(19) 4
Be1 Be1 2.2398(19) 3
Be1 Be3 2.5457(19) 3_655
Be1 Be2 2.593(2) 13
Be1 Be1 2.693(2) 16_545
Be1 Be1 2.693(2) 15
Be2 N1 1.6423(16) 6
Be2 N2 1.7100(16) 15_455
Be2 N2 1.7723(17) 13
Be2 N3 1.8597(16) .
Be2 Be2 2.074(3) 10_556
Be2 Be3 2.1829(14) 13
Be2 Be2 2.1858(19) 4
Be2 Be2 2.1858(19) 3
Be2 Be3 2.6967(14) 15_455
Be3 N1 1.7705(12) 9_565
Be3 N1 1.7705(12) 10
Be3 N2 1.7910(15) 9_565
Be3 N2 1.7910(15) .
Be3 Be3 2.250(4) 9_565
