#------------------------------------------------------------------------------
#$Date: 2019-10-29 23:31:37 +0200 (Tue, 29 Oct 2019) $
#$Revision: 220445 $
#$URL: file:///home/coder/svn-repositories/cod/cif/4/00/30/4003026.cif $
#------------------------------------------------------------------------------
#
# This file is available in the Crystallography Open Database (COD),
# http://www.crystallography.net/
#
# All data on this site have been placed in the public domain by the
# contributors.
#
data_4003026
loop_
_publ_author_name
'Elzer, Eugenia'
'Niklaus, Robin'
'Strobel, Philipp J.'
'Weiler, Volker'
'Schmidt, Peter J.'
'Schnick, Wolfgang'
_publ_section_title
;
 MBe20N14:Eu2+ (M = Sr, Ba): Highly Condensed Nitridoberyllates with
 Exceptional Highly Energetic Eu2+ Luminescence
;
_journal_issue                   9
_journal_name_full               'Chemistry of Materials'
_journal_page_first              3174
_journal_paper_doi               10.1021/acs.chemmater.8b05133
_journal_volume                  31
_journal_year                    2019
_chemical_formula_sum            'Ba Be20 N14'
_chemical_formula_weight         513.68
_space_group_crystal_system      tetragonal
_space_group_IT_number           87
_space_group_name_Hall           '-I 4'
_space_group_name_H-M_alt        'I 4/m'
_symmetry_space_group_name_Hall  '-I 4'
_symmetry_space_group_name_H-M   'I 4/m'
_audit_creation_method           SHELXL-2016/6
_cell_angle_alpha                90
_cell_angle_beta                 90
_cell_angle_gamma                90
_cell_formula_units_Z            2
_cell_length_a                   6.540(6)
_cell_length_b                   6.540(6)
_cell_length_c                   12.214(11)
_cell_measurement_reflns_used    6913
_cell_measurement_temperature    297(2)
_cell_measurement_theta_max      20.10
_cell_measurement_theta_min      4.407
_cell_volume                     522.4(8)
_computing_cell_refinement       'SAINT V8.34A (Bruker AXC Inc., 2013)'
_computing_data_collection       'Bruker Instrument Service v3.0.21'
_computing_data_reduction        'SAINT V8.34A (Bruker AXC Inc., 2013)'
_computing_molecular_graphics    'DIAMOND (Brandenburg, 2014)'
_computing_publication_material  SHELXL-2014
_computing_structure_refinement  'SHELXL-2016/6 (Sheldrick, 2016)'
_computing_structure_solution    'SHELXL-2016/6 (Sheldrick, 2016)'
_diffrn_ambient_temperature      297(2)
_diffrn_measured_fraction_theta_full 1.000
_diffrn_measured_fraction_theta_max 0.999
_diffrn_measurement_device_type  'D8 Venture'
_diffrn_measurement_method       'mix of omega and phi scans'
_diffrn_radiation_type           MoK\a
_diffrn_radiation_wavelength     0.71073
_diffrn_reflns_av_R_equivalents  0.0596
_diffrn_reflns_av_unetI/netI     0.0347
_diffrn_reflns_Laue_measured_fraction_full 1.000
_diffrn_reflns_Laue_measured_fraction_max 0.999
_diffrn_reflns_limit_h_max       11
_diffrn_reflns_limit_h_min       -9
_diffrn_reflns_limit_k_max       11
_diffrn_reflns_limit_k_min       -11
_diffrn_reflns_limit_l_max       20
_diffrn_reflns_limit_l_min       -18
_diffrn_reflns_number            4360
_diffrn_reflns_point_group_measured_fraction_full 1.000
_diffrn_reflns_point_group_measured_fraction_max 0.999
_diffrn_reflns_theta_full        25.242
_diffrn_reflns_theta_max         37.499
_diffrn_reflns_theta_min         3.336
_diffrn_source                   'rotating anode generator'
_exptl_absorpt_coefficient_mu    3.829
_exptl_absorpt_correction_T_max  1.000
_exptl_absorpt_correction_T_min  0.846
_exptl_absorpt_correction_type   multi-scan
_exptl_absorpt_process_details   'SADABS V2015/15 (Bruker AXS Inc.)'
_exptl_crystal_colour            colorless
_exptl_crystal_density_diffrn    3.266
_exptl_crystal_description       block-like
_exptl_crystal_F_000             468
_exptl_crystal_size_max          0.005
_exptl_crystal_size_mid          0.004
_exptl_crystal_size_min          0.003
_refine_diff_density_max         1.642
_refine_diff_density_min         -0.844
_refine_diff_density_rms         0.265
_refine_ls_extinction_method     none
_refine_ls_goodness_of_fit_ref   1.082
_refine_ls_hydrogen_treatment    undef
_refine_ls_matrix_type           full
_refine_ls_number_parameters     44
_refine_ls_number_reflns         722
_refine_ls_number_restraints     0
_refine_ls_restrained_S_all      1.082
_refine_ls_R_factor_all          0.0274
_refine_ls_R_factor_gt           0.0271
_refine_ls_shift/su_max          0.000
_refine_ls_shift/su_mean         0.000
_refine_ls_structure_factor_coef Fsqd
_refine_ls_weighting_details
'w=1/[\s^2^(Fo^2^)+(0.0344P)^2^] where P=(Fo^2^+2Fc^2^)/3'
_refine_ls_weighting_scheme      calc
_refine_ls_wR_factor_gt          0.0580
_refine_ls_wR_factor_ref         0.0581
_reflns_Friedel_coverage         0.000
_reflns_number_gt                719
_reflns_number_total             722
_reflns_threshold_expression     'I > 2\s(I)'
_cod_data_source_file            cm8b05133_si_004.cif
_cod_data_source_block           shelx
_cod_original_cell_volume        522.4(10)
_cod_database_code               4003026
_shelx_shelxl_version_number     2016/6
_shelx_space_group_comment
;
The symmetry employed for this shelxl refinement is uniquely defined
by the following loop, which should always be used as a source of
symmetry information in preference to the above space-group names.
They are only intended as comments.
;
_shelx_res_file
;
TITL I4_m in I4/m
    shelx.res
    created by SHELXL-2016/6 at 17:43:00 on 04-Dec-2018
CELL 0.71073   6.53980   6.53980  12.21430  90.0000  90.0000  90.0000
ZERR    2.00   0.00550   0.00550   0.01050   0.0000   0.0000   0.0000
LATT  2
SYMM -X, -Y, Z
SYMM -Y, X, Z
SYMM Y, -X, Z
SFAC BE N BA
UNIT 40 28 2
TEMP 23.850

OMIT 0 75
L.S. 20
BOND
FMAP 2
PLAN 20
ACTA

WGHT    0.034400
FVAR       0.12947
BA1   3    0.000000    0.000000    0.000000    10.12500    0.00914    0.00914 =
         0.00829    0.00000    0.00000    0.00000
N1    2    0.116614    0.302488    0.169659    11.00000    0.00308    0.00507 =
         0.00594    0.00260   -0.00052   -0.00139
N2    2    0.205253    0.561108    0.000000    10.50000    0.00517    0.00697 =
         0.00481    0.00000    0.00000   -0.00046
N3    2    0.000000    0.000000    0.329784    10.25000    0.00670    0.00670 =
         0.00777    0.00000    0.00000    0.00000
BE1   1    0.226199    0.089532    0.234101    11.00000    0.01342    0.00880 =
         0.01075   -0.00035   -0.00178    0.00180
BE2   1    0.193859    0.133956    0.414204    11.00000    0.00857    0.00935 =
         0.00955    0.00083    0.00110    0.00011
BE3   1    0.000000    0.500000    0.092400    10.50000    0.00767    0.01038 =
         0.01237    0.00000    0.00000    0.00219
HKLF 4




REM  I4_m in I4/m
REM R1 =  0.0271 for     719 Fo > 4sig(Fo)  and  0.0274 for all     722 data
REM     44 parameters refined using      0 restraints

END

WGHT      0.0330      0.0000

REM Highest difference peak  1.642,  deepest hole -0.844,  1-sigma level  0.265
Q1    1   0.1049  0.3243  0.1959  11.00000  0.05    1.35
Q2    1   0.0000  0.5000  0.2500  10.25000  0.05    1.02
Q3    1   0.0055  0.0426  0.0541  11.00000  0.05    0.64
Q4    1   0.0178  0.0998  0.3369  11.00000  0.05    0.60
Q5    1   0.0846  0.5254  0.0000  10.50000  0.05    0.59
Q6    1   0.2963  0.6617  0.0000  10.50000  0.05    0.57
Q7    1   0.0309  0.2489  0.0915  11.00000  0.05    0.53
Q8    1   0.2941  0.1998  0.3888  11.00000  0.05    0.53
Q9    1  -0.1098  0.0466  0.0000  10.50000  0.05    0.50
Q10   1   0.2871  0.0385  0.1979  11.00000  0.05    0.47
Q11   1   0.1715 -0.0387  0.2021  11.00000  0.05    0.46
Q12   1  -0.0070  0.3269  0.1092  11.00000  0.05    0.46
Q13   1  -0.1119  0.1728  0.0295  11.00000  0.05    0.44
Q14   1   0.0205  0.3695  0.1087  11.00000  0.05    0.44
Q15   1   0.1431  0.4606  0.0000  10.50000  0.05    0.44
Q16   1   0.2275  0.2863  0.4431  11.00000  0.05    0.43
Q17   1   0.1431  0.3747  0.0989  11.00000  0.05    0.43
Q18   1   0.2963  0.4962  0.0000  10.50000  0.05    0.43
Q19   1   0.3183  0.0745  0.1901  11.00000  0.05    0.42
Q20   1   0.2264  0.2090  0.1408  11.00000  0.05    0.42
;
_shelx_res_checksum              82240
_shelx_hkl_file
;
   2   0   0   89.02    1.83
   2   0   0   87.49    1.31
   4   0   0   91.74    1.80
   4   0   0   91.60    2.64
   6   0   0   61.91    2.82
   8   0   0   35.19    2.75
  10   0   0   54.47    3.74
  11  -1   0   11.90    2.24
   9  -1   0   23.29    2.61
   7  -1   0   34.18    1.28
   7  -1   0   32.92    2.45
   5  -1   0   60.66    2.51
   5  -1   0   62.45    1.67
   3  -1   0  281.50    4.18
  -3   1   0  285.17    3.19
   1  -1   0  105.36    1.70
  -1   1   0  101.28    1.53
   1   1   0  104.72    1.69
   1   1   0  107.62    1.69
   3   1   0  100.06    1.98
   3   1   0  104.65    2.52
   5   1   0   31.75    1.37
   5   1   0   32.00    1.98
   7   1   0   47.18    2.78
   7   1   0   47.15    1.62
   9   1   0   11.60    2.02
  11   1   0    7.56    2.55
  10  -2   0   17.84    2.75
   8  -2   0   12.18    1.96
   6  -2   0  285.24    4.03
   6  -2   0  290.05    6.16
   4  -2   0   92.12    2.85
  -4   2   0   88.15    2.12
   2  -2   0  106.45    2.43
  -2   2   0  108.08    2.20
   0  -2   0   86.90    1.90
   0   2   0   87.70    2.02
   2   2   0  103.23    2.36
   2   2   0  103.01    2.36
   4   2   0  617.46    6.65
   4   2   0  620.92    7.54
   6   2   0   17.94    1.73
   6   2   0   19.28    1.37
   8   2   0   52.33    3.22
   8   2   0   46.67    1.78
  10   2   0   29.39    3.11
  11  -3   0    1.64    1.96
   9  -3   0   25.21    2.75
   7  -3   0   11.92    1.98
   7  -3   0   14.01    1.10
   5  -3   0   35.85    2.21
  -5   3   0   39.93    1.74
   3  -3   0   78.07    2.60
  -3   3   0   79.01    2.31
   1  -3   0  109.03    2.59
  -1   3   0  102.88    2.63
  -1  -3   0  283.45    4.29
   1   3   0  269.92    4.43
   3   3   0   81.87    2.64
   3   3   0   80.52    2.64
   5   3   0   25.84    1.70
   5   3   0   24.74    1.93
   7   3   0   37.20    1.98
   7   3   0   35.52    2.74
   9   3   0   14.65    2.27
  11   3   0   19.40    2.75
  10  -4   0   21.30    2.82
   8  -4   0   39.27    3.11
   6  -4   0   26.57    2.43
  -6   4   0   26.31    1.68
   4  -4   0   47.67    2.49
  -4   4   0   46.97    2.18
   2  -4   0  580.25    7.31
  -2   4   0  576.40    7.44
   0  -4   0   94.12    2.80
   0   4   0   92.48    2.89
  -2  -4   0   90.89    2.94
   2   4   0   90.77    3.06
   2   4   0   94.84    2.92
   4   4   0   49.69    2.58
   4   4   0   49.07    2.42
   6   4   0   43.11    2.40
   6   4   0   42.22    2.78
   8   4   0   97.70    3.34
   8   4   0   88.16    4.41
  10   4   0    3.51    2.04
   9  -5   0   14.72    2.60
   7  -5   0   21.56    2.44
  -7   5   0   20.45    1.64
   5  -5   0   52.52    3.07
  -5   5   0   49.44    2.52
   3  -5   0   26.23    2.02
  -3   5   0   26.19    1.87
   1  -5   0   33.18    1.99
  -1  -5   0   61.41    2.70
   1   5   0   61.61    2.85
  -3  -5   0   42.45    2.45
   3   5   0   37.88    2.42
   3   5   0   37.62    2.35
   5   5   0   51.77    3.07
   5   5   0   49.80    2.77
   7   5   0   21.40    2.48
   7   5   0   17.18    1.98
   9   5   0    2.77    2.01
  10  -6   0    7.26    2.43
   8  -6   0   50.17    3.75
   6  -6   0   55.31    3.51
  -6   6   0   49.11    2.75
   4  -6   0   38.42    2.76
  -4   6   0   31.64    2.39
   2  -6   0   22.03    1.94
  -2   6   0   22.88    2.07
   0  -6   0   66.44    3.07
   0   6   0   69.54    3.31
  -2  -6   0  281.19    6.37
   2   6   0  274.84    6.64
  -4  -6   0   24.45    2.27
   4   6   0   24.64    2.36
   6   6   0   45.43    3.33
   6   6   0   45.06    3.07
   8   6   0   23.11    3.08
   8   6   0   23.54    2.47
  10   6   0   11.58    2.48
   9  -7   0    2.96    2.19
   7  -7   0   16.43    2.63
  -7   7   0   15.13    2.07
   5  -7   0   23.32    2.59
  -5   7   0   17.54    2.20
   3  -7   0   32.76    2.65
  -3   7   0   38.52    2.81
   1  -7   0   51.08    3.01
  -1   7   0   45.55    3.02
  -1  -7   0   33.18    2.57
   1   7   0   34.10    2.79
  -3  -7   0   11.54    1.90
   3   7   0   14.64    2.15
  -5  -7   0   23.20    2.53
   5   7   0   20.17    2.42
  -7  -7   0   15.16    2.39
   7   7   0   13.55    2.26
  -9  -7   0   13.94    2.65
   8  -8   0    7.53    2.55
   6  -8   0   18.11    2.84
  -6   8   0   20.30    2.34
   4  -8   0   84.13    4.45
   2  -8   0   45.40    3.17
  -2   8   0   45.63    3.31
   0  -8   0   31.89    2.74
   0   8   0   36.43    3.06
  -2  -8   0   15.50    2.22
   2   8   0   16.41    2.41
  -4  -8   0   34.85    3.11
   4   8   0   36.30    3.29
  -6  -8   0   50.85    3.94
   6   8   0   52.38    3.78
  -8  -8   0    7.37    2.74
   8   8   0    7.47    2.34
   7  -9   0   13.42    2.57
   5  -9   0    6.49    2.42
  -5   9   0    4.69    2.13
   3  -9   0   13.49    2.36
  -3   9   0   12.72    2.29
   1  -9   0    9.06    2.02
  -1   9   0    9.95    2.14
  -1  -9   0   20.48    2.63
   1   9   0   21.43    2.79
  -3  -9   0   25.27    2.86
   3   9   0   22.91    2.96
  -5  -9   0   12.15    2.31
   5   9   0   13.56    2.49
  -7  -9   0    3.47    2.05
   7   9   0    2.85    1.97
   6 -10   0    8.40    2.45
  -6  10   0   17.47    2.65
   4 -10   0    2.65    2.20
  -4  10   0    2.30    1.85
   2 -10   0   29.87    3.20
  -2  10   0   28.10    3.17
   0 -10   0   55.08    4.08
   0  10   0   66.37    4.62
  -2 -10   0   17.39    2.68
   2  10   0   16.88    2.78
  -4 -10   0   20.90    2.91
   4  10   0   17.28    3.07
  -6 -10   0   11.91    3.17
   6  10   0    5.42    2.24
   3 -11   0   16.62    2.88
  -3  11   0   19.48    3.00
   1 -11   0    7.62    2.70
  -1  11   0   10.07    2.88
  -1 -11   0   11.51    3.20
   1  11   0    3.87    2.41
  -3 -11   0    2.77    1.99
   3  11   0    2.61    2.16
   4  11  -1   15.34    3.04
  -4 -11   1   22.49    3.01
   2  11  -1    1.31    2.27
  -2 -11   1    0.54    1.74
   0  11  -1    6.14    2.31
   0 -11   1   11.98    3.13
  -2  11  -1   13.26    2.56
   2 -11   1    7.97    2.53
  -4  11  -1    6.17    2.36
   4 -11   1    1.73    2.11
   5  10  -1    2.23    2.13
  -5 -10   1    3.94    2.42
   3  10  -1    8.45    2.74
  -3 -10   1    7.68    2.73
   1  10  -1   16.66    2.76
  -1 -10   1   15.65    2.56
  -1  10  -1    1.98    1.77
   1 -10   1    1.20    2.07
  -3  10  -1   16.43    2.83
   3 -10   1   22.28    2.93
  -5  10  -1    4.74    2.10
   5 -10   1    6.05    2.42
   6   9  -1    2.04    2.18
  -6  -9   1    3.38    2.07
   4   9  -1   11.52    2.63
  -4  -9   1   10.68    2.34
   2   9  -1   18.14    2.69
  -2  -9   1   18.62    2.56
   0   9  -1   32.39    3.17
   0  -9   1   28.59    2.90
  -2   9  -1    4.46    1.96
   2  -9   1    3.46    1.91
  -4   9  -1   29.94    3.20
   4  -9   1   19.87    2.71
  -6   9  -1   18.76    2.54
   6  -9   1   17.29    2.71
   7   8  -1   20.90    2.67
  -7  -8   1   20.42    3.05
   5   8  -1    8.23    2.32
  -5  -8   1    6.91    2.27
   3   8  -1   34.36    3.19
  -3  -8   1   39.89    3.23
   1   8  -1   20.57    2.53
  -1  -8   1   25.91    2.62
  -1   8  -1   21.39    2.52
   1  -8   1   15.88    2.12
  -3   8  -1   31.43    2.86
   3  -8   1   34.20    2.92
  -5   8  -1    2.69    1.66
   5  -8   1    1.99    1.79
  -7   8  -1   16.56    2.17
   7  -8   1    8.98    2.51
   8   7  -1   19.02    2.48
  -8  -7   1   13.90    2.76
   6   7  -1   39.60    3.05
  -6  -7   1   32.81    3.20
   4   7  -1   12.79    2.13
  -4  -7   1   11.11    1.99
   2   7  -1   19.91    2.34
  -2  -7   1   16.70    2.09
   0   7  -1   35.12    2.78
   0  -7   1   37.64    2.71
  -2   7  -1   29.56    2.53
   2  -7   1   24.46    2.26
  -4   7  -1   21.06    2.39
  -6   7  -1    3.67    1.69
   6  -7   1    6.75    2.18
   9   6  -1    2.74    1.92
   7   6  -1    6.87    2.21
   7   6  -1    5.00    1.68
   5   6  -1   13.31    2.16
   5   6  -1   17.80    2.20
   3   6  -1   57.29    3.20
  -3  -6   1   50.42    2.98
   1   6  -1    9.72    1.64
  -1  -6   1    9.84    1.57
  -1   6  -1   71.72    3.35
   1  -6   1   71.97    3.13
  -3   6  -1   35.94    2.48
   3  -6   1   28.64    2.30
  -5   6  -1   18.95    2.05
   5  -6   1   20.42    2.42
  -7   6  -1   32.95    2.40
   7  -6   1   41.48    3.26
   9  -6   1    2.81    1.94
  10   5  -1    4.27    2.16
   8   5  -1    2.15    1.81
   8   5  -1    3.14    1.19
   6   5  -1   20.41    2.37
   6   5  -1   20.82    2.01
   4   5  -1   60.36    3.14
   4   5  -1   61.58    3.01
   2   5  -1   87.03    3.42
  -2  -5   1   82.61    3.21
   0   5  -1   35.35    2.22
   0  -5   1   38.46    2.14
  -2   5  -1   50.68    2.55
   2  -5   1   51.68    2.45
  -4   5  -1   69.69    2.99
   4  -5   1   69.31    3.18
  -6   5  -1   14.27    1.59
   6  -5   1   16.77    2.06
   8  -5   1    8.62    2.33
  10  -5   1    7.13    2.46
  11   4  -1    2.34    1.94
   9   4  -1   21.48    2.67
   7   4  -1   14.48    2.03
   7   4  -1   20.58    1.68
   5   4  -1   71.11    3.26
   5   4  -1   64.78    3.16
   3   4  -1   46.86    2.30
   1   4  -1   60.98    2.50
  -1  -4   1   57.58    2.32
  -1   4  -1  103.87    3.09
   1  -4   1   94.57    2.82
  -3   4  -1   13.09    1.36
   3  -4   1   13.08    1.41
  -5   4  -1   61.51    2.57
   5  -4   1   56.31    2.83
   7  -4   1   13.50    1.96
   9  -4   1   11.89    2.16
  11  -4   1   29.26    3.07
  10   3  -1   15.82    2.56
   8   3  -1   35.53    1.70
   8   3  -1   31.95    2.84
   6   3  -1   31.69    2.39
   6   3  -1   34.79    1.83
   4   3  -1   12.30    1.56
   4   3  -1   12.34    1.26
   2   3  -1   98.78    2.76
   2   3  -1   93.63    2.68
   0   3  -1  105.41    2.69
   0  -3   1  105.47    2.56
  -2   3  -1   52.83    1.95
   2  -3   1   52.63    1.92
  -4   3  -1   44.59    1.95
   4  -3   1   44.11    2.16
   6  -3   1   53.71    2.26
   6  -3   1   51.70    2.77
   8  -3   1   31.72    3.19
  10  -3   1   10.00    2.63
  11   2  -1    5.98    2.41
   9   2  -1    4.69    2.11
   7   2  -1   23.45    2.18
   7   2  -1   25.76    1.26
   5   2  -1   48.63    1.77
   5   2  -1   50.72    2.46
   3   2  -1   53.74    2.06
   3   2  -1   54.50    1.74
   1   2  -1  204.55    3.10
  -1   2  -1  110.12   28.03
   1  -2   1  136.81   31.51
  -3   2  -1   93.23    2.33
   3  -2   1   96.53    2.51
   5  -2   1   81.45    2.38
   5  -2   1   75.78    2.85
   7  -2   1   16.48    1.93
   7  -2   1   17.46    1.23
   9  -2   1   20.71    2.62
  11  -2   1    5.66    2.21
  10   1  -1    2.15    1.90
   8   1  -1   22.99    2.35
   6   1  -1   94.35    2.86
   6   1  -1   78.64    3.30
   4   1  -1  101.48    2.97
   4   1  -1   98.74    1.95
   2   1  -1  108.10    1.78
   2   1  -1  104.99    2.24
   0   1  -1   72.82    1.26
   0   1  -1   74.43    1.39
   0  -1   1   71.50    1.24
  -2   1  -1  218.93    2.86
   2  -1   1  219.68    2.95
   4  -1   1   61.46    2.15
   4  -1   1   61.20    1.78
   6  -1   1   10.45    1.02
   6  -1   1    9.34    1.40
   8  -1   1   22.56    2.28
   8  -1   1   21.72    1.32
  10  -1   1   19.03    2.52
  11   0  -1    7.13    2.53
   9   0  -1   25.61    2.74
   7   0  -1   40.60    2.69
   5   0  -1   35.02    0.97
   5   0  -1   37.97    2.11
   3   0  -1  104.62    2.54
   3   0  -1  102.31    1.29
   3   0  -1  102.15    1.31
   1   0  -1   76.50    1.36
  -1   0  -1   71.89    1.03
   1   0   1   73.36    1.03
   1   0   1   75.73    1.27
   3   0   1  105.97    2.31
   3   0   1  103.92    2.02
   5   0   1   35.87    1.47
   5   0   1   36.56    1.95
   7   0   1   40.00    2.52
   7   0   1   39.30    1.59
   9   0   1   29.92    2.71
  11   0   1   10.81    2.10
  10  -1  -1   17.50    2.56
   8  -1  -1   22.61    2.41
   6  -1  -1    9.27    0.47
   6  -1  -1    8.70    1.47
   4  -1  -1   59.66    1.23
   4  -1  -1   66.36    2.37
   2  -1  -1  217.53    3.22
  -2   1   1  220.25    2.21
   0  -1  -1   70.98    1.22
   0   1   1   71.43    1.34
   2   1   1  101.69    1.96
   2   1   1  101.95    2.05
   4   1   1  101.86    2.36
   4   1   1  102.43    2.75
   6   1   1   75.19    2.30
   6   1   1   74.23    2.98
   8   1   1   20.93    2.24
   8   1   1   17.30    1.24
  10   1   1    5.08    2.03
  11  -2  -1   -0.59    1.63
   9  -2  -1   21.03    2.59
   7  -2  -1   14.46    1.91
   5  -2  -1   79.00    3.04
   5  -2  -1   78.87    1.86
   3  -2  -1   96.57    2.69
  -3   2   1   94.25    2.00
   1  -2  -1   95.43    2.07
  -1   2   1   98.67    2.04
   1   2   1  199.89    3.19
   3   2   1   52.47    1.88
   3   2   1   51.23    1.86
   5   2   1   47.30    2.00
   5   2   1   50.98    2.31
   7   2   1   24.39    1.61
   7   2   1   28.93    2.27
   9   2   1    5.18    1.95
  11   2   1    5.98    2.20
  10  -3  -1    9.05    2.61
   8  -3  -1   42.27    3.14
   6  -3  -1   54.95    2.99
   6  -3  -1   54.28    1.83
  -4   3   1   41.67    1.70
   2  -3  -1   53.10    2.03
  -2   3   1   52.27    1.86
   0  -3  -1   97.58    2.39
   0   3   1  102.14    2.64
   2   3   1   93.92    2.51
   2   3   1   89.63    2.70
   4   3   1   11.55    1.37
   4   3   1   12.45    1.30
   6   3   1   32.05    2.33
   6   3   1   29.75    1.95
   8   3   1   35.96    2.01
  10   3   1   14.57    2.47
  11  -4  -1   22.73    3.09
   9  -4  -1   11.63    2.46
   7  -4  -1   15.29    1.20
   7  -4  -1    8.96    2.44
   5  -4  -1   60.29    3.04
  -5   4   1   60.38    2.33
   3  -4  -1   11.17    1.57
  -3   4   1   12.47    1.31
   1  -4  -1   93.27    2.79
  -1   4   1   98.43    2.97
  -1  -4  -1   56.58    2.24
   1   4   1   58.43    2.44
   3   4   1   44.21    2.30
   3   4   1   40.66    2.10
   5   4   1   66.30    3.08
   5   4   1   68.71    2.95
   7   4   1   17.62    2.14
   7   4   1   17.19    1.78
   9   4   1   24.45    2.73
  11   4   1    5.33    2.04
  10  -5  -1    3.35    1.90
   8  -5  -1    4.70    2.00
   6  -5  -1   17.47    2.19
  -6   5   1   17.29    1.70
   4  -5  -1   69.32    3.26
   2  -5  -1   49.75    2.43
  -2   5   1   48.26    2.72
   0  -5  -1   37.89    2.12
   0   5   1   33.75    2.35
  -2  -5  -1   75.11    2.96
   2   5   1   79.66    3.29
   4   5   1   57.61    2.98
   4   5   1   62.14    3.00
   6   5   1   21.96    2.18
   6   5   1   21.96    2.36
   8   5   1    2.51    1.44
   8   5   1   -0.31    1.40
  10   5   1    2.52    2.02
   9  -6  -1    4.07    2.19
   7  -6  -1   35.98    3.21
  -7   6   1   37.15    2.20
   5  -6  -1   21.77    2.36
  -5   6   1   22.39    1.98
   3  -6  -1   33.66    2.48
  -3   6   1   34.70    2.40
   1  -6  -1   78.50    3.24
  -1   6   1   77.98    3.41
  -1  -6  -1    8.53    1.46
   1   6   1    9.56    1.59
  -3  -6  -1   57.83    3.04
   3   6   1   54.90    3.18
  -5  -6  -1   15.17    1.98
   5   6   1   11.03    2.02
   7   6   1    5.63    2.00
   7   6   1    6.84    1.97
   9   6   1   14.72    2.74
   8  -7  -1   25.23    3.09
   6  -7  -1    7.74    2.36
  -6   7   1    7.76    1.88
   4  -7  -1   17.26    2.28
  -4   7   1   16.37    2.02
   2  -7  -1   24.93    2.31
  -2   7   1   26.14    2.40
   0  -7  -1   34.59    2.55
   0   7   1   35.69    2.62
  -2  -7  -1   15.70    2.00
   2   7   1   17.60    2.23
   4   7   1   14.89    2.20
  -6  -7  -1   34.62    3.06
   6   7   1   37.66    3.21
   8   7   1   18.03    2.50
   7  -8  -1   16.31    2.68
   5  -8  -1    2.97    1.88
  -5   8   1    2.63    1.69
   3  -8  -1   31.90    2.88
  -3   8   1   34.93    2.93
   1  -8  -1   17.84    2.21
  -1   8   1   12.90    2.29
  -1  -8  -1   21.36    2.37
   1   8   1   20.55    2.54
  -3  -8  -1   38.34    3.08
   3   8   1   35.22    3.20
  -5  -8  -1    7.28    2.42
   5   8   1    7.32    2.28
  -7  -8  -1   22.63    2.82
   7   8   1   21.74    2.79
   6  -9  -1   12.90    2.51
  -6   9   1   20.43    2.53
   4  -9  -1   20.29    2.80
  -4   9   1   16.59    2.49
   2  -9  -1    4.96    2.05
  -2   9   1    4.00    2.00
   0  -9  -1   27.39    2.84
   0   9   1   26.59    2.99
  -2  -9  -1   22.18    2.64
   2   9   1   20.72    2.80
  -4  -9  -1    7.55    2.34
   4   9   1   10.87    2.37
  -6  -9  -1    4.62    2.09
   6   9   1    3.18    1.88
   5 -10  -1    7.00    2.89
  -5  10   1    5.59    2.07
   3 -10  -1   17.67    2.81
  -3  10   1   17.18    2.68
   1 -10  -1    1.79    1.88
  -1  10   1    1.19    1.98
  -1 -10  -1   16.37    2.57
   1  10   1   17.11    2.76
  -3 -10  -1    7.30    2.50
   3  10   1    6.65    2.57
  -5 -10  -1    6.67    2.30
   5  10   1    2.04    2.02
   4 -11  -1    6.56    2.61
  -4  11   1    5.06    2.47
   2 -11  -1   12.08    2.57
  -2  11   1   11.00    3.13
   0 -11  -1    8.52    2.53
   0  11   1    6.72    2.39
  -2 -11  -1    4.17    2.21
   2  11   1    2.84    2.41
  -4 -11  -1   14.14    2.51
   4  11   1   13.35    2.92
   3  11  -2    4.59    2.39
  -3 -11   2   13.34    3.34
   1  11  -2    9.42    2.79
  -1 -11   2    9.50    2.79
  -1  11  -2   16.70    2.95
   1 -11   2   20.81    3.00
  -3  11  -2    1.96    1.99
   3 -11   2    1.86    1.98
   6  10  -2   13.00    3.03
  -6 -10   2   12.43    2.67
   4  10  -2    6.98    2.76
  -4 -10   2    3.79    1.91
   2  10  -2   24.61    3.42
  -2 -10   2   25.02    3.35
   0  10  -2    4.80    2.15
   0 -10   2    6.77    2.34
  -2  10  -2   12.59    2.36
  -4  10  -2   10.11    2.89
   4 -10   2   11.96    2.49
  -6  10  -2    3.22    1.91
   6 -10   2    3.33    2.14
   7   9  -2    9.40    2.47
  -7  -9   2   13.92    3.45
   5   9  -2   25.52    3.24
   3   9  -2    7.06    2.41
  -3  -9   2    5.09    2.09
   1   9  -2    2.81    1.97
  -1  -9   2    1.93    1.71
  -1   9  -2   29.92    3.07
   1  -9   2   28.40    2.95
  -3   9  -2    2.30    1.95
   3  -9   2    3.95    2.03
  -5   9  -2   15.53    2.64
   5  -9   2   18.19    2.80
  -7   9  -2    4.37    1.87
   7  -9   2    3.07    2.13
  -8  -8   2   19.31    2.89
   6   8  -2    5.41    2.08
  -6  -8   2    3.77    2.04
   4   8  -2   27.61    3.09
  -4  -8   2   27.23    2.86
   2   8  -2   30.17    3.00
  -2  -8   2   24.14    2.65
   0   8  -2   13.81    2.21
   0  -8   2   15.93    2.19
  -2   8  -2   27.61    2.74
   2  -8   2   30.75    2.67
  -4   8  -2   10.90    2.11
   4  -8   2   10.75    2.68
  -6   8  -2   26.34    2.77
   6  -8   2   27.37    3.11
   8  -8   2   15.61    2.66
   9   7  -2    5.96    2.57
  -9  -7   2    3.01    2.22
   7   7  -2    2.15    1.91
   7   7  -2    0.23    1.43
  -7  -7   2    2.57    1.81
  -5  -7   2   19.17    2.46
   3   7  -2   25.27    2.57
  -3  -7   2   23.53    2.44
   1   7  -2   46.61    3.19
  -1  -7   2   62.18    3.44
  -1   7  -2   23.75    2.39
   1  -7   2   26.54    2.29
  -3   7  -2    8.65    1.74
   3  -7   2   11.10    1.85
  -5   7  -2   45.42    3.15
   5  -7   2   46.36    3.39
  -7   7  -2    1.72    1.46
   7  -7   2   -0.83    1.33
   9  -7   2    7.16    2.37
  10   6  -2    0.78    1.72
   8   6  -2   20.62    2.92
   6   6  -2   18.05    2.50
   6   6  -2   15.94    2.06
   4   6  -2   50.02    3.24
   4   6  -2   53.11    3.14
  -4  -6   2   55.38    3.25
   2   6  -2   18.34    2.08
  -2  -6   2   22.74    2.11
   0   6  -2   73.60    3.45
   0  -6   2   73.81    3.20
  -2   6  -2   49.53    2.86
   2  -6   2   51.37    2.73
  -4   6  -2   23.45    2.28
   4  -6   2   25.73    2.32
  -6   6  -2   17.03    2.02
   6  -6   2   15.03    2.12
   8  -6   2    6.97    2.11
   8  -6   2    6.13    2.10
  10  -6   2   13.82    2.38
   9   5  -2   14.60    2.80
   7   5  -2   38.20    2.37
   7   5  -2   37.30    3.19
   5   5  -2   24.63    2.08
   5   5  -2   22.39    2.33
   3   5  -2    5.37    1.57
   3   5  -2    5.98    1.57
   1   5  -2   69.75    3.08
  -1  -5   2   66.85    2.84
  -1   5  -2   18.39    1.71
   1  -5   2   17.05    1.54
  -3   5  -2   58.10    2.79
   3  -5   2   57.88    2.71
  -5   5  -2   22.92    1.94
   5  -5   2   21.88    2.11
  -7   5  -2   16.76    1.81
   7  -5   2   19.12    1.90
   7  -5   2   13.33    2.21
   9  -5   2   28.33    2.96
  10   4  -2    6.41    2.52
   8   4  -2    5.62    1.94
   6   4  -2   26.42    2.41
   4   4  -2   79.31    2.91
   4   4  -2   86.06    3.44
   2   4  -2   55.88    2.46
   2   4  -2   56.07    2.45
   0  -4   2   39.77    1.94
  -2   4  -2   36.73    1.97
   2  -4   2   38.93    1.90
  -4   4  -2   78.10    2.94
   4  -4   2   89.74    3.20
  -6   4  -2   49.75    2.47
   6  -4   2   52.29    2.93
   8  -4   2   26.19    2.70
   8  -4   2   27.17    1.81
  11   3  -2    3.46    2.25
   9   3  -2    3.68    2.07
   7   3  -2   10.61    0.99
   7   3  -2   11.14    1.90
   5   3  -2   57.75    2.16
   5   3  -2   62.64    2.98
   3   3  -2  119.80    3.36
   3   3  -2  120.00    3.05
   1   3  -2   82.96    2.34
   1   3  -2   81.55    2.51
  -1   3  -2   38.54    1.76
   1  -3   2   39.26    1.61
  -3   3  -2  121.92    3.18
   3  -3   2  119.65    3.05
  -5   3  -2    5.76    1.28
   5  -3   2    5.47    1.36
   7  -3   2   26.46    1.74
   7  -3   2   25.10    2.21
   9  -3   2    9.17    2.47
  11  -3   2    5.53    2.22
  10   2  -2   25.44    2.96
   8   2  -2   29.04    2.68
   6   2  -2   47.31    2.71
   6   2  -2   47.41    1.55
   4   2  -2   35.24    1.95
   4   2  -2   35.04    1.44
   2   2  -2   90.58    2.16
   2   2  -2   89.73    2.41
   0   2  -2  174.43    2.96
   0  -2   2  175.20    3.08
  -2   2  -2   89.53    2.34
   2  -2   2   89.39    2.08
  -4   2  -2   59.11    2.12
   4  -2   2   53.45    2.13
   6  -2   2   21.08    1.51
   6  -2   2   19.63    1.76
   8  -2   2   29.88    1.65
   8  -2   2   26.00    2.41
  10  -2   2   22.77    2.86
  11   1  -2   23.50    3.22
   9   1  -2   28.45    2.92
   7   1  -2   25.57    2.32
   5   1  -2   17.75    0.77
   5   1  -2   15.32    1.58
   3   1  -2   40.75    1.79
   3   1  -2   40.06    1.10
   1   1  -2   94.66    1.68
   1   1  -2   95.16    1.80
  -1   1  -2   99.41    2.00
   1  -1   2   99.65    1.51
  -3   1  -2   84.76    2.15
   3  -1   2   81.77    2.06
   3  -1   2   83.55    2.13
   5  -1   2   67.72    2.48
   5  -1   2   65.89    2.23
   7  -1   2   62.07    3.05
   7  -1   2   75.27    2.46
   9  -1   2    3.30    1.93
  11  -1   2    2.48    1.92
  10   0  -2    8.45    2.67
   8   0  -2    9.37    2.01
   6   0  -2   72.31    3.22
   4   0  -2  113.95    3.14
   2   0  -2  178.21    2.87
   0   0  -2   81.94    0.92
   0   0   2   82.12    0.92
   0   0   2   79.95    1.35
   2   0   2  173.40    2.21
   2   0   2  176.11    2.74
   4   0   2  108.07    2.54
   4   0   2  101.39    2.56
   6   0   2   75.95    2.44
   6   0   2   77.26    2.93
   8   0   2   14.67    1.24
   8   0   2   11.31    1.91
  10   0   2    7.27    2.14
  11  -1  -2    6.28    2.54
   9  -1  -2    2.47    1.78
   7  -1  -2   65.79    3.43
   5  -1  -2   67.92    2.82
   3  -1  -2   82.92    1.02
   3  -1  -2   86.83    2.48
  -3   1   2   81.69    1.01
   1  -1  -2   95.82    1.83
  -1   1   2   96.47    1.49
   1   1   2   94.59    1.95
   1   1   2   95.10    1.45
   3   1   2   36.65    1.40
   3   1   2   38.63    1.56
   5   1   2   17.15    1.36
   5   1   2   18.10    1.34
   7   1   2   24.73    1.61
   7   1   2   23.62    1.94
   9   1   2   27.18    2.63
  11   1   2   19.34    2.67
  10  -2  -2   25.22    3.13
   8  -2  -2   27.85    2.68
   6  -2  -2   25.08    2.13
   4  -2  -2   50.80    2.31
  -4   2   2   54.38    1.35
   2  -2  -2   86.65    2.30
  -2   2   2   90.63    1.90
   0  -2  -2  164.78    2.60
   0   2   2  163.41    2.82
   2   2   2   86.50    2.33
   2   2   2   87.35    2.04
   4   2   2   36.67    1.77
   4   2   2   35.71    1.77
   6   2   2   48.29    2.25
   6   2   2   52.13    2.54
   8   2   2   28.15    1.83
   8   2   2   27.61    2.42
  10   2   2   25.83    2.88
  11  -3  -2    4.42    2.08
   9  -3  -2    8.62    2.48
   7  -3  -2   22.28    2.33
   5  -3  -2    5.05    1.46
  -5   3   2    3.70    0.71
   3  -3  -2  120.36    3.33
  -3   3   2  120.96    2.71
   1  -3  -2   39.28    1.60
  -1   3   2   35.77    1.59
  -1  -3  -2   78.80    2.20
   1   3   2   77.97    2.47
   3   3   2  114.62    2.95
   3   3   2  119.83    3.27
   5   3   2   56.72    2.53
   5   3   2   54.58    2.52
   7   3   2    9.33    1.73
   7   3   2   11.37    1.54
   9   3   2    3.18    1.90
  11   3   2    7.00    2.37
  10  -4  -2    3.51    2.18
   8  -4  -2   24.77    2.73
   6  -4  -2   49.80    3.11
  -6   4   2   49.82    1.88
   4  -4  -2   78.07    3.20
  -4   4   2   80.95    2.59
   2  -4  -2   36.79    1.96
  -2   4   2   35.87    1.84
   0  -4  -2   98.01    2.83
   0   4   2   93.09    2.95
  -2  -4  -2   50.94    2.17
   2   4   2   51.25    2.43
   4   4   2   76.57    3.11
   4   4   2   76.29    2.93
   6   4   2   25.64    2.07
   6   4   2   29.83    2.35
   8   4   2    9.86    1.88
   8   4   2   11.68    1.79
   9  -5  -2   27.17    3.04
   7  -5  -2   18.95    2.44
  -7   5   2   18.35    1.33
   5  -5  -2   23.97    2.32
  -5   5   2   24.55    1.80
   3  -5  -2   60.83    2.88
  -3   5   2   59.43    2.66
   1  -5  -2   16.35    1.54
  -1  -5  -2   59.44    2.52
   1   5   2   57.86    2.77
  -3  -5  -2    4.67    1.35
   3   5   2    5.72    1.60
   5   5   2   19.98    2.15
   5   5   2   23.47    2.16
   7   5   2   39.53    2.80
   7   5   2   41.33    3.06
   9   5   2   14.84    2.17
   9   5   2   14.56    2.38
  10  -6  -2   13.88    2.75
   8  -6  -2    3.58    2.33
   6  -6  -2   13.85    2.24
  -6   6   2   14.10    1.57
   4  -6  -2   26.95    2.45
  -4   6   2   25.50    2.09
   2  -6  -2   46.57    2.60
  -2   6   2   48.51    2.76
   0  -6  -2   71.51    3.13
   0   6   2   71.57    3.34
  -2  -6  -2   19.67    1.91
   2   6   2   19.17    2.07
  -4  -6  -2   51.02    2.96
   4   6   2   50.31    3.16
  -6  -6  -2   14.58    2.17
   6   6   2   16.88    2.16
  -8  -6  -2   24.28    2.85
   8   6   2   20.57    2.83
   8   6   2   24.33    2.64
 -10  -6  -2    2.69    1.98
  10   6   2    2.66    1.90
   9  -7  -2   12.45    2.52
   7  -7  -2    0.45    1.61
   5  -7  -2   42.36    3.33
  -5   7   2   45.99    2.94
   3  -7  -2    9.92    1.85
  -3   7   2    7.19    1.89
   1  -7  -2   26.35    2.27
  -1   7   2   23.29    2.30
  -1  -7  -2   60.24    3.22
   1   7   2   57.14    3.34
  -3  -7  -2   21.05    2.23
   3   7   2   22.74    2.48
  -5  -7  -2   19.42    2.27
   5   7   2   20.82    2.47
  -7  -7  -2    0.34    1.70
   7   7   2    0.45    1.68
  -9  -7  -2    5.66    2.11
   8  -8  -2   11.98    2.53
   6  -8  -2   26.21    3.04
  -6   8   2   26.93    2.48
   4  -8  -2    7.56    2.30
  -4   8   2    8.77    1.98
   2  -8  -2   30.41    2.75
  -2   8   2   28.18    3.01
   0  -8  -2   12.39    1.98
   0   8   2   11.19    2.10
  -2  -8  -2   22.39    2.57
   2   8   2   23.21    2.73
  -4  -8  -2   20.68    2.50
   4   8   2   23.61    2.80
  -6  -8  -2    6.07    2.38
   6   8   2    2.96    1.87
  -8  -8  -2   19.56    2.89
   8   8   2   17.28    2.85
   7  -9  -2    3.14    2.22
  -5   9   2   15.98    2.39
   3  -9  -2    3.40    2.13
  -3   9   2    1.14    1.60
   1  -9  -2   30.40    2.92
  -1   9   2   22.14    2.75
  -1  -9  -2    2.29    1.67
   1   9   2    2.92    1.99
  -3  -9  -2    7.02    2.20
   3   9   2    9.86    2.22
  -5  -9  -2   27.84    3.03
   5   9   2   26.89    3.13
  -7  -9  -2    9.88    2.59
   7   9   2   10.42    2.71
   6 -10  -2    2.34    2.25
  -6  10   2    7.69    2.18
   4 -10  -2   11.49    3.19
   2 -10  -2   25.36    3.40
  -2  10   2   21.31    2.93
   0 -10  -2    4.71    2.09
   0  10   2    9.15    2.71
  -2 -10  -2   23.79    2.85
  -4 -10  -2    3.84    1.86
   4  10   2    4.35    2.30
  -6 -10  -2   11.82    2.38
   6  10   2   15.86    2.78
   3 -11  -2    3.15    2.27
  -3  11   2    3.37    2.13
   1 -11  -2   16.21    3.03
  -1  11   2   16.64    2.89
  -1 -11  -2    7.14    2.74
   1  11   2    4.72    2.29
  -3 -11  -2    7.17    2.31
   3  11   2   15.72    2.80
   4  11  -3   12.64    2.77
  -4 -11   3   13.66    2.68
   2  11  -3   24.00    3.33
  -2 -11   3   28.35    3.48
   0  11  -3   21.26    3.16
   0 -11   3   18.11    2.86
  -2  11  -3    2.97    2.19
   2 -11   3    2.95    2.10
  -4  11  -3    3.32    2.09
   4 -11   3    9.10    2.70
   5  10  -3   19.72    2.93
  -5 -10   3   19.80    3.04
   3  10  -3   27.29    3.30
  -3 -10   3   17.02    2.91
   1  10  -3    2.45    1.94
  -1 -10   3    4.43    2.17
  -1  10  -3   14.84    2.56
   1 -10   3   19.80    2.74
  -3  10  -3   14.28    2.65
   3 -10   3   17.96    2.68
  -5  10  -3   24.75    3.08
   5 -10   3   22.79    3.09
   6   9  -3   16.80    2.75
  -6  -9   3   21.14    2.98
   4   9  -3    8.09    2.73
  -4  -9   3    9.92    2.64
   2   9  -3   14.79    2.57
  -2  -9   3   14.54    2.39
   0   9  -3   17.76    2.57
   0  -9   3   24.42    2.79
  -2   9  -3   51.23    3.81
   2  -9   3   53.45    3.64
  -4   9  -3   22.17    3.03
   4  -9   3   29.18    3.04
   6  -9   3    4.14    2.31
   7   8  -3   14.09    2.28
  -7  -8   3   13.91    2.61
   5   8  -3   17.17    2.44
  -5  -8   3   11.57    2.26
   3   8  -3   32.17    3.11
  -3  -8   3   28.52    2.89
   1   8  -3   69.76    4.21
  -1  -8   3   71.90    4.03
  -1   8  -3   35.37    3.05
   1  -8   3   36.44    2.88
  -3   8  -3    9.63    2.00
   3  -8   3    8.42    1.85
  -5   8  -3   15.49    2.54
   5  -8   3   17.94    2.47
  -7   8  -3   12.04    2.18
   7  -8   3   10.78    2.67
   8   7  -3    5.22    2.30
   6   7  -3    7.88    2.40
   6   7  -3   12.67    1.92
  -6  -7   3   13.61    2.37
   4   7  -3   79.54    4.11
  -4  -7   3   81.84    4.23
   2   7  -3   42.18    3.15
  -2  -7   3   38.28    2.91
   0   7  -3   24.90    2.32
   0  -7   3   21.76    2.23
  -2   7  -3   26.03    2.49
   2  -7   3   23.95    2.35
  -4   7  -3   25.40    2.55
   4  -7   3   22.47    2.61
  -6   7  -3   42.89    3.17
   6  -7   3   40.00    3.28
   8  -7   3   17.21    4.20
   9   6  -3    6.91    2.47
   7   6  -3   42.17    3.62
   7   6  -3   40.93    2.74
   5   6  -3   28.65    2.37
   5   6  -3   25.17    3.05
   3   6  -3   31.03    2.52
  -3  -6   3   29.12    2.44
   1   6  -3   42.13    2.81
  -1  -6   3   37.40    2.56
  -1   6  -3   54.57    2.96
   1  -6   3   50.25    2.71
  -3   6  -3  128.24    4.58
   3  -6   3  127.74    4.24
  -5   6  -3   35.44    2.75
   5  -6   3   37.65    2.85
  -7   6  -3    8.61    1.75
   7  -6   3   11.26    2.20
   9  -6   3   22.16    2.58
  10   5  -3   18.65    2.97
   8   5  -3   16.97    2.58
   6   5  -3   36.60    2.26
   4   5  -3   42.28    2.84
   4   5  -3   38.97    2.41
   2   5  -3   49.65    2.70
  -2  -5   3   47.16    2.59
   0   5  -3  243.87    5.57
   0  -5   3  238.12    5.18
  -2   5  -3   53.03    2.71
   2  -5   3   57.12    2.57
  -4   5  -3   43.77    2.66
   4  -5   3   39.64    2.53
  -6   5  -3   26.02    2.14
   6  -5   3   25.63    2.41
   8  -5   3   22.73    2.58
   8  -5   3   17.21    2.00
  10  -5   3   21.63    2.71
  11   4  -3    8.48    2.69
   9   4  -3   23.62    2.94
   7   4  -3   25.10    1.60
   7   4  -3   28.33    2.75
   5   4  -3   40.27    2.71
   5   4  -3   38.67    2.09
   3   4  -3  243.17    5.45
   3   4  -3  244.66    5.09
   1   4  -3   76.60    2.86
  -1  -4   3   83.06    2.83
  -1   4  -3   42.64    2.15
   1  -4   3   46.33    2.02
  -3   4  -3   54.29    2.53
   3  -4   3   54.39    2.32
  -5   4  -3   40.42    2.30
   5  -4   3   38.03    2.29
   7  -4   3   74.38    3.62
   7  -4   3   82.10    3.36
   9  -4   3   11.86    2.18
  11  -4   3    7.11    2.24
  10   3  -3   16.89    2.75
   8   3  -3    8.99    2.38
   6   3  -3  118.33    4.46
   6   3  -3  121.74    2.86
   4   3  -3   55.82    2.66
   4   3  -3   54.12    2.08
   2   3  -3   82.65    2.56
   2   3  -3   87.51    2.76
   0   3  -3   74.65    2.43
   0  -3   3   75.44    2.22
  -2   3  -3   66.93    2.41
   2  -3   3   64.56    2.05
  -4   3  -3  230.06    4.72
   4  -3   3  231.63    4.51
   6  -3   3   28.47    2.09
   8  -3   3   30.00    1.92
   8  -3   3   28.68    2.49
  10  -3   3   20.26    2.60
  11   2  -3    2.76    2.05
   9   2  -3   49.20    3.65
   7   2  -3   23.84    2.33
   5   2  -3   54.09    1.62
   5   2  -3   58.49    2.78
   3   2  -3   72.37    1.95
   3   2  -3   70.45    2.45
   1   2  -3  113.87    2.48
   1   2  -3  115.16    2.52
  -1   2  -3  997.80   84.91
   1  -2   3  936.62   80.17
  -3   2  -3   85.22    2.53
   3  -2   3   85.22    2.23
   5  -2   3   41.07    2.10
   5  -2   3   45.97    2.13
   7  -2   3   43.02    2.58
   7  -2   3   42.65    2.22
   9  -2   3   17.85    2.36
  11  -2   3   35.29    3.23
  10   1  -3   17.98    2.62
   8   1  -3   38.90    3.05
   6   1  -3   57.92    3.05
   4   1  -3   47.17    2.22
   4   1  -3   46.94    1.04
   2   1  -3  866.50   64.28
   0   1  -3  101.44    2.07
   0   1  -3  100.54    1.60
  -2   1  -3  114.63    2.58
   2  -1   3  114.07    1.86
   4  -1   3   79.47    2.44
   4  -1   3   77.63    2.25
   6  -1   3   42.27    2.55
   6  -1   3   39.39    2.02
   8  -1   3   79.12    3.19
   8  -1   3   77.19    3.60
  10  -1   3    2.06    1.62
  11   0  -3   19.25    2.97
   9   0  -3   15.12    2.37
   7   0  -3   32.52    2.60
   5   0  -3  243.17    5.33
   3   0  -3   81.19    2.44
   1   0  -3   99.01    1.82
  -1   0   3  102.94    1.59
   1   0   3   99.49    2.05
   3   0   3   78.85    1.80
   3   0   3   74.97    2.20
   5   0   3  231.62    4.40
   5   0   3  244.54    4.38
   7   0   3   26.05    2.00
   7   0   3   28.94    1.88
   9   0   3   19.51    2.30
  10  -1  -3    3.80    2.36
   8  -1  -3   71.26    3.95
   6  -1  -3   40.10    2.55
   4  -1  -3   74.63    2.69
   2  -1  -3  112.04    2.46
  -2   1   3  111.20    1.53
   0  -1  -3   97.49    1.55
   0   1   3   95.11    1.93
  -2  -1  -3  990.53   96.82
   2   1   3  894.75   95.64
   4   1   3   43.32    1.86
   4   1   3   41.44    1.63
   6   1   3   53.03    2.72
   6   1   3   51.37    2.34
   8   1   3   38.15    2.64
   8   1   3   38.40    2.11
  10   1   3   21.86    2.52
  11  -2  -3   25.23    3.32
   9  -2  -3   14.01    2.39
   7  -2  -3   34.70    2.72
   5  -2  -3   39.00    2.32
   3  -2  -3   79.09    2.59
  -3   2   3   82.43    1.71
   1  -2  -3 1000.00   97.43
  -1   2   3  911.37   93.68
  -1  -2  -3  111.67    2.12
   1   2   3  105.44    2.52
   3   2   3   67.71    1.95
   3   2   3   66.45    2.30
   5   2   3   56.40    2.33
   5   2   3   51.80    2.33
   7   2   3   22.81    1.86
   7   2   3   25.60    2.02
   9   2   3   52.87    3.41
   9   2   3   53.72    2.59
  11   2   3    6.13    2.23
  10  -3  -3   18.95    2.93
   8  -3  -3   26.41    2.86
   6  -3  -3   29.13    0.79
   6  -3  -3   28.90    2.38
   4  -3  -3  226.76    5.11
  -4   3   3  226.77    3.48
   2  -3  -3   66.55    2.37
  -2   3   3   68.72    2.08
   0  -3  -3   72.43    2.11
   0   3   3   72.36    2.33
  -2  -3  -3   81.40    2.29
   2   3   3   78.89    2.69
   4   3   3   49.83    2.13
   4   3   3   51.91    2.40
   6   3   3  117.86    3.83
   6   3   3  119.68    3.84
   8   3   3    9.54    1.66
   8   3   3    7.45    2.04
  10   3   3   15.25    2.42
  11  -4  -3    6.88    2.58
   9  -4  -3   13.21    2.45
   7  -4  -3   71.23    3.90
   5  -4  -3   37.29    2.61
  -5   4   3   37.93    1.72
   3  -4  -3   53.12    2.55
  -3   4   3   54.10    2.22
   1  -4  -3   45.32    1.97
  -1   4   3   42.13    2.01
  -1  -4  -3   70.40    2.43
   1   4   3   79.54    2.92
  -3  -4  -3  211.35    4.39
   3   4   3  214.40    5.02
   5   4   3   36.30    2.36
   5   4   3   39.53    2.35
   7   4   3   26.32    2.34
   7   4   3   25.48    2.31
   9   4   3   22.01    2.69
   9   4   3   29.36    2.82
  11   4   3    5.66    2.08
  10  -5  -3   23.11    3.21
   8  -5  -3   16.05    2.46
  -6   5   3   27.28    1.65
   4  -5  -3   40.37    2.66
  -4   5   3   40.29    2.21
   2  -5  -3   53.52    2.62
  -2   5   3   45.73    2.63
   0  -5  -3  229.92    4.89
   0   5   3  228.17    5.22
  -2  -5  -3   44.01    2.35
   2   5   3   42.58    2.57
  -4  -5  -3   38.43    2.31
   4   5   3   38.46    2.58
   6   5   3   32.61    2.56
   6   5   3   31.28    2.53
   8   5   3   16.12    2.36
   8   5   3   18.57    2.28
  10   5   3   21.50    2.93
   9  -6  -3   14.17    2.87
   7  -6  -3   11.17    2.74
   5  -6  -3   32.28    3.15
  -5   6   3   28.50    2.08
   3  -6  -3  127.60    4.54
  -3   6   3  121.35    4.23
   1  -6  -3   45.74    2.58
  -1   6   3   46.11    2.72
  -1  -6  -3   35.33    2.30
   1   6   3   39.53    2.57
  -3  -6  -3   28.42    2.22
   3   6   3   37.55    2.63
  -5  -6  -3   28.22    2.40
   5   6   3   26.32    2.52
  -7  -6  -3   44.47    3.28
   7   6   3   45.61    3.36
   9   6   3   11.30    2.43
   8  -7  -3   13.68    2.55
   6  -7  -3   43.17    3.52
  -6   7   3   46.34    2.74
   4  -7  -3   22.01    2.47
  -4   7   3   25.48    2.29
   2  -7  -3   22.95    2.30
  -2   7   3   23.92    2.32
   0  -7  -3   25.00    2.22
   0   7   3   21.99    2.34
  -2  -7  -3   40.90    2.74
   2   7   3   35.80    2.93
  -4  -7  -3   70.22    3.65
   4   7   3   78.57    4.22
  -6  -7  -3   11.06    2.13
   6   7   3   13.17    2.20
   8   7   3   13.37    2.41
   7  -8  -3   13.69    3.33
   5  -8  -3   13.83    2.42
  -5   8   3   22.51    2.37
   3  -8  -3   10.88    2.58
  -3   8   3   11.00    2.01
   1  -8  -3   32.53    2.71
  -1   8   3   36.91    3.07
  -1  -8  -3   66.18    3.65
   1   8   3   71.22    4.16
  -3  -8  -3   23.32    2.45
   3   8   3   26.93    2.94
  -5  -8  -3   16.55    2.33
   5   8   3   14.51    2.48
   6  -9  -3    4.72    2.28
  -6   9   3    9.80    1.82
   4  -9  -3   27.39    3.10
  -4   9   3   23.37    2.78
   2  -9  -3   49.05    3.76
  -2   9   3   48.34    3.70
   0  -9  -3   22.61    2.60
   0   9   3   23.50    2.87
  -2  -9  -3   14.51    2.27
   2   9   3   13.34    2.48
  -4  -9  -3    8.88    2.37
   4   9   3   11.63    2.43
  -6  -9  -3   19.49    2.89
   6   9   3   13.71    2.55
   5 -10  -3   22.15    3.06
  -5  10   3   25.47    2.89
   3 -10  -3   13.01    2.52
  -3  10   3   16.71    2.68
   1 -10  -3   14.43    2.51
  -1  10   3   13.66    2.51
  -1 -10  -3    4.62    2.36
   1  10   3    3.77    2.08
  -3 -10  -3   19.82    2.72
   3  10   3   19.84    2.99
  -5 -10  -3   19.84    2.78
   5  10   3   12.59    2.64
   4 -11  -3    4.50    2.45
  -4  11   3   10.86    2.25
   2 -11  -3    2.71    2.13
  -2  11   3    5.78    2.32
   0 -11  -3   18.20    3.05
   0  11   3   22.84    3.24
  -2 -11  -3   23.48    3.17
   2  11   3   23.40    3.28
  -4 -11  -3    5.33    2.16
   4  11   3    8.84    2.70
   3  11  -4    5.94    2.49
  -3 -11   4    4.87    2.19
   1  11  -4    4.75    2.36
  -1 -11   4    5.66    2.47
  -1  11  -4   16.34    2.85
   1 -11   4   12.89    2.57
  -3  11  -4    8.02    2.69
   3 -11   4    4.78    2.43
   6  10  -4   13.60    2.54
  -6 -10   4   12.00    2.45
   4  10  -4    5.00    2.27
  -4 -10   4    8.13    3.00
   2  10  -4   16.39    3.11
  -2 -10   4   19.81    2.85
   0 -10   4    8.22    2.70
  -2  10  -4    3.15    2.24
  -4  10  -4   21.13    3.25
   4 -10   4   13.21    2.75
  -6  10  -4    2.96    1.84
   6 -10   4    2.66    1.87
   7   9  -4   12.60    2.53
  -7  -9   4    8.40    2.80
   5   9  -4   25.70    2.92
  -5  -9   4   27.93    3.24
   3   9  -4    6.33    2.22
  -3  -9   4    9.15    2.57
   1   9  -4   37.58    3.52
  -1  -9   4   31.47    3.14
  -1   9  -4    7.74    2.21
   1  -9   4   14.00    2.25
  -3   9  -4    4.93    2.06
   3  -9   4   12.55    2.41
  -5   9  -4   12.74    2.38
   5  -9   4   13.42    2.29
  -7   9  -4    1.60    1.83
   7  -9   4    2.21    1.64
  -8  -8   4   19.23    2.92
   6   8  -4    3.74    1.72
  -6  -8   4    7.56    2.46
   4   8  -4    0.98    1.71
  -4  -8   4   -0.75    1.30
   2   8  -4   24.84    2.82
  -2  -8   4   23.48    2.68
   0   8  -4    5.44    2.05
   0  -8   4    6.92    2.00
  -2   8  -4   28.17    2.99
   2  -8   4   33.25    2.76
  -4   8  -4    7.45    2.28
   4  -8   4   10.52    2.05
  -6   8  -4    9.85    2.08
   6  -8   4    9.04    2.52
   8  -8   4   13.86    2.31
   9   7  -4    2.90    2.09
   7   7  -4   15.24    2.83
   7   7  -4   13.94    2.01
   5   7  -4   23.85    2.59
   5   7  -4   27.39    3.02
  -5  -7   4   33.13    3.06
   3   7  -4   20.72    2.40
   1   7  -4   51.45    3.40
  -1  -7   4   52.98    3.31
  -1   7  -4   24.70    2.47
   1  -7   4   20.58    2.11
  -3   7  -4   53.22    3.43
   3  -7   4   62.19    3.40
  -5   7  -4   24.78    2.72
   5  -7   4   33.13    2.79
  -7   7  -4   10.46    2.08
   7  -7   4   12.77    2.86
   9  -7   4    4.38    1.99
  10   6  -4    2.45    2.44
   8   6  -4    9.21    2.74
   6   6  -4   22.90    2.81
   6   6  -4   20.94    2.10
   4   6  -4   54.36    3.21
   4   6  -4   60.69    3.61
   2   6  -4   29.76    2.49
  -2  -6   4   29.95    2.33
   0   6  -4    8.07    1.96
   0  -6   4    9.28    1.55
  -2   6  -4   62.07    3.32
   2  -6   4   55.95    2.84
  -4   6  -4    2.48    1.48
   4  -6   4    2.80    1.42
  -6   6  -4   22.81    2.43
   6  -6   4   18.37    2.55
   8  -6   4    3.16    1.62
   8  -6   4    8.51    2.14
  10  -6   4    4.18    1.92
   9   5  -4   17.04    2.84
   7   5  -4   28.66    1.86
   7   5  -4   26.17    2.95
   5   5  -4   24.78    2.01
   5   5  -4   24.35    2.51
   3   5  -4   60.63    2.95
   3   5  -4   62.94    3.19
   1   5  -4   69.56    3.16
  -1  -5   4   68.01    2.88
  -1   5  -4   44.86    2.55
   1  -5   4   45.94    2.31
  -3   5  -4   43.54    2.63
   3  -5   4   47.51    2.43
  -5   5  -4   24.03    2.14
   5  -5   4   18.63    2.01
   7  -5   4   31.45    2.56
   9  -5   4   16.87    2.40
  10   4  -4   19.18    2.88
   8   4  -4   13.43    2.38
   6   4  -4    3.51    1.02
   6   4  -4    1.82    1.53
   4   4  -4   26.85    1.84
   4   4  -4   30.91    2.31
   2   4  -4   37.69    2.18
   2   4  -4   44.06    2.26
   0   4  -4   93.63    3.17
   0  -4   4   87.07    2.77
  -2   4  -4   51.43    2.47
   2  -4   4   54.25    2.22
  -4   4  -4   30.11    2.19
   4  -4   4   25.44    2.00
  -6   4  -4   59.96    3.02
   6  -4   4   56.24    2.88
   8  -4   4    0.38    1.46
   8  -4   4    2.87    1.21
  10  -4   4    8.57    1.89
  11   3  -4    2.25    1.80
   9   3  -4    8.25    2.37
   7   3  -4   61.02    1.70
   5   3  -4   49.43    2.83
   5   3  -4   44.64    1.84
   3   3  -4   99.04    3.23
   3   3  -4   98.51    2.78
   1   3  -4   81.29    2.50
   1   3  -4   74.08    2.48
  -1   3  -4  115.01    3.18
   1  -3   4  120.48    2.70
  -3   3  -4   93.32    3.11
   3  -3   4   95.83    2.66
  -5   3  -4   59.02    2.70
   5  -3   4   63.88    2.64
   7  -3   4   21.39    1.99
   7  -3   4   22.02    2.14
   9  -3   4    9.53    2.03
  11  -3   4   16.54    2.44
   8   2  -4   29.17    2.85
   6   2  -4   55.96    1.23
   6   2  -4   58.64    3.15
   4   2  -4   51.56    1.61
   2   2  -4   19.84    1.20
   2   2  -4   18.63    1.32
   0   2  -4   95.17    2.07
   0   2  -4   95.66    2.51
  -2   2  -4   20.84    1.43
   2  -2   4   18.74    0.99
  -4   2  -4   43.77    2.18
   4  -2   4   46.97    1.88
   6  -2   4   31.75    2.05
   8  -2   4   24.80    1.95
   8  -2   4   28.23    2.37
  10  -2   4   25.21    2.71
  11   1  -4   13.25    2.74
   9   1  -4   13.12    2.22
   7   1  -4   20.44    2.29
   5   1  -4   50.03    2.64
   3   1  -4  125.19    1.93
   3   1  -4  123.28    3.19
   1   1  -4  129.74    2.36
  -1   1  -4  133.44    2.84
   1  -1   4  132.72    1.66
   3  -1   4   72.98    2.41
   3  -1   4   74.63    1.77
   5  -1   4   78.09    2.80
   5  -1   4   73.92    2.44
   7  -1   4   49.18    2.52
   7  -1   4   51.49    2.66
   9  -1   4   37.31    2.26
  10   0  -4    5.24    2.16
   8   0  -4    8.11    2.24
   6   0  -4    6.13    1.67
   4   0  -4   93.12    3.06
   2   0  -4   95.74    2.34
  -2   0   4   96.16    1.52
   0   0  -4  133.81    1.63
   0   0   4  132.30    2.42
  -2   0  -4   94.55    1.22
   2   0   4   92.38    2.45
   2   0   4   94.12    1.24
   4   0   4   90.56    2.82
   4   0   4   92.10    2.21
   6   0   4    7.66    1.33
   6   0   4    6.33    1.15
   8   0   4    7.61    1.54
   8   0   4    7.48    1.34
  10   0   4    6.31    1.98
  11  -1  -4    5.78    2.44
   9  -1  -4   40.87    3.42
   7  -1  -4   51.20    3.21
   5  -1  -4   72.76    3.04
   3  -1  -4   76.27    2.46
  -3   1   4   73.04    0.96
  -3   1   4   73.46    0.97
  -1   1   4  127.05    2.20
  -1  -1  -4  127.53    1.59
   1   1   4  127.69    2.73
   3   1   4  113.83    2.98
   3   1   4  117.69    2.12
   5   1   4   43.87    2.23
   5   1   4   42.45    1.84
   7   1   4   20.66    1.80
   7   1   4   24.69    1.95
   9   1   4   21.08    1.84
   8  -2  -4   23.36    2.67
   6  -2  -4   27.94    2.35
  -4   2   4   37.01    0.91
   2  -2  -4   18.26    1.29
  -2   2   4   20.25    1.15
   0  -2  -4   91.86    1.97
   0   2   4   93.83    2.40
  -2  -2  -4   19.06    1.08
   2   2   4   17.27    1.35
   4   2   4   53.05    1.91
   4   2   4   49.22    2.26
   6   2   4   55.01    2.66
   6   2   4   55.53    2.50
   8   2   4   34.72    2.55
   8   2   4   30.38    2.34
  10   2   4    4.61    1.93
  11  -3  -4    7.66    2.50
   9  -3  -4   10.12    2.82
   5  -3  -4   63.30    3.12
  -5   3   4   57.03    1.44
   3  -3  -4   95.94    3.13
  -3   3   4   94.08    2.41
   1  -3  -4  114.22    2.82
  -1   3   4  118.71    2.90
  -1  -3  -4   70.72    2.04
   1   3   4   66.90    2.43
  -3  -3  -4   87.81    2.47
   3   3   4   89.11    2.52
   3   3   4   89.13    3.03
   5   3   4   43.26    2.21
   5   3   4   46.21    2.55
   7   3   4   56.82    3.01
   7   3   4   55.83    2.97
   9   3   4    9.85    1.73
   9   3   4   10.72    2.01
  11   3   4    5.62    2.15
  10  -4  -4   11.81    2.56
   8  -4  -4    2.28    2.06
   6  -4  -4   51.35    3.26
  -6   4   4   56.92    2.35
   4  -4  -4   26.07    2.11
  -4   4   4   30.61    1.69
   2  -4  -4   49.93    2.35
  -2   4   4   51.59    2.18
   0  -4  -4   85.98    2.67
   0   4   4   86.65    3.01
  -2  -4  -4   19.63    1.41
   4   4   4   27.50    2.11
   6   4   4    2.39    1.33
   6   4   4    3.42    1.54
   8   4   4    8.48    1.87
   8   4   4    8.99    1.97
  10   4   4   16.57    2.61
   9  -5  -4   23.93    3.03
   7  -5  -4   29.35    2.98
   5  -5  -4   23.06    2.32
  -5   5   4   21.46    1.59
   3  -5  -4   44.38    2.63
  -3   5   4   46.44    2.43
   1  -5  -4   39.39    2.17
  -1   5   4   43.48    2.38
  -1  -5  -4   67.25    2.69
   1   5   4   69.38    3.16
  -3  -5  -4   58.91    2.64
   3   5   4   53.90    3.00
  -5  -5  -4   21.08    1.96
   5   5   4   24.88    2.33
   7   5   4   14.91    2.45
   9   5   4    6.31    2.08
   9   5   4   11.89    2.37
  10  -6  -4    6.63    2.21
   8  -6  -4    3.93    2.18
   6  -6  -4   20.16    2.52
  -6   6   4   19.67    1.64
   4  -6  -4    3.12    1.62
  -4   6   4    2.61    1.29
   2  -6  -4   53.21    2.90
  -2   6   4   52.42    2.86
   0  -6  -4    6.93    1.31
   0   6   4    7.97    1.53
  -2  -6  -4   28.64    2.11
   2   6   4   27.66    2.29
  -4  -6  -4   55.45    2.96
   4   6   4   55.25    3.39
   6   6   4   17.94    2.29
  -8  -6  -4   12.57    2.12
   8   6   4    9.06    2.06
 -10  -6  -4    2.66    2.11
   9  -7  -4    4.22    2.06
   7  -7  -4   16.69    2.71
   5  -7  -4   30.44    2.99
  -5   7   4   25.12    2.29
  -3   7   4   56.77    3.29
   1  -7  -4   25.63    2.28
  -1   7   4   24.08    2.34
  -1  -7  -4   52.14    2.98
   1   7   4   47.56    3.23
  -3  -7  -4   16.22    1.95
  -5  -7  -4   27.79    2.54
   5   7   4   27.96    3.01
  -7  -7  -4   11.68    2.03
   7   7   4   16.10    2.39
  -9  -7  -4    4.52    1.99
   9   7   4    7.80    2.60
   8  -8  -4   18.85    2.96
   6  -8  -4   14.55    3.56
  -6   8   4   11.58    1.79
   4  -8  -4   10.41    2.21
  -4   8   4   11.67    2.07
   2  -8  -4   26.00    2.66
  -2   8   4   28.34    2.74
   0  -8  -4    7.09    1.98
   0   8   4   10.86    2.08
  -2  -8  -4   20.68    2.41
   2   8   4   22.01    2.69
  -4  -8  -4    2.63    1.63
   4   8   4    0.67    1.49
  -6  -8  -4    6.31    2.26
   6   8   4    5.01    2.20
  -8  -8  -4   17.21    2.54
   8   8   4   19.77    2.96
   7  -9  -4    3.85    2.27
   5  -9  -4    8.57    2.50
  -5   9   4   15.56    2.14
   3  -9  -4    7.19    2.23
  -3   9   4   10.04    2.08
   1  -9  -4   14.28    2.27
  -1   9   4   16.37    2.51
  -1  -9  -4   31.67    2.94
   1   9   4   31.08    3.20
  -3  -9  -4    8.86    1.95
   3   9   4    5.31    2.52
  -5  -9  -4   24.09    2.76
   5   9   4   17.85    3.27
  -7  -9  -4    6.33    2.39
   7   9   4    5.18    2.34
   6 -10  -4    0.63    1.71
   4 -10  -4   18.97    2.85
  -4  10   4   19.63    2.72
   2 -10  -4    4.97    2.50
  -2  10   4    3.98    2.02
   0 -10  -4    6.09    2.22
   0  10   4    3.65    2.03
   2  10   4   25.66    3.29
  -4 -10  -4    7.18    2.58
   4  10   4    5.06    2.37
  -6 -10  -4    6.37    2.46
   6  10   4    8.84    2.69
   3 -11  -4    3.16    2.19
  -3  11   4    7.09    2.50
   1 -11  -4   15.93    2.66
  -1  11   4   13.23    2.69
  -1 -11  -4    5.81    2.24
   1  11   4    3.96    2.34
  -3 -11  -4    7.93    2.39
   3  11   4   16.30    2.87
   2  11  -5    8.30    2.57
  -2 -11   5    2.18    1.91
   0  11  -5    2.47    1.98
   0 -11   5    5.37    2.31
  -2  11  -5    6.59    2.50
   2 -11   5    4.16    2.12
   5  10  -5    7.08    2.24
  -5 -10   5    4.90    2.45
   3  10  -5    9.67    2.95
  -3 -10   5    2.71    1.96
   1  10  -5   15.29    2.65
  -1  10  -5    1.62    1.88
  -3  10  -5    8.34    2.70
   3 -10   5   12.28    2.55
  -5  10  -5    2.44    2.12
   5 -10   5    3.70    2.15
   6   9  -5    2.76    1.90
  -6  -9   5    3.96    2.34
   4   9  -5   16.07    2.62
  -4  -9   5   14.20    2.59
   2   9  -5    5.61    2.34
  -2  -9   5    1.16    1.76
   0   9  -5   35.70    3.57
   0  -9   5   35.05    3.18
  -2   9  -5   10.69    2.27
   2  -9   5   13.60    2.23
  -4   9  -5   10.20    2.76
   4  -9   5   12.37    2.99
  -6   9  -5   18.61    2.69
   6  -9   5   12.86    2.28
   7   8  -5   10.68    2.19
  -7  -8   5    8.48    2.84
   5   8  -5   20.72    2.57
  -5  -8   5   14.34    2.49
   3   8  -5   30.25    3.04
  -3  -8   5   31.33    3.07
   1   8  -5    7.43    2.30
  -1  -8   5    9.02    2.35
  -1   8  -5   17.24    2.47
   1  -8   5   20.06    2.28
  -3   8  -5   33.37    3.16
   3  -8   5   31.52    2.87
  -5   8  -5    7.02    2.34
   5  -8   5    5.44    1.91
   7  -8   5    2.61    1.60
   8   7  -5    5.86    2.61
   6   7  -5   33.03    2.66
   6   7  -5   32.18    3.39
  -6  -7   5   30.74    3.13
   4   7  -5    8.69    1.78
  -4  -7   5    8.62    2.34
   2   7  -5   18.48    2.34
  -2  -7   5   20.92    2.36
   0   7  -5   31.65    2.82
   0  -7   5   31.37    2.55
  -2   7  -5    3.89    1.69
   2  -7   5    4.93    1.62
  -4   7  -5   42.23    3.25
   4  -7   5   40.89    2.88
  -6   7  -5    7.96    2.23
   6  -7   5   13.46    2.03
   8  -7   5   10.21    2.60
   9   6  -5   13.12    2.78
   7   6  -5   12.78    1.53
   7   6  -5    6.89    2.34
   5   6  -5    5.39    1.55
   5   6  -5    3.68    1.92
   3   6  -5   37.38    2.90
   3   6  -5   37.08    2.68
  -3  -6   5   37.11    2.77
   1   6  -5   49.61    3.06
  -1  -6   5   53.25    2.97
  -1   6  -5   26.67    2.26
   1  -6   5   33.71    2.27
  -3   6  -5   11.91    2.00
   3  -6   5   10.34    1.56
  -5   6  -5   27.45    2.56
   5  -6   5   32.61    2.49
  -7   6  -5   43.40    3.19
   7  -6   5   37.59    2.98
   7  -6   5   41.85    3.09
   9  -6   5    2.08    1.72
  10   5  -5    0.61    1.84
   8   5  -5    5.59    2.60
   6   5  -5   30.10    2.90
   6   5  -5   33.36    2.13
   4   5  -5   10.00    1.87
   4   5  -5   10.58    1.48
   2   5  -5  112.01    3.93
   2   5  -5  113.97    4.02
  -2  -5   5  115.89    3.97
   0  -5   5   16.07    1.58
  -2   5  -5   40.58    2.57
   2  -5   5   42.82    2.28
  -4   5  -5   43.54    2.79
   4  -5   5   41.82    2.40
  -6   5  -5    6.24    1.90
   6  -5   5    6.31    1.79
   8  -5   5   20.17    2.40
   8  -5   5   21.40    2.36
  10  -5   5    6.17    1.90
   9   4  -5    7.94    2.63
   7   4  -5   46.61    1.89
   7   4  -5   44.21    3.38
   5   4  -5   40.57    2.82
   5   4  -5   39.56    2.05
   3   4  -5   38.01    2.14
   3   4  -5   33.79    2.31
   1   4  -5   23.76    1.73
   1   4  -5   28.43    1.92
  -1  -4   5   27.32    1.77
   1  -4   5  113.80    3.07
  -3   4  -5   47.38    2.59
   3  -4   5   42.93    2.09
  -5   4  -5   12.39    1.78
   5  -4   5   13.90    1.48
   7  -4   5    9.78    1.58
   7  -4   5    9.40    1.76
   9  -4   5   17.80    2.29
  10   3  -5    6.09    2.32
   8   3  -5   33.53    3.18
   6   3  -5   14.79    1.05
   6   3  -5   14.96    2.07
   4   3  -5   44.46    2.53
   4   3  -5   43.97    1.88
   2   3  -5   56.57    2.22
   2   3  -5   57.55    2.37
   0   3  -5   17.20    1.41
   0  -3   5   15.10    1.12
  -2   3  -5  137.42    3.74
   2  -3   5  127.04    2.81
  -4   3  -5   37.87    2.28
   4  -3   5   32.77    1.76
   6  -3   5   35.54    2.20
   6  -3   5   40.44    2.60
   8  -3   5   35.15    2.50
   8  -3   5   34.27    2.60
  10  -3   5    5.29    2.04
  11   2  -5   11.24    2.43
   9   2  -5   11.58    2.27
   7   2  -5    4.33    1.84
   5   2  -5   48.15    1.58
   5   2  -5   40.69    2.52
   3   2  -5  133.86    3.51
   3   2  -5  135.52    2.77
   1   2  -5   67.79    2.04
   1   2  -5   65.02    2.14
  -1   2  -5   55.80    2.13
   1  -2   5   59.34    1.69
  -3   2  -5   59.95    2.50
   3  -2   5   63.75    1.82
   5  -2   5  109.08    4.04
   5  -2   5  111.37    3.03
   7  -2   5   19.90    1.97
   7  -2   5   17.24    1.79
   9  -2   5    3.97    1.83
   9  -2   5    4.74    1.48
   8   1  -5   20.49    2.48
   6   1  -5   30.57    2.46
   4   1  -5  117.39    1.64
   4   1  -5  113.02    3.92
   2   1  -5   53.95    1.55
   2   1  -5   55.23    1.96
   0   1  -5  143.99    2.13
   0   1  -5  143.60    2.98
  -2   1  -5   67.71    2.38
   2  -1   5   67.38    1.23
   2  -1   5   65.51    2.31
   4  -1   5   22.03    1.71
   4  -1   5   24.87    1.22
   6  -1   5   47.71    2.57
   6  -1   5   46.07    2.20
   8  -1   5   11.28    1.71
   8  -1   5    9.62    1.53
  10  -1   5   12.53    1.97
  11   0  -5    5.46    2.19
   9   0  -5   35.84    3.32
   7   0  -5   37.18    2.88
   5   0  -5   38.87    2.40
   3   0  -5   19.16    1.41
  -3   0   5   16.90    0.61
   1   0  -5  156.30    2.90
  -1   0   5  148.70    2.59
   1   0   5  138.62    2.95
   3   0   5   15.73    0.71
   3   0   5   16.03    1.36
   5   0   5   38.08    2.16
   5   0   5   35.73    1.63
   7   0   5   31.06    1.99
   7   0   5   31.64    2.27
   9   0   5   42.35    2.54
   9   0   5   31.59    2.49
   8  -1  -5   11.10    2.10
   6  -1  -5   49.19    2.93
   4  -1  -5   24.79    1.79
   2  -1  -5   65.66    2.09
  -2   1   5   67.47    1.58
   0  -1  -5  138.31    2.06
   0   1   5  144.17    2.90
  -2  -1  -5   57.23    1.08
   2   1   5   56.69    2.20
   4   1   5  109.00    2.33
   4   1   5  113.53    3.38
   6   1   5   32.91    2.17
   6   1   5   32.69    1.82
   8   1   5   21.32    2.06
   8   1   5   18.57    2.04
  10   1   5    6.27    1.91
  11  -2  -5    6.25    2.63
   9  -2  -5    6.12    2.28
   7  -2  -5   19.78    2.34
   5  -2  -5  111.41    3.92
   3  -2  -5   56.84    2.35
  -3   2   5   58.17    1.56
   1  -2  -5   53.44    1.79
  -1   2   5   58.33    1.91
  -1  -2  -5   65.34    1.58
   1   2   5   64.37    2.29
   3   2   5  127.05    3.52
   5   2   5   39.27    2.30
   5   2   5   40.69    1.86
   7   2   5    2.89    1.22
   7   2   5    2.13    1.35
   9   2   5   11.59    1.85
  10  -3  -5    6.11    2.30
   8  -3  -5   30.50    3.04
   6  -3  -5   35.82    2.69
   4  -3  -5   30.65    2.15
  -4   3   5   34.34    1.41
   2  -3  -5  126.59    3.32
  -2   3   5  124.99    2.97
   0  -3  -5   15.05    1.13
   0   3   5   14.67    1.31
  -2  -3  -5   57.81    1.91
   2   3   5   55.55    2.45
   4   3   5   41.73    1.91
   4   3   5   37.18    2.26
   6   3   5   10.99    1.65
   6   3   5   13.89    1.58
   8   3   5   37.43    2.72
   8   3   5   34.30    2.68
  10   3   5   10.33    2.01
   9  -4  -5   15.80    2.64
   7  -4  -5    8.33    2.28
   5  -4  -5   11.59    1.83
  -5   4   5   11.94    1.02
   3  -4  -5   41.16    2.38
  -3   4   5   43.87    2.06
   1  -4  -5  109.01    3.17
  -1   4   5  120.50    3.45
  -1  -4  -5   25.69    1.55
   1   4   5   23.47    2.01
  -3  -4  -5   30.33    1.75
   3   4   5   33.39    2.29
  -5  -4  -5   41.16    2.25
   5   4   5   40.51    2.33
   5   4   5   42.47    2.73
   7   4   5   39.22    2.65
   7   4   5   35.83    2.81
   9   4   5    7.46    2.22
   9   4   5   13.31    2.33
  10  -5  -5    1.96    2.10
   8  -5  -5   22.76    2.90
   6  -5  -5    6.67    2.09
  -6   5   5    7.49    0.94
   4  -5  -5   47.07    2.94
  -4   5   5   42.82    2.25
   2  -5  -5   36.95    2.33
  -2   5   5   41.22    2.31
   0  -5  -5   37.66    2.17
   0   5   5   34.52    2.33
  -2  -5  -5  104.68    3.32
   2   5   5  104.39    4.01
  -4  -5  -5   11.47    1.46
   4   5   5   14.22    1.91
  -6  -5  -5   32.64    2.39
   6   5   5   31.27    2.82
  -8  -5  -5    8.85    1.84
   8   5   5    2.99    1.87
 -10  -5  -5    0.22    1.92
   9  -6  -5    0.77    1.79
   7  -6  -5   40.05    3.48
   5  -6  -5   32.64    2.84
  -5   6   5   33.76    2.10
   3  -6  -5   12.16    1.87
  -3   6   5   17.08    1.79
   1  -6  -5   28.72    2.17
  -1   6   5   31.10    2.35
  -1  -6  -5   43.63    2.54
   1   6   5   40.99    2.80
  -3  -6  -5   33.70    2.27
   3   6   5   27.82    2.56
  -5  -6  -5    5.78    1.62
  -7  -6  -5   12.63    2.05
   7   6   5   11.74    2.26
   8  -7  -5    4.82    2.33
   6  -7  -5    9.99    2.73
  -6   7   5    9.34    1.46
   4  -7  -5   41.66    3.20
  -4   7   5   39.36    2.81
   2  -7  -5    4.65    1.83
  -2   7   5    3.69    1.64
   0  -7  -5   26.29    2.26
   0   7   5   24.92    2.49
  -2  -7  -5   15.62    1.87
   2   7   5   17.17    2.32
  -4  -7  -5   10.41    1.74
   4   7   5    7.43    2.18
  -6  -7  -5   30.28    2.72
   6   7   5   39.89    3.39
  -8  -7  -5    8.34    2.60
   8   7   5   12.41    2.42
   7  -8  -5    8.36    2.79
   5  -8  -5    4.56    2.15
  -5   8   5    5.47    1.77
   3  -8  -5   33.26    3.06
  -3   8   5   37.31    3.01
   1  -8  -5   16.52    2.20
  -1   8   5   17.42    2.36
  -1  -8  -5   10.64    1.82
   1   8   5   10.08    2.53
  -3  -8  -5   26.63    2.49
   3   8   5   29.03    3.04
  -5  -8  -5   22.08    2.53
   5   8   5   18.46    2.84
   7   8   5    6.54    2.52
   6  -9  -5   14.14    2.59
   4  -9  -5   13.05    2.49
  -4   9   5    6.13    1.97
   2  -9  -5   12.67    2.53
  -2   9   5    9.42    2.12
   0  -9  -5   28.62    2.81
   0   9   5   29.28    3.11
  -2  -9  -5    1.61    1.57
   2   9   5    4.23    2.17
  -4  -9  -5   18.22    2.57
   4   9   5   16.95    2.74
  -6  -9  -5    0.25    1.72
   6   9   5    5.12    2.44
   5 -10  -5    1.62    2.24
  -5  10   5    3.20    1.74
   3 -10  -5   11.84    3.10
  -3  10   5   10.60    2.39
  -1 -10  -5   12.73    2.47
   1  10   5    6.66    2.72
  -3 -10  -5    2.40    1.72
   3  10   5    3.86    2.18
  -5 -10  -5    0.95    1.81
   5  10   5    2.53    2.21
   2 -11  -5    5.96    2.68
  -2  11   5    5.79    2.28
   0 -11  -5    7.54    2.67
   0  11   5    4.39    2.21
  -2 -11  -5    4.88    2.13
   2  11   5    6.33    2.53
   3  11  -6    6.70    2.53
  -3 -11   6    3.90    2.25
   1  11  -6   13.59    2.75
  -1 -11   6    6.87    2.11
  -1  11  -6   20.53    3.27
   1 -11   6   19.70    2.97
  -3  11  -6   29.57    3.45
   3 -11   6   20.55    3.00
   4  10  -6    5.33    2.45
  -4 -10   6    5.73    2.41
   2  10  -6   12.09    3.16
  -2 -10   6   12.27    2.50
   0  10  -6   26.90    3.34
   0 -10   6   23.83    3.24
  -2  10  -6   15.85    2.99
   2 -10   6   15.43    2.48
  -4  10  -6    5.32    2.60
   4 -10   6    5.98    2.44
  -7  -9   6   13.81    2.66
  -5  -9   6    8.96    2.73
   3   9  -6   53.10    4.07
  -3  -9   6   50.81    3.98
   1   9  -6   31.36    3.37
  -1  -9   6   34.52    3.27
  -1   9  -6    6.55    2.32
   1  -9   6    8.91    2.36
  -3   9  -6   13.76    2.62
   3  -9   6   13.12    2.16
  -5   9  -6   23.47    3.02
  -7   9  -6   31.34    3.22
   7  -9   6   30.92    3.00
  -8  -8   6    5.46    2.47
   6   8  -6   20.81    2.41
  -6  -8   6   19.33    2.77
   4   8  -6   14.20    2.28
  -4  -8   6   17.42    2.54
   2   8  -6   16.33    2.53
  -2  -8   6   10.29    2.08
   0   8  -6   12.72    2.31
   0  -8   6   14.30    2.11
  -2   8  -6   14.77    2.42
   2  -8   6   12.45    1.95
  -4   8  -6   22.82    2.99
   4  -8   6   28.18    2.71
  -6   8  -6   20.03    2.82
   6  -8   6   15.11    2.34
   8  -8   6    8.18    2.90
   8  -8   6    4.25    1.73
   9   7  -6   17.11    3.12
   7   7  -6   22.30    3.15
   7   7  -6   25.58    2.46
   5   7  -6   11.18    1.84
   5   7  -6   15.75    2.63
  -5  -7   6   15.70    2.39
   3   7  -6   38.59    3.01
  -3  -7   6   34.56    2.95
   1   7  -6   35.71    3.02
  -1  -7   6   37.83    2.89
  -1   7  -6  146.35    5.62
   1  -7   6  154.61    5.05
  -3   7  -6   38.20    3.13
   3  -7   6   35.26    2.56
  -5   7  -6    7.78    2.27
   5  -7   6    7.56    2.12
  -7   7  -6   23.19    2.66
   7  -7   6   22.71    2.57
   7  -7   6   18.55    2.34
   9  -7   6   13.64    2.32
   8   6  -6   12.90    2.78
   6   6  -6    8.89    1.50
   6   6  -6    5.57    2.22
   4   6  -6   31.80    2.55
   4   6  -6   34.04    3.33
   2   6  -6   49.38    3.18
  -2  -6   6   51.16    3.07
   0   6  -6   35.35    2.73
   0  -6   6   36.84    2.46
  -2   6  -6   33.65    2.71
   2  -6   6   33.50    2.24
  -4   6  -6   17.97    2.26
   4  -6   6   17.15    1.99
  -6   6  -6    8.53    1.90
   8  -6   6   17.59    2.22
   8  -6   6   21.38    2.69
   9   5  -6   28.84    3.49
   7   5  -6   12.02    1.40
   7   5  -6    5.68    2.24
   5   5  -6  148.89    4.27
   5   5  -6  143.54    5.47
   3   5  -6   55.91    3.15
   3   5  -6   54.48    2.82
   1   5  -6   26.74    2.16
  -1  -5   6   29.51    2.10
  -1   5  -6   52.16    2.83
   1  -5   6   52.00    2.43
  -3   5  -6   61.42    3.27
   3  -5   6   61.78    2.70
  -5   5  -6  154.44    5.33
   5  -5   6  152.55    4.47
   7  -5   6   19.99    2.49
   7  -5   6   17.65    2.06
   9  -5   6   13.88    2.05
  10   4  -6    2.55    1.99
   8   4  -6   27.68    3.09
   6   4  -6   18.28    1.36
   4   4  -6   38.98    2.63
   4   4  -6   31.76    1.95
   2   4  -6   28.62    2.03
   2   4  -6   32.30    2.05
   0   4  -6   59.50    2.75
   0  -4   6   54.14    2.25
  -2   4  -6   86.93    3.46
   2  -4   6   86.18    2.69
  -4   4  -6   45.24    2.75
   4  -4   6   47.05    2.19
   6  -4   6   32.62    2.23
   6  -4   6   30.30    2.66
   8  -4   6   13.70    1.91
  11   3  -6   28.84    3.43
   9   3  -6   18.94    2.81
   7   3  -6   36.68    3.09
   5   3  -6   58.41    3.19
   5   3  -6   61.27    2.09
   3   3  -6   39.74    2.24
   3   3  -6   42.36    1.95
   1   3  -6  634.57    8.06
   1   3  -6  635.56    7.57
  -1   3  -6   71.86    2.83
   1  -3   6   67.66    2.06
  -3   3  -6   43.24    2.42
   3  -3   6   40.75    1.71
   5  -3   6   56.27    2.38
   5  -3   6   57.55    3.12
   7  -3   6   38.39    2.38
   7  -3   6   41.40    2.86
   9  -3   6   58.37    3.27
  10   2  -6   17.13    2.89
   8   2  -6    8.28    2.35
   6   2  -6   33.59    2.62
   4   2  -6   86.23    2.15
   4   2  -6   88.49    3.29
   2   2  -6   53.68    2.13
   2   2  -6   55.36    2.02
   0   2  -6   79.86    2.61
   0   2  -6   82.11    2.04
  -2   2  -6   53.16    2.40
   2  -2   6   50.82    1.40
   4  -2   6   27.93    2.05
   4  -2   6   29.88    1.45
   6  -2   6   56.66    2.95
   6  -2   6   57.38    2.44
   8  -2   6   15.06    1.82
   8  -2   6   17.17    2.08
  10  -2   6   15.16    2.43
  11   1  -6   18.06    3.04
   9   1  -6    5.53    2.26
   7   1  -6  164.57    5.75
   5   1  -6   58.04    2.97
   3   1  -6   69.04    1.74
   3   1  -6   69.22    2.57
   1   1  -6   85.08    2.09
   1   1  -6   85.09    2.32
  -1   1  -6   89.55    2.75
   1  -1   6   92.80    2.71
   1  -1   6   89.73    1.35
   3  -1   6  630.92    8.22
   3  -1   6  629.45    4.83
   5  -1   6   28.18    1.44
   5  -1   6   30.95    2.20
   7  -1   6   39.84    2.21
   7  -1   6   36.32    2.58
   9  -1   6   37.23    2.58
   9  -1   6   37.93    2.58
  10   0  -6   22.41    3.08
   8   0  -6    9.89    2.09
   6   0  -6   42.37    2.81
   4   0  -6   54.48    2.55
   2   0  -6   82.26    2.35
  -2   0   6   84.56    2.18
   0   0  -6  302.45    3.03
   0   0   6  305.23    4.51
   2   0   6   80.62    2.62
   4   0   6   49.96    1.38
   4   0   6   51.55    2.46
   6   0   6   38.03    1.81
   6   0   6   36.87    2.40
   8   0   6   15.64    1.98
   8   0   6   13.63    1.58
  10   0   6   24.64    2.52
  11  -1  -6    5.02    2.47
   9  -1  -6   34.12    3.36
   7  -1  -6   36.68    2.95
   5  -1  -6   29.48    2.21
   3  -1  -6  600.42    7.52
  -3   1   6  607.74    4.93
   1  -1  -6   88.15    2.10
  -1   1   6   84.04    2.23
  -1  -1  -6   83.38    1.23
   1   1   6   83.00    2.61
   3   1   6   66.92    2.68
   5   1   6   53.04    2.74
   5   1   6   57.59    1.91
   7   1   6  167.79    4.19
   7   1   6  164.10    5.04
   9   1   6    5.28    1.83
   9   1   6    8.48    1.65
  10  -2  -6    9.14    2.73
   8  -2  -6   13.89    2.38
   6  -2  -6   54.57    3.19
   4  -2  -6   30.15    1.94
  -4   2   6   29.36    0.93
   2  -2  -6   49.89    2.02
  -2   2   6   51.81    1.75
   0  -2  -6   76.28    1.92
   0   2   6   80.94    2.53
  -2  -2  -6   51.96    1.40
   2   2   6   51.58    2.35
   4   2   6   93.38    3.40
   4   2   6   86.22    2.26
   6   2   6   29.64    1.83
   6   2   6   32.30    2.48
   8   2   6   12.12    2.00
   8   2   6   11.67    1.76
  11  -3  -6    4.66    2.47
   9  -3  -6   60.57    4.31
   7  -3  -6   35.82    3.02
   5  -3  -6   49.25    2.95
  -5   3   6   52.33    1.14
   3  -3  -6   41.77    2.27
  -3   3   6   37.15    1.67
   1  -3  -6   68.76    2.34
  -1   3   6   71.16    2.52
  -1  -3  -6  598.96    6.30
   1   3   6  606.97    8.08
  -3  -3  -6   38.95    1.61
   3   3   6   39.01    2.31
   5   3   6   61.93    3.16
   5   3   6   56.47    2.37
   7   3   6   37.39    2.39
   7   3   6   35.86    2.69
   9   3   6   19.40    2.30
   9   3   6   20.92    2.35
  10  -4  -6    4.46    2.34
   8  -4  -6   15.09    2.68
   4  -4  -6   45.12    2.75
  -4   4   6   45.69    1.99
   2  -4  -6   86.63    3.13
  -2   4   6   83.02    2.88
   0  -4  -6   51.03    2.15
   0   4   6   46.99    2.66
  -2  -4  -6   26.23    1.58
   2   4   6   31.97    2.22
  -4  -4  -6   45.04    2.09
   4   4   6   42.04    2.70
  -6  -4  -6   16.19    1.64
   6   4   6   16.78    2.27
   8   4   6   32.98    2.95
   8   4   6   24.15    2.41
   9  -5  -6   10.64    3.05
   7  -5  -6   17.24    2.45
   5  -5  -6  155.16    5.45
  -5   5   6  150.67    3.62
   3  -5  -6   57.74    3.03
  -3   5   6   59.20    2.69
   1  -5  -6   54.14    2.60
  -1   5   6   49.18    2.65
  -1  -5  -6   25.91    1.76
   1   5   6   28.06    2.28
  -3  -5  -6   54.82    2.51
   3   5   6   57.91    3.25
  -5  -5  -6  159.44    4.42
   5   5   6  155.50    5.38
  -7  -5  -6    7.53    1.58
   7   5   6    4.69    1.98
  -9  -5  -6   34.15    2.84
   9   5   6   32.90    3.14
   8  -6  -6   16.30    2.67
   6  -6  -6    7.50    2.44
  -6   6   6   10.32    1.28
   4  -6  -6   13.79    2.26
  -4   6   6   19.12    1.87
   2  -6  -6   34.86    2.55
  -2   6   6   31.20    2.36
   0  -6  -6   36.32    2.32
   0   6   6   32.68    2.55
  -2  -6  -6   45.05    2.59
   2   6   6   48.44    3.18
  -4  -6  -6   26.22    2.08
   4   6   6   34.43    2.91
  -6  -6  -6    8.83    1.67
   6   6   6    5.50    2.19
  -8  -6  -6   21.99    2.48
   8   6   6   19.61    2.58
   9  -7  -6   19.73    2.95
   7  -7  -6   18.87    3.28
   5  -7  -6    8.31    2.30
  -5   7   6    9.03    1.60
   3  -7  -6   33.43    2.86
  -3   7   6   33.85    2.74
   1  -7  -6  156.04    5.14
  -1   7   6  157.25    5.47
  -1  -7  -6   37.09    2.59
   1   7   6   36.67    3.03
  -3  -7  -6   33.88    2.47
   3   7   6   33.07    3.03
  -5  -7  -6   16.25    1.99
   5   7   6   16.13    2.42
  -7  -7  -6   24.78    2.51
   7   7   6   21.85    2.82
   9   7   6   32.22    3.36
   8  -8  -6    6.41    2.50
   6  -8  -6   15.84    2.82
   4  -8  -6   24.09    2.83
  -4   8   6   34.77    2.89
   2  -8  -6   11.12    2.13
  -2   8   6   14.26    2.33
   0  -8  -6   11.61    1.93
   0   8   6   13.58    2.22
  -2  -8  -6   13.81    2.08
   2   8   6   15.94    2.47
  -4  -8  -6   14.05    1.98
   4   8   6   16.35    2.57
  -6  -8  -6   18.76    2.48
  -8  -8  -6    7.62    2.45
   8   8   6    7.50    2.34
   7  -9  -6   27.53    3.28
   5  -9  -6   22.46    3.17
  -5   9   6   32.35    2.82
   3  -9  -6   16.07    2.57
  -3   9   6   19.39    2.57
   1  -9  -6    3.07    2.06
  -1   9   6    3.26    2.03
  -1  -9  -6   27.36    2.82
   1   9   6   26.64    3.16
  -3  -9  -6   57.56    3.64
   3   9   6   44.51    3.87
   5   9   6    5.19    2.19
  -7  -9  -6   19.73    2.71
   7   9   6   18.91    2.90
   4 -10  -6    6.47    2.50
  -4  10   6    3.34    1.61
   2 -10  -6   20.48    3.06
  -2  10   6   22.46    2.88
   0  10   6   14.98    2.72
  -2 -10  -6   15.46    2.47
   2  10   6   16.74    2.81
  -4 -10  -6   10.78    2.14
   4  10   6    4.78    2.37
   3 -11  -6   20.42    2.97
  -3  11   6   22.86    2.99
   1 -11  -6   18.53    2.87
  -1  11   6   20.19    3.11
  -1 -11  -6   13.67    2.44
   1  11   6   10.94    3.06
  -3 -11  -6    2.21    1.72
   3  11   6    2.36    1.98
   2  11  -7    5.71    2.38
  -2 -11   7    8.84    2.85
   0  11  -7    4.80    2.44
   0 -11   7    3.78    2.05
  -2  11  -7    4.06    2.13
   2 -11   7    8.71    2.53
   5  10  -7    3.51    1.92
  -5 -10   7    2.41    2.14
   3  10  -7    6.52    2.74
  -3 -10   7    4.27    2.21
   1  10  -7    5.13    2.32
  -1 -10   7    9.65    2.76
  -1  10  -7   11.12    2.54
   1 -10   7   10.71    2.80
  -3  10  -7   15.27    2.80
   3 -10   7   15.14    2.40
  -5  10  -7    2.64    1.87
   5 -10   7    2.47    1.98
   6   9  -7    5.13    2.13
  -6  -9   7    4.22    2.17
   4   9  -7   16.73    2.62
  -4  -9   7   17.81    2.98
   2   9  -7    0.49    1.70
  -2  -9   7    3.86    2.27
   0   9  -7   20.72    2.93
   0  -9   7   17.18    2.63
  -2   9  -7   14.00    2.58
   2  -9   7   17.04    2.33
  -4   9  -7   10.58    3.28
   4  -9   7   11.26    2.33
  -6   9  -7   18.45    3.02
   6  -9   7   16.23    2.47
  -7  -8   7    6.81    2.37
   5   8  -7   17.27    2.40
  -5  -8   7   16.34    2.62
   3   8  -7   42.63    3.45
  -3  -8   7   42.75    3.44
   1   8  -7    6.01    2.12
  -1  -8   7    7.06    2.16
  -1   8  -7   22.09    2.77
   1  -8   7   21.91    2.46
  -3   8  -7   16.89    2.53
   3  -8   7   18.99    2.38
  -5   8  -7    8.28    2.44
   5  -8   7    8.37    1.83
  -7   8  -7    3.00    2.07
   7  -8   7    6.22    2.41
   7  -8   7    2.11    1.56
   8   7  -7    2.67    2.36
   6   7  -7   15.80    2.77
   6   7  -7   18.65    2.17
   4   7  -7   21.17    2.35
  -4  -7   7   15.44    2.35
  -2  -7   7   16.50    2.39
   0  -7   7   45.23    2.95
  -2   7  -7    5.05    1.94
   2  -7   7    2.45    1.47
  -4   7  -7   26.03    2.80
   4  -7   7   22.41    2.47
  -6   7  -7   13.30    2.35
   6  -7   7    6.37    1.94
   8  -7   7   10.90    2.42
   9   6  -7   16.84    3.25
   7   6  -7    7.77    2.54
   5   6  -7    4.85    1.61
   5   6  -7    9.33    2.48
   3   6  -7   22.49    2.25
   3   6  -7   20.07    2.39
  -3  -6   7   20.52    2.23
   1   6  -7   42.84    3.02
  -1  -6   7   40.27    2.66
  -1   6  -7   43.63    3.09
   1  -6   7   38.04    2.39
  -3   6  -7   17.38    2.24
   3  -6   7   17.76    1.77
  -5   6  -7   37.04    3.07
   5  -6   7   38.94    2.64
   7  -6   7   12.85    2.37
   7  -6   7   16.27    2.08
  10   5  -7    2.24    2.21
   8   5  -7    4.66    2.21
   6   5  -7   37.89    2.14
   6   5  -7   37.51    3.31
   4   5  -7   13.95    2.04
   4   5  -7   16.01    1.78
   2   5  -7   50.33    2.87
   2   5  -7   54.37    2.97
  -2  -5   7   48.16    2.74
   0   5  -7   52.04    2.93
   0  -5   7   47.99    2.47
  -2   5  -7   31.14    2.47
   2  -5   7   31.31    1.90
  -4   5  -7   60.19    3.43
   4  -5   7   64.64    2.83
   6  -5   7    4.77    1.52
   6  -5   7    3.68    2.85
   8  -5   7   22.15    2.59
   8  -5   7   16.38    2.10
   9   4  -7    9.46    2.82
   7   4  -7   28.31    2.99
   5   4  -7   63.92    3.55
   5   4  -7   64.38    2.56
   3   4  -7   34.78    2.39
   3   4  -7   36.09    2.19
   1   4  -7   34.82    2.26
   1   4  -7   35.31    2.09
  -1  -4   7   33.45    1.99
  -1   4  -7   50.54    2.75
   1  -4   7   53.71    2.18
  -3   4  -7   39.54    2.58
   3  -4   7   37.52    1.87
  -5   4  -7   16.33    2.03
   5  -4   7   14.62    1.47
   7  -4   7   16.83    2.65
   7  -4   7   17.52    1.88
   9  -4   7   22.04    2.63
   9  -4   7   20.68    2.40
  10   3  -7    6.47    2.45
   8   3  -7   15.53    2.52
   6   3  -7   16.98    2.24
   6   3  -7   19.06    1.06
   4   3  -7   39.89    2.54
   4   3  -7   37.78    1.90
   2   3  -7   77.07    2.77
   2   3  -7   80.73    2.93
   0   3  -7   26.04    1.85
   0  -3   7   24.54    1.41
  -2   3  -7   71.08    3.04
   2  -3   7   75.66    2.11
  -4   3  -7   37.98    2.54
   4  -3   7   40.42    1.80
   6  -3   7   23.84    2.44
   8  -3   7   43.38    2.64
  11   2  -7    5.49    2.26
   9   2  -7   15.09    2.56
   7   2  -7    2.51    1.72
   5   2  -7   32.44    2.42
   3   2  -7   69.95    2.72
   3   2  -7   68.30    2.18
   1   2  -7   87.80    2.73
   1   2  -7   87.99    2.46
  -1   2  -7   80.54    2.93
  -3   2  -7   78.41    3.19
   3  -2   7   79.34    3.22
   5  -2   7   44.07    2.72
   5  -2   7   51.28    1.91
   7  -2   7   16.68    2.17
   7  -2   7   15.88    1.53
   9  -2   7    3.01    1.32
   9  -2   7    3.82    1.81
  10   1  -7    5.73    2.59
   8   1  -7   24.59    2.75
   6   1  -7   47.82    2.97
   4   1  -7   50.91    2.60
  -4  -1   7   52.70    1.44
   2   1  -7   73.90    2.19
   2   1  -7   79.67    2.45
  -2  -1   7   70.26    2.10
   0   1  -7   72.48    2.49
   0   1  -7   73.52    1.67
   0  -1   7   78.33    2.51
   2  -1   7   91.49    3.11
   4  -1   7   31.76    1.10
   4  -1   7   33.69    2.22
   6  -1   7   39.73    1.80
   6  -1   7   37.61    2.57
   8  -1   7    6.08    1.17
   8  -1   7    7.61    2.05
  11   0  -7    8.22    2.64
   9   0  -7   23.93    2.95
   7   0  -7   52.76    3.94
   5   0  -7   46.26    2.71
   3   0  -7   27.43    1.73
  -3   0   7   25.49    1.10
   1   0  -7   75.87    1.99
  -1   0   7   74.33    2.24
   1   0   7   76.77    2.62
   3   0   7   24.64    1.84
   5   0   7   49.44    1.57
   5   0   7   48.50    2.72
   7   0   7   44.76    2.84
   7   0   7   41.14    2.01
   9   0   7   21.95    2.03
   9   0   7   24.62    2.62
  10  -1  -7    8.65    2.79
   8  -1  -7    7.65    2.33
   6  -1  -7   36.37    2.72
   4  -1  -7   32.95    2.10
  -4   1   7   31.56    0.65
  -4   1   7   31.01    0.64
   2  -1  -7   88.14    2.53
  -2   1   7   89.83    2.24
   0  -1  -7   74.71    1.65
   0   1   7   74.85    2.49
   2   1   7   75.87    2.84
   4   1   7   50.58    2.66
   4   1   7   49.67    1.37
   6   1   7   42.29    1.84
   6   1   7   41.42    2.78
   8   1   7   23.44    1.81
   8   1   7   21.30    2.43
  11  -2  -7    7.26    2.77
   9  -2  -7    4.95    2.41
   7  -2  -7   18.93    2.39
   5  -2  -7   49.70    2.90
   3  -2  -7   75.25    2.82
  -3   2   7   75.27    2.03
   1  -2  -7   74.58    2.19
  -1   2   7   74.63    2.43
  -1  -2  -7   87.88    1.84
   1   2   7   90.57    3.03
  -3  -2  -7   72.26    1.64
   3   2   7   70.63    3.02
   5   2   7   31.76    1.56
   5   2   7   29.84    2.32
   7   2   7    2.70    1.10
   7   2   7    2.65    1.52
   9   2   7   14.84    1.90
   9   2   7   20.69    2.55
  10  -3  -7    4.52    2.33
   8  -3  -7   45.57    3.62
   6  -3  -7   23.24    2.43
   4  -3  -7   41.96    2.57
  -4   3   7   41.04    1.61
   2  -3  -7   69.13    2.63
  -2   3   7   72.17    2.45
   0  -3  -7   24.19    1.41
   0   3   7   24.66    1.73
  -2  -3  -7   73.76    2.03
   2   3   7   73.02    3.07
  -4  -3  -7   35.67    1.59
   4   3   7   37.13    2.52
  -6  -3  -7   16.77    1.56
   6   3   7   14.31    1.99
   8   3   7   15.44    2.33
   8   3   7   12.54    1.77
   9  -4  -7   24.20    3.09
   7  -4  -7   15.44    2.36
   5  -4  -7   13.55    1.97
  -5   4   7   17.11    1.11
   3  -4  -7   34.40    2.31
  -3   4   7   33.24    1.91
   1  -4  -7   49.82    2.30
  -1   4   7   43.18    2.54
  -1  -4  -7   29.37    1.64
   1   4   7   29.79    2.17
  -3  -4  -7   35.05    1.75
   3   4   7   37.38    2.55
  -5  -4  -7   59.32    2.44
   5   4   7   60.34    3.40
  -7  -4  -7   24.24    1.94
   7   4   7   29.80    2.77
   9   4   7   13.08    2.31
  10  -5  -7    3.44    2.00
   8  -5  -7   20.91    2.88
   6  -5  -7    5.66    2.06
   4  -5  -7   57.84    3.31
   2  -5  -7   32.22    2.26
  -2   5   7   31.41    2.20
   0  -5  -7   47.29    2.40
   0   5   7   44.76    2.71
  -2  -5  -7   43.13    2.19
   2   5   7   49.12    2.90
  -4  -5  -7   13.32    1.47
   4   5   7   13.18    1.99
  -6  -5  -7   32.13    2.21
   6   5   7   40.40    3.26
  -8  -5  -7    9.86    1.65
   8   5   7   11.39    2.36
   9  -6  -7    2.66    2.00
   7  -6  -7   13.13    2.49
   5  -6  -7   37.75    3.14
  -5   6   7   36.96    2.17
   3  -6  -7   18.95    2.20
  -3   6   7   16.37    1.88
   1  -6  -7   42.09    2.73
  -1   6   7   40.39    2.73
  -1  -6  -7   38.87    2.35
   1   6   7   38.76    2.90
  -3  -6  -7   23.82    1.92
   3   6   7   20.66    2.44
  -5  -6  -7    5.80    1.73
   5   6   7    4.34    1.91
  -7  -6  -7   11.67    1.67
   7   6   7    7.29    2.38
   9   6   7   21.13    3.02
   8  -7  -7   10.76    2.99
   6  -7  -7   17.35    2.62
   4  -7  -7   21.59    2.62
  -2   7   7    1.74    1.43
   0  -7  -7   41.32    2.75
   0   7   7   41.27    3.12
  -2  -7  -7   13.22    1.83
   2   7   7   17.54    2.40
  -4  -7  -7   15.96    1.97
   4   7   7   16.14    2.46
  -6  -7  -7   19.81    2.21
   6   7   7   20.39    2.96
   8   7   7    8.76    2.57
   7  -8  -7    8.27    2.71
   5  -8  -7    9.39    2.61
  -5   8   7    4.96    1.61
   3  -8  -7   15.16    2.35
  -3   8   7   16.09    2.36
   1  -8  -7   21.60    2.49
  -1   8   7   20.14    2.57
  -1  -8  -7    7.46    1.94
   1   8   7   11.01    2.28
  -3  -8  -7   36.41    2.81
   3   8   7   35.95    3.43
  -5  -8  -7   16.41    2.20
   5   8   7   14.14    2.50
  -7  -8  -7    5.61    1.97
   7   8   7    5.11    2.37
   6  -9  -7   23.65    3.15
   4  -9  -7   12.62    2.56
  -4   9   7   17.48    2.30
   2  -9  -7   16.09    2.54
  -2   9   7   13.60    2.28
   0  -9  -7   22.95    2.66
   0   9   7   18.69    2.74
  -2  -9  -7    1.72    1.55
   2   9   7    2.52    1.92
  -4  -9  -7   22.70    2.46
   4   9   7   19.42    2.96
  -6  -9  -7    4.64    2.28
   6   9   7    3.45    2.05
   5 -10  -7    2.91    2.20
   3 -10  -7   13.60    2.56
  -3  10   7   13.58    2.56
   1 -10  -7   10.94    2.79
  -1  10   7   11.29    2.39
  -1 -10  -7    6.37    2.09
   1  10   7    7.16    2.67
  -3 -10  -7    7.81    2.29
   3  10   7    2.39    2.07
  -5 -10  -7    0.64    1.68
   5  10   7    3.92    2.28
   2 -11  -7   15.75    2.88
   0 -11  -7    4.95    2.25
   0  11   7    9.81    2.86
  -2 -11  -7   10.80    2.20
   2  11   7    7.74    2.69
   1  11  -8    5.07    2.52
  -1 -11   8    1.66    1.96
  -1  11  -8    6.84    2.43
   1 -11   8   13.04    2.42
   4  10  -8   11.37    3.04
  -4 -10   8    4.90    2.55
   2  10  -8   20.43    3.31
  -2 -10   8   19.50    2.87
   0  10  -8    1.94    2.06
   0 -10   8    5.67    2.17
  -2  10  -8    2.18    1.95
   2 -10   8    4.16    2.09
  -4  10  -8   22.52    3.10
   4 -10   8   16.06    2.56
   5   9  -8   17.74    2.73
  -5  -9   8   24.07    3.16
   3   9  -8    6.08    2.45
   1   9  -8   14.19    2.77
  -1  -9   8   16.72    2.67
  -1   9  -8    8.78    2.53
   1  -9   8   13.35    2.16
  -3   9  -8    5.56    2.55
   3  -9   8    6.16    1.92
  -5   9  -8   10.30    2.84
   5  -9   8    8.83    2.36
   6   8  -8    2.68    1.91
  -6  -8   8    2.81    1.97
   4   8  -8    1.91    1.67
  -4  -8   8    1.51    2.01
   2   8  -8   19.73    2.74
  -2  -8   8   30.07    3.00
   0   8  -8    5.52    2.20
   0  -8   8    6.10    1.93
  -2   8  -8   31.12    3.22
   2  -8   8   25.49    2.54
  -4   8  -8    8.11    2.44
   4  -8   8    6.02    1.86
  -6   8  -8    9.72    2.76
   6  -8   8    9.71    1.96
   7   7  -8    2.68    2.15
   5   7  -8   18.40    2.23
   5   7  -8   21.19    2.94
  -5  -7   8   25.15    2.88
   3   7  -8    9.05    1.89
  -3  -7   8   13.21    2.24
   1   7  -8   39.29    3.27
  -1  -7   8   37.12    3.26
  -1   7  -8   13.30    2.25
   1  -7   8   10.09    1.66
  -3   7  -8   27.20    3.06
   3  -7   8   26.44    2.25
  -5   7  -8   17.80    2.79
   5  -7   8   24.39    2.37
   7  -7   8   11.29    1.85
   8   6  -8    3.78    2.12
   6   6  -8   17.44    1.85
   6   6  -8   15.73    2.71
   4   6  -8   51.04    3.11
   4   6  -8   52.25    3.60
   2   6  -8   19.80    2.24
  -2  -6   8   15.66    1.99
   0   6  -8    9.23    1.90
   0  -6   8    8.59    1.54
  -2   6  -8   45.88    3.26
   2  -6   8   51.27    2.71
  -4   6  -8    3.71    1.79
   4  -6   8    4.31    1.54
  -6   6  -8   21.97    2.88
   6  -6   8   20.12    2.14
   8  -6   8    4.74    2.20
   9   5  -8    7.67    2.56
   7   5  -8   20.64    2.84
   5   5  -8    9.77    1.46
   5   5  -8    9.22    2.04
   3   5  -8   32.20    2.60
   3   5  -8   29.36    2.28
   1   5  -8   45.12    2.87
  -1  -5   8   46.78    2.65
  -1   5  -8   21.33    2.06
   1  -5   8   22.90    1.76
  -3   5  -8   29.75    2.59
   3  -5   8   30.10    1.92
   5  -5   8    7.18    1.30
   7  -5   8   20.02    2.67
   7  -5   8   21.54    2.06
   9  -5   8   20.72    2.86
  10   4  -8    5.40    2.51
   8   4  -8    4.45    2.25
   6   4  -8    2.66    1.66
   6   4  -8    4.68    0.88
   4   4  -8   23.24    2.37
   4   4  -8   27.50    1.94
   2   4  -8   33.57    2.22
   2   4  -8   27.81    2.09
   0   4  -8   69.81    3.24
   0  -4   8   80.49    2.76
  -2   4  -8   35.46    2.50
   2  -4   8   32.38    1.70
  -4   4  -8   25.13    2.41
   4  -4   8   27.12    1.70
   6  -4   8   50.92    2.48
   6  -4   8   53.25    3.50
   8  -4   8   -0.12    1.60
   8  -4   8    2.00    1.21
   9   3  -8    5.08    2.87
   7   3  -8   33.01    3.11
   5   3  -8   31.97    1.59
   5   3  -8   31.61    2.59
   3   3  -8   64.00    2.58
   3   3  -8   64.15    2.88
   1   3  -8   27.82    1.70
   1   3  -8   30.21    2.00
  -1   3  -8   60.70    2.86
   1  -3   8   56.92    1.91
  -3   3  -8   61.59    3.18
   3  -3   8   61.99    1.95
   5  -3   8   30.30    1.65
   5  -3   8   24.57    2.42
   7  -3   8   12.82    2.40
   7  -3   8   16.10    1.53
   9  -3   8    5.16    2.06
  10   2  -8    3.61    2.32
   8   2  -8   28.85    3.02
   6   2  -8   51.42    3.26
   4   2  -8   33.59    1.58
   4   2  -8   34.07    2.26
   2   2  -8   26.95    1.69
   2   2  -8   25.48    1.68
   0   2  -8   71.10    2.00
   0   2  -8   71.61    2.80
  -2   2  -8   24.45    1.95
   2  -2   8   27.17    0.97
   4  -2   8   35.22    2.50
   6  -2   8   21.19    2.24
   6  -2   8   18.50    1.33
   8  -2   8   20.55    2.51
   8  -2   8   22.29    1.65
  11   1  -8    6.95    2.52
   9   1  -8   17.36    2.70
   7   1  -8   10.39    2.02
   5   1  -8   23.56    2.16
   3   1  -8   62.70    2.60
  -3  -1   8   66.14    2.06
   1   1  -8   68.32    2.02
  -1  -1   8   65.17    2.33
   1  -1   8   66.16    1.15
   1  -1   8   63.51    2.63
   3  -1   8   23.13    1.92
   5  -1   8   46.56    2.84
   7  -1   8   38.23    2.97
   7  -1   8   37.96    1.75
   9  -1   8   19.69    2.45
  10   0  -8    2.98    2.29
   8   0  -8    9.28    2.64
   6   0  -8   11.80    1.90
   4   0  -8   71.31    3.02
  -4   0   8   72.18    1.50
   2   0  -8   71.57    2.36
  -2   0   8   72.65    2.23
   0   0  -8   59.76    1.44
   0   0   8   61.72    2.37
   2   0   8   72.36    2.89
   4   0   8   67.80    3.14
   6   0   8   10.35    0.92
   6   0   8   10.69    1.81
   8   0   8   16.62    2.03
  11  -1  -8    2.58    2.20
   9  -1  -8   17.94    2.78
   7  -1  -8   38.06    3.09
   5  -1  -8   45.26    2.74
   3  -1  -8   28.45    1.87
  -3   1   8   27.83    1.30
   1  -1  -8   68.02    2.01
  -1   1   8   69.07    2.40
  -1  -1  -8   64.40    1.07
   1   1   8   67.63    2.64
   3   1   8   60.99    2.90
   5   1   8   19.89    2.05
   7   1   8    8.07    2.21
   7   1   8   11.18    1.18
   9   1   8   16.54    2.41
  10  -2  -8   24.49    3.25
   8  -2  -8   19.45    2.69
   6  -2  -8   22.11    2.37
   4  -2  -8   33.28    2.22
   2  -2  -8   25.99    1.60
  -2   2   8   25.96    1.53
   0  -2  -8   83.75    2.07
   0   2   8   71.25    2.72
  -2  -2  -8   25.99    0.91
   2   2   8   26.73    1.99
   4   2   8   36.16    2.54
  -6  -2  -8   48.67    1.77
   6   2   8   50.92    3.21
   8   2   8   25.72    1.77
   8   2   8   28.73    2.82
  10   2   8    4.28    2.43
   9  -3  -8    6.54    2.61
   7  -3  -8   13.50    2.29
   5  -3  -8   27.01    2.38
  -5   3   8   26.92    0.82
   3  -3  -8   60.66    2.84
  -3   3   8   59.24    2.24
   1  -3  -8   61.01    2.32
  -1   3   8   57.66    2.45
  -1  -3  -8   26.57    1.34
   1   3   8   27.05    2.02
  -3  -3  -8   56.80    1.75
   3   3   8   60.19    3.12
  -5  -3  -8   30.25    1.45
   5   3   8   29.62    2.55
  -7  -3  -8   30.79    1.73
   7   3   8   31.16    2.81
   9   3   8    6.62    2.16
  10  -4  -8    9.23    2.82
   8  -4  -8    2.27    2.02
   6  -4  -8   50.40    3.43
   4  -4  -8   30.60    2.45
  -4   4   8   27.67    1.69
   2  -4  -8   34.39    2.16
   0  -4  -8   70.99    2.61
   0   4   8   67.12    3.04
  -2  -4  -8   34.22    1.69
   2   4   8   35.43    2.49
  -4  -4  -8   27.49    1.56
   4   4   8   27.10    2.45
  -6  -4  -8    5.65    0.96
   6   4   8    3.69    1.86
   8   4   8    6.13    2.08
  10   4   8   27.02    3.32
   9  -5  -8   25.51    3.24
   7  -5  -8   14.83    2.65
   5  -5  -8    8.53    1.88
  -5   5   8   10.00    1.17
   3  -5  -8   29.76    2.40
  -3   5   8   29.74    2.11
   1  -5  -8   26.09    2.08
  -1   5   8   21.70    1.99
  -1  -5  -8   39.72    2.12
   1   5   8   43.90    2.86
  -3  -5  -8   25.58    1.78
   3   5   8   22.20    2.37
  -5  -5  -8    8.04    1.24
   5   5   8    9.38    1.99
  -7  -5  -8   20.68    1.80
   7   5   8   19.97    2.61
   9   5   8   12.27    2.54
   8  -6  -8    3.77    2.13
   6  -6  -8   17.35    2.51
   4  -6  -8    4.76    1.88
  -4   6   8    4.53    1.46
   2  -6  -8   50.67    3.04
  -2   6   8   52.07    3.11
   0  -6  -8    7.96    1.44
   0   6   8   10.01    1.80
  -2  -6  -8   18.55    1.73
   2   6   8   18.04    2.32
  -4  -6  -8   46.74    2.55
   4   6   8   50.47    3.59
  -6  -6  -8   16.71    1.81
   6   6   8   12.43    2.39
   8   6   8    9.78    2.73
   7  -7  -8    2.75    2.08
   5  -7  -8   20.02    2.70
  -5   7   8   22.60    2.07
   3  -7  -8   31.29    2.84
  -3   7   8   23.66    2.47
   1  -7  -8   10.22    1.96
  -1   7   8   11.42    1.95
  -1  -7  -8   36.60    2.53
   1   7   8   31.91    2.96
  -3  -7  -8    8.43    1.62
   3   7   8   16.06    2.47
  -5  -7  -8   15.35    1.87
   5   7   8   22.19    2.88
  -7  -7  -8    5.80    2.09
   7   7   8    5.71    2.34
   6  -8  -8    5.22    2.23
   4  -8  -8    6.84    2.20
  -4   8   8    5.12    1.80
   2  -8  -8   30.27    2.93
  -2   8   8   25.74    2.75
   0  -8  -8    8.03    2.21
   0   8   8    6.86    2.14
  -2  -8  -8   21.62    2.21
   2   8   8   24.94    2.93
  -4  -8  -8    3.78    1.66
   4   8   8   -0.90    1.55
  -6  -8  -8    4.99    1.92
   6   8   8    4.30    2.25
   5  -9  -8    6.38    2.61
  -3   9   8    2.47    1.70
   1  -9  -8   16.39    2.45
  -1   9   8   10.10    2.27
  -1  -9  -8   14.30    2.33
   1   9   8   15.98    2.61
  -3  -9  -8    6.78    2.19
   3   9   8    5.82    2.30
  -5  -9  -8   19.82    2.43
   5   9   8   20.28    3.22
   4 -10  -8   18.16    2.86
  -4  10   8   17.71    2.46
   2 -10  -8    4.64    2.18
  -2  10   8    3.78    2.06
   0 -10  -8    5.64    2.15
   0  10   8    7.96    2.70
  -2 -10  -8   25.67    2.93
   2  10   8   24.61    3.51
  -4 -10  -8    9.22    2.46
   4  10   8    2.82    2.11
   1 -11  -8   11.21    2.89
  -1  11   8   11.34    2.61
  -1 -11  -8    2.24    1.71
   1  11   8    5.58    2.46
   3  10  -9   22.43    3.08
  -3 -10   9   15.36    2.70
   1  10  -9   10.07    3.12
  -1 -10   9    6.16    2.34
  -1  10  -9    4.58    2.53
   1 -10   9    6.56    2.32
  -3  10  -9    6.76    2.68
   3 -10   9    6.92    2.14
   6   9  -9   10.55    2.89
  -6  -9   9   11.52    2.42
   4   9  -9    4.50    2.04
  -4  -9   9    9.38    2.84
   2   9  -9   15.84    2.91
  -2  -9   9   16.89    2.57
   0   9  -9   20.07    3.06
   0  -9   9   19.40    2.51
  -2   9  -9   22.69    3.60
   2  -9   9   32.51    2.89
  -4   9  -9   22.28    3.09
   4  -9   9   18.91    3.73
  -6   9  -9    2.46    1.82
  -7  -8   9   12.98    2.70
   5   8  -9   12.80    2.22
  -5  -8   9   13.84    2.57
   3   8  -9   12.95    2.31
  -3  -8   9   11.52    2.43
   1   8  -9   65.30    4.46
  -1  -8   9   64.78    3.94
  -1   8  -9   20.15    2.82
   1  -8   9   20.66    2.25
  -3   8  -9   13.50    2.49
   3  -8   9   14.65    2.17
  -5   8  -9    6.67    2.49
   5  -8   9    9.26    1.90
   7  -8   9   13.52    2.65
   8   7  -9    4.90    2.37
   6   7  -9   21.53    2.36
   4   7  -9   45.16    3.27
  -4  -7   9   46.10    3.53
   2   7  -9   20.93    2.58
  -2  -7   9   24.82    2.68
   0   7  -9    8.08    2.34
   0  -7   9    8.32    1.67
  -2   7  -9   27.24    2.94
   2  -7   9   24.47    2.16
  -4   7  -9   20.10    2.69
  -6   7  -9   40.52    3.80
   6  -7   9   36.94    2.66
   8  -7   9   17.12    2.72
   9   6  -9    5.55    2.59
   7   6  -9   31.65    3.99
   5   6  -9   22.30    2.98
   5   6  -9   22.26    2.20
   3   6  -9   25.36    2.42
   1   6  -9   21.42    2.41
  -1  -6   9   22.70    2.15
  -1   6  -9   20.89    2.47
   1  -6   9   20.39    1.93
  -3   6  -9   85.17    4.42
   3  -6   9   85.30    3.33
  -5   6  -9   18.85    2.58
   5  -6   9   20.57    1.96
   7  -6   9   17.89    2.61
   9  -6   9   10.04    3.26
   8   5  -9   10.10    2.87
   6   5  -9   22.07    1.70
   6   5  -9   18.98    2.68
   4   5  -9   22.07    2.48
   4   5  -9   22.12    2.10
   2   5  -9   50.13    2.97
   2   5  -9   50.08    3.11
  -2  -5   9   56.12    3.01
   0   5  -9  132.88    4.91
   0  -5   9  127.75    3.95
  -2   5  -9   38.33    2.90
   2  -5   9   39.41    2.09
   4  -5   9    9.15    1.28
   6  -5   9   26.56    1.97
   6  -5   9   25.09    2.77
   8  -5   9   14.49    2.63
   9   4  -9   16.69    2.87
   7   4  -9   19.93    2.74
   5   4  -9    8.92    1.97
   5   4  -9   12.19    1.36
   3   4  -9  140.81    4.64
   3   4  -9  137.40    4.20
   1   4  -9   38.20    2.29
   1   4  -9   35.96    2.47
  -1  -4   9   35.88    2.15
  -1   4  -9   54.53    3.06
   1  -4   9   56.23    2.21
  -3   4  -9   31.98    2.65
   3  -4   9   28.77    1.60
   5  -4   9   21.64    2.67
   5  -4   9   24.37    1.62
   7  -4   9   43.67    3.52
   7  -4   9   47.59    2.49
   9  -4   9    4.35    1.94
  10   3  -9    8.65    2.74
   8   3  -9   12.84    2.45
   6   3  -9   87.63    4.38
   4   3  -9   28.80    1.79
   4   3  -9   28.69    2.33
   2   3  -9   27.33    2.09
   2   3  -9   27.18    1.88
   0   3  -9   36.98    2.36
   0  -3   9   36.11    1.68
  -2   3  -9   49.64    2.91
   2  -3   9   54.57    1.71
   4  -3   9  143.73    2.91
   4  -3   9  142.43    5.21
   6  -3   9   30.16    1.61
   6  -3   9   30.27    2.92
   8  -3   9   13.33    2.37
   9   2  -9   32.46    3.48
   7   2  -9   25.02    2.71
   5   2  -9   42.35    2.80
  -5  -2   9   41.00    1.52
   3   2  -9   56.01    2.26
   3   2  -9   52.55    2.59
   1   2  -9   35.08    1.73
   1   2  -9   37.62    2.14
  -1   2  -9  255.41    5.77
   3  -2   9   30.23    2.40
   3  -2   9   30.62    0.84
   5  -2   9   57.03    3.38
   7  -2   9   24.43    2.81
   9  -2   9   15.04    2.45
  10   1  -9    4.57    2.26
   8   1  -9   20.14    2.62
   6   1  -9   22.09    2.37
   4   1  -9   50.30    2.70
  -4  -1   9   55.74    1.83
   2   1  -9  256.29    4.64
  -2  -1   9  246.10    4.55
   0   1  -9   67.48    1.72
   0  -1   9   66.39    2.68
   2  -1   9   38.53    2.34
   4  -1   9   35.07    2.53
   6  -1   9   20.46    2.27
   8  -1   9   60.49    3.70
   9   0  -9   25.43    3.11
   7   0  -9    8.93    2.31
   5   0  -9  127.14    4.46
   3   0  -9   41.05    2.43
  -3   0   9   40.74    1.69
   1   0  -9   73.66    2.16
  -1   0   9   73.02    2.62
   1   0   9   69.16    2.83
   3   0   9   37.81    2.44
   5   0   9  128.50    4.69
   7   0   9    8.73    2.14
   9   0   9   24.39    2.76
  10  -1  -9    4.92    2.40
   8  -1  -9   60.55    4.13
   6  -1  -9   20.02    2.47
   4  -1  -9   39.80    2.38
   2  -1  -9   34.21    1.76
  -2   1   9   34.57    1.71
   0   1   9   64.87    2.67
   2   1   9  256.20    5.76
   4   1   9   51.28    2.99
   6   1   9   21.36    2.30
   8   1   9   25.05    2.87
  10   1   9    7.50    2.49
   9  -2  -9   17.04    2.81
   7  -2  -9   29.32    2.93
   5  -2  -9   56.51    3.14
   3  -2  -9   27.38    1.88
  -3   2   9   31.54    1.60
   1  -2  -9  247.31    4.22
  -1   2   9  239.06    4.88
  -1  -2  -9   31.90    1.14
   1   2   9   32.98    2.17
  -3  -2  -9   49.79    0.83
   3   2   9   52.47    2.95
  -5  -2  -9   40.59    1.09
   5   2   9   38.69    2.87
   7   2   9   15.93    2.28
   9   2   9   32.98    3.08
  10  -3  -9   18.94    3.03
   8  -3  -9   12.22    3.02
   6  -3  -9   33.21    2.90
   4  -3  -9  138.00    4.50
  -4   3   9  128.08    2.98
   2  -3  -9   52.87    2.41
  -2   3   9   52.92    2.40
   0  -3  -9   42.05    1.79
   0   3   9   42.15    2.40
  -2  -3  -9   29.33    1.27
   2   3   9   28.89    2.30
  -4  -3  -9   28.85    1.19
   4   3   9   27.24    2.49
  -6  -3  -9   85.51    2.33
   8   3   9   14.94    2.52
  10   3   9   12.67    2.54
   9  -4  -9    7.55    2.90
   7  -4  -9   52.75    3.86
   5  -4  -9   23.03    2.39
  -5   4   9   24.14    1.27
   3  -4  -9   30.69    2.38
  -3   4   9   27.50    2.13
   1  -4  -9   51.03    2.43
  -1   4   9   54.01    2.74
  -1  -4  -9   37.15    1.83
   1   4   9   39.59    2.61
  -3  -4  -9  123.02    2.93
   3   4   9  131.65    4.85
  -5  -4  -9   11.42    1.07
   7   4   9   19.10    2.59
   8  -5  -9   12.37    2.51
   6  -5  -9   20.21    2.56
   4  -5  -9    9.76    1.86
  -4   5   9   10.09    1.33
   2  -5  -9   43.70    2.63
  -2   5   9   41.76    2.58
   0  -5  -9  120.82    3.75
   0   5   9  119.74    4.50
  -2  -5  -9   49.40    2.23
   2   5   9   50.28    3.30
  -4  -5  -9   23.55    1.57
   4   5   9   18.39    2.63
  -6  -5  -9   17.70    1.49
   6   5   9   18.76    2.59
   8   5   9   10.46    2.30
   9  -6  -9   14.00    2.77
   7  -6  -9   17.66    3.03
   5  -6  -9   22.98    2.72
  -5   6   9   21.06    1.69
  -3   6   9   82.15    3.69
   1  -6  -9   26.02    2.33
  -1   6   9   20.79    2.38
  -1  -6  -9   19.92    1.85
   1   6   9   19.55    2.38
  -3  -6  -9   24.57    1.89
   3   6   9   22.66    2.61
  -5  -6  -9   20.68    1.76
   5   6   9   20.35    2.72
   7   6   9   41.38    3.73
   9   6   9    3.51    1.80
   8  -7  -9   12.53    3.24
   4  -7  -9   22.98    2.67
  -4   7   9   22.19    2.30
   2  -7  -9   20.11    2.30
   0  -7  -9    9.50    2.15
   0   7   9   13.03    2.15
  -2  -7  -9   24.50    2.16
   2   7   9   22.36    2.72
  -4  -7  -9   41.36    2.59
   4   7   9   42.08    3.63
  -6  -7  -9   14.81    1.90
   8   7   9    8.48    2.67
   7  -8  -9    9.54    2.94
   5  -8  -9   11.15    2.91
   3  -8  -9   13.11    2.51
  -3   8   9   15.91    2.34
   1  -8  -9   20.85    2.46
  -1   8   9   21.76    2.80
  -1  -8  -9   55.96    3.40
   1   8   9   65.93    4.35
  -3  -8  -9   12.54    1.88
   3   8   9   12.75    2.42
  -5  -8  -9    8.95    1.79
   5   8   9    3.65    2.01
   7   8   9    8.41    2.64
   6  -9  -9    4.85    2.25
   4  -9  -9   14.96    2.85
  -4   9   9   23.41    2.72
   2  -9  -9   33.56    3.21
  -2   9   9   29.79    3.08
   0  -9  -9   24.34    2.84
   0   9   9   21.95    2.89
  -2  -9  -9   13.48    2.16
   2   9   9    9.70    2.95
  -4  -9  -9    6.57    2.13
   4   9   9    3.04    2.15
   6   9   9    5.37    2.20
   3 -10  -9    9.49    2.86
  -3  10   9    9.85    2.68
   1 -10  -9    3.96    2.22
  -1  10   9    7.52    2.53
  -1 -10  -9    4.95    2.20
   1  10   9    2.72    2.01
  -3 -10  -9   17.51    2.44
   3  10   9   11.47    2.56
   2  10 -10   13.50    2.89
  -2 -10  10   16.81    2.80
   0  10 -10    7.83    2.71
   0 -10  10   10.01    2.18
  -2  10 -10   13.69    2.79
   2 -10  10   19.24    2.61
   5   9 -10   18.28    2.70
  -5  -9  10   15.19    2.91
   3   9 -10    7.09    2.53
  -3  -9  10    7.01    2.66
   1   9 -10    0.60    1.76
  -1  -9  10    0.49    1.79
  -1   9 -10   21.16    3.18
   1  -9  10   13.97    2.39
  -3   9 -10    3.02    2.22
   3  -9  10    0.55    1.39
  -5   9 -10    1.82    2.03
  -6  -8  10    2.99    1.96
   4   8 -10   16.65    2.60
  -4  -8  10   12.12    3.14
   2   8 -10   17.28    2.66
  -2  -8  10   20.84    2.63
   0   8 -10    9.51    2.84
   0  -8  10    9.96    2.02
  -2   8 -10   18.02    2.80
   2  -8  10   19.06    2.26
   4  -8  10   12.53    2.01
  -6   8 -10   25.83    3.40
   6  -8  10   20.68    3.08
   7   7 -10    0.43    1.97
   5   7 -10   11.40    2.06
   5   7 -10   12.90    2.57
  -5  -7  10   12.53    2.42
   3   7 -10   10.54    2.22
  -3  -7  10   10.01    2.62
   1   7 -10   33.02    3.18
  -1  -7  10   29.68    2.75
  -1   7 -10   11.39    2.31
   1  -7  10   12.35    1.87
  -3   7 -10    9.97    2.22
   3  -7  10    8.54    1.65
  -5   7 -10   26.66    3.12
   5  -7  10   28.03    2.30
   7  -7  10    0.84    1.69
   8   6 -10   20.54    3.14
   6   6 -10   12.11    2.59
   6   6 -10   20.13    1.96
   4   6 -10   30.37    2.61
   4   6 -10   30.16    2.99
   2   6 -10   25.62    2.56
  -2  -6  10   25.95    2.45
   0  -6  10   42.98    2.70
  -2   6 -10   32.26    2.97
   2  -6  10   29.66    2.13
  -4   6 -10   16.71    2.53
   4  -6  10   16.52    1.74
   6  -6  10   14.43    2.45
   8  -6  10    5.89    2.49
   9   5 -10    2.75    2.17
   7   5 -10   31.79    3.57
   5   5 -10   11.82    2.25
   5   5 -10    8.48    1.62
   3   5 -10    4.68    1.74
   3   5 -10    3.79    1.69
   1   5 -10   32.98    2.71
  -1  -5  10   31.04    2.28
  -1   5 -10   11.76    1.93
   1  -5  10   11.49    1.38
   3  -5  10   25.76    1.72
  -5   5 -10   12.57    2.23
   5  -5  10   13.15    1.41
   5  -5  10   12.21    2.22
   7  -5  10   14.44    2.41
   9  -5  10   12.65    2.74
   8   4 -10    8.65    2.78
   6   4 -10   18.88    2.52
   4   4 -10   47.58    2.55
   4   4 -10   45.14    3.03
   2   4 -10   42.47    2.55
   2   4 -10   35.77    2.44
   0   4 -10   48.57    2.98
   0  -4  10   50.32    2.24
  -2   4 -10   51.23    3.25
   2  -4  10   53.21    2.03
  -4   4 -10   48.19    3.39
   4  -4  10   46.30    1.91
   4  -4  10   49.32    3.43
   6  -4  10   25.01    2.81
   8  -4  10   19.24    2.81
   9   3 -10    5.96    2.46
   7   3 -10    9.73    2.55
   5   3 -10   24.71    2.45
  -5  -3  10   26.35    1.55
   3   3 -10   53.99    2.60
   3   3 -10   57.08    2.84
   1   3 -10   33.21    2.29
   1   3 -10   34.50    1.93
  -1   3 -10   22.25    2.14
   1  -3  10   18.65    1.17
  -3   3 -10   50.05    3.17
   3  -3  10   51.59    1.55
   3  -3  10   51.69    3.26
   5  -3  10    5.14    0.68
   5  -3  10    5.32    2.06
   7  -3  10   11.84    2.23
   9  -3  10    6.46    2.45
  10   2 -10   20.03    3.04
   8   2 -10   21.81    2.83
   6   2 -10   27.71    2.64
   4   2 -10   52.25    2.84
  -4  -2  10   47.26    2.03
   2   2 -10   52.07    2.49
   2   2 -10   52.62    2.39
  -2  -2  10   54.17    2.45
   0   2 -10   69.89    3.10
   0  -2  10   65.67    2.98
   2  -2  10   56.76    3.02
   2  -2  10   55.97    1.01
   4  -2  10   38.11    2.90
   6  -2  10   27.24    3.06
   8  -2  10   25.11    2.82
  10  -2  10   24.24    4.99
   9   1 -10   16.80    2.72
   7   1 -10   10.81    2.23
   5   1 -10    7.73    1.61
  -5  -1  10    7.40    0.57
   3   1 -10   22.62    1.75
  -3  -1  10   17.71    1.39
   1   1 -10   36.27    1.64
  -1  -1  10   39.20    2.10
   1  -1  10   39.19    2.38
   1  -1  10   36.30    0.71
   3  -1  10   34.74    2.53
   5  -1  10   32.51    2.75
   7  -1  10   34.81    3.04
   9  -1  10    4.44    1.99
  10   0 -10    5.94    2.47
   8   0 -10   12.92    2.41
   6   0 -10   39.48    3.44
   4   0 -10   50.48    2.73
  -4   0  10   50.21    1.72
   2   0 -10   70.44    2.55
  -2   0  10   70.81    2.55
   0   0 -10  102.06    2.21
   2   0  10   66.05    3.10
   4   0  10   45.06    2.92
   6   0  10   45.87    3.24
   8   0  10   10.35    2.33
  10   0  10    5.14    2.28
   9  -1 -10    1.49    2.04
   7  -1 -10   28.79    2.87
   5  -1 -10   29.05    2.44
   3  -1 -10   34.23    2.11
  -3   1  10   35.05    1.70
   1  -1 -10   34.95    1.59
  -1   1  10   38.30    2.11
  -1  -1 -10   17.14    0.40
   3   1  10   24.24    2.24
   5   1  10    9.01    1.78
   7   1  10   15.14    2.29
   9   1  10   15.15    2.55
  10  -2 -10   14.40    2.81
   8  -2 -10   18.61    2.73
   6  -2 -10   23.94    2.52
   4  -2 -10   34.03    2.34
  -4   2  10   32.12    1.47
   2  -2 -10   49.52    2.26
  -2   2  10   52.66    2.39
   0  -2 -10   65.36    1.94
   0   2  10   63.66    2.90
  -2  -2 -10   17.68    0.43
   4   2  10   48.21    3.12
   6   2  10   26.30    2.95
   8   2  10   26.43    2.85
  10   2  10   21.23    2.95
   9  -3 -10    8.91    2.86
   7  -3 -10   10.63    2.19
   5  -3 -10    3.27    1.67
   3  -3 -10   47.88    2.66
  -3   3  10   50.88    2.31
   1  -3 -10   20.03    1.53
  -1   3  10   20.00    1.83
  -1  -3 -10   34.31    1.48
   1   3  10   32.25    2.42
   3   3  10   49.35    3.19
   5   3  10   22.93    2.56
   7   3  10   10.94    2.38
   8  -4 -10   16.25    3.20
   6  -4 -10   30.42    2.96
   4  -4 -10   47.51    3.02
  -4   4  10   43.96    2.13
   2  -4 -10   51.66    2.64
  -2   4  10   46.95    2.60
   0  -4 -10   46.80    2.16
   0   4  10   49.52    2.85
  -2  -4 -10   35.49    1.64
   2   4  10   36.27    2.77
  -4  -4 -10   40.46    1.57
   4   4  10   41.76    3.17
   6   4  10   20.09    2.64
   8   4  10   14.40    2.60
   9  -5 -10   16.17    2.89
   7  -5 -10   12.85    2.46
   5  -5 -10   10.39    2.04
  -5   5  10    9.58    1.21
   3  -5 -10   21.86    2.35
  -3   5  10   21.37    1.93
   1  -5 -10    6.48    1.41
  -1   5  10    7.80    1.55
  -1  -5 -10   32.87    1.97
   1   5  10   32.69    2.76
  -3  -5 -10    3.61    0.98
  -5  -5 -10   11.67    1.16
   5   5  10   11.81    2.33
   7   5  10   22.14    2.94
   9   5  10    7.26    2.63
   8  -6 -10    8.04    2.94
   6  -6 -10   10.85    2.24
   4  -6 -10   14.91    2.42
  -4   6  10   16.50    1.84
   2  -6 -10   32.10    2.57
  -2   6  10   25.42    2.45
   0  -6 -10   49.21    2.73
   0   6  10   44.87    3.20
  -2  -6 -10   24.20    1.90
   2   6  10   29.18    2.86
  -4  -6 -10   28.74    1.87
   4   6  10   22.20    2.82
   6   6  10   12.32    2.68
   8   6  10   26.71    3.48
   7  -7 -10   -0.33    1.94
   5  -7 -10   22.83    3.00
   3  -7 -10   10.03    2.19
  -3   7  10    8.31    1.91
   1  -7 -10    9.46    1.78
  -1   7  10   12.55    2.11
  -1  -7 -10   29.68    2.39
   1   7  10   32.75    3.13
  -3  -7 -10   10.69    1.54
   3   7  10    7.31    2.29
  -5  -7 -10   14.81    1.74
   5   7  10   12.46    2.76
   7   7  10    0.87    1.99
   6  -8 -10   22.49    3.21
   4  -8 -10    9.96    3.02
  -4   8  10   10.76    1.96
   2  -8 -10   20.92    2.70
  -2   8  10   23.76    2.71
   0  -8 -10   12.76    2.02
   0   8  10   11.46    2.26
  -2  -8 -10   13.33    1.96
   2   8  10   21.09    2.88
  -4  -8 -10   14.71    1.93
   4   8  10   17.18    3.06
   6   8  10    6.62    2.58
   5  -9 -10    5.36    2.32
   3  -9 -10    1.38    2.05
  -3   9  10    3.07    1.71
   1  -9 -10   13.53    2.46
  -1   9  10   13.74    2.63
  -1  -9 -10    2.41    1.67
   1   9  10    1.64    1.95
  -3  -9 -10    1.97    1.60
   3   9  10    4.46    2.30
   5   9  10   19.22    2.95
   2 -10 -10   16.75    2.71
   0 -10 -10    5.88    2.46
  -2 -10 -10   17.00    2.45
   2  10  10    9.55    2.86
   1  10 -11    7.29    2.72
  -1 -10  11    6.24    2.15
  -1  10 -11    3.65    2.26
   1 -10  11    3.86    1.88
   4   9 -11    5.41    2.29
  -4  -9  11    9.20    2.52
   2   9 -11    9.56    2.72
  -2  -9  11   10.44    2.19
   0   9 -11   12.56    2.74
   0  -9  11   15.09    2.59
  -2   9 -11    5.26    2.34
   2  -9  11    2.49    1.67
  -4   9 -11   12.77    2.87
   4  -9  11   17.04    4.36
  -5  -8  11    7.86    2.76
   3   8 -11   32.07    3.20
  -3  -8  11   37.54    3.45
   1   8 -11    6.12    2.40
  -1  -8  11    7.50    2.18
  -1   8 -11   10.30    2.77
   1  -8  11    9.27    1.76
  -3   8 -11    8.96    2.90
   3  -8  11   13.99    2.11
  -5   8 -11    3.48    2.14
   6   7 -11   15.31    3.12
  -6  -7  11   11.33    3.04
   4   7 -11    9.02    2.19
  -4  -7  11    7.86    2.54
   2   7 -11    7.53    2.15
  -2  -7  11    7.55    2.25
   0   7 -11   31.78    3.26
   0  -7  11   30.22    2.59
  -2   7 -11   13.00    2.40
   2  -7  11   10.40    1.65
  -4   7 -11    9.90    2.81
   6  -7  11    2.76    2.06
   7   6 -11    1.27    2.11
   5   6 -11    4.95    1.64
   5   6 -11    2.27    1.88
   3   6 -11   20.49    2.52
  -3  -6  11   21.52    2.47
   1   6 -11    3.58    1.80
  -1  -6  11    6.06    1.82
  -1   6 -11   58.10    3.88
   1  -6  11   55.26    2.85
  -3   6 -11   14.34    2.41
   3  -6  11   11.58    1.46
  -5   6 -11    9.69    2.62
   5  -6  11   12.08    2.51
   7  -6  11   14.70    2.52
   8   5 -11    1.91    1.98
   6   5 -11   17.15    2.66
   4   5 -11   37.72    2.63
   4   5 -11   34.80    2.96
   2   5 -11   20.40    2.20
   2   5 -11   20.03    2.14
  -2  -5  11   20.28    2.06
   0   5 -11   17.58    2.24
   0  -5  11   15.88    1.57
  -2   5 -11   17.08    2.37
   2  -5  11   18.69    1.47
  -4   5 -11   54.20    3.86
   4  -5  11   61.33    3.97
   6  -5  11    3.21    2.08
   8  -5  11    4.25    2.19
   9   4 -11   15.93    2.80
   7   4 -11   10.29    2.81
   5   4 -11   55.98    3.70
   5   4 -11   56.43    2.56
   3   4 -11   14.93    1.88
   3   4 -11   15.70    1.95
   1   4 -11   32.87    2.59
  -1  -4  11   29.71    1.99
  -1   4 -11   22.70    2.39
   1  -4  11   20.85    1.46
  -3   4 -11    6.01    2.02
   3  -4  11    4.83    0.81
   3  -4  11    5.50    1.86
   5  -4  11   38.29    3.34
   7  -4  11   11.20    2.34
   9  -4  11   10.61    2.78
   6   3 -11   16.05    2.35
   4   3 -11    3.83    1.53
   4   3 -11    5.64    1.17
  -4  -3  11    6.57    1.16
   2   3 -11   50.98    2.81
   2   3 -11   50.93    2.64
   0   3 -11   56.99    3.15
   0  -3  11   59.11    2.17
  -2   3 -11   11.43    1.85
   2  -3  11   12.24    1.91
   2  -3  11   12.36    0.83
   4  -3  11   14.90    2.25
   6  -3  11   22.80    2.83
   8  -3  11   33.43    3.45
   9   2 -11    3.16    2.09
   7   2 -11   10.27    2.07
   5   2 -11   17.86    2.25
  -5  -2  11   17.96    1.22
   3   2 -11   12.20    1.53
  -1  -2  11   98.64    3.65
   1  -2  11   28.75    1.13
   1  -2  11   29.04    2.37
   3  -2  11   57.14    3.40
   5  -2  11   23.68    2.63
   7  -2  11   10.89    2.25
  10   1 -11    5.84    2.58
   8   1 -11   11.19    2.90
   6   1 -11   54.71    3.43
   4   1 -11   22.99    2.12
  -4  -1  11   25.39    1.51
   2   1 -11   27.34    1.76
  -2  -1  11   27.01    1.82
   0   1 -11   16.44    0.99
   0  -1  11   17.18    1.73
   2  -1  11  100.90    4.04
   4  -1  11   35.47    2.86
   6  -1  11    4.86    2.08
   8  -1  11    7.13    2.33
  10  -1  11    7.33    2.74
   9   0 -11   12.92    2.69
   7   0 -11   25.98    2.79
   5   0 -11   14.11    1.92
   3   0 -11   57.53    2.74
  -3   0  11   53.80    2.28
   1   0 -11   14.92    1.17
  -1   0  11   16.26    1.64
   1   0  11   17.69    1.83
   3   0  11   49.99    3.06
   5   0  11   14.51    2.15
   7   0  11   29.48    3.07
   9   0  11   17.73    2.79
  10  -1 -11    8.83    2.90
   8  -1 -11    6.93    2.39
   6  -1 -11    3.58    1.63
   4  -1 -11   30.63    2.28
  -4   1  11   31.87    1.50
   2  -1 -11   99.46    3.11
  -2   1  11   99.11    3.25
   0  -1 -11   15.83    0.97
   0   1  11   16.07    1.74
   2   1  11   27.86    2.34
   4   1  11   17.26    2.16
   6   1  11   60.07    3.79
   8   1  11   11.10    2.27
  10   1  11   -0.47    2.02
   9  -2 -11    5.66    2.68
   7  -2 -11    6.83    2.14
   5  -2 -11   24.37    2.34
   3  -2 -11   53.91    2.69
  -3   2  11   52.40    2.26
   1  -2 -11   28.41    1.60
  -1   2  11   29.18    2.14
  -1  -2 -11  101.30    1.84
   1   2  11   95.80    3.86
   3   2  11   10.44    1.85
   7   2  11    8.76    2.41
   9   2  11    0.14    1.99
   6  -3 -11   14.49    2.46
   4  -3 -11   12.82    1.80
  -4   3  11   13.11    1.23
   2  -3 -11   13.48    1.53
  -2   3  11   13.79    1.58
   0  -3 -11   58.93    2.15
   0   3  11   60.48    3.12
   2   3  11   52.98    3.16
   4   3  11    4.99    1.88
   6   3  11   15.26    2.44
   8   3  11   13.38    2.45
   9  -4 -11    5.72    2.67
   7  -4 -11    7.50    2.51
   5  -4 -11   34.93    3.03
   3  -4 -11    6.54    1.72
  -3   4  11    2.83    1.17
   1  -4 -11   21.42    1.77
  -1   4  11   22.19    2.06
  -1  -4 -11   33.28    1.70
   1   4  11   33.42    2.66
  -3  -4 -11   13.79    0.99
   3   4  11   13.72    2.14
   5   4  11   50.83    3.73
   7   4  11    6.98    2.38
   9   4  11    5.31    2.30
   8  -5 -11    4.87    2.38
   6  -5 -11    9.05    2.65
   4  -5 -11   49.54    3.27
  -4   5  11   52.77    2.62
   2  -5 -11   18.52    1.93
  -2   5  11   19.44    2.15
   0  -5 -11   12.87    1.50
   0   5  11   16.04    2.06
  -2  -5 -11   21.69    1.50
  -4  -5 -11   32.56    1.61
   4   5  11   39.66    3.42
   6   5  11   15.44    2.66
   8   5  11    2.60    2.23
   7  -6 -11   22.22    3.08
   5  -6 -11   10.79    2.16
   3  -6 -11   15.14    2.10
  -3   6  11   14.81    1.95
   1  -6 -11   50.05    2.88
  -1   6  11   50.17    3.75
  -1  -6 -11    3.74    1.43
   1   6  11    4.43    1.82
  -3  -6 -11   15.61    1.43
   3   6  11   16.04    2.55
   5   6  11    6.88    2.52
   7   6  11   -3.22    1.70
   6  -7 -11    3.08    2.18
   4  -7 -11    5.08    2.23
  -4   7  11    8.76    1.71
   2  -7 -11    8.28    1.78
  -2   7  11   10.88    2.15
   0  -7 -11   28.79    2.77
   0   7  11   29.42    3.07
  -2  -7 -11    6.70    1.73
   2   7  11    6.19    2.33
  -4  -7 -11    6.62    1.35
   4   7  11    6.38    2.42
   6   7  11   15.84    2.91
   5  -8 -11    2.96    2.14
   3  -8 -11   13.52    2.47
  -3   8  11   14.33    2.14
   1  -8 -11    8.52    2.29
  -1   8  11   10.27    2.57
  -1  -8 -11    7.68    2.04
   1   8  11    5.12    2.20
  -3  -8 -11   29.89    2.39
   3   8  11   30.63    3.41
   5   8  11    3.99    2.31
   4  -9 -11   14.84    2.58
   2  -9 -11    4.50    2.11
  -2   9  11    2.89    2.07
   0  -9 -11   14.46    2.34
   0   9  11   17.28    2.96
  -2  -9 -11    9.62    2.31
   2   9  11   13.69    2.72
   4   9  11    4.69    2.32
   1 -10 -11    4.12    1.99
  -1  10  11    0.61    1.64
  -1 -10 -11    9.67    2.70
   1  10  11    7.07    2.67
   0  10 -12   23.18    3.30
   0 -10  12   21.12    2.61
   3   9 -12   22.50    3.10
  -3  -9  12   21.36    3.15
   1   9 -12   15.77    3.13
  -1  -9  12   10.28    2.16
  -1   9 -12    3.09    2.46
   1  -9  12    6.58    3.22
  -3   9 -12    8.73    2.93
  -6  -8  12   21.58    3.03
   4   8 -12   21.58    2.79
  -4  -8  12   22.26    2.87
   2   8 -12    6.50    2.35
  -2  -8  12    9.57    2.57
   0   8 -12   11.47    2.54
   0  -8  12   12.74    2.08
  -2   8 -12   17.20    2.92
   2  -8  12   22.97    2.34
  -4   8 -12   35.97    3.78
   6  -8  12   16.12    2.98
   7   7 -12    2.25    1.94
  -7  -7  12    4.31    2.03
   5   7 -12   12.79    2.12
  -5  -7  12   11.39    2.93
   3   7 -12    6.29    2.15
  -3  -7  12   11.33    2.30
   1   7 -12   18.50    2.67
  -1  -7  12   18.03    2.35
  -1   7 -12   31.59    3.32
   1  -7  12   29.45    2.38
  -3   7 -12   11.79    2.48
   3  -7  12   13.16    1.94
  -5   7 -12   12.23    2.58
   5  -7  12    9.15    2.75
   7  -7  12    5.98    2.26
   8   6 -12   14.09    3.04
   6   6 -12   20.16    2.95
   4   6 -12   14.19    2.05
   4   6 -12   12.67    2.32
  -4  -6  12   14.34    2.34
   2   6 -12  104.30    4.81
  -2  -6  12   89.47    4.18
   0   6 -12   33.80    3.18
   0  -6  12   31.55    2.35
  -2   6 -12    3.82    2.10
   2  -6  12   10.57    1.52
  -4   6 -12   21.99    2.93
   4  -6  12   19.15    2.69
   6  -6  12   15.38    2.67
   8  -6  12   29.22    3.33
   7   5 -12    7.68    2.39
   5   5 -12   33.86    2.35
   5   5 -12   28.62    2.99
   3   5 -12   12.16    2.06
   1   5 -12   22.78    2.51
  -1  -5  12   33.52    2.31
  -1   5 -12   18.68    2.49
   1  -5  12   15.23    1.45
  -3   5 -12   18.68    2.59
   5  -5  12   33.02    3.31
   7  -5  12   13.32    2.52
   8   4 -12   38.72    3.79
   6   4 -12   16.81    2.50
   4   4 -12   22.77    2.07
   2   4 -12   34.10    2.75
   0   4 -12   28.35    2.65
   0  -4  12   31.81    1.88
  -2   4 -12  161.17    6.52
   2  -4  12  168.30    3.23
   2  -4  12  160.33    6.47
   4  -4  12   23.15    2.81
   6  -4  12   12.44    2.46
   8  -4  12   15.31    2.94
   9   3 -12    5.36    2.30
   7   3 -12   21.33    2.84
   5   3 -12   19.10    2.31
   3   3 -12   33.32    2.38
  -3  -3  12   34.53    2.32
   1   3 -12   67.18    3.41
  -1  -3  12   63.60    3.39
   1  -3  12   26.16    1.28
   1  -3  12   28.30    2.58
   3  -3  12   35.41    3.08
   5  -3  12   11.94    2.33
   7  -3  12   12.53    3.03
   9  -3  12   22.14    2.95
   6   2 -12    6.27    2.08
   4   2 -12  184.00    5.43
   2   2 -12   39.93    2.22
  -2  -2  12   38.33    2.35
   0  -2  12   35.56    2.54
   0  -2  12   31.85    1.46
   2  -2  12   45.80    3.11
   4  -2  12   28.43    2.88
   6  -2  12  106.71    5.33
   8  -2  12    7.65    2.63
   9   1 -12    4.46    2.36
   7   1 -12   28.46    3.01
   5   1 -12   14.19    1.96
   3   1 -12   29.47    2.04
   1   1 -12   32.55    1.66
  -1  -1  12   30.11    2.12
   1  -1  12   32.24    2.45
   3  -1  12   68.08    3.73
   5  -1  12   24.22    2.73
   7  -1  12   19.52    2.72
   9  -1  12   10.71    2.84
  10   0 -12   33.84    3.58
   8   0 -12   14.02    2.43
   6   0 -12   31.57    2.81
   4   0 -12   35.43    2.48
  -4   0  12   32.45    1.71
   2   0 -12   34.88    1.97
  -2   0  12   31.07    2.00
   0   0  12  288.46    6.36
   2   0  12   28.53    2.44
   4   0  12   29.29    2.76
   6   0  12   31.04    3.02
   8   0  12   12.08    2.66
  10   0  12   33.04    3.63
   9  -1 -12   12.92    2.61
   7  -1 -12   18.14    2.54
   5  -1 -12   25.33    2.51
   3  -1 -12   65.19    2.94
  -3   1  12   67.40    2.69
   1  -1 -12   35.35    1.73
  -1   1  12   38.75    2.39
   1   1  12   35.71    2.58
   3   1  12   26.56    2.51
   5   1  12   14.18    2.25
   7   1  12   27.40    3.03
   9   1  12    5.99    2.34
   6  -2 -12  105.25    4.90
   4  -2 -12   31.74    2.37
  -4   2  12   31.15    1.67
   2  -2 -12   39.24    2.16
  -2   2  12   36.84    2.33
   0  -2 -12   31.44    1.41
   0   2  12   33.89    2.46
   2   2  12   35.65    2.76
   4   2  12  150.43    6.25
   6   2  12    6.84    2.41
   8   2  12   23.85    3.05
   9  -3 -12   19.02    2.95
   7  -3 -12   13.16    3.10
   5  -3 -12   15.11    2.24
   3  -3 -12   37.73    2.45
  -3   3  12   31.00    2.06
   1  -3 -12   30.42    2.03
  -1   3  12   28.47    2.25
  -1  -3 -12   67.11    1.91
   1   3  12   64.02    3.55
   3   3  12   28.77    2.61
   5   3  12   12.67    2.28
   7   3  12   14.01    2.73
   9   3  12    8.40    2.72
   8  -4 -12   22.72    3.35
   6  -4 -12   13.53    2.29
  -4   4  12   23.61    1.74
   2  -4 -12  166.44    4.69
  -2   4  12  169.70    5.04
   0   4  12   26.91    2.56
  -2  -4 -12   32.12    1.46
   2   4  12   26.74    2.68
   4   4  12   22.74    2.79
   6   4  12   18.99    2.74
   8   4  12   40.64    4.00
   7  -5 -12   11.74    3.07
   5  -5 -12   27.34    2.77
   3  -5 -12   12.19    2.01
  -3   5  12   19.69    2.05
   1  -5 -12   14.66    1.73
  -1   5  12   14.42    1.99
  -1  -5 -12   21.92    1.59
   1   5  12   19.71    2.44
  -3  -5 -12   11.84    1.14
   3   5  12    7.76    2.25
   5   5  12   27.92    3.19
   7   5  12    6.83    2.59
   8  -6 -12   22.82    3.24
   6  -6 -12   14.61    2.69
   4  -6 -12   18.82    2.40
  -4   6  12   19.32    2.05
   2  -6 -12    8.47    1.64
  -2   6  12    5.42    2.03
   0  -6 -12   32.82    2.31
   0   6  12   35.57    3.20
  -2  -6 -12   93.01    3.22
   4   6  12   15.46    2.65
   6   6  12   16.31    2.85
   8   6  12   13.96    2.93
   7  -7 -12    4.81    2.28
   5  -7 -12   13.39    2.42
   3  -7 -12   15.20    2.23
  -3   7  12   17.71    2.23
   1  -7 -12   29.36    2.61
  -1   7  12   28.98    3.03
   1   7  12   24.20    2.92
  -3  -7 -12   10.38    1.57
   3   7  12    6.85    2.35
   5   7  12   12.18    2.65
   7   7  12    8.85    2.93
   6  -8 -12   12.26    2.59
   4  -8 -12   43.43    3.65
  -4   8  12   38.20    2.96
   2  -8 -12   20.69    2.63
  -2   8  12   20.69    2.69
   0  -8 -12   16.90    2.18
   0   8  12   14.18    2.50
  -2  -8 -12    6.03    1.81
   2   8  12    4.46    2.34
   4   8  12   18.97    3.33
   6   8  12   20.78    3.08
   3  -9 -12    9.10    2.81
  -3   9  12    7.19    2.25
   1  -9 -12    5.54    2.06
  -1   9  12    2.99    1.77
   1   9  12   13.60    3.29
   3   9  12   12.75    2.73
   0 -10 -12   28.89    3.04
   0  10  12   29.44    3.47
   2   9 -13   12.97    2.51
  -2  -9  13   14.16    2.37
   0   9 -13   14.39    2.81
   0  -9  13   16.94    2.34
  -2   9 -13    7.94    2.78
   5   8 -13    7.73    2.79
  -5  -8  13    5.60    2.46
   3   8 -13   10.94    2.52
  -3  -8  13   11.23    2.21
   1   8 -13   11.38    2.55
  -1  -8  13   15.26    2.24
  -1   8 -13   11.53    3.22
   1  -8  13    6.20    1.92
  -3   8 -13   18.29    3.08
   5  -8  13    3.96    2.24
  -6  -7  13   26.08    3.27
   4   7 -13    6.08    2.11
   2   7 -13    7.34    2.35
  -2  -7  13    7.33    2.12
   0   7 -13    6.62    2.35
   0  -7  13    8.37    1.71
  -2   7 -13    8.26    2.58
   2  -7  13   13.54    1.95
  -4   7 -13   12.17    2.61
   4  -7  13    8.65    2.62
   6  -7  13    5.02    2.28
   7   6 -13    2.63    2.01
   5   6 -13    9.85    2.17
   5   6 -13    3.99    2.02
   3   6 -13   31.67    2.99
  -3  -6  13   29.41    2.89
   1   6 -13    5.24    2.04
  -1   6 -13   22.37    2.93
   1  -6  13   23.35    1.92
  -3   6 -13   15.37    2.61
   5  -6  13   12.16    2.43
   7  -6  13   30.33    3.37
   8   5 -13    1.09    2.02
   6   5 -13   11.61    2.59
   4   5 -13   17.15    2.58
   2   5 -13   35.10    2.94
  -2  -5  13   36.47    2.66
   0   5 -13   15.35    2.41
   0  -5  13   18.16    1.69
  -2   5 -13   23.35    2.85
   4  -5  13   13.86    2.62
   8  -5  13    4.66    2.41
   7   4 -13   11.52    2.44
   5   4 -13   14.74    2.29
  -5  -4  13   13.65    1.62
   3   4 -13   25.28    2.41
   3   4 -13   26.01    2.48
  -3  -4  13   27.64    2.42
   1   4 -13   17.11    2.39
  -1  -4  13   20.31    1.70
  -1   4 -13   49.15    3.52
   1  -4  13   48.68    3.49
   1  -4  13   45.34    1.93
   3  -4  13    6.62    2.22
   5  -4  13   18.71    2.76
   7  -4  13    6.83    2.58
   8   3 -13   24.82    3.15
   6   3 -13   14.84    2.37
   4   3 -13    6.28    1.80
  -4  -3  13    7.56    1.29
   2   3 -13   21.33    1.93
  -2  -3  13   19.76    2.02
   0  -3  13   22.29    2.38
   0  -3  13   30.19    1.62
   2  -3  13   24.88    2.91
   4  -3  13   30.47    3.13
   6  -3  13   28.26    3.27
   8  -3  13   16.89    2.86
   9   2 -13    3.44    2.29
   7   2 -13   10.49    2.70
   5   2 -13   30.97    2.71
  -5  -2  13   30.00    2.51
   3   2 -13   24.05    2.10
  -3  -2  13   20.95    1.78
   1   2 -13   27.78    1.70
  -1  -2  13   26.99    2.34
   1  -2  13   41.53    3.01
   1  -2  13   38.83    0.75
   3  -2  13   20.79    2.77
   5  -2  13   44.76    3.72
   7  -2  13    6.31    2.31
   9  -2  13   12.44    2.79
   8   1 -13   11.03    2.30
   6   1 -13   18.32    2.45
   4   1 -13   47.48    2.92
  -4  -1  13   43.67    2.15
   2   1 -13   42.48    2.21
  -2  -1  13   41.86    2.47
   0  -1  13   33.51    2.46
   2  -1  13   27.58    2.58
   4  -1  13   19.16    2.51
   6  -1  13    3.27    2.05
   9   0 -13   14.96    2.78
   7   0 -13   11.17    2.14
   3   0 -13   27.87    2.10
  -3   0  13   26.37    1.89
   1   0 -13   32.27    1.59
  -1   0  13   33.44    2.33
   1   0  13   30.82    2.52
   3   0  13   24.45    2.55
   5   0  13   20.58    2.65
   7   0  13    7.34    2.58
   9   0  13   19.46    3.09
   8  -1 -13   15.72    2.61
   6  -1 -13    6.99    2.18
   4  -1 -13   21.41    2.08
  -4   1  13   18.63    1.45
   2  -1 -13   30.75    1.96
  -2   1  13   30.23    2.10
   0  -1 -13   23.38    1.19
   0   1  13   32.05    2.49
   2   1  13   40.11    2.96
   4   1  13   47.98    3.45
   6   1  13   23.23    2.87
   9  -2 -13   12.21    2.53
   7  -2 -13   10.91    2.80
   5  -2 -13   43.02    3.13
   3  -2 -13   20.88    1.87
  -3   2  13   20.31    1.79
   1  -2 -13   39.11    1.91
  -1   2  13   43.95    2.73
   1   2  13   29.86    2.60
   3   2  13   22.40    2.77
   5   2  13   30.33    3.09
   7   2  13   14.57    2.67
   9   2  13    5.43    2.47
   8  -3 -13   14.95    2.84
   6  -3 -13   30.69    3.10
   4  -3 -13   25.78    2.45
  -4   3  13   23.22    1.67
   2  -3 -13   22.44    1.93
  -2   3  13   23.73    2.03
   0  -3 -13   31.17    1.61
   0   3  13   26.49    2.58
   2   3  13   18.43    2.38
   4   3  13    5.75    2.11
   6   3  13    9.08    2.62
   8   3  13   27.40    3.34
   7  -4 -13    7.81    2.49
   5  -4 -13   24.00    2.69
   3  -4 -13    5.52    1.78
  -3   4  13    6.92    1.72
   1  -4 -13   44.78    2.42
  -1   4  13   45.59    2.98
  -1  -4 -13   21.67    1.37
   3   4  13   23.03    2.75
   5   4  13    8.02    2.44
   7   4  13    8.10    2.60
   8  -5 -13    2.42    2.26
   6  -5 -13    7.23    2.26
   4  -5 -13   14.33    2.20
  -4   5  13   15.11    1.73
   2  -5 -13   23.67    2.11
  -2   5  13   25.46    2.51
   0  -5 -13   20.22    1.72
   0   5  13   14.30    2.20
  -2  -5 -13   44.37    1.98
   2   5  13   37.67    3.34
   4   5  13   18.60    2.75
   6   5  13    7.59    2.58
   8   5  13    0.80    1.90
   7  -6 -13   20.16    3.08
   5  -6 -13    7.25    2.22
   3  -6 -13   18.27    2.22
  -3   6  13   19.26    2.18
   1  -6 -13   18.73    2.03
  -1   6  13   18.84    2.61
  -1  -6 -13    2.35    1.07
   1   6  13    2.57    1.80
   3   6  13   29.97    3.28
   5   6  13    5.55    2.24
   7   6  13    3.08    2.13
   6  -7 -13    5.20    2.23
   4  -7 -13   10.05    2.23
  -4   7  13   14.45    3.19
   2  -7 -13   10.87    1.96
  -2   7  13   14.15    2.30
   0  -7 -13   10.66    1.72
   0   7  13   10.79    2.23
  -2  -7 -13    7.18    1.43
   2   7  13    6.27    2.59
   4   7  13    3.69    2.45
   6   7  13   18.15    3.25
   5  -8 -13   -2.01    1.70
   3  -8 -13   17.11    2.64
   1  -8 -13   11.13    1.98
  -1   8  13    2.71    1.91
  -1  -8 -13   15.33    2.14
   1   8  13   16.94    2.74
   3   8  13    5.15    2.45
   5   8  13    5.18    2.39
   2  -9 -13    4.26    1.91
  -2   9  13    4.82    1.84
   0  -9 -13   21.25    2.62
   0   9  13   18.03    2.74
   2   9  13    6.67    2.56
   1   9 -14    4.99    2.21
  -1  -9  14    4.68    1.94
  -1   9 -14    5.85    2.71
   4   8 -14    0.83    2.06
  -4  -8  14    2.36    2.04
   2   8 -14   12.09    3.03
  -2  -8  14    9.44    2.37
   0   8 -14    4.72    2.46
   0  -8  14    6.83    1.98
  -2   8 -14   10.57    3.11
   4  -8  14    2.48    2.15
  -5  -7  14   14.83    2.51
   3   7 -14   12.30    2.23
  -3  -7  14    6.21    2.29
   1   7 -14   24.53    3.11
  -1  -7  14   22.37    2.36
   1  -7  14    9.56    1.71
  -3   7 -14   11.42    2.52
   3  -7  14   11.09    2.48
   5  -7  14   12.93    2.57
   6   6 -14    0.90    2.24
   4   6 -14   22.14    2.58
  -4  -6  14   21.80    2.69
   2   6 -14    2.86    1.89
  -2  -6  14    7.06    1.90
   0   6 -14   11.89    2.48
   0  -6  14   12.18    1.71
  -2   6 -14   15.41    2.89
   2  -6  14   14.48    2.48
   4  -6  14    4.53    2.53
   6  -6  14    4.43    2.28
   7   5 -14   16.00    2.73
   5   5 -14    6.50    2.10
  -5  -5  14   11.92    1.70
   3   5 -14    6.05    2.04
   3   5 -14    2.48    1.83
  -3  -5  14    9.19    2.30
  -3  -5  14    6.13    1.89
   1   5 -14   28.44    2.92
  -1  -5  14   28.87    2.27
  -1   5 -14   10.19    2.27
   1  -5  14    8.57    2.42
   1  -5  14   12.22    1.28
   3  -5  14   19.70    2.83
   7  -5  14   13.86    2.71
   8   4 -14    3.10    2.22
   6   4 -14    4.31    2.24
   4   4 -14   15.64    2.19
  -4  -4  14   17.49    1.98
   2   4 -14   12.45    1.83
   0  -4  14   28.23    2.83
   0  -4  14   25.20    1.70
   2  -4  14   15.49    2.49
   4  -4  14   12.02    2.45
   8  -4  14    5.18    2.33
   7   3 -14    5.62    2.20
   5   3 -14   26.76    2.68
   3   3 -14   35.44    2.65
  -3  -3  14   37.68    2.61
  -1  -3  14   18.55    2.20
  -1  -3  14   18.70    1.56
   1  -3  14   21.46    2.56
   3  -3  14   36.94    3.38
   5  -3  14    6.18    2.30
   7  -3  14    6.81    2.57
   8   2 -14   11.15    2.93
   6   2 -14   14.36    2.48
   4   2 -14   11.72    1.98
  -4  -2  14   10.92    1.36
   2   2 -14   16.65    1.61
  -2  -2  14   13.46    1.78
   0  -2  14   28.60    1.30
   0  -2  14   25.66    2.56
   2  -2  14   11.14    2.29
   4  -2  14   14.41    2.49
   6  -2  14    4.79    2.22
   8  -2  14    8.23    2.82
   9   1 -14   11.56    3.00
   7   1 -14    6.57    2.22
   5   1 -14    9.61    1.89
   3   1 -14   19.65    1.94
  -3  -1  14   22.66    1.86
   1   1 -14   27.81    1.56
  -1  -1  14   30.44    2.41
   1  -1  14   31.98    2.73
   3  -1  14   15.28    2.35
   5  -1  14   24.15    2.99
   7  -1  14   27.79    3.33
   9  -1  14    6.90    2.53
   8   0 -14    4.49    2.05
   6   0 -14   13.14    2.08
   4   0 -14   26.98    2.37
   2   0 -14   25.47    1.78
  -2   0  14   28.75    2.18
   0   0  14   19.49    2.12
   2   0  14   22.64    2.46
   4   0  14   22.04    2.71
   6   0  14    8.78    2.78
   8   0  14    4.41    2.44
   9  -1 -14    3.55    2.13
   7  -1 -14   28.13    3.12
   5  -1 -14   26.96    2.52
   3  -1 -14   17.14    1.86
  -3   1  14   17.07    1.69
   1  -1 -14   30.05    1.57
  -1   1  14   28.92    2.44
   1   1  14   21.56    2.35
   3   1  14   21.46    2.54
   5   1  14    8.86    2.53
   7   1  14    5.43    2.34
   9   1  14   19.71    2.92
   8  -2 -14   11.50    2.97
   6  -2 -14    3.93    2.00
   4  -2 -14   14.95    1.90
  -4   2  14   15.75    1.44
   2  -2 -14   15.83    1.55
  -2   2  14   19.39    2.09
   0  -2 -14   24.51    1.18
   0   2  14   28.27    2.58
   4   2  14   12.24    2.26
   6   2  14   14.42    2.59
   8   2  14   12.26    2.68
   7  -3 -14    8.50    2.47
   5  -3 -14    6.75    2.26
   3  -3 -14   41.01    2.65
  -3   3  14   39.67    2.55
   1  -3 -14   21.14    1.58
  -1   3  14   22.90    2.29
   3   3  14   42.83    3.53
   5   3  14   16.69    2.66
   7   3  14    8.11    2.69
   8  -4 -14   14.12    2.57
   6  -4 -14   21.93    2.70
   4  -4 -14   15.01    2.21
  -4   4  14   16.92    1.65
   2  -4 -14    7.74    1.46
  -2   4  14   10.76    1.93
   0  -4 -14   17.58    2.18
   0   4  14   26.82    2.67
   2   4  14   13.79    2.32
   4   4  14   16.48    2.65
   8   4  14    2.98    2.14
   7  -5 -14   16.34    2.63
   5  -5 -14    9.79    2.51
   3  -5 -14   21.38    2.27
  -3   5  14   17.81    2.14
   1  -5 -14    5.05    1.56
  -1   5  14    8.79    2.27
  -1  -5 -14   28.50    1.74
   1   5  14   27.88    3.12
   3   5  14    8.29    2.51
   7   5  14   21.91    3.15
   6  -6 -14    7.00    2.30
   4  -6 -14    3.99    1.96
   2  -6 -14   15.00    2.04
  -2   6  14   16.11    2.35
   0  -6 -14   12.12    1.54
   0   6  14    6.10    2.20
   2   6  14    5.47    2.28
   4   6  14   20.36    3.02
   6   6  14    8.20    2.82
   5  -7 -14   19.74    2.64
   3  -7 -14   15.14    2.26
  -3   7  14    5.87    1.83
   1  -7 -14    8.15    2.05
  -1   7  14    4.55    1.96
  -1  -7 -14   18.44    2.03
   1   7  14   29.79    3.31
   3   7  14    6.15    2.54
   5   7  14   11.18    3.18
   4  -8 -14    4.48    2.07
   2  -8 -14   18.33    2.42
  -2   8  14    9.83    2.21
   0  -8 -14    4.15    1.71
   0   8  14    1.46    1.77
   2   8  14    7.43    2.67
   4   8  14    3.70    2.28
   1  -9 -14   12.17    2.31
  -1   9  14   12.56    2.30
   1   9  14    6.43    2.54
   3   8 -15   18.57    2.85
  -3  -8  15   14.74    2.41
   1   8 -15   30.25    3.51
  -1  -8  15   26.92    2.71
  -1   8 -15   18.12    3.11
  -3   8 -15    3.89    2.25
   3  -8  15   -2.02    1.51
   4   7 -15   25.39    2.95
  -4  -7  15   39.40    3.41
   2   7 -15   10.81    2.36
  -2  -7  15   16.82    2.31
   0   7 -15   10.14    2.91
   0  -7  15   12.60    1.85
  -2   7 -15    8.24    2.99
   2  -7  15    7.97    2.67
   4  -7  15    7.14    2.58
   5   6 -15    6.07    2.14
  -5  -6  15    7.77    2.41
   3   6 -15    8.97    2.44
  -3  -6  15   14.24    2.16
  -3  -6  15    4.98    1.92
   1   6 -15   16.35    2.62
  -1  -6  15   13.43    1.99
  -1   6 -15   27.22    3.30
   1  -6  15   23.96    3.02
   3  -6  15   40.98    3.87
   5  -6  15   15.44    2.74
   6   5 -15   12.21    2.73
   4   5 -15   14.03    2.21
  -4  -5  15   16.37    2.19
  -2  -5  15    8.89    1.67
  -2  -5  15    4.52    1.92
   0  -5  15   70.44    4.42
   0  -5  15   64.11    2.80
   2  -5  15   18.72    2.79
   6  -5  15    2.63    2.16
   7   4 -15    7.95    2.65
   5   4 -15   17.92    2.51
  -3  -4  15   63.34    3.59
  -1  -4  15   20.79    1.74
  -1  -4  15   19.79    2.65
   1  -4  15    8.96    2.40
   3  -4  15   17.14    2.90
   7  -4  15   33.23    3.77
   8   3 -15    1.09    1.95
   6   3 -15   42.09    3.60
   4   3 -15   15.29    2.16
  -4  -3  15   17.36    1.84
   2   3 -15   21.99    2.02
  -2  -3  15   25.93    2.42
   0  -3  15   20.27    1.32
   0  -3  15   21.81    2.66
   2  -3  15   12.90    2.38
   4  -3  15   55.87    4.22
   6  -3  15    2.70    2.47
   8  -3  15   19.96    3.29
   7   2 -15    6.56    2.40
   5   2 -15    7.51    2.21
   3   2 -15   15.60    1.92
  -3  -2  15   14.67    1.75
  -1  -2  15   35.23    2.76
   1  -2  15  103.19    4.87
   3  -2  15   33.23    3.29
   5  -2  15    9.49    2.94
   7  -2  15   17.19    3.03
   8   1 -15   18.74    2.76
   6   1 -15   22.77    2.61
   4   1 -15    7.52    1.94
  -4  -1  15    7.61    1.28
   2   1 -15   95.08    3.21
  -2  -1  15   98.77    4.00
   0  -1  15   16.76    2.13
   2  -1  15   29.50    2.89
   4  -1  15   20.86    2.82
   6  -1  15   15.21    2.74
   8  -1  15   27.09    3.59
   5   0 -15   66.79    3.67
   3   0 -15   21.86    2.01
  -3   0  15   19.44    1.85
   1   0 -15   17.03    1.16
  -1   0  15   15.80    1.98
   1   0  15   13.26    2.24
   3   0  15   19.46    2.58
   5   0  15   62.59    4.38
   7   0  15   13.20    2.68
   8  -1 -15   30.25    3.22
   6  -1 -15   16.43    2.46
   4  -1 -15   18.75    2.18
  -4   1  15   21.98    1.70
   2  -1 -15   32.98    1.97
  -2   1  15   39.01    2.73
   0   1  15   16.90    2.29
   2   1  15   92.69    4.57
   4   1  15    6.13    2.23
   6   1  15   22.84    3.11
   8   1  15   17.41    3.00
   7  -2 -15   14.60    3.28
   5  -2 -15    9.02    1.99
   3  -2 -15   26.92    2.20
  -3   2  15   27.90    2.21
   1  -2 -15   97.69    2.88
  -1   2  15   96.88    4.34
   1   2  15   26.66    2.86
   3   2  15   14.30    2.42
   5   2  15   11.58    2.42
   7   2  15    7.72    2.79
   8  -3 -15   22.18    2.96
   6  -3 -15    5.08    2.14
   4  -3 -15   60.41    3.37
  -4   3  15   60.27    2.72
   2  -3 -15   17.34    1.76
  -2   3  15   15.67    2.07
   0   3  15   19.25    2.40
   2   3  15   28.53    2.99
   4   3  15   14.81    2.57
   6   3  15   42.54    3.97
   8   3  15    2.27    1.93
   7  -4 -15   36.17    3.48
   5  -4 -15   13.18    2.12
   3  -4 -15   17.66    2.07
  -3   4  15   16.00    1.97
   1  -4 -15    9.46    1.28
  -1   4  15    8.83    2.01
   1   4  15   24.12    2.79
   3   4  15   61.10    4.28
   7   4  15   12.57    2.74
   6  -5 -15    7.56    2.30
   4  -5 -15   24.43    2.58
   2  -5 -15   13.30    2.00
  -2   5  15   10.48    2.06
   0  -5 -15   63.50    2.71
   0   5  15   61.72    4.09
   2   5  15    5.34    2.20
   6   5  15   21.68    3.44
   5  -6 -15   17.81    2.64
   3  -6 -15   35.62    2.89
  -3   6  15   40.92    3.08
   1  -6 -15   23.99    2.26
  -1   6  15   25.91    2.84
   1   6  15   13.45    2.51
   3   6  15    5.04    2.45
   5   6  15    4.39    2.16
   4  -7 -15   11.84    2.08
   2  -7 -15    8.82    2.26
  -2   7  15    9.54    2.07
   2   7  15   26.13    3.34
   4   7  15   26.69    3.53
   3  -8 -15    3.56    1.90
   1  -8 -15   17.09    2.61
  -1   8  15   14.71    2.65
   1   8  15   16.41    2.84
   3   8  15   16.31    3.11
   2   8 -16    9.85    2.77
  -2  -8  16   10.93    2.21
   0   8 -16    0.89    2.02
   0  -8  16    2.66    1.82
   2  -8  16   13.47    3.62
  -3  -7  16    5.70    2.02
  -3  -7  16   14.20    2.09
   1   7 -16   18.28    2.97
  -1  -7  16   19.36    2.81
  -1   7 -16    9.97    2.86
   1  -7  16   14.52    2.90
   3  -7  16   14.57    2.96
  -4  -6  16   13.90    2.27
  -2  -6  16    2.83    1.84
  -2  -6  16    7.67    1.93
   2  -6  16   18.61    2.98
   4  -6  16    1.72    2.01
  -3  -5  16   11.66    2.10
  -3  -5  16   10.51    1.74
  -1  -5  16   22.61    2.85
  -1  -5  16   15.58    1.82
   1  -5  16   13.04    2.52
   3  -5  16   19.68    3.22
   5  -5  16   15.05    2.80
   6   4 -16    2.65    2.13
   4   4 -16   10.67    2.21
  -4  -4  16   12.67    1.87
  -2  -4  16   10.91    1.54
  -2  -4  16    9.26    2.38
   0  -4  16   20.52    2.74
   2  -4  16    8.07    2.46
   6  -4  16   17.21    2.93
   7   3 -16   19.12    2.84
   5   3 -16   16.96    2.47
   3   3 -16   26.65    2.42
  -3  -3  16   17.54    2.05
  -1  -3  16   42.23    2.11
  -1  -3  16   42.82    3.30
   1  -3  16   22.77    2.80
   3  -3  16   28.24    3.38
   7  -3  16    6.20    2.67
   8   2 -16    8.56    2.54
   6   2 -16   18.08    2.72
   4   2 -16    8.41    1.73
  -4  -2  16    6.49    1.61
   2   2 -16   10.88    1.40
   0  -2  16   21.18    2.67
   2  -2  16    6.90    2.32
   4  -2  16    8.96    2.59
   6  -2  16    8.00    2.89
   8  -2  16    7.40    2.95
   7   1 -16   21.50    2.85
   5   1 -16   18.75    2.44
   3   1 -16   20.76    2.08
  -3  -1  16   24.50    2.14
   1  -1  16   21.24    2.56
   3  -1  16   47.68    3.82
   5  -1  16   19.22    2.92
   7  -1  16   16.53    3.22
   8   0 -16    4.11    2.07
   6   0 -16    5.00    2.05
   4   0 -16   18.50    2.08
  -4   0  16   15.54    1.59
   2   0 -16   21.51    1.59
  -2   0  16   24.41    2.35
   0   0  16   14.89    2.30
   2   0  16   20.75    2.65
   4   0  16   24.79    3.03
   6   0  16    6.49    2.65
   8   0  16    1.50    2.36
   7  -1 -16   13.27    2.52
   5  -1 -16   19.21    2.40
   3  -1 -16   47.57    2.77
  -3   1  16   43.36    2.80
  -1   1  16   24.45    2.55
   1   1  16   21.74    2.54
   3   1  16   17.16    2.54
   5   1  16    8.12    2.70
   7   1  16   19.14    3.02
   8  -2 -16    6.23    2.31
   6  -2 -16    6.71    2.50
   4  -2 -16    7.00    1.89
   2  -2 -16    9.31    1.30
  -2   2  16    8.40    1.82
   0   2  16   19.10    2.41
   2   2  16   10.52    2.20
   4   2  16    5.47    2.38
   6   2  16   17.55    3.16
   8   2  16    7.14    2.77
   7  -3 -16   15.44    2.46
   5  -3 -16   14.29    2.21
   3  -3 -16   24.78    2.27
  -3   3  16   19.24    2.11
   1  -3 -16   22.88    1.58
  -1   3  16   19.71    2.36
   1   3  16   41.72    3.45
   3   3  16   17.68    2.70
   7   3  16   13.18    2.79
   6  -4 -16   23.81    2.81
   4  -4 -16   12.49    2.06
   2  -4 -16   10.22    1.45
  -2   4  16    8.84    1.96
   0   4  16   15.44    2.37
   2   4  16    8.12    2.61
   6   4  16    4.03    2.41
   5  -5 -16   18.53    2.50
   3  -5 -16   22.22    2.35
  -3   5  16   13.04    2.00
  -1   5  16   11.40    2.28
   1   5  16   20.65    2.85
   5   5  16    9.42    2.88
   4  -6 -16    1.55    1.64
   2  -6 -16   22.00    2.36
  -2   6  16   21.79    2.61
   0   6  16    3.68    2.06
   2   6  16    2.74    2.12
   4   6  16   15.28    2.86
   3  -7 -16   16.57    2.46
  -1   7  16   15.54    2.60
   1   7  16   14.75    2.91
   3   7  16    6.22    2.65
  -2   8  16    9.67    2.05
   0   8  16    4.27    2.05
   2   8  16    8.09    2.56
  -2  -7  17    9.77    2.23
   0  -7  17    9.72    2.72
   2  -7  17    1.74    1.88
  -3  -6  17   10.53    2.11
  -1  -6  17   13.93    2.66
   1  -6  17   12.10    2.51
   3  -6  17    2.72    2.00
  -4  -5  17    3.09    1.71
  -2  -5  17   34.93    3.29
   0  -5  17    6.90    2.50
   2  -5  17   11.97    2.58
   4  -5  17    8.91    2.90
   5   4 -17   12.08    2.57
   3   4 -17    8.80    1.80
  -3  -4  17    8.57    1.63
  -3  -4  17    4.43    1.74
  -1  -4  17    3.75    2.04
   1  -4  17   29.91    3.31
   3  -4  17    9.81    3.09
   5  -4  17    2.92    2.48
   6   3 -17    0.93    1.79
   4   3 -17    9.58    2.01
  -4  -3  17    5.24    1.53
  -2  -3  17    5.27    1.90
  -2  -3  17   11.82    1.61
   0  -3  17    3.68    1.97
   2  -3  17   28.00    3.21
   4  -3  17    2.36    2.19
   6  -3  17   16.91    3.27
   7   2 -17    0.53    1.82
   5   2 -17   16.49    2.37
  -3  -2  17   25.01    2.25
  -1  -2  17    7.87    2.23
   1  -2  17   13.02    2.53
   3  -2  17   10.22    2.79
   5  -2  17   36.22    4.04
   7  -2  17    3.24    2.41
   4   1 -17   27.54    2.47
   2   1 -17    5.03    1.37
  -2  -1  17    9.87    1.84
   0  -1  17   26.58    2.78
   2  -1  17   10.71    2.26
   4  -1  17    5.31    2.36
   6  -1  17    9.21    2.86
   7   0 -17   13.16    2.47
   5   0 -17   10.97    1.99
   3   0 -17    3.39    1.24
  -3   0  17    2.99    1.51
  -1   0  17   26.58    2.71
   1   0  17   29.76    3.00
   3   0  17    3.69    2.17
   5   0  17    5.10    2.33
   7   0  17    2.90    2.19
   4  -1 -17    3.42    1.53
  -2   1  17    9.58    1.86
   0   1  17   25.38    2.68
   2   1  17   11.16    2.24
   4   1  17   27.99    3.20
   6   1  17    7.55    2.65
   7  -2 -17    5.77    2.29
   5  -2 -17   35.20    3.01
   3  -2 -17   11.07    1.69
  -3   2  17   10.88    1.91
  -1   2  17   13.16    2.17
   1   2  17   10.12    2.19
   3   2  17   33.62    3.37
   5   2  17    6.04    2.33
   7   2  17    2.05    2.34
   6  -3 -17   14.14    2.47
   4  -3 -17    8.41    1.84
  -2   3  17   33.48    2.86
   0   3  17    2.27    1.72
   2   3  17    7.08    2.34
   4   3  17   11.00    3.05
   6   3  17    2.74    2.06
   5  -4 -17    3.09    1.99
   3  -4 -17   12.21    1.99
  -1   4  17   33.94    3.16
   1   4  17    5.63    2.21
   5   4  17    7.29    2.71
   4  -5 -17   10.90    2.23
  -2   5  17   12.03    2.26
   0   5  17    7.26    2.42
   2   5  17   29.55    3.41
   4   5  17    1.49    1.97
  -1   6  17    3.78    1.90
   1   6  17    5.61    2.37
   3   6  17   12.55    2.64
  -2   7  17    6.24    2.03
   0   7  17    2.71    1.97
   2   7  17    6.15    2.44
  -2  -6  18   23.28    2.87
   0  -6  18    4.40    2.31
   2  -6  18    6.88    2.57
  -3  -5  18   13.81    2.21
  -1  -5  18    3.78    1.97
   1  -5  18    7.30    2.54
   3  -5  18   12.99    3.38
   4   4 -18    3.65    2.04
  -2  -4  18   10.31    2.16
   0  -4  18   17.53    2.67
   2  -4  18   29.63    3.41
   4  -4  18    3.88    2.32
   5   3 -18    6.47    2.11
  -3  -3  18    9.44    1.88
  -1  -3  18   84.69    4.71
   1  -3  18   13.19    2.52
   3  -3  18    7.85    2.68
   5  -3  18    9.08    2.75
   6   2 -18    6.91    2.36
  -2  -2  18   10.03    1.96
   0  -2  18   14.23    2.57
   2  -2  18   11.89    3.08
   4  -2  18    7.60    2.61
   6  -2  18   21.69    3.61
   5   1 -18    6.99    2.18
  -3  -1  18   19.63    2.19
  -1  -1  18   15.84    2.30
   1  -1  18   16.22    2.58
   3  -1  18   58.76    4.48
   5  -1  18    5.67    2.59
   6   0 -18   10.74    2.31
   4   0 -18   18.46    2.20
  -2   0  18   14.84    2.07
   0   0  18   51.95    3.69
   2   0  18    7.51    2.49
   4   0  18   17.00    2.86
   6   0  18    8.19    2.86
   5  -1 -18    5.07    1.95
  -3   1  18   78.03    3.74
  -1   1  18   13.83    2.19
   1   1  18   13.31    2.53
   3   1  18   16.52    2.68
   5   1  18   12.20    2.69
   6  -2 -18   28.78    2.97
   4  -2 -18    9.42    2.05
  -2   2  18   10.70    2.02
   0   2  18   14.73    2.34
   2   2  18   14.49    2.49
   4   2  18   30.61    3.48
   6   2  18    8.89    3.05
   5  -3 -18   12.04    2.43
  -3   3  18    8.44    1.83
  -1   3  18   14.20    2.32
   1   3  18   62.25    4.32
   3   3  18    5.09    2.17
   5   3  18    6.18    2.49
   4  -4 -18    8.17    2.37
  -2   4  18   30.31    2.84
   0   4  18   15.89    2.62
   2   4  18    7.36    2.51
   4   4  18    5.21    2.46
   1   5  18   10.23    2.80
   3   5  18    9.40    2.92
  -2   6  18    8.54    2.23
   0   6  18    3.87    2.28
   2   6  18   14.57    2.73
  -1  -6  19    6.58    2.43
   1  -6  19    9.78    2.78
  -2  -5  19   10.25    2.28
   0  -5  19   12.72    2.70
   2  -5  19    9.17    2.99
  -3  -4  19   11.86    2.03
  -1  -4  19    9.90    2.69
   1  -4  19    7.90    2.57
   3  -4  19    4.76    2.32
  -2  -3  19   16.82    2.39
   2  -3  19   11.37    2.62
   4  -3  19    8.06    2.83
  -3  -2  19   10.96    1.84
  -1  -2  19   17.74    2.63
   1  -2  19   19.84    3.12
   3  -2  19   15.92    2.90
   5  -2  19   14.92    2.92
   6   1 -19    7.76    2.68
  -2  -1  19   16.46    2.22
   0  -1  19   12.10    2.32
   4  -1  19    7.12    2.82
   6  -1  19    8.74    3.00
  -3   0  19    6.94    1.79
  -1   0  19    9.43    2.40
   1   0  19    6.60    2.22
   3   0  19    4.71    2.34
   5   0  19   13.51    2.80
   6  -1 -19    7.99    2.84
  -2   1  19   21.99    2.50
   0   1  19   10.43    2.29
   4   1  19    6.69    2.68
   6   1  19   10.87    3.16
  -1   2  19   14.25    2.41
   1   2  19   18.18    2.71
   3   2  19   22.99    3.29
   5   2  19    7.94    2.72
  -2   3  19    9.46    2.11
   0   3  19    5.47    2.31
   2   3  19   11.69    2.47
   4   3  19    8.37    2.77
  -1   4  19    6.32    2.31
   1   4  19    5.99    2.41
   3   4  19    7.35    2.41
  -2   5  19    4.69    1.86
   0   5  19    4.85    2.19
   2   5  19    5.46    2.39
  -1   6  19   13.34    2.46
   1   6  19   11.25    2.55
  -1  -5  20   11.14    2.43
   1  -5  20    2.99    2.03
  -2  -4  20    9.53    2.09
   0  -4  20   13.92    2.75
   2  -4  20    2.85    2.32
  -1  -3  20    4.28    2.00
   1  -3  20    2.54    2.28
   3  -3  20   14.74    2.90
   0  -2  20   15.19    2.70
   2  -2  20    7.17    2.67
   4  -2  20    6.86    2.70
   1  -1  20    9.60    2.80
   3  -1  20    8.88    2.87
   5  -1  20    4.60    2.55
  -2   0  20   16.98    2.28
   2   0  20    9.00    2.64
   4   0  20   16.66    3.00
  -1   1  20    8.65    1.97
   1   1  20    3.70    2.10
   3   1  20    2.93    2.18
   5   1  20    1.49    1.77
  -2   2  20    4.30    1.70
   0   2  20   11.97    2.54
   2   2  20   10.49    2.99
   4   2  20    0.72    1.91
  -1   3  20    8.44    1.91
   1   3  20    6.93    2.42
   3   3  20   10.60    2.99
  -2   4  20    6.64    1.99
   0   4  20   14.09    2.67
   2   4  20    5.84    2.51
  -1   5  20    1.68    1.65
   1   5  20    6.51    2.39
  -2  -3  21    4.77    1.86
   0  -3  21    8.06    2.71
   2  -3  21    9.11    2.86
  -1  -2  21   10.06    2.29
   1  -2  21   37.10    3.88
   3  -2  21    2.18    2.04
   0  -1  21   10.17    2.77
   2  -1  21    4.99    2.53
  -1   0  21    9.70    2.13
   1   0  21    8.94    2.58
   3   0  21   13.06    2.72
  -2   1  21    5.36    1.77
   0   1  21   13.23    2.41
   2   1  21   43.58    4.01
  -1   2  21   38.62    3.34
   1   2  21    3.76    2.10
   3   2  21    6.48    2.24
   0   3  21   13.16    2.48
   2   3  21    3.75    2.09
  -1  -1  22    8.31    2.25
   1  -1  22    3.73    2.21
   0   0  22   23.44    3.06
  -1   1  22    6.12    2.22
   1   1  22    5.89    2.42
   0   0   0    0.00    0.00
;
_shelx_hkl_checksum              92745
loop_
_space_group_symop_operation_xyz
'x, y, z'
'-x, -y, z'
'-y, x, z'
'y, -x, z'
'x+1/2, y+1/2, z+1/2'
'-x+1/2, -y+1/2, z+1/2'
'-y+1/2, x+1/2, z+1/2'
'y+1/2, -x+1/2, z+1/2'
'-x, -y, -z'
'x, y, -z'
'y, -x, -z'
'-y, x, -z'
'-x+1/2, -y+1/2, -z+1/2'
'x+1/2, y+1/2, -z+1/2'
'y+1/2, -x+1/2, -z+1/2'
'-y+1/2, x+1/2, -z+1/2'
loop_
_atom_site_label
_atom_site_type_symbol
_atom_site_fract_x
_atom_site_fract_y
_atom_site_fract_z
_atom_site_U_iso_or_equiv
_atom_site_adp_type
_atom_site_occupancy
_atom_site_site_symmetry_order
_atom_site_calc_flag
_atom_site_refinement_flags_posn
_atom_site_refinement_flags_adp
_atom_site_refinement_flags_occupancy
Ba1 Ba 0.000000 0.000000 0.000000 0.00886(8) Uani 1 8 d S T P
N1 N 0.11661(19) 0.30249(19) 0.16966(11) 0.0047(2) Uani 1 1 d . . .
N2 N 0.2053(3) 0.5611(3) 0.000000 0.0057(3) Uani 1 2 d S T P
N3 N 0.000000 0.000000 0.3298(2) 0.0071(4) Uani 1 4 d S T P
Be1 Be 0.2262(4) 0.0895(3) 0.2341(2) 0.0110(4) Uani 1 1 d . . .
Be2 Be 0.1939(3) 0.1340(3) 0.41420(18) 0.0092(3) Uani 1 1 d . . .
Be3 Be 0.000000 0.500000 0.0924(3) 0.0101(5) Uani 1 2 d S T P
loop_
_atom_site_aniso_label
_atom_site_aniso_U_11
_atom_site_aniso_U_22
_atom_site_aniso_U_33
_atom_site_aniso_U_23
_atom_site_aniso_U_13
_atom_site_aniso_U_12
Ba1 0.00914(9) 0.00914(9) 0.00829(13) 0.000 0.000 0.000
N1 0.0031(4) 0.0051(5) 0.0059(5) 0.0026(4) -0.0005(4) -0.0014(3)
N2 0.0052(7) 0.0070(7) 0.0048(7) 0.000 0.000 -0.0005(5)
N3 0.0067(6) 0.0067(6) 0.0078(11) 0.000 0.000 0.000
Be1 0.0134(9) 0.0088(8) 0.0107(9) -0.0004(7) -0.0018(7) 0.0018(7)
Be2 0.0086(8) 0.0093(8) 0.0095(9) 0.0008(7) 0.0011(7) 0.0001(6)
Be3 0.0077(11) 0.0104(12) 0.0124(13) 0.000 0.000 0.0022(9)
loop_
_atom_type_symbol
_atom_type_description
_atom_type_scat_dispersion_real
_atom_type_scat_dispersion_imag
_atom_type_scat_source
Be Be 0.0005 0.0002 'International Tables Vol C Tables 4.2.6.8 and 6.1.1.4'
N N 0.0061 0.0033 'International Tables Vol C Tables 4.2.6.8 and 6.1.1.4'
Ba Ba -0.3244 2.2819 'International Tables Vol C Tables 4.2.6.8 and 6.1.1.4'
loop_
_geom_angle_atom_site_label_1
_geom_angle_atom_site_label_2
_geom_angle_atom_site_label_3
_geom_angle
_geom_angle_site_symmetry_1
_geom_angle_site_symmetry_3
N1 Ba1 N1 60.75(5) 9 12
N1 Ba1 N1 119.25(5) 9 4
N1 Ba1 N1 180.00(7) 12 4
N1 Ba1 N1 60.75(5) 9 11
N1 Ba1 N1 91.31(8) 12 11
N1 Ba1 N1 88.69(8) 4 11
N1 Ba1 N1 119.25(5) 9 3
N1 Ba1 N1 88.69(8) 12 3
N1 Ba1 N1 91.31(8) 4 3
N1 Ba1 N1 180.00(5) 11 3
N1 Ba1 N1 88.69(8) 9 2
N1 Ba1 N1 119.25(5) 12 2
N1 Ba1 N1 60.75(5) 4 2
N1 Ba1 N1 119.25(5) 11 2
N1 Ba1 N1 60.75(5) 3 2
N1 Ba1 N1 91.31(8) 9 10
N1 Ba1 N1 60.75(5) 12 10
N1 Ba1 N1 119.25(5) 4 10
N1 Ba1 N1 60.75(5) 11 10
N1 Ba1 N1 119.25(5) 3 10
N1 Ba1 N1 180.00(5) 2 10
N1 Ba1 N1 180.0 9 .
N1 Ba1 N1 119.25(5) 12 .
N1 Ba1 N1 60.75(5) 4 .
N1 Ba1 N1 119.25(5) 11 .
N1 Ba1 N1 60.75(5) 3 .
N1 Ba1 N1 91.31(8) 2 .
N1 Ba1 N1 88.69(8) 10 .
N1 Ba1 N2 58.96(4) 9 11_455
N1 Ba1 N2 60.30(4) 12 11_455
N1 Ba1 N2 119.70(4) 4 11_455
N1 Ba1 N2 119.70(4) 11 11_455
N1 Ba1 N2 60.30(4) 3 11_455
N1 Ba1 N2 58.96(4) 2 11_455
N1 Ba1 N2 121.04(4) 10 11_455
N1 Ba1 N2 121.04(4) . 11_455
N1 Ba1 N2 121.04(4) 9 3_655
N1 Ba1 N2 119.70(4) 12 3_655
N1 Ba1 N2 60.30(4) 4 3_655
N1 Ba1 N2 60.30(4) 11 3_655
N1 Ba1 N2 119.70(4) 3 3_655
N1 Ba1 N2 121.04(4) 2 3_655
N1 Ba1 N2 58.96(4) 10 3_655
N1 Ba1 N2 58.96(4) . 3_655
N2 Ba1 N2 180.0 11_455 3_655
N1 Ba1 N2 119.70(4) 9 9_565
N1 Ba1 N2 58.96(4) 12 9_565
N1 Ba1 N2 121.04(4) 4 9_565
N1 Ba1 N2 121.04(4) 11 9_565
N1 Ba1 N2 58.96(4) 3 9_565
N1 Ba1 N2 119.70(4) 2 9_565
N1 Ba1 N2 60.30(4) 10 9_565
N1 Ba1 N2 60.30(4) . 9_565
N2 Ba1 N2 90.0 11_455 9_565
N2 Ba1 N2 90.0 3_655 9_565
N1 Ba1 N2 60.30(4) 9 1_545
N1 Ba1 N2 121.04(4) 12 1_545
N1 Ba1 N2 58.96(4) 4 1_545
N1 Ba1 N2 58.96(4) 11 1_545
N1 Ba1 N2 121.04(4) 3 1_545
N1 Ba1 N2 60.30(4) 2 1_545
N1 Ba1 N2 119.70(4) 10 1_545
N1 Ba1 N2 119.70(4) . 1_545
N2 Ba1 N2 90.0 11_455 1_545
N2 Ba1 N2 90.0 3_655 1_545
N2 Ba1 N2 180.0 9_565 1_545
Be1 N1 Be2 170.51(15) 3 13
Be1 N1 Be1 106.82(13) 3 13
Be2 N1 Be1 82.66(14) 13 13
Be1 N1 Be1 83.04(18) 3 .
Be2 N1 Be1 99.83(13) 13 .
Be1 N1 Be1 76.95(13) 13 .
Be1 N1 Be3 97.10(12) 3 .
Be2 N1 Be3 79.07(12) 13 .
Be1 N1 Be3 108.85(12) 13 .
Be1 N1 Be3 173.79(14) . .
Be1 N1 Ba1 85.47(11) 3 .
Be2 N1 Ba1 85.86(11) 13 .
Be1 N1 Ba1 155.32(10) 13 .
Be1 N1 Ba1 83.62(10) . .
Be3 N1 Ba1 90.20(10) . .
Be2 N2 Be2 75.08(18) 16 7_554
Be2 N2 Be2 119.63(17) 16 6_554
Be2 N2 Be2 77.06(15) 7_554 6_554
Be2 N2 Be2 77.06(15) 16 13
Be2 N2 Be2 119.63(17) 7_554 13
Be2 N2 Be2 72.23(17) 6_554 13
Be2 N2 Be3 161.95(15) 16 9_565
Be2 N2 Be3 100.73(13) 7_554 9_565
Be2 N2 Be3 75.39(10) 6_554 9_565
Be2 N2 Be3 119.17(13) 13 9_565
Be2 N2 Be3 100.73(13) 16 .
Be2 N2 Be3 161.95(15) 7_554 .
Be2 N2 Be3 119.17(13) 6_554 .
Be2 N2 Be3 75.39(10) 13 .
Be3 N2 Be3 77.7(2) 9_565 .
Be2 N2 Ba1 78.57(10) 16 1_565
Be2 N2 Ba1 78.57(10) 7_554 1_565
Be2 N2 Ba1 143.82(9) 6_554 1_565
Be2 N2 Ba1 143.82(9) 13 1_565
Be3 N2 Ba1 83.40(6) 9_565 1_565
Be3 N2 Ba1 83.40(6) . 1_565
Be2 N3 Be2 71.99(10) . 3
Be2 N3 Be2 112.4(2) . 2
Be2 N3 Be2 71.98(10) 3 2
Be2 N3 Be2 71.98(10) . 4
Be2 N3 Be2 112.4(2) 3 4
Be2 N3 Be2 71.98(10) 2 4
Be2 N3 Be1 169.03(10) . 2
Be2 N3 Be1 100.25(10) 3 2
Be2 N3 Be1 71.14(11) 2 2
Be2 N3 Be1 118.72(10) 4 2
Be2 N3 Be1 118.72(10) . 4
Be2 N3 Be1 169.03(10) 3 4
Be2 N3 Be1 100.25(10) 2 4
Be2 N3 Be1 71.14(11) 4 4
Be1 N3 Be1 69.48(10) 2 4
Be2 N3 Be1 100.25(10) . 3
Be2 N3 Be1 71.14(11) 3 3
Be2 N3 Be1 118.72(10) 2 3
Be2 N3 Be1 169.03(10) 4 3
Be1 N3 Be1 69.48(10) 2 3
Be1 N3 Be1 107.4(2) 4 3
Be2 N3 Be1 71.14(11) . .
Be2 N3 Be1 118.72(10) 3 .
Be2 N3 Be1 169.03(10) 2 .
Be2 N3 Be1 100.25(10) 4 .
Be1 N3 Be1 107.4(2) 2 .
Be1 N3 Be1 69.48(10) 4 .
Be1 N3 Be1 69.48(10) 3 .
N1 Be1 N1 119.06(16) 4 13
N1 Be1 N1 124.22(18) 4 .
N1 Be1 N1 103.05(13) 13 .
N1 Be1 N3 105.57(13) 4 .
N1 Be1 N3 99.53(15) 13 .
N1 Be1 N3 101.25(13) . .
N1 Be1 Be1 147.5(2) 4 13
N1 Be1 Be1 52.34(11) 13 13
N1 Be1 Be1 50.71(10) . 13
N3 Be1 Be1 106.87(17) . 13
N1 Be1 Be2 127.60(15) 4 .
N1 Be1 Be2 47.64(10) 13 .
N1 Be1 Be2 107.51(14) . .
N3 Be1 Be2 51.92(11) . .
Be1 Be1 Be2 73.09(14) 13 .
N1 Be1 Be1 50.66(12) 4 4
N1 Be1 Be1 128.05(12) 13 4
N1 Be1 Be1 124.52(10) . 4
N3 Be1 Be1 55.26(5) . 4
Be1 Be1 Be1 161.86(17) 13 4
Be2 Be1 Be1 94.70(8) . 4
N1 Be1 Be1 127.31(10) 4 3
N1 Be1 Be1 112.75(14) 13 3
N1 Be1 Be1 46.31(12) . 3
N3 Be1 Be1 55.26(5) . 3
Be1 Be1 Be1 75.28(18) 13 3
Be2 Be1 Be1 82.02(9) . 3
Be1 Be1 Be1 90.0 4 3
N1 Be1 Be3 43.42(8) 4 3_655
N1 Be1 Be3 97.96(13) 13 3_655
N1 Be1 Be3 99.45(13) . 3_655
N3 Be1 Be3 149.00(12) . 3_655
Be1 Be1 Be3 104.09(15) 13 3_655
Be2 Be1 Be3 139.81(14) . 3_655
Be1 Be1 Be3 93.90(10) 4 3_655
Be1 Be1 Be3 137.16(9) 3 3_655
N1 Be1 Be2 100.10(14) 4 13
N1 Be1 Be2 94.03(13) 13 13
N1 Be1 Be2 38.79(8) . 13
N3 Be1 Be2 139.98(12) . 13
Be1 Be1 Be2 54.72(13) 13 13
Be2 Be1 Be2 127.81(12) . 13
Be1 Be1 Be2 135.62(8) 4 13
Be1 Be1 Be2 84.76(11) 3 13
Be3 Be1 Be2 63.21(9) 3_655 13
N1 Be1 Be1 37.54(9) 4 16_545
N1 Be1 Be1 89.78(10) 13 16_545
N1 Be1 Be1 161.61(19) . 16_545
N3 Be1 Be1 89.33(13) . 16_545
Be1 Be1 Be1 140.19(16) 13 16_545
Be2 Be1 Be1 90.87(14) . 16_545
Be1 Be1 Be1 50.79(14) 4 16_545
Be1 Be1 Be1 139.58(14) 3 16_545
Be3 Be1 Be1 65.31(8) 3_655 16_545
Be2 Be1 Be1 128.41(13) 13 16_545
N1 Be1 Be1 99.72(10) 4 15
N1 Be1 Be1 35.64(9) 13 15
N1 Be1 Be1 94.01(14) . 15
N3 Be1 Be1 135.13(18) . 15
Be1 Be1 Be1 53.93(16) 13 15
Be2 Be1 Be1 83.28(13) . 15
Be1 Be1 Be1 139.58(14) 4 15
Be1 Be1 Be1 129.21(14) 3 15
Be3 Be1 Be1 65.31(8) 3_655 15
Be2 Be1 Be1 67.27(12) 13 15
Be1 Be1 Be1 88.81(3) 16_545 15
N1 Be2 N2 126.84(16) 13 15_455
N1 Be2 N2 105.43(14) 13 13
N2 Be2 N2 105.48(15) 15_455 13
N1 Be2 N3 106.59(16) 13 .
N2 Be2 N3 106.41(14) 15_455 .
N2 Be2 N3 104.04(13) 13 .
N1 Be2 Be2 128.08(9) 13 10_556
N2 Be2 Be2 52.46(9) 15_455 10_556
N2 Be2 Be2 53.88(9) 13 10_556
N3 Be2 Be2 123.79(10) . 10_556
N1 Be2 Be2 112.36(14) 13 4
N2 Be2 Be2 120.71(10) 15_455 4
N2 Be2 Be2 50.27(11) 13 4
N3 Be2 Be2 54.01(5) . 4
Be2 Be2 Be2 90.0 10_556 4
N1 Be2 Be2 133.56(13) 13 3
N2 Be2 Be2 52.66(12) 15_455 3
N2 Be2 Be2 119.61(10) 13 3
N3 Be2 Be2 54.01(5) . 3
Be2 Be2 Be2 90.0 10_556 3
Be2 Be2 Be2 90.000(1) 4 3
N1 Be2 Be3 52.72(10) 13 13
N2 Be2 Be3 136.85(16) 15_455 13
N2 Be2 Be3 52.74(11) 13 13
N3 Be2 Be3 114.60(13) . 13
Be2 Be2 Be3 92.11(11) 10_556 13
Be2 Be2 Be3 76.73(13) 4 13
Be2 Be2 Be3 166.56(13) 3 13
N1 Be2 Be1 49.69(10) 13 .
N2 Be2 Be1 136.80(14) 15_455 .
N2 Be2 Be1 116.94(14) 13 .
N3 Be2 Be1 56.94(12) . .
Be2 Be2 Be1 170.72(8) 10_556 .
Be2 Be2 Be1 83.62(9) 4 .
Be2 Be2 Be1 96.71(8) 3 .
Be3 Be2 Be1 79.89(13) 13 .
N1 Be2 Be1 41.39(9) 13 13
N2 Be2 Be1 95.76(13) 15_455 13
N2 Be2 Be1 146.21(14) 13 13
N3 Be2 Be1 94.49(13) . 13
Be2 Be2 Be1 133.90(8) 10_556 13
Be2 Be2 Be1 135.80(8) 4 13
Be2 Be2 Be1 94.15(11) 3 13
Be3 Be2 Be1 93.93(11) 13 13
Be1 Be2 Be1 52.19(12) . 13
N1 Be2 Be3 96.30(11) 13 15_455
N2 Be2 Be3 40.70(10) 15_455 15_455
N2 Be2 Be3 145.58(15) 13 15_455
N3 Be2 Be3 94.64(10) . 15_455
Be2 Be2 Be3 91.70(9) 10_556 15_455
Be2 Be2 Be3 141.71(10) 4 15_455
Be2 Be2 Be3 51.76(10) 3 15_455
Be3 Be2 Be3 141.36(10) 13 15_455
Be1 Be2 Be3 97.48(12) . 15_455
Be1 Be2 Be3 57.42(9) 13 15_455
N1 Be2 Ba1 63.92(9) 13 5
N2 Be2 Ba1 70.64(10) 15_455 5
N2 Be2 Ba1 96.22(11) 13 5
N3 Be2 Ba1 159.46(12) . 5
Be2 Be2 Ba1 71.44(4) 10_556 5
Be2 Be2 Ba1 145.55(11) 4 5
Be2 Be2 Ba1 117.88(12) 3 5
Be3 Be2 Ba1 75.30(7) 13 5
Be1 Be2 Ba1 110.56(10) . 5
Be1 Be2 Ba1 66.15(9) 13 5
Be3 Be2 Ba1 69.61(6) 15_455 5
N1 Be3 N1 115.7(2) 2_565 .
N1 Be3 N2 100.07(8) 2_565 9_565
N1 Be3 N2 119.56(8) . 9_565
N1 Be3 N2 119.56(8) 2_565 .
N1 Be3 N2 100.07(8) . .
N2 Be3 N2 102.3(2) 9_565 .
N1 Be3 Be2 48.22(8) 2_565 14_455
N1 Be3 Be2 134.88(14) . 14_455
N2 Be3 Be2 51.88(8) 9_565 14_455
N2 Be3 Be2 124.82(15) . 14_455
N1 Be3 Be2 134.88(14) 2_565 13
N1 Be3 Be2 48.22(8) . 13
N2 Be3 Be2 124.82(15) 9_565 13
N2 Be3 Be2 51.88(8) . 13
Be2 Be3 Be2 175.8(2) 14_455 13
N1 Be3 Be3 122.17(11) 2_565 9_565
N1 Be3 Be3 122.17(11) . 9_565
N2 Be3 Be3 51.14(10) 9_565 9_565
N2 Be3 Be3 51.14(10) . 9_565
Be2 Be3 Be3 87.89(11) 14_455 9_565
Be2 Be3 Be3 87.89(11) 13 9_565
N1 Be3 Be1 39.47(8) 2_565 4_565
N1 Be3 Be1 92.95(15) . 4_565
N2 Be3 Be1 138.66(8) 9_565 4_565
N2 Be3 Be1 95.63(9) . 4_565
Be2 Be3 Be1 87.37(10) 14_455 4_565
Be2 Be3 Be1 95.50(10) 13 4_565
Be3 Be3 Be1 132.57(8) 9_565 4_565
N1 Be3 Be1 92.95(15) 2_565 3
N1 Be3 Be1 39.47(8) . 3
N2 Be3 Be1 95.64(9) 9_565 3
N2 Be3 Be1 138.66(8) . 3
Be2 Be3 Be1 95.50(10) 14_455 3
Be2 Be3 Be1 87.37(10) 13 3
Be3 Be3 Be1 132.57(8) 9_565 3
Be1 Be3 Be1 94.85(17) 4_565 3
N1 Be3 Be2 88.66(7) 2_565 15_455
N1 Be3 Be2 93.15(7) . 15_455
N2 Be3 Be2 38.57(7) 9_565 15_455
N2 Be3 Be2 138.11(17) . 15_455
Be2 Be3 Be2 51.51(10) 14_455 15_455
Be2 Be3 Be2 128.33(10) 13 15_455
Be3 Be3 Be2 88.29(9) 9_565 15_455
Be1 Be3 Be2 123.35(11) 4_565 15_455
Be1 Be3 Be2 59.37(8) 3 15_455
N1 Be3 Be2 93.15(7) 2_565 16
N1 Be3 Be2 88.66(7) . 16
N2 Be3 Be2 138.11(17) 9_565 16
N2 Be3 Be2 38.57(7) . 16
Be2 Be3 Be2 128.33(10) 14_455 16
Be2 Be3 Be2 51.51(10) 13 16
Be3 Be3 Be2 88.29(9) 9_565 16
Be1 Be3 Be2 59.37(8) 4_565 16
Be1 Be3 Be2 123.35(11) 3 16
Be2 Be3 Be2 176.59(18) 15_455 16
N1 Be3 Ba1 149.62(7) 2_565 .
N1 Be3 Ba1 58.99(7) . .
N2 Be3 Ba1 65.50(7) 9_565 .
N2 Be3 Ba1 90.30(10) . .
Be2 Be3 Ba1 111.51(7) 14_455 .
Be2 Be3 Ba1 67.00(6) 13 .
Be3 Be3 Ba1 70.96(6) 9_565 .
Be1 Be3 Ba1 151.93(11) 4_565 .
Be1 Be3 Ba1 63.84(7) 3 .
Be2 Be3 Ba1 63.13(5) 15_455 .
Be2 Be3 Ba1 115.63(6) 16 .
loop_
_geom_bond_atom_site_label_1
_geom_bond_atom_site_label_2
_geom_bond_distance
_geom_bond_site_symmetry_2
Ba1 N1 2.965(2) 9
Ba1 N1 2.965(2) 12
Ba1 N1 2.965(2) 4
Ba1 N1 2.965(2) 11
Ba1 N1 2.965(2) 3
Ba1 N1 2.965(2) 2
Ba1 N1 2.965(2) 10
Ba1 N1 2.965(2) .
Ba1 N2 3.169(3) 11_455
Ba1 N2 3.169(3) 3_655
Ba1 N2 3.169(3) 9_565
Ba1 N2 3.169(3) 1_545
N1 Be1 1.639(3) 3
N1 Be2 1.661(3) 13
N1 Be1 1.714(3) 13
N1 Be1 1.753(3) .
N1 Be3 1.772(2) .
N2 Be2 1.720(3) 16
N2 Be2 1.720(3) 7_554
N2 Be2 1.778(3) 6_554
N2 Be2 1.778(3) 13
N2 Be3 1.799(3) 9_565
N2 Be3 1.799(3) .
N3 Be2 1.854(3) .
N3 Be2 1.854(3) 3
N3 Be2 1.854(3) 2
N3 Be2 1.854(3) 4
N3 Be1 1.974(3) 2
N3 Be1 1.974(3) 4
N3 Be1 1.974(3) 3
N3 Be1 1.974(3) .
Be1 Be1 2.157(5) 13
Be1 Be2 2.229(4) .
Be1 Be1 2.250(4) 4
Be1 Be1 2.250(4) 3
Be1 Be3 2.558(4) 3_655
Be1 Be2 2.612(4) 13
Be1 Be1 2.692(4) 16_545
Be1 Be1 2.692(4) 15
Be2 Be2 2.096(5) 10_556
Be2 Be2 2.179(4) 4
Be2 Be2 2.179(4) 3
Be2 Be3 2.187(3) 13
Be2 Be3 2.710(3) 15_455
Be3 Be3 2.257(7) 9_565
