#------------------------------------------------------------------------------
#$Date: 2019-10-29 23:32:04 +0200 (Tue, 29 Oct 2019) $
#$Revision: 220447 $
#$URL: file:///home/coder/svn-repositories/cod/cif/4/00/30/4003028.cif $
#------------------------------------------------------------------------------
#
# This file is available in the Crystallography Open Database (COD),
# http://www.crystallography.net/
#
# All data on this site have been placed in the public domain by the
# contributors.
#
data_4003028
loop_
_publ_author_name
'Elzer, Eugenia'
'Niklaus, Robin'
'Strobel, Philipp J.'
'Weiler, Volker'
'Schmidt, Peter J.'
'Schnick, Wolfgang'
_publ_section_title
;
 MBe20N14:Eu2+ (M = Sr, Ba): Highly Condensed Nitridoberyllates with
 Exceptional Highly Energetic Eu2+ Luminescence
;
_journal_issue                   9
_journal_name_full               'Chemistry of Materials'
_journal_page_first              3174
_journal_paper_doi               10.1021/acs.chemmater.8b05133
_journal_volume                  31
_journal_year                    2019
_chemical_formula_sum            'Be20 N14 Sr'
_chemical_formula_weight         463.96
_chemical_name_common            SrBe20N14
_space_group_crystal_system      tetragonal
_space_group_IT_number           87
_space_group_name_Hall           '-I 4'
_space_group_name_H-M_alt        'I 4/m'
_symmetry_space_group_name_Hall  '-I 4'
_symmetry_space_group_name_H-M   'I 4/m'
_audit_creation_method           SHELXL-2016/6
_cell_angle_alpha                90
_cell_angle_beta                 90
_cell_angle_gamma                90
_cell_formula_units_Z            2
_cell_length_a                   6.525(2)
_cell_length_b                   6.525(2)
_cell_length_c                   12.133(4)
_cell_measurement_reflns_used    5965
_cell_measurement_temperature    293(2)
_cell_measurement_theta_max      25.04
_cell_measurement_theta_min      7.1
_cell_volume                     516.6(3)
_computing_cell_refinement       'SAINT V8.34A (Bruker AXC Inc., 2013)'
_computing_data_collection       'Bruker Instrument Service v3.0.21'
_computing_data_reduction        'SAINT V8.34A (Bruker AXC Inc., 2013)'
_computing_molecular_graphics    'DIAMOND (Brandenburg, 2014)'
_computing_publication_material  SHELXL-2014
_computing_structure_refinement  'SHELXL-2016/6 (Sheldrick, 2016)'
_computing_structure_solution    'SHELXL-2016/6 (Sheldrick, 2016)'
_diffrn_ambient_temperature      293(2)
_diffrn_measured_fraction_theta_full 1.000
_diffrn_measured_fraction_theta_max 0.940
_diffrn_measurement_device_type  'D8 Venture'
_diffrn_measurement_method       'mix of omega and phi scans'
_diffrn_radiation_type           MoK\a
_diffrn_radiation_wavelength     0.71073
_diffrn_reflns_av_R_equivalents  0.0512
_diffrn_reflns_av_unetI/netI     0.0409
_diffrn_reflns_Laue_measured_fraction_full 1.000
_diffrn_reflns_Laue_measured_fraction_max 0.940
_diffrn_reflns_limit_h_max       10
_diffrn_reflns_limit_h_min       -7
_diffrn_reflns_limit_k_max       10
_diffrn_reflns_limit_k_min       -10
_diffrn_reflns_limit_l_max       19
_diffrn_reflns_limit_l_min       -18
_diffrn_reflns_number            4092
_diffrn_reflns_point_group_measured_fraction_full 1.000
_diffrn_reflns_point_group_measured_fraction_max 0.940
_diffrn_reflns_theta_full        25.242
_diffrn_reflns_theta_max         36.919
_diffrn_reflns_theta_min         3.358
_diffrn_source                   'rotating anode generator'
_exptl_absorpt_coefficient_mu    5.246
_exptl_absorpt_correction_T_max  1.000
_exptl_absorpt_correction_T_min  0.872
_exptl_absorpt_correction_type   multi-scan
_exptl_absorpt_process_details   'SADABS V2015/15 (Bruker AXS Inc.)'
_exptl_crystal_colour            colorless
_exptl_crystal_density_diffrn    2.983
_exptl_crystal_density_method    'not measured'
_exptl_crystal_description       block-like
_exptl_crystal_F_000             432
_exptl_crystal_size_max          0.006
_exptl_crystal_size_mid          0.004
_exptl_crystal_size_min          0.003
_refine_diff_density_max         0.546
_refine_diff_density_min         -0.610
_refine_diff_density_rms         0.136
_refine_ls_extinction_method     none
_refine_ls_goodness_of_fit_ref   1.126
_refine_ls_hydrogen_treatment    undef
_refine_ls_matrix_type           full
_refine_ls_number_parameters     44
_refine_ls_number_reflns         642
_refine_ls_number_restraints     0
_refine_ls_restrained_S_all      1.126
_refine_ls_R_factor_all          0.0409
_refine_ls_R_factor_gt           0.0324
_refine_ls_shift/su_max          0.000
_refine_ls_shift/su_mean         0.000
_refine_ls_structure_factor_coef Fsqd
_refine_ls_weighting_details
'w=1/[\s^2^(Fo^2^)+(0.0244P)^2^] where P=(Fo^2^+2Fc^2^)/3'
_refine_ls_weighting_scheme      calc
_refine_ls_wR_factor_gt          0.0520
_refine_ls_wR_factor_ref         0.0542
_reflns_Friedel_coverage         0.000
_reflns_number_gt                580
_reflns_number_total             642
_reflns_threshold_expression     'I > 2\s(I)'
_cod_data_source_file            cm8b05133_si_002.cif
_cod_data_source_block           shelx
_cod_original_cell_volume        516.6(4)
_cod_database_code               4003028
_shelx_shelxl_version_number     2016/6
_shelx_space_group_comment
;
The symmetry employed for this shelxl refinement is uniquely defined
by the following loop, which should always be used as a source of
symmetry information in preference to the above space-group names.
They are only intended as comments.
;
_shelx_estimated_absorpt_t_min   0.8720
_shelx_estimated_absorpt_t_max   1.0000
_shelx_res_file
;
TITL I4_m in I4/m
    shelx.res
    created by SHELXL-2016/6 at 10:55:34 on 09-Feb-2018
CELL 0.71073   6.52510   6.52510  12.13270  90.0000  90.0000  90.0000
ZERR    2.00   0.00210   0.00210   0.00440   0.0000   0.0000   0.0000
LATT  2
SYMM -X, -Y, Z
SYMM -Y, X, Z
SYMM Y, -X, Z
SFAC BE N SR
UNIT 40 28 2

L.S. 50
BOND
FMAP 2
PLAN 20
ACTA
WGHT    0.024400
FVAR       0.17409
SR1   3    0.000000    0.000000    0.000000    10.12500    0.01184    0.01184 =
         0.00791    0.00000    0.00000    0.00000
BE1   1    0.089574    0.226446    0.233919    11.00000    0.00657    0.00928 =
         0.00878   -0.00070   -0.00075    0.00108
BE2   1    0.135343    0.194322    0.414500    11.00000    0.00770    0.00701 =
         0.00942    0.00076    0.00004    0.00098
BE3   1    0.000000    0.500000    0.092359    10.50000    0.00685    0.00693 =
         0.00895    0.00000    0.00000    0.00092
N1    2    0.298473    0.116949    0.167249    11.00000    0.00550    0.00547 =
         0.00566   -0.00018    0.00114   -0.00055
N2    2    0.205337    0.439991    0.000000    10.50000    0.00547    0.00450 =
         0.00547    0.00000    0.00000    0.00005
N3    2    0.000000    0.000000    0.329537    10.25000    0.00562    0.00562 =
         0.00660    0.00000    0.00000    0.00000
HKLF 4




REM  I4_m in I4/m
REM R1 =  0.0324 for     580 Fo > 4sig(Fo)  and  0.0409 for all     642 data
REM     44 parameters refined using      0 restraints

END

WGHT      0.0244      0.0000

REM Highest difference peak  0.546,  deepest hole -0.610,  1-sigma level  0.136
Q1    1   0.1021  0.0084  0.0376  11.00000  0.05    0.55
Q2    1   0.2022  0.5281  0.0000  10.50000  0.05    0.54
Q3    1  -0.1121  0.0919  0.0000  10.50000  0.05    0.50
Q4    1   0.2111  0.0948  0.0000  10.50000  0.05    0.48
Q5    1   0.2992  0.3689  0.0000  10.50000  0.05    0.48
Q6    1   0.3734  0.4603  0.0000  10.50000  0.05    0.48
Q7    1   0.0276  0.3474  0.0000  10.50000  0.05    0.47
Q8    1   0.4088  0.1156  0.1617  11.00000  0.05    0.45
Q9    1  -0.0166  0.0531  0.0286  11.00000  0.05    0.43
Q10   1   0.2543  0.0633  0.1893  11.00000  0.05    0.43
Q11   1  -0.0590  0.1507  0.0000  10.50000  0.05    0.42
Q12   1   0.2931  0.4495  0.0554  11.00000  0.05    0.41
Q13   1   0.1216  0.4382 -0.0266  11.00000  0.05    0.41
Q14   1   0.1490  0.1490  0.1806  11.00000  0.05    0.40
Q15   1   0.3600  0.1796  0.2091  11.00000  0.05    0.40
Q16   1   0.1046  0.4489  0.0000  10.50000  0.05    0.39
Q17   1   0.1459  0.4946 -0.0543  11.00000  0.05    0.39
Q18   1   0.0760  0.3264  0.4428  11.00000  0.05    0.39
Q19   1   0.3612  0.2205  0.1922  11.00000  0.05    0.38
Q20   1   0.0000  0.0000  0.2492  10.25000  0.05    0.38
;
_shelx_res_checksum              98128
_shelx_hkl_file
;
   1   1   0   69.19    1.89
  -1  -1   0   72.13    1.87
  -1  -1   0   70.04    1.47
  -1   1   0   69.41    1.80
  -1   1   0   72.07    1.79
   1  -1   0   71.27    1.81
   1  -1   0   68.24    1.75
   1   1   0   67.99    1.45
   2   0   0   48.93    1.81
   0   2   0   47.59    1.70
   2   0   0   46.15    1.21
   2   0   0   46.20    1.19
   0  -2   0   47.85    1.73
   0  -2   0   44.69    1.63
   0  -2   0   47.09    1.70
  -2   0   0   48.38    1.78
   2  -2   0   78.36    2.55
   2   2   0   74.75    2.58
  -2   2   0   74.13    2.46
   2   2   0   75.37    1.95
  -2  -2   0   72.30    2.61
  -2  -2   0   73.61    1.94
  -2   2   0   74.40    2.46
   2  -2   0   74.06    2.42
  -1   3   0  252.82    5.55
   3   1   0  248.85    5.52
  -3  -1   0  249.49    5.52
  -3  -1   0  247.49    3.91
  -1   3   0  250.53    5.31
   3   1   0  249.36    3.93
   1  -3   0  242.72    5.34
   1  -3   0  255.50    5.48
   3  -1   0   64.62    2.50
   3  -1   0   66.51    2.12
   3  -1   0   68.54    2.09
   1   3   0   71.37    2.65
   1   3   0   66.74    2.32
  -1  -3   0   65.78    2.45
  -1  -3   0   67.17    2.28
  -3   3   0   67.26    2.82
   3   3   0   66.93    2.93
  -3  -3   0   65.36    2.12
   3   3   0   67.96    2.11
   3  -3   0   64.60    2.83
  -4  -2   0   81.44    1.90
  -2   4   0   80.95    3.32
   4   2   0   86.50    3.57
   2  -4   0   86.96    3.39
   4   2   0   81.43    1.89
   4   0   0   81.40    2.13
   0  -4   0   85.33    3.22
   4   0   0   85.25    3.24
   0   4   0   81.91    3.09
   4   0   0   84.78    2.21
   2   4   0  755.02   13.37
  -2  -4   0  750.55   12.23
   4  -2   0  760.65   12.46
   4  -2   0  747.75   12.23
   2   4   0  749.17   12.24
   4  -2   0  739.55   12.99
   4  -4   0   20.59    1.87
  -4  -4   0   20.25    1.46
  -4   4   0   23.40    1.96
   4   4   0   22.89    2.27
   4   4   0   22.76    1.39
   4  -4   0   25.03    2.47
  -5  -3   0   20.48    0.96
   5   3   0   20.67    0.92
   3  -5   0   18.88    2.07
  -3   5   0   20.96    2.00
   5   3   0   22.13    2.14
   5   1   0   38.92    2.94
   1  -5   0   43.16    2.62
   5   1   0   38.41    1.20
   5   1   0   37.48    1.23
   5  -1   0   14.88    1.79
   5  -1   0   12.96    1.11
   1   5   0   15.04    1.62
   5  -1   0   14.77    1.25
  -1  -5   0   14.68    1.66
   3   5   0   13.35    1.39
   5  -3   0   14.44    1.88
   5  -3   0   11.52    1.53
   3   5   0   11.65    1.85
   5  -5   0   29.94    2.71
   5   5   0   33.09    3.12
   5  -5   0   25.80    2.59
   5   5   0   29.72    1.66
  -5  -5   0   28.96    1.78
   4  -6   0   18.70    2.18
  -4   6   0   17.76    2.17
   4  -6   0   17.45    2.36
   6   4   0   18.41    2.50
   6   2   0  310.71    8.64
   2  -6   0  314.14    8.29
  -2   6   0  310.34    8.54
   6   0   0   43.22    3.00
   0   6   0   36.61    2.75
   6   0   0   42.88    1.72
   6   0   0   41.15    1.62
   0  -6   0   42.35    2.95
  -2  -6   0    8.30    2.13
   6  -2   0    6.17    1.45
   2   6   0    7.26    1.67
   6  -2   0    8.21    1.73
   2   6   0    6.23    1.97
   4   6   0   32.36    2.18
   4   6   0   29.42    3.02
   6  -4   0   34.64    2.89
   6  -4   0   29.93    2.62
   6   6   0   54.24    4.31
   6  -6   0   54.09    4.01
   5  -7   0   11.27    2.33
   5  -7   0    9.99    2.87
   7   5   0   11.89    2.95
  -3   7   0    5.54    2.06
   7   3   0    4.93    2.21
   3  -7   0    4.73    1.99
   1  -7   0   23.85    2.60
  -1   7   0   20.84    2.58
   7   1   0   29.17    2.93
   7  -1   0   32.00    1.87
  -1  -7   0   33.98    3.06
   7  -1   0   39.05    3.13
   1   7   0   29.30    2.68
   3   7   0   20.78    2.11
   7  -3   0   23.41    2.70
   3   7   0   26.74    3.00
  -3  -7   0   20.01    2.73
   7  -3   0   22.26    2.13
   7  -5   0   15.95    2.59
   5   7   0   15.92    2.77
   5   7   0   14.72    1.68
   7  -5   0   13.43    2.72
   7  -7   0    5.88    2.17
   7  -7   0    3.80    2.06
   7   7   0    6.89    2.52
   6  -8   0   41.89    3.91
   6  -8   0   46.39    4.05
   8   6   0   41.30    4.27
   4  -8   0   30.00    3.28
   8   4   0   29.11    3.36
   4  -8   0   25.01    3.16
   2  -8   0    5.88    2.16
  -2   8   0    2.39    1.57
   8   2   0    5.18    2.04
   8   0   0   25.27    3.04
   8   0   0   26.26    1.10
   0  -8   0   29.91    3.22
   8  -2   0   64.54    3.54
  -2  -8   0   62.29    4.39
   8  -2   0   49.60    3.82
   2   8   0   54.50    3.70
  -4  -8   0   95.84    5.63
   4   8   0   99.08    4.50
   8  -4   0  100.22    5.46
   8  -4   0  101.27    4.77
   6   8   0   14.62    3.03
   8  -6   0   14.89    2.62
   8  -6   0   17.74    2.78
   5  -9   0    5.74    2.74
   3  -9   0   15.66    2.53
  -3   9   0   17.63    2.63
   9   3   0   14.04    2.88
   3  -9   0   20.55    3.17
   9   1   0   14.26    2.70
   1  -9   0   17.22    2.86
  -1   9   0    9.53    2.07
   9  -1   0    2.65    1.94
  -1  -9   0    2.27    2.17
   1   9   0    1.17    1.85
   9  -3   0    4.43    2.12
   3   9   0    9.89    1.94
  -3  -9   0    6.13    2.21
   9  -3   0    7.59    2.61
   9  -5   0   -0.57    1.90
  -5  -9   0    0.62    1.77
   9  -5   0   -0.85    2.61
   4 -10   0   12.69    3.62
  10   2   0   15.84    3.11
   2 -10   0   22.13    3.31
   0  10   0   70.34    4.96
   0 -10   0   58.93    4.72
  10   0   0   51.35    4.50
  10  -2   0   22.13    3.08
  -2 -10   0   15.47    3.26
   0  -1  -1   28.81    1.05
   0  -1  -1   28.04    1.03
  -1   0  -1   29.14    0.92
  -1   0  -1   27.76    0.93
   0   1  -1   28.58    0.86
   0   1  -1   29.14    0.98
   1   0  -1   27.46    1.07
   1   0  -1   27.44    0.66
   0   1   1   28.22    1.04
   1   0   1   26.69    0.91
   1   0   1   27.06    0.90
   0  -1   1   28.28    0.96
  -1   0   1   29.04    1.09
   0   1   1   29.33    1.10
  -1   0   1   28.02    0.65
   0  -1   1   28.83    0.86
   2   1  -1  187.36    4.11
  -2  -1  -1  188.93    4.08
  -2  -1  -1  192.45    3.43
   1  -2  -1  188.93    4.05
  -1   2  -1  184.79    3.70
   1  -2  -1  187.02    4.12
  -1   2  -1  186.78    4.03
   1  -2   1  196.17    4.07
   2   1   1  187.23    4.10
   1  -2   1  190.85    3.78
   2   1   1  191.64    3.46
  -2  -1   1  192.58    4.14
  -1   2   1  185.11    4.09
  -1   2   1  191.86    4.09
   1   2  -1   68.33    1.88
  -2   1  -1   66.80    2.01
  -1  -2  -1   69.02    2.28
   2  -1  -1   64.82    1.85
  -1  -2  -1   63.53    1.96
   2  -1  -1   65.02    2.25
   1   2  -1   67.46    2.16
  -2   1   1   64.86    2.22
   2  -1   1   67.23    2.02
  -1  -2   1   65.58    2.10
  -1  -2   1   62.78    1.82
   2  -1   1   69.73    2.02
   1   2   1   68.97    2.06
   2  -1   1   68.26    2.07
  -2   1   1   65.71    1.87
   1   2   1   67.74    2.29
  -3  -2  -1   71.27    2.06
   3   2  -1   71.70    2.91
  -2   3  -1   74.62    2.99
   2  -3  -1   70.78    2.74
   3   2  -1   69.29    1.50
  -2   3  -1   69.92    2.77
   2  -3  -1   74.05    2.85
  -2   3   1   65.78    2.65
   2  -3   1   69.61    2.55
  -2   3   1   69.06    2.78
   2  -3   1   75.55    3.19
   3   2   1   72.83    2.85
  -3  -2   1   71.37    1.57
   3   2   1   69.93    2.05
   0  -3  -1   73.88    2.65
   3   0  -1   72.42    1.61
   3   0  -1   69.56    2.59
   3   0  -1   71.19    1.63
   0  -3  -1   75.48    2.66
  -3   0  -1   72.68    2.56
  -3   0  -1   71.40    2.01
   0   3  -1   73.15    2.50
   0  -3  -1   72.74    2.59
  -3   0   1   67.49    2.53
   0   3   1   67.27    2.46
   3   0   1   71.51    2.04
   0  -3   1   69.89    2.43
   0  -3   1   72.35    2.40
   0  -3   1   69.52    2.76
   3   0   1   69.11    2.49
  -2  -3  -1   19.39    1.25
  -3   2  -1   21.09    1.47
   3  -2  -1   19.38    1.50
   2   3  -1   20.65    1.21
   3  -2  -1   23.43    1.74
   2   3  -1   22.38    1.67
  -2  -3   1   19.52    1.55
   3  -2   1   21.26    1.53
  -3   2   1   21.01    1.40
   2   3   1   22.17    1.37
  -2  -3   1   22.79    1.23
  -3   2   1   17.76    1.56
   2   3   1   22.11    1.63
   3  -2   1   18.60    1.31
   3  -2   1   23.95    1.57
   3  -4  -1   22.86    2.06
   4   3  -1   23.32    0.97
  -4  -3  -1   28.33    1.44
  -3   4  -1   22.87    1.99
   4   3  -1   21.51    2.37
   4   3   1   23.35    1.36
  -4  -3   1   23.28    0.99
  -3   4   1   22.65    1.85
   3  -4   1   23.27    1.90
  -4  -1  -1   36.17    1.39
  -1   4  -1   34.62    2.16
   1  -4  -1   37.62    2.26
   4   1  -1   33.81    2.21
   4   1   1   36.93    1.43
   1  -4   1   36.60    2.09
   4   1   1   35.31    2.10
   1  -4   1   35.48    1.89
  -1   4   1   38.05    2.15
   4  -1  -1   82.90    2.42
  -1  -4  -1   81.46    3.33
   1   4  -1   81.59    2.97
   4  -1  -1   78.54    3.26
   4  -1  -1   83.51    2.48
   1   4  -1   86.54    3.24
   4  -1   1   84.50    2.66
   4  -1   1   82.36    3.13
   1   4   1   82.47    3.30
   1   4   1   79.92    3.03
  -1  -4   1   81.51    2.91
   4  -1   1   80.58    2.68
   3   4  -1    1.11    0.74
   4  -3  -1    2.22    1.28
   3   4  -1    0.70    1.05
  -3  -4  -1    0.90    0.73
   3   4   1    1.26    1.30
  -4   3   1    0.78    0.88
   4  -3   1    1.35    0.82
   3   4   1    2.43    0.85
   4  -3   1    1.85    1.05
  -5  -4  -1   52.82    2.58
   4  -5  -1   48.17    3.28
   5   4  -1   46.55    3.30
   4  -5   1   46.37    3.10
   4  -5   1   49.35    3.24
   5   4   1   45.97    1.97
   5   4   1   45.06    3.27
  -4   5   1   47.71    3.09
  -5  -4   1   43.29    1.44
   2  -5  -1   58.16    3.24
  -2   5  -1   59.16    3.23
   5   2  -1   60.56    3.25
  -5  -2  -1   56.51    1.84
   5   2   1   71.93    2.85
  -2   5   1   60.23    3.28
   2  -5   1   62.16    3.08
   5   2   1   54.93    3.10
   0  -5  -1   16.65    1.88
   0   5  -1   15.72    1.57
   5   0  -1   15.67    0.89
   5   0  -1   14.10    1.62
   5   0  -1   15.58    0.92
   5   0   1   14.23    1.15
   0  -5   1   17.47    1.75
   5   0   1   15.38    1.09
   5   0   1   14.20    1.70
   0   5   1   16.94    1.77
   5  -2  -1   39.05    2.68
   5  -2  -1   39.08    2.08
   2   5  -1   36.92    2.16
   2   5   1   34.60    2.65
   5  -2   1   36.95    2.49
   2   5   1   42.32    2.42
   5  -2   1   36.59    2.17
   4   5  -1   44.00    3.20
   5  -4  -1   46.26    3.17
   4   5  -1   51.11    2.25
   5  -4  -1   49.02    3.03
  -4  -5   1   44.43    2.17
   5  -4   1   53.27    3.12
   5  -4   1   47.35    3.09
   4   5   1   46.27    2.37
  -5   4   1   49.36    2.97
   4   5   1   50.40    3.46
   5  -6  -1    2.78    1.86
   6   5  -1    7.58    2.52
   5  -6  -1   11.26    2.60
   6   5   1    6.10    0.95
   5  -6   1    9.73    2.59
   5  -6   1    8.34    2.28
  -5   6   1    8.36    2.38
   6   5   1    6.59    2.38
   3  -6  -1   44.13    3.26
  -6  -3  -1   43.35    1.49
   6   3  -1   48.53    3.53
  -3   6  -1   45.83    3.27
   6   3   1   41.35    3.26
   3  -6   1   46.91    3.12
  -3   6   1   43.36    3.23
   6   3   1   43.48    1.45
   6   1  -1    0.65    1.40
   1  -6  -1    0.32    1.30
  -1   6  -1    0.68    1.04
   6   1   1    2.35    1.29
   1  -6   1    1.78    1.27
  -1   6   1    0.92    1.09
   6   1   1    1.79    0.62
   6   1   1    1.15    0.62
  -1  -6  -1   56.81    3.58
   6  -1  -1   61.97    2.32
   6  -1  -1   64.39    2.42
   1   6  -1   65.97    3.38
   6  -1  -1   61.79    3.62
   6  -1   1   68.05    2.78
   1   6   1   67.27    3.51
  -1  -6   1   59.86    3.48
   6  -1   1   64.69    3.47
   6  -3  -1   15.04    1.94
   6  -3  -1   19.75    2.02
   3   6  -1   18.90    1.75
   3   6  -1   24.22    2.59
   3   6   1   18.54    1.90
   3   6   1   16.61    2.37
   6  -3   1   19.11    2.17
   6  -3   1   21.52    2.07
   6  -5  -1   11.68    2.06
   5   6  -1   10.73    1.20
   6  -5  -1   13.05    2.24
   6  -5   1   13.60    2.32
   5   6   1    9.27    2.46
   6  -5   1   10.66    2.08
   5   6   1   11.99    1.43
   7   6  -1   28.37    3.53
   6  -7  -1   29.77    3.55
   6  -7  -1   31.41    3.34
   6  -7   1   18.80    2.83
   7   6   1   34.99    3.66
   6  -7   1   29.30    3.33
   7   4  -1    1.67    1.75
   4  -7  -1    5.86    2.31
   4  -7   1    4.08    1.90
  -4   7   1    1.34    1.76
   7   4   1    2.38    1.94
   4  -7   1    2.56    1.56
   7   2  -1    5.52    2.14
   2  -7  -1    2.75    1.81
  -2   7  -1    7.17    2.12
   7   2   1    4.22    1.96
  -2   7   1    4.03    1.90
   2  -7   1    6.56    1.97
   0   7  -1   27.05    2.67
   7   0  -1   24.56    2.72
   0  -7  -1   26.85    2.90
   7   0  -1   25.16    0.98
   7   0  -1   23.50    0.94
   7   0   1   24.15    1.51
   7   0   1   28.38    2.78
   0  -7   1   24.29    2.60
   0   7   1   26.47    2.70
   7   0   1   22.00    1.48
   2   7  -1   12.69    1.87
   7  -2  -1   11.94    1.53
  -2  -7  -1   15.58    2.50
   7  -2  -1   15.94    2.42
   7  -2   1   13.85    2.17
   2   7   1   11.63    1.88
  -2  -7   1   12.89    2.25
   7  -4  -1    6.95    2.17
   4   7  -1    8.91    1.48
   7  -4  -1    8.85    2.19
   4   7  -1    8.10    2.37
   4   7   1    7.97    2.62
   7  -4   1    7.07    2.14
   7  -4   1   10.15    2.30
   4   7   1    7.15    1.48
   7  -6  -1    2.11    1.85
   6   7  -1   -0.03    1.86
   7  -6  -1   -0.76    1.58
   6   7   1    2.81    2.13
   7  -6   1    2.28    1.70
   7  -6   1    0.83    1.93
   7  -8  -1   21.70    3.31
   7  -8   1   19.70    2.99
   8   5  -1   -0.31    1.82
   5  -8  -1    1.38    1.71
   5  -8  -1    4.95    2.34
   5  -8   1    0.51    1.39
   5  -8   1    1.78    2.05
   8   5   1    1.54    1.88
   3  -8  -1   22.50    3.02
   8   3  -1   27.44    3.26
   3  -8   1   31.51    3.32
   8   3   1   23.17    3.10
  -3   8   1   26.13    2.91
   3  -8   1   30.93    3.39
   8   1  -1   15.25    2.65
  -1   8  -1   13.98    2.40
   1  -8  -1    9.70    2.61
   8   1   1   13.38    2.49
   1  -8   1   11.90    2.28
  -1   8   1   11.12    2.07
   8  -1  -1    9.99    1.16
   1   8  -1   12.40    2.15
  -1  -8  -1    8.00    2.57
   8  -1  -1   10.16    2.66
   1   8   1    9.64    2.01
   8  -1   1   10.35    2.74
  -1  -8   1   10.30    2.69
   8  -1   1    9.49    1.34
   8  -3  -1   19.57    2.02
  -3  -8  -1   28.62    3.36
   8  -3  -1   19.09    2.83
   3   8  -1   22.59    2.51
   3   8   1   21.76    2.45
   8  -3   1   29.01    2.47
  -3  -8   1   21.21    2.92
   8  -3   1   18.11    2.48
   5   8  -1    3.52    2.18
   8  -5  -1   -0.18    1.54
   8  -5  -1   -0.62    1.47
  -5  -8  -1    0.78    1.60
   8  -5   1    0.93    1.82
  -5  -8   1   -0.72    1.20
   5   8   1    0.49    1.58
   5   8   1    0.84    2.08
   8  -5   1   -1.23    1.56
   8  -7  -1    4.32    2.36
   8  -7  -1    8.54    2.89
   8  -7   1    7.52    3.48
   8  -7   1   13.44    2.58
   6  -9   1    5.09    2.03
   9   4  -1    5.05    2.17
   4  -9  -1    7.59    2.64
   4  -9  -1    4.60    2.09
   4  -9   1    4.76    1.96
   9   4   1    5.49    2.19
   4  -9   1    7.73    2.51
   2  -9  -1   13.68    2.86
   9   2  -1   14.50    2.83
  -2   9   1    8.00    2.29
   2  -9   1   13.37    3.25
   2  -9   1    8.80    2.73
   9   2   1    9.39    2.70
   0  -9  -1   18.68    3.07
   0   9  -1   20.40    2.85
   9   0  -1   19.63    2.88
   9   0   1   22.42    3.14
   0  -9   1   22.54    3.10
   0   9   1   22.28    2.96
  -2  -9  -1   -0.78    1.80
   9  -2  -1    0.66    1.69
   2   9  -1    1.24    1.70
   2   9   1    1.58    2.00
   9  -2   1    3.54    2.19
  -2  -9   1    2.94    1.97
   9  -2   1    0.57    1.82
  -4  -9  -1   23.18    3.26
   9  -4  -1   16.94    2.89
  -4  -9   1   15.90    2.43
   4   9   1   19.56    2.77
   9  -4   1   19.01    2.67
   9  -4   1   17.81    2.68
   9  -6  -1   14.76    3.77
   9  -6   1   14.42    2.96
   9  -6   1    9.45    2.98
   3 -10  -1   -3.38    2.14
  10   1  -1   10.20    2.83
  10   1   1   14.43    2.80
   1 -10   1    5.43    2.67
   1 -10   1   10.19    3.00
  -1  10   1    9.33    2.68
  10  -1  -1    3.10    2.07
  -1 -10  -1    2.90    2.46
   1  10   1    2.78    2.22
  -1 -10   1    2.80    2.54
  10  -1   1   -2.12    1.70
  10  -3  -1    9.67    2.88
  -3 -10   1   10.30    2.95
  10  -3   1    7.78    2.60
   0   0  -2   42.05    1.23
   0   0  -2   41.58    0.98
   0   0   2   42.59    0.98
   0   0   2   42.67    1.23
   1   1  -2   46.53    1.20
  -1   1  -2   45.74    1.58
   1  -1  -2   49.76    1.76
  -1  -1  -2   48.43    1.60
   1  -1  -2   45.09    1.51
  -1   1  -2   46.63    1.15
   1   1  -2   47.95    1.53
  -1  -1  -2   51.12    1.64
   1   1   2   47.10    1.62
   1  -1   2   47.93    1.14
  -1  -1   2   47.20    1.21
  -1  -1   2   44.78    1.50
   1   1   2   49.35    1.63
  -1   1   2   47.42    1.54
  -1   1   2   46.76    1.71
   1  -1   2   51.33    1.71
   0  -2  -2  145.70    3.50
  -2   0  -2  148.90    3.16
   0  -2  -2  152.84    3.49
   0   2  -2  145.01    2.97
  -2   0  -2  143.24    3.13
   0   2  -2  143.12    3.26
   2   0  -2  146.66    2.68
   0  -2  -2  146.92    3.53
   2   0  -2  137.60    3.45
  -2   0   2  146.37    2.46
   0  -2   2  142.76    3.22
   2   0   2  146.58    3.15
  -2   0   2  150.07    3.52
   0  -2   2  146.95    3.31
   0  -2   2  142.88    2.91
   2   0   2  145.02    3.15
   0   2   2  142.14    3.44
   0   2   2  146.58    3.53
   2  -2  -2   61.00    2.22
   2   2  -2   60.39    2.35
  -2   2  -2   60.59    1.98
   2  -2  -2   59.04    2.49
  -2  -2  -2   60.11    2.06
  -2  -2  -2   59.89    2.41
  -2   2   2   54.34    2.35
   2   2   2   62.90    2.46
   2  -2   2   57.80    1.94
  -2  -2   2   60.59    1.56
   2  -2   2   61.75    2.39
  -2  -2   2   60.62    1.55
   2   2   2   60.63    2.12
  -2   2   2   58.68    2.15
  -2  -2   2   64.86    2.38
   2  -2   2   58.35    2.52
  -3  -1  -2   60.66    1.97
   1  -3  -2   61.15    2.65
  -3  -1  -2   59.45    2.41
   3   1  -2   64.27    2.61
   1  -3  -2   65.03    2.56
  -1   3  -2   61.91    2.51
   1  -3   2   59.65    2.10
   3   1   2   59.69    2.00
  -1   3   2   62.12    2.48
   3   1   2   62.45    2.51
  -3  -1   2   65.36    2.57
   1  -3   2   62.03    2.17
  -1   3   2   64.19    2.61
   1  -3   2   58.64    2.36
   3  -1  -2   11.54    0.90
  -1  -3  -2   13.69    1.36
  -3   1  -2   11.64    1.10
   1   3  -2   12.71    1.18
  -1  -3  -2   13.11    1.20
   3  -1  -2   11.95    1.37
   1   3  -2   12.47    1.06
  -3   1  -2   11.36    1.02
   1   3   2   11.69    1.21
   3  -1   2   11.40    1.08
  -1  -3   2   12.78    1.02
   1   3   2   12.59    1.23
   3  -1   2   12.76    1.13
  -3   1   2   11.02    1.01
   3  -1   2   12.51    1.06
  -3   1   2   13.04    1.41
  -1  -3   2   11.61    1.05
  -3  -3  -2   97.34    3.35
  -3   3  -2   95.10    3.11
   3  -3  -2   96.48    3.74
   3   3  -2   94.73    3.58
   3   3  -2   95.86    2.30
   3   3   2   93.99    2.93
  -3   3   2   93.73    3.34
  -3  -3   2   95.76    2.35
   3  -3   2   93.10    3.12
   3  -3   2   93.41    3.56
   3   3   2   91.45    3.61
   2  -4  -2   28.85    2.23
  -2   4  -2   23.80    1.85
   4   2  -2   25.30    1.96
  -2   4  -2   26.47    1.68
  -4  -2  -2   26.49    1.41
   2  -4   2   25.79    1.93
   2  -4   2   28.29    1.81
  -2   4   2   26.01    1.98
   4   2   2   27.99    2.00
   4   2   2   28.05    1.50
   4   0  -2   72.25    1.66
   4   0  -2   72.39    1.69
   0   4  -2   70.39    2.87
   4   0  -2   71.11    3.05
   0  -4  -2   77.77    3.22
  -4   0  -2   69.14    2.37
   4   0   2   77.41    2.95
   0  -4   2   71.73    2.76
   4   0   2   69.38    2.40
   0   4   2   75.49    3.03
   0  -4   2   72.71    2.68
   2   4  -2   17.11    1.34
   2   4  -2   17.39    1.69
   4  -2  -2   19.31    1.38
   4  -2  -2   16.55    1.77
   4  -2   2   17.23    1.52
   4  -2   2   20.15    1.65
   2   4   2   18.92    1.84
  -2  -4   2   15.90    1.24
  -4   2   2   16.49    1.32
   2   4   2   19.05    1.58
   4   4  -2   68.19    3.54
   4  -4  -2   70.02    3.71
   4  -4   2   68.06    3.51
   4  -4   2   67.06    3.11
  -4  -4   2   65.89    2.10
  -4   4   2   73.14    3.43
   4   4   2   67.40    2.73
   4   4   2   69.27    3.73
  -4  -4   2   67.47    2.14
   3  -5  -2    4.29    1.66
   5   3  -2    2.21    1.21
   3  -5   2    3.71    1.54
  -3   5   2    1.68    1.10
   5   3   2    1.13    0.79
   5   3   2    3.52    1.61
   3  -5   2    2.56    1.36
  -5  -1  -2   40.86    1.79
  -1   5  -2   41.21    2.64
   5   1  -2   43.96    2.80
   1  -5  -2   41.19    3.08
   5   1   2   44.88    2.71
   5   1   2   44.02    1.89
   1  -5   2   41.34    2.41
  -1   5   2   36.04    2.52
   1   5  -2    4.70    1.34
  -1  -5  -2    2.75    1.37
   5  -1  -2    2.78    0.83
   5  -1  -2    2.27    1.30
   1   5  -2    2.75    1.07
   5  -1  -2    2.59    0.74
   5  -1   2    4.76    1.15
   1   5   2    3.60    1.33
   5  -1   2    3.19    1.21
  -1  -5   2    4.07    1.35
   3   5  -2   40.04    2.81
   3   5  -2   35.85    2.00
   5  -3  -2   38.63    2.72
   3   5   2   35.68    2.26
   3   5   2   33.82    2.62
   5  -3   2   35.81    2.48
  -5   3   2   34.19    2.20
   5  -3   2   38.70    2.50
   5  -5  -2   10.75    2.57
   5   5  -2   10.87    2.15
  -5  -5   2    9.28    0.90
   5   5   2    9.64    1.31
   5   5   2    9.90    2.09
   5  -5   2   10.76    1.90
  -5   5   2   11.65    1.85
  -5  -5   2   10.43    0.90
   5  -5   2   10.05    1.97
   4  -6  -2   32.28    3.14
   6   4  -2   38.17    3.36
  -6  -4  -2   34.43    1.84
   4  -6   2   36.74    2.84
  -4   6   2   36.34    3.12
   4  -6   2   34.04    3.11
   6   4   2   37.26    1.80
   6   4   2   39.75    3.18
  -6  -2  -2    6.96    0.83
   2  -6  -2    8.98    2.29
  -2   6  -2    4.20    1.67
   6   2  -2    7.81    2.04
   6   2   2    8.43    0.96
   6   2   2   10.28    2.29
   2  -6   2    8.06    1.70
  -2   6   2    8.43    1.72
   2  -6   2    7.89    1.98
   6   0  -2   67.27    3.73
   0  -6  -2   59.95    3.71
   0   6  -2   65.03    3.45
   6   0  -2   65.64    1.50
   6   0   2   66.70    2.51
   0   6   2   73.02    3.75
   0  -6   2   58.94    3.29
   6   0   2   66.32    2.66
   6   0   2   68.08    3.48
   2   6  -2   38.01    2.44
  -2  -6  -2   36.19    3.09
   6  -2  -2   36.75    2.12
   6  -2  -2   33.78    2.95
   2   6  -2   36.09    2.81
   6  -2   2   34.72    2.61
   6  -2   2   34.65    2.30
   2   6   2   36.71    2.63
   4   6  -2   17.20    1.58
   4   6  -2   13.44    2.29
   6  -4  -2   15.14    1.89
   6  -4  -2   14.28    2.33
   6  -4   2   13.99    2.19
  -4  -6   2   16.95    1.65
   6  -4   2   11.61    1.94
   4   6   2   15.18    2.20
   4   6   2   17.01    1.78
   6  -6  -2    4.10    2.20
   6  -6  -2    4.30    2.13
   6   6  -2    2.24    2.07
   6  -6   2    3.90    2.08
   6   6   2    3.75    2.22
   6  -6   2    6.66    1.98
   6   6   2    6.05    1.24
   7   5  -2   11.16    3.07
   5  -7  -2    9.08    2.58
   5  -7   2    8.08    2.14
  -5   7   2   11.03    2.26
   5  -7   2   10.01    2.75
   7   5   2    8.16    2.61
   3  -7  -2   11.09    2.32
   3  -7   2   14.22    2.12
  -3   7   2   10.14    2.80
   7   3   2    9.22    2.36
   1  -7  -2   45.79    3.60
  -1   7  -2   47.53    3.45
   7   1  -2   45.37    3.59
   7   1   2   48.87    2.03
   1  -7   2   52.67    3.54
   7   1   2   51.48    2.35
   1  -7   2   45.57    3.17
   7   1   2   47.24    3.48
  -1   7   2   43.64    3.43
   7  -1  -2   11.18    1.88
  -1  -7  -2   14.56    2.50
   7  -1  -2   10.59    1.21
   1   7  -2   12.43    1.87
   7  -1  -2   14.12    1.14
  -1  -7   2   12.58    2.06
   1   7   2   13.36    2.10
   7  -1   2   13.74    2.13
   7  -1   2   10.84    1.52
   3   7  -2    1.14    1.27
   7  -3  -2    2.82    1.48
  -3  -7  -2    0.14    1.21
   3   7  -2    1.01    1.65
   7  -3  -2    1.93    1.76
   7  -3   2    1.10    1.25
   3   7   2    3.58    1.71
   7  -3   2    0.80    1.48
   5   7  -2   32.69    3.45
   7  -5  -2   32.50    3.43
   7  -5  -2   33.11    3.01
   7  -5   2   28.60    2.89
   7  -5   2   32.67    3.24
  -5  -7   2   34.25    2.16
   5   7   2   32.36    3.35
   5   7   2   40.07    2.74
   7  -7  -2    4.74    2.39
   7  -7  -2    9.66    2.07
   7   7  -2    5.48    2.23
   7  -7   2    6.07    2.15
   7   7   2    5.75    2.51
   6  -8  -2    2.88    1.94
   8   6  -2   -0.39    1.95
   6  -8   2    2.74    2.02
   6  -8   2    0.62    1.57
   8   6   2   -1.23    1.72
   8   4  -2   22.31    3.07
   4  -8  -2   16.23    2.88
   4  -8   2   12.85    2.50
  -4   8   2   16.39    2.65
   8   4   2   17.79    2.80
   2  -8  -2   20.78    3.01
   8   2  -2   17.35    2.79
   2  -8   2   26.03    2.97
   2  -8   2   15.04    2.68
  -2   8   2   16.51    2.75
   8   2   2   20.70    2.83
   0  -8  -2    1.53    1.71
   8   0  -2    4.54    1.84
   0  -8   2    3.85    2.00
   0   8   2    1.40    1.64
   8   0   2    6.27    2.08
   8   0   2    5.80    1.27
   8  -2  -2   21.68    2.93
   8  -2  -2   19.04    1.72
   2   8  -2   20.71    2.45
  -2  -8  -2   17.85    2.63
   8  -2   2   17.71    2.46
   2   8   2   20.14    2.58
   8  -2   2   20.28    2.12
  -2  -8   2   19.20    2.42
  -4  -8  -2   -0.96    1.40
   8  -4  -2    2.06    1.50
   8  -4  -2    4.72    2.20
   4   8  -2    1.06    1.75
  -4  -8   2    2.71    1.47
   8  -4   2    1.15    1.57
   4   8   2    5.96    2.06
  -4  -8   2    1.03    1.86
   8  -6  -2   21.54    3.66
   8  -6  -2   26.33    3.36
   6   8  -2   28.18    3.59
   8  -6   2   24.27    3.06
   6   8   2   30.53    3.82
   8  -6   2   24.83    2.94
   5  -9  -2   22.64    3.43
   5  -9   2   21.33    3.05
   3  -9  -2   -1.68    1.75
   9   3  -2    2.94    1.88
   9   3   2    4.40    2.36
   3  -9   2    1.11    1.82
  -3   9   2    2.43    1.54
   3  -9   2    6.23    2.34
   1  -9  -2    2.90    2.15
   9   1  -2    3.30    2.34
  -1   9   2    3.52    2.22
   1  -9   2    1.02    1.77
   1  -9   2    0.84    1.47
   9   1   2    4.56    2.23
   9  -1  -2   24.66    3.14
  -1  -9  -2   23.43    3.40
  -1  -9   2   19.43    2.85
  -1  -9   2   20.86    3.01
   9  -1   2   22.83    2.87
   1   9   2   15.53    2.57
   9  -3  -2    2.02    1.89
  -3  -9  -2    1.67    1.56
  -3  -9   2    0.20    1.68
  -3  -9   2    2.63    1.73
   9  -3   2    1.64    1.67
   9  -3   2    1.77    1.86
   3   9   2    0.92    1.74
   9  -5  -2    2.52    2.19
  -5  -9   2   10.62    2.95
   9  -5   2   10.58    2.95
   9  -5   2   14.55    2.59
   4 -10   2    0.51    2.16
   2 -10  -2   18.69    3.42
   2 -10   2   16.28    3.14
  10   2   2   20.11    3.11
  -2  10   2    8.92    2.78
   2 -10   2   12.12    3.00
   0 -10  -2    2.49    2.24
  10   0  -2   -1.29    1.64
   0  10   2    7.71    2.55
   0 -10   2    3.56    2.01
  10   0   2    2.36    2.04
   0 -10   2    0.31    1.90
  -2 -10  -2   21.88    3.52
  10  -2  -2   24.39    3.31
  10  -2   2   25.91    3.22
  -2 -10   2   21.66    2.88
   2  10   2   29.34    3.27
  -2 -10   2   15.29    2.80
   4  10   2   -1.44    2.88
  10  -4   2    6.74    2.63
   1   0  -3   61.68    1.82
   1   0  -3   59.43    1.62
   0  -1  -3   56.75    1.86
   0   1  -3   59.10    1.82
  -1   0  -3   58.01    1.43
   0  -1  -3   58.80    1.94
   0   1  -3   55.97    1.17
  -1   0  -3   57.39    1.88
   1   0   3   58.28    1.41
   0   1   3   55.83    1.88
  -1   0   3   55.70    1.59
   0   1   3   60.52    1.84
   0  -1   3   57.82    1.80
  -1   0   3   56.82    1.76
   0  -1   3   58.60    1.18
   1   0   3   60.08    1.94
   1  -2  -3  102.54    3.08
  -2  -1  -3   96.34    2.71
   2   1  -3   97.19    2.84
  -2  -1  -3   98.19    2.77
   1  -2  -3   95.68    2.88
  -2  -1   3   95.40    1.85
  -1   2   3   99.39    3.05
   1  -2   3   95.95    2.85
   2   1   3   96.26    2.72
  -1   2   3  101.93    2.98
   1  -2   3   94.33    2.05
   1  -2   3   98.27    2.08
   2   1   3   92.33    2.70
  -2  -1   3   99.96    2.84
   1  -2   3   94.31    2.95
  -1  -2  -3 1000.00   14.80
  -1  -2  -3  988.53   14.89
  -2   1  -3  990.36   14.72
  -2   3  -3   55.04    1.99
  -3  -2  -3   53.13    2.17
   2  -3  -3   54.57    2.65
   3   2  -3   54.22    2.57
   3   2   3   52.33    2.16
  -3  -2   3   54.23    1.08
   3   2   3   53.73    2.54
  -3  -2   3   53.90    1.08
   2  -3   3   53.35    1.97
  -2   3   3   51.36    2.38
   2  -3   3   52.19    2.56
  -3   0  -3   53.81    2.11
  -3   0  -3   54.50    2.09
   0  -3  -3   59.72    2.46
   0  -3  -3   51.81    2.41
   3   0  -3   53.65    1.41
   0  -3  -3   53.24    2.40
  -3   0   3   54.25    1.39
   0  -3   3   54.28    2.22
   0   3   3   56.78    2.49
   0  -3   3   56.25    1.92
   0  -3   3   50.60    2.22
   3   0   3   55.60    2.15
   0  -3   3   54.80    1.97
   3   0   3   54.21    2.11
  -3   2  -3   48.65    1.95
   2   3  -3   51.23    2.31
  -2  -3  -3   48.54    2.23
   3  -2  -3   51.32    2.12
   3  -2  -3   52.87    2.68
  -2  -3   3   51.24    1.82
   2   3   3   51.06    2.29
   3  -2   3   50.06    2.41
   3  -2   3   47.84    1.96
   2   3   3   51.07    2.48
  -3   2   3   50.09    2.13
  -2  -3   3   52.78    1.89
  -2  -3   3   52.51    2.30
  -4  -3  -3  220.43    5.28
   3  -4  -3  223.89    6.59
  -3   4  -3  218.36    5.30
   3  -4   3  221.69    5.39
   3  -4   3  226.54    6.42
   4   3   3  224.46    6.30
   4   3   3  220.85    5.24
  -3   4   3  229.47    6.17
   4   1  -3   49.90    2.69
   1  -4  -3   45.39    2.60
  -4  -1  -3   58.20    2.68
  -1   4   3   54.44    2.75
   1  -4   3   50.58    2.58
   4   1   3   50.18    2.14
   4   1   3   50.18    2.54
   1  -4   3   49.96    2.19
  -1  -4  -3   23.51    1.92
   4  -1  -3   23.91    2.01
  -4   1  -3   22.81    1.62
   1   4  -3   24.16    1.69
   1   4  -3   23.05    1.63
  -4   1  -3   22.60    1.56
   4  -1  -3   24.03    1.29
   1   4   3   22.64    1.73
  -1  -4   3   22.13    1.58
   4  -1   3   21.52    1.62
  -1  -4   3   24.61    1.63
   4  -1   3   25.02    1.70
  -1  -4   3   23.77    1.73
  -4   1   3   25.57    1.32
   4  -3  -3   31.61    2.55
   3   4  -3   31.78    2.19
  -4   3   3   29.73    2.04
   3   4   3   35.26    2.58
   3   4   3   28.60    1.96
   4  -3   3   34.10    2.04
  -3  -4   3   30.82    1.59
   4  -3   3   34.22    2.37
  -3  -4   3   29.90    1.53
   4  -5  -3   27.36    2.78
   5   4  -3   24.35    2.59
  -4   5   3   24.97    2.42
   4  -5   3   28.51    2.54
   4  -5   3   25.86    2.22
   5   4   3   28.22    1.90
   5   4   3   30.57    2.68
   5   2  -3   30.97    2.43
   2  -5  -3   29.69    2.59
  -5  -2  -3   31.42    1.75
   5   2   3   29.94    2.42
   2  -5   3   31.44    2.16
   5   2   3   32.88    1.84
   2  -5   3   28.96    2.31
  -2   5   3   33.38    2.53
  -5   0  -3  240.52    5.60
   5   0  -3  251.09    6.86
   5   0  -3  243.39    3.77
   0   5  -3  244.16    6.42
   0  -5  -3  245.47    7.00
   0  -5   3  246.83    6.50
   0  -5   3  243.16    6.07
   5   0   3  240.39    6.27
   5   0   3  240.94    5.60
   0   5   3  241.08    6.66
   2   5  -3   34.64    2.43
  -2  -5  -3   35.17    2.63
   2   5  -3   34.28    2.07
   5  -2  -3   29.73    2.58
  -2  -5   3   35.94    2.15
   2   5   3   34.22    2.39
   2   5   3   36.80    2.68
  -5   2   3   33.25    1.86
   5  -2   3   31.21    2.16
   5  -2   3   31.62    2.21
   5  -4  -3   25.31    2.73
   4   5  -3   30.07    2.54
   4   5   3   27.18    2.08
   5  -4   3   32.43    2.79
   5  -4   3   30.58    2.50
  -4  -5   3   31.46    1.69
   4   5   3   30.18    2.84
  -5   4   3   27.57    2.32
  -4  -5   3   30.13    1.70
   5  -6   3   17.77    2.59
   5  -6   3   17.44    2.11
  -5   6   3   17.08    2.41
   6   5   3   15.61    2.59
   6   5   3   16.92    1.57
   3  -6  -3   15.82    2.39
   6   3  -3   12.65    2.32
   6   3   3   13.46    1.30
   3  -6   3   10.93    1.80
   6   3   3   13.47    2.18
   3  -6   3    9.93    2.35
  -3   6   3    8.85    1.70
   1  -6  -3   23.76    2.60
   6   1  -3   23.21    2.48
  -6  -1  -3   17.67    2.24
   1  -6   3   25.45    2.32
   1  -6   3   22.96    2.14
  -1   6   3   23.13    2.41
   6   1   3   24.21    2.36
   6   1   3   23.93    1.67
  -1  -6  -3   43.59    3.32
   6  -1  -3   49.39    1.93
   6  -1  -3   46.67    3.33
   6  -1  -3   47.25    1.84
   1   6  -3   47.07    2.85
  -1  -6   3   48.32    2.98
  -1  -6   3   44.40    2.87
   6  -1   3   48.25    2.57
   6  -1   3   44.89    2.85
   1   6   3   51.82    3.21
  -3  -6  -3  119.22    5.39
   6  -3  -3  125.68    5.51
   3   6  -3  122.78    5.10
   6  -3   3  116.16    4.72
  -3  -6   3  121.35    4.29
   6  -3   3  116.90    4.67
   3   6   3  115.57    5.35
   3   6   3  129.53    4.83
   6  -5  -3   15.94    2.22
   6  -5   3   18.31    2.58
   6  -5   3   19.49    2.37
   5   6   3   18.93    2.80
  -6   5   3   19.81    2.36
  -5  -6   3   18.79    1.34
   5   6   3   19.18    1.92
   6  -7  -3    8.07    2.56
   6  -7  -3    4.72    2.32
   7   6  -3    5.45    2.51
   6  -7   3    3.11    1.66
  -6   7   3    7.72    2.34
   6  -7   3    8.14    2.31
   7   6   3    7.95    2.77
   7   4  -3   79.99    4.99
   4  -7  -3   65.30    4.61
  -4   7   3   67.87    4.52
   4  -7   3   78.33    4.78
   7   4   3   74.43    2.66
   4  -7   3   81.12    4.18
   7   4   3   73.14    4.74
   7   2  -3   26.23    3.02
   2  -7  -3   26.63    3.07
   2  -7   3   26.69    2.60
   7   2   3   22.47    2.66
   7   2   3   26.92    1.67
   2  -7   3   26.07    2.85
  -2   7   3   24.85    2.86
   0  -7  -3   16.06    2.63
   7   0  -3   11.69    2.26
   0  -7   3   12.35    1.95
   0  -7   3   11.94    2.08
   0   7   3   12.83    2.15
   7   0   3   13.55    1.53
   7   0   3   15.58    2.19
  -2  -7  -3   13.99    2.49
   7  -2  -3   11.68    1.34
   7  -2  -3   15.51    2.55
   7  -2   3   16.61    2.02
  -2  -7   3   16.69    2.20
  -2  -7   3   13.62    1.93
   7  -2   3    9.30    1.80
   2   7   3    9.99    1.90
   7  -4  -3   14.82    1.99
   7  -4  -3   17.83    2.84
  -4  -7  -3   17.38    2.74
   4   7  -3   18.00    2.66
   4   7   3   18.45    2.27
   7  -4   3   22.00    2.61
  -4  -7   3   16.77    1.88
   4   7   3   20.65    3.03
   7  -4   3   16.87    2.29
   7  -6  -3   38.13    3.85
   7  -6  -3   44.53    3.67
   6   7  -3   40.62    3.95
   7  -6   3   47.09    3.97
   6   7   3   35.65    2.85
   7  -6   3   39.05    3.32
   6   7   3   43.58    4.17
   8   5  -3    9.02    2.92
   5  -8  -3   12.30    3.37
   8   5   3    7.00    2.36
   5  -8   3    9.56    2.64
  -5   8   3   10.96    2.13
   5  -8   3   16.07    2.41
   8   3  -3   23.86    3.20
   3  -8  -3   20.83    3.15
   8   3   3   27.31    3.13
   3  -8   3   27.10    3.22
   3  -8   3   25.79    2.85
  -3   8   3   31.89    3.43
   1  -8  -3   64.59    4.72
   8   1  -3   64.86    4.40
  -1   8   3   61.37    4.42
   1  -8   3   59.99    4.33
   8   1   3   65.37    4.34
   1  -8   3   73.41    4.20
   8   1   3   64.85    2.61
   8  -1  -3   27.48    3.17
  -1  -8  -3   26.13    3.39
  -1  -8   3   23.20    2.75
   8  -1   3   26.97    2.83
   8  -1   3   23.94    2.15
  -1  -8   3   28.05    2.98
   1   8   3   26.76    2.76
   8  -3  -3    1.29    1.89
  -3  -8  -3    1.59    2.03
   8  -3  -3    2.75    1.35
   3   8   3    1.08    1.76
  -3  -8   3    1.32    1.60
  -3  -8   3    0.78    1.43
   8  -3   3    3.27    1.64
   8  -3   3    2.48    1.87
   5   8  -3   14.60    2.61
  -5  -8  -3   13.07    3.27
   8  -5  -3   10.97    2.35
   8  -5  -3   12.49    2.62
   5   8   3    9.40    2.62
   8  -5   3   10.44    2.08
   8  -5   3   11.09    2.34
   8  -7  -3    9.69    3.01
   9   4  -3    4.94    2.23
   4  -9   3    1.77    1.95
  -4   9   3    0.62    1.73
   9   4   3    4.99    2.31
   4  -9   3    1.18    2.00
   9   2  -3    7.11    2.68
   2  -9  -3    7.35    2.69
  -2   9   3    6.54    2.40
   9   2   3    7.51    2.27
   2  -9   3    3.51    2.03
   2  -9   3    7.90    2.55
   9   0  -3   15.10    2.90
   0  -9  -3   15.35    2.91
   9   0   3   19.45    3.03
   0   9   3   16.91    2.74
   0  -9   3   16.61    2.87
   0  -9   3   19.95    2.91
  -2  -9  -3   50.53    4.53
   9  -2  -3   41.94    3.92
  -2  -9   3   43.95    3.71
   2   9   3   45.15    3.94
   9  -2   3   41.69    3.76
  -2  -9   3   45.87    3.83
  -4  -9  -3   15.10    2.94
   9  -4  -3   15.08    2.92
   4   9   3   14.45    2.21
  -4  -9   3    8.60    2.92
   9  -4   3   15.01    2.72
   9  -4   3   18.37    2.49
  -4  -9   3   11.07    2.21
   3 -10   3    8.23    2.60
  10   1  -3    1.98    2.19
   1 -10  -3   -2.63    1.77
  10   1   3    2.32    2.08
  -1  10   3   -2.65    1.61
   1 -10   3    4.59    2.20
   1 -10   3   -2.33    1.88
  10  -1  -3    7.34    2.70
  -1 -10  -3    4.60    2.17
   1  10   3    6.30    2.45
  -1 -10   3   15.31    2.89
   3  10   3    9.28    2.80
  -3 -10   3   13.82    2.65
  10  -3   3   11.01    2.75
  -3 -10   3    7.92    2.40
   0   0  -4   85.16    2.43
   0   0  -4   86.84    1.96
   0   0   4   86.39    1.95
   0   0   4   84.67    2.47
  -1  -1  -4  100.77    2.90
  -1   1  -4  100.50    2.91
   1  -1  -4   98.95    2.76
  -1  -1  -4   98.26    2.60
   1   1  -4  100.14    2.46
   1   1  -4  101.27    2.45
  -1  -1  -4   94.38    2.94
   1  -1  -4  104.24    2.90
   1   1   4   98.11    2.92
  -1   1   4  102.23    2.86
  -1  -1   4  102.07    2.45
  -1   1   4  100.79    2.78
   1  -1   4   96.95    2.87
   1   1   4   95.22    2.96
  -1  -1   4  102.02    2.48
  -2   0  -4   62.80    1.87
  -2   0  -4   68.00    2.39
   0   2  -4   66.59    2.32
   0  -2  -4   65.46    2.43
   0  -2  -4   62.87    2.41
   2   0  -4   65.19    2.39
   2   0  -4   64.16    1.85
   0   2  -4   64.42    1.61
   2   0   4   63.98    1.89
   2   0   4   63.88    2.40
   0   2   4   65.27    2.47
   0  -2   4   66.12    2.35
   0   2   4   65.92    2.45
   0  -2   4   64.12    1.59
  -2   0   4   66.21    1.88
  -2   0   4   61.01    2.34
  -2   2  -4    2.89    0.56
   2  -2  -4    2.66    0.80
  -2  -2  -4    3.30    0.90
  -2  -2  -4    2.39    0.92
   2  -2  -4    4.36    1.29
  -2   2  -4    3.71    0.99
   2   2  -4    3.82    1.01
  -2  -2   4    2.51    0.57
  -2  -2   4    2.62    0.65
  -2   2   4    2.57    1.09
   2   2   4    2.98    1.00
   2  -2   4    1.83    0.80
  -2   2   4    3.17    0.96
   2   2   4    2.52    0.91
   2  -2   4    2.55    0.56
   3   1  -4   43.60    1.15
  -3  -1  -4   43.36    2.04
   1  -3  -4   43.82    2.35
  -3  -1  -4   43.25    2.00
   3   1  -4   46.86    2.31
   3   1   4   47.00    2.13
  -1   3   4   45.51    2.30
  -3  -1   4   42.46    2.42
   1  -3   4   44.28    1.58
   1  -3   4   44.14    1.53
   1  -3   4   41.34    2.26
   3   1   4   41.47    2.03
  -3  -1   4   43.40    1.05
  -3   1  -4  107.00    2.88
   3  -1  -4  111.92    2.93
   3  -1  -4  109.65    3.77
  -1  -3  -4  120.97    3.93
   1   3  -4  108.32    3.07
  -3   1  -4  114.33    3.52
   3  -1   4  110.10    2.88
  -1  -3   4  112.48    3.08
  -3   1   4  108.93    2.91
   3  -1   4  112.20    3.57
   1   3   4  112.52    3.69
  -1  -3   4  112.06    3.26
   3  -3  -4   78.89    3.64
   3   3  -4   79.79    3.30
  -3   3  -4   78.84    2.58
   3  -3   4   82.53    3.53
  -3  -3   4   80.66    2.17
   3  -3   4   80.28    2.56
   3   3   4   79.59    3.11
  -3  -3   4   80.40    2.14
   3   3   4   80.15    3.48
  -3   3   4   81.26    3.21
  -4  -2  -4   18.85    1.62
   2  -4  -4   17.12    2.01
   4   2  -4   18.43    1.75
   2  -4   4   17.96    1.28
   2  -4   4   18.38    1.88
   2  -4   4   16.61    1.32
  -2   4   4   17.89    1.81
   4   2   4   18.75    1.49
   4   2   4   19.29    1.80
   4   0  -4   64.26    3.13
  -4   0  -4   63.04    2.83
   4   0  -4   67.22    1.70
  -4   0  -4   70.29    2.78
   0  -4  -4   72.46    3.31
  -4   0   4   71.28    1.71
   0  -4   4   67.94    2.54
   0   4   4   71.52    3.27
   0  -4   4   72.91    2.78
   4   0   4   69.66    2.79
   0  -4   4   70.97    3.00
   4   0   4   68.35    2.73
   2   4  -4   30.62    2.03
  -2  -4  -4   28.84    2.35
   4  -2  -4   33.37    1.85
  -4   2  -4   26.67    1.71
   4  -2  -4   29.27    2.37
   4  -2   4   27.93    1.73
  -2  -4   4   28.35    1.66
   2   4   4   30.88    2.15
  -4   2   4   26.16    1.70
   4  -2   4   30.36    2.05
   2   4   4   31.82    2.38
  -2  -4   4   28.72    1.71
   4  -4  -4   12.19    2.11
   4   4  -4   13.79    1.93
   4  -4   4   10.83    1.61
   4   4   4   12.34    1.73
   4   4   4   13.49    1.52
  -4  -4   4   11.31    0.82
   4  -4   4   15.15    1.55
  -4  -4   4   11.78    0.88
  -4   4   4   12.58    1.70
   3  -5  -4   55.25    3.60
   5   3  -4   52.12    3.25
   3  -5   4   46.25    3.09
  -3   5   4   48.31    3.03
   3  -5   4   53.78    2.63
   5   3   4   48.74    3.05
   5   3   4   44.86    2.44
   1  -5  -4   61.95    3.41
   5   1  -4   59.53    3.20
   5   1   4   54.79    2.96
   1  -5   4   59.75    3.25
   1  -5   4   68.57    2.83
   1  -5   4   56.61    2.77
   5   1   4   58.80    2.64
  -1   5   4   62.18    3.37
   1   5  -4   25.90    1.94
  -1  -5  -4   27.70    2.52
   5  -1  -4   24.91    2.24
   5  -1  -4   24.99    1.41
  -1  -5   4   26.04    2.01
   5  -1   4   27.34    1.96
  -5   1   4   26.40    1.41
   1   5   4   29.67    2.25
   5  -1   4   26.25    1.99
   5  -3  -4   30.90    2.82
   3   5  -4   31.81    2.53
   5  -3   4   31.62    2.22
   3   5   4   29.23    2.75
  -3  -5   4   32.59    1.99
   5  -3   4   28.64    2.43
  -5   3   4   29.51    2.12
   3   5   4   32.06    2.41
   5  -5  -4   10.91    2.71
   5   5  -4    8.56    2.37
   5  -5   4    8.27    1.59
  -5  -5   4    7.60    0.48
   5   5   4   11.06    1.59
   5   5   4    9.50    2.13
   5  -5   4   10.76    2.11
  -5   5   4   10.05    1.89
   6   4  -4   43.36    3.53
   4  -6  -4   49.66    3.98
   6   4   4   47.33    2.57
  -4   6   4   44.37    3.42
   6   4   4   48.62    3.72
   4  -6   4   46.97    2.90
   4  -6   4   46.31    3.67
   2  -6  -4   13.90    2.35
   6   2  -4   14.56    2.23
   6   2   4   14.44    2.01
   6   2   4   13.24    1.46
   2  -6   4   12.53    1.73
  -2   6   4   12.50    1.80
   2  -6   4   10.72    1.75
   6   0  -4    2.88    1.58
   0  -6  -4    3.90    1.90
   6   0   4   -0.61    0.89
   0   6   4    0.82    1.30
   0  -6   4    4.14    1.53
   0  -6   4    2.60    1.27
   6   0   4    1.99    1.15
  -2  -6  -4   46.84    3.40
   6  -2  -4   47.63    2.33
   6  -2  -4   38.66    3.27
   2   6  -4   47.06    3.03
   6  -2   4   45.39    2.83
   6  -2   4   43.52    2.82
   2   6   4   47.24    3.14
  -2  -6   4   48.33    2.83
   6  -4  -4    2.77    1.92
   4   6  -4    2.51    1.68
  -6   4   4    2.39    1.30
   4   6   4    2.53    1.48
   6  -4   4    4.41    1.50
   4   6   4    2.21    1.68
   6  -4   4    3.24    1.81
  -4  -6   4    2.25    1.01
   6   6  -4   14.67    2.71
   6  -6  -4   13.55    2.73
   6  -6   4   12.99    2.50
   6   6   4    6.89    1.66
   6  -6   4   12.56    2.03
   6   6   4   12.84    2.71
  -6   6   4    8.37    2.37
   5  -7  -4   34.06    3.78
   7   5  -4   27.49    3.39
   7   5   4   28.44    3.31
   5  -7   4   24.22    2.45
  -5   7   4   26.88    3.09
   5  -7   4   26.12    3.11
   7   3  -4    8.92    2.58
   3  -7  -4    4.17    2.32
   7   3   4    9.93    2.46
   7   3   4    8.20    1.17
  -3   7   4    6.79    2.33
   3  -7   4    9.94    1.94
   3  -7   4   11.00    1.95
   7   1  -4   38.88    3.42
   1  -7  -4   32.95    3.10
   7   1   4   37.73    3.21
   1  -7   4   27.18    2.51
  -1   7   4   37.47    3.26
   7   1   4   37.39    2.23
   1  -7   4   33.86    3.13
  -1  -7  -4   10.43    2.64
   7  -1  -4   10.07    2.54
   7  -1  -4   10.03    0.94
   7  -1   4    9.54    2.03
   1   7   4    7.29    2.15
  -1  -7   4    8.38    1.96
   7  -1   4    9.32    1.67
  -1  -7   4    8.36    1.76
  -3  -7  -4   59.39    4.19
   7  -3  -4   52.16    4.10
   3   7  -4   55.98    3.74
   7  -3  -4   56.98    3.07
  -3  -7   4   58.90    3.30
   7  -3   4   57.29    3.60
   7  -3   4   50.72    3.32
   3   7   4   51.43    3.44
   7  -5  -4   19.56    2.51
  -5  -7  -4   19.99    2.92
   7  -5  -4   20.16    3.05
   5   7  -4   21.09    2.95
   5   7   4   19.75    3.03
   5   7   4   16.69    2.19
   7  -5   4   21.25    2.47
   7  -5   4   17.33    2.69
   7  -7  -4    5.56    2.12
   7  -7  -4    5.90    2.43
   7   7  -4    9.38    2.74
   7  -7   4    9.14    3.10
   7   7   4    5.41    2.51
   7  -7   4    5.09    2.00
   6  -8  -4    3.80    2.43
   6  -8  -4    0.93    1.84
   8   6  -4    4.21    2.42
   8   6   4   -1.61    1.54
  -6   8   4    4.02    2.24
   6  -8   4   -0.67    1.91
   8   4  -4    8.93    2.49
   4  -8  -4    4.09    2.16
   4  -8   4    5.58    1.92
   4  -8   4    1.01    1.59
  -4   8   4    5.14    2.30
   8   4   4    6.24    2.30
   8   2  -4   13.08    2.69
   2  -8  -4   17.84    3.07
   8   2   4   11.86    2.35
   2  -8   4   19.36    2.55
  -2   8   4   17.81    2.81
   2  -8   4   11.97    2.17
   8   2   4   18.47    1.65
   8   0  -4    2.11    1.90
   0  -8  -4    1.71    2.12
   8   0   4    1.28    1.57
   0   8   4    0.25    1.65
   0  -8   4    2.32    1.78
   0  -8   4   -0.95    1.47
   8   0   4    1.40    1.10
   8  -2  -4   20.01    1.70
  -2  -8  -4   21.64    3.27
   8  -2  -4   21.35    3.14
   2   8   4   22.26    2.70
   8  -2   4   20.16    2.60
  -2  -8   4   19.24    2.51
  -2  -8   4   18.38    2.26
   8  -2   4   22.52    2.49
   4   8  -4    1.14    2.03
   8  -4  -4    5.20    1.78
   8  -4  -4    1.68    2.16
  -4  -8  -4    5.01    2.36
  -4  -8   4    2.17    1.34
   4   8   4    1.48    1.79
   8  -4   4    6.27    2.38
   6   8  -4    6.55    2.68
   8  -6  -4    2.49    1.91
  -6  -8  -4    5.78    3.09
   8  -6  -4    1.54    2.16
   8  -6   4    5.10    2.06
   8  -6   4    1.96    2.11
   9   3  -4   -0.17    1.26
   3  -9  -4   -2.00    1.87
   3  -9   4    2.57    1.90
   9   3   4    1.36    1.90
   3  -9   4   -2.29    1.42
  -3   9   4    0.13    1.76
   1  -9  -4   35.18    3.97
   9   1  -4   30.43    3.56
   1  -9   4   37.22    3.76
   1  -9   4   21.30    3.22
  -1   9   4   29.57    3.50
   9   1   4   24.24    3.07
  -1  -9  -4   12.12    3.15
   9  -1  -4    8.96    2.75
  -1  -9   4    9.31    2.74
   1   9   4   14.63    2.66
  -1  -9   4   10.91    2.69
   9  -1   4   11.40    2.13
   9  -1   4   10.24    2.59
  -3  -9  -4    2.23    2.14
   3   9   4    5.26    2.09
  -3  -9   4    3.43    1.99
  -3  -9   4    3.88    1.83
   9  -3   4    0.97    1.44
   9  -3   4    2.22    1.99
   9  -5   4   10.81    2.13
   5   9   4    0.80    2.80
  -5  -9   4    3.14    1.95
   2 -10   4   21.84    5.55
  10   2   4   15.06    3.00
   0 -10  -4   -2.07    1.94
  10   0  -4    5.60    2.67
   0  10   4    2.50    1.74
   0 -10   4    2.38    2.40
   0 -10   4    0.18    2.01
  10   0   4    0.35    1.61
   2  10   4    1.67    1.91
   1   0  -5  117.45    3.05
   0   1  -5  114.84    2.11
  -1   0  -5  114.10    2.38
   0  -1  -5  117.40    3.37
   0   1  -5  116.41    3.19
   0  -1  -5  117.04    3.08
   1   0  -5  118.62    2.99
  -1   0  -5  117.22    2.44
  -1   0   5  116.38    2.95
   0  -1   5  120.92    3.22
   0   1   5  114.96    3.35
  -1   0   5  118.04    3.04
   0   1   5  113.37    2.98
   1   0   5  113.84    3.32
  -2  -1  -5   31.89    1.59
   1  -2  -5   31.43    1.96
   2   1  -5   29.58    1.28
   2   1  -5   30.58    1.75
  -1   2  -5   29.05    1.78
  -2  -1  -5   28.40    1.76
   1  -2  -5   28.69    1.77
  -2  -1   5   31.39    1.36
  -2  -1   5   30.14    1.65
   2   1   5   28.37    1.57
   1  -2   5   28.02    1.71
  -1   2   5   30.27    1.79
   2   1   5   29.54    1.73
  -1   2   5   30.65    1.86
  -2   1  -5   39.42    1.18
  -2   1  -5   38.63    2.05
  -1  -2  -5   42.10    2.16
   2  -1  -5   41.93    2.09
   2  -1  -5   38.95    1.78
   1   2  -5   40.41    1.77
  -1  -2  -5   37.18    1.99
  -1  -2  -5   39.69    1.98
   1   2   5   40.24    2.10
  -1  -2   5   39.90    1.58
  -1  -2   5   40.43    1.80
  -2   1   5   42.40    2.13
   2  -1   5   39.83    1.17
   2  -1   5   41.49    2.14
  -2   1   5   39.47    1.83
   3   2  -5   35.44    2.14
   2  -3  -5   36.29    2.45
  -2   3   5   32.33    2.15
   2  -3   5   33.89    2.26
  -3  -2   5   36.55    1.28
   2  -3   5   36.02    1.31
   3   2   5   34.99    2.10
   3   2   5   33.38    2.08
  -3  -2   5   35.02    1.22
   2  -3   5   34.92    1.30
   0  -3  -5    1.80    1.16
   3   0  -5    2.01    1.03
   3   0  -5    2.02    0.61
   0   3  -5    2.06    0.61
  -3   0  -5    1.63    0.63
   3   0   5    1.66    0.76
   3   0   5    1.45    0.98
   0  -3   5    2.29    0.83
   0   3   5    1.62    0.85
   0  -3   5    2.00    0.58
  -3   0   5    1.09    0.55
   3  -2  -5  106.59    3.45
   2   3  -5  107.89    3.47
   3  -2  -5  108.70    4.13
  -3   2  -5  110.43    2.75
  -3   2   5  113.41    3.56
  -2  -3   5  110.10    3.45
   2   3   5  114.21    4.01
   3  -2   5  110.15    3.93
   3  -2   5  117.56    2.80
   2   3   5  118.23    4.03
  -2  -3   5  111.54    3.10
  -2  -3   5  110.91    3.13
   4   3  -5   21.00    2.14
   3  -4  -5   19.50    2.12
  -3   4  -5   20.13    1.36
  -3   4   5   21.53    2.02
   3  -4   5   18.93    1.40
  -4  -3   5   19.64    0.57
  -4  -3   5   19.85    0.58
   3  -4   5   19.60    2.16
   4   3   5   20.00    2.06
   4   3   5   20.38    1.81
   1  -4  -5    8.34    1.37
   4   1  -5    8.02    1.71
   4   1   5    6.60    1.18
  -1   4   5    6.18    1.31
   1  -4   5    6.67    0.81
   1  -4   5    8.55    0.94
   1  -4   5    7.57    1.22
   4   1   5    7.81    1.25
   4  -1  -5  100.16    4.07
  -4   1  -5  100.51    3.16
   4  -1  -5   97.80    2.85
  -1  -4  -5   94.80    4.02
   1   4  -5   94.41    3.16
   4  -1   5   99.10    3.13
  -4   1   5   99.37    2.87
   1   4   5  101.38    3.99
   4  -1   5   99.33    3.71
  -1  -4   5  102.28    3.54
  -1  -4   5   98.52    3.12
   3   4  -5   23.17    2.04
   4  -3  -5   25.68    2.50
  -4   3  -5   25.04    1.64
  -3  -4   5   28.20    1.78
   4  -3   5   25.28    2.13
  -4   3   5   28.25    2.05
   3   4   5   25.01    2.07
   4  -3   5   26.53    1.66
  -3  -4   5   26.91    1.59
   3   4   5   24.59    2.32
   4  -5  -5    3.33    2.08
   5   4  -5    1.36    1.40
   4  -5   5    0.79    0.92
   5   4   5    1.53    1.56
   5   4   5    1.11    1.10
   4  -5   5    1.75    1.67
  -4   5   5    0.62    1.36
   2  -5  -5   98.39    4.66
   5   2  -5   94.24    4.32
  -2   5   5   96.49    4.31
   2  -5   5   98.07    3.21
   5   2   5  103.91    4.23
   5   2   5  100.83    3.69
   2  -5   5   94.25    3.10
   2  -5   5   88.34    4.18
   5   0  -5   26.11    2.45
   5   0  -5   24.67    0.90
   5   0  -5   23.54    0.90
   0  -5  -5   26.52    2.57
   5   0   5   29.96    2.12
   0  -5   5   26.69    1.85
   0   5   5   22.59    2.24
   0  -5   5   26.63    2.22
   0  -5   5   25.67    1.87
   5   0   5   26.22    2.02
   2   5  -5   27.03    2.11
   5  -2  -5   28.97    2.50
  -2  -5  -5   26.13    2.57
   5  -2   5   28.72    1.98
   2   5   5   32.22    2.55
  -5   2   5   30.02    1.91
   5  -2   5   24.85    2.26
  -2  -5   5   29.94    2.09
   4   5  -5   24.18    2.46
   5  -4  -5   19.27    2.37
   4   5   5   21.60    2.63
  -4  -5   5   25.93    1.53
   5  -4   5   19.18    2.40
   5  -4   5   23.74    1.99
  -4  -5   5   22.71    1.47
   4   5   5   22.87    2.27
  -5   4   5   22.34    2.29
   5  -6  -5    1.34    2.06
   6   5  -5    2.31    1.87
   6   5   5    0.20    1.11
  -5   6   5   -1.81    1.21
   5  -6   5    0.35    1.29
   6   5   5    2.62    2.06
   5  -6   5    2.70    1.27
   3  -6  -5   25.31    3.02
   6   3  -5   23.26    2.50
   3  -6   5   25.14    2.06
   3  -6   5   20.84    2.62
   6   3   5   26.77    2.72
   6   3   5   25.70    2.07
  -3   6   5   27.11    2.80
   6   1  -5   30.86    2.85
   1  -6  -5   29.47    2.78
   6   1   5   36.58    2.29
   1  -6   5   29.38    2.14
  -1   6   5   31.80    2.88
   6   1   5   29.34    2.46
   1  -6   5   31.23    2.73
   6  -1  -5   12.53    1.06
   6  -1  -5   11.05    2.15
  -1  -6  -5   11.48    1.97
   6  -1  -5   13.10    1.03
  -1  -6   5   14.54    1.82
   6  -1   5   11.61    1.74
  -1  -6   5    9.78    1.72
   6  -1   5   12.36    1.79
   1   6   5   14.93    1.92
   6  -3  -5    4.43    1.78
  -3  -6  -5    4.35    1.80
   3   6  -5    2.70    1.62
   6  -3   5    5.43    1.52
   6  -3   5    5.76    1.79
  -3  -6   5    5.31    1.47
   3   6   5    5.60    1.82
  -6   3   5    4.65    1.37
   5   6  -5   15.85    2.83
   6  -5  -5   34.16    3.57
   5   6   5   28.12    2.44
  -5  -6   5   24.91    1.63
  -6   5   5   31.65    2.86
   6  -5   5   29.62    2.45
   5   6   5   24.01    3.20
   6  -5   5   23.51    2.68
   6  -7  -5   28.51    3.51
   7   6  -5   28.29    3.52
   6  -7   5   37.49    3.79
   6  -7   5   31.16    2.74
  -6   7   5   32.43    3.33
   7   6   5   25.08    3.42
   7   4  -5    2.87    2.12
   4  -7  -5   -0.29    1.45
  -4   7   5    3.94    2.14
   4  -7   5    1.91    1.90
   7   4   5    2.22    1.30
   4  -7   5    2.04    1.22
   7   4   5    2.89    1.88
  -2   7   5    8.04    2.90
   2  -7   5    6.50    1.69
   7   2   5    9.95    2.38
   0  -7  -5   17.54    2.80
   7   0  -5   18.64    2.70
   0   7   5   18.86    2.58
   7   0   5   19.08    2.39
   0  -7   5   17.64    2.19
   7   0   5   17.80    1.99
   0  -7   5   17.42    2.38
   7  -2  -5    0.39    0.79
  -2  -7  -5    2.68    2.27
   7  -2   5    1.23    1.49
  -2  -7   5    3.73    1.63
  -2  -7   5   -0.32    1.19
   7  -2   5    1.01    1.22
   2   7   5    2.97    1.72
   4   7  -5   25.42    3.32
  -4  -7  -5   31.79    3.55
   7  -4  -5   31.97    3.59
   7  -4  -5   33.97    2.83
   7  -4   5   28.20    2.98
   4   7   5   28.07    2.72
  -4  -7   5   29.63    2.25
   7  -4   5   33.85    2.72
   7  -6  -5    1.09    2.12
   7  -6  -5    1.21    2.21
   6   7  -5    8.33    2.53
   7  -6   5    8.92    1.95
   6   7   5    3.36    1.62
   7  -6   5    3.71    2.17
   8   5  -5    9.00    2.71
   5  -8   5    9.36    2.72
  -5   8   5    4.62    2.06
   8   5   5    8.87    2.81
   3  -8  -5   19.72    3.12
   8   3  -5   17.02    2.98
   8   3   5   23.05    2.95
   3  -8   5   19.64    2.92
   3  -8   5   25.26    2.48
  -3   8   5   17.58    2.87
   1  -8  -5    0.28    1.96
   8   1  -5    3.82    1.88
   1  -8   5    2.30    1.95
   8   1   5    1.80    1.62
   1  -8   5    1.54    1.55
   8   1   5    2.82    1.24
  -1   8   5    1.72    2.06
  -1  -8  -5    9.85    2.83
   8  -1  -5    5.99    2.34
  -1  -8   5   11.28    2.18
   8  -1   5    9.73    1.73
   8  -1   5   10.66    2.42
   1   8   5   14.77    2.51
   8  -3  -5   30.66    2.34
   8  -3  -5   28.82    3.51
  -3  -8  -5   23.10    3.32
   8  -3   5   22.96    2.56
  -3  -8   5   29.52    2.97
  -3  -8   5   29.06    2.72
   3   8   5   27.96    2.96
   8  -5  -5    0.31    2.07
   5   8  -5    0.37    1.68
  -5  -8  -5   -0.88    1.82
   8  -5  -5    1.63    1.86
   5   8   5    1.72    2.03
   8  -5   5    3.67    1.98
   8  -5   5    4.12    1.66
   4  -9  -5    9.77    3.03
   9   4  -5   14.21    2.96
  -4   9   5   16.16    2.95
   4  -9   5   13.97    2.79
   9   4   5   15.75    2.82
   2  -9  -5    1.50    2.48
   9   2   5   -0.45    1.27
  -2   9   5    0.61    1.98
   2  -9   5   -1.06    1.60
   2  -9   5    2.52    1.98
   0  -9  -5   33.90    3.90
   9   0  -5   33.36    3.87
   0  -9   5   28.27    3.33
   9   0   5   27.66    3.14
   0   9   5   27.70    3.44
   9   0   5   24.73    2.96
  -2  -9  -5    5.13    2.83
   2   9   5   10.73    2.25
  -2  -9   5    7.27    2.07
   9  -2   5   12.43    2.40
  -2  -9   5    5.56    2.01
  -4  -9  -5    3.89    2.56
   9  -4  -5    0.78    2.41
   4   9   5   12.44    2.47
  -4  -9   5   -0.39    1.84
   9  -4   5    2.12    2.05
   9  -4   5    4.60    2.00
   1 -10   5    2.69    2.45
  10   1   5   12.62    2.52
   1  10   5    0.13    2.02
  -1 -10   5   -1.12    1.51
  -1 -10   5    0.56    1.85
  10  -3   5    3.66    2.19
  -3 -10   5   -0.91    1.97
   0   0  -6  277.26    5.89
   0   0  -6  287.20    5.00
   0   0   6  285.54    6.02
   0   0   6  287.06    5.00
  -1  -1  -6   68.71    2.35
   1  -1  -6   62.50    2.49
   1   1  -6   66.86    2.35
  -1  -1  -6   67.21    2.26
  -1  -1  -6   63.46    2.70
   1  -1  -6   65.71    2.54
  -1   1  -6   67.62    2.65
  -1  -1   6   66.97    2.43
   1   1   6   66.43    2.69
   1  -1   6   65.79    2.70
  -1  -1   6   67.60    2.09
  -1   1   6   69.56    2.67
  -2   0  -6   61.43    1.87
   0   2  -6   58.52    1.39
   2   0  -6   56.34    2.16
   2   0  -6   61.24    2.46
   0  -2  -6   61.93    2.63
   0   2  -6   59.15    2.49
   0  -2   6   59.90    1.40
   2   0   6   60.38    1.85
   2   0   6   57.70    2.60
  -2   0   6   59.22    2.22
   0   2   6   59.13    2.71
   0   2   6   59.41    2.47
   0  -2   6   59.30    2.55
  -2   0   6   63.24    2.48
   2   2  -6   28.88    1.49
  -2  -2  -6   28.81    1.88
  -2  -2  -6   28.45    1.85
   2  -2  -6   30.78    2.06
   2   2  -6   28.67    1.70
   2  -2   6   27.10    1.92
  -2  -2   6   33.01    1.63
  -2  -2   6   30.34    1.74
  -2   2   6   27.72    1.86
   2   2   6   27.30    1.82
   2   2   6   28.91    2.03
   1  -3  -6  771.97   13.79
  -3  -1  -6  759.72   12.52
   3   1  -6  777.72   11.33
   3   1  -6  778.74   13.16
   1  -3   6  780.28   10.27
   1  -3   6  773.86   10.40
   1  -3   6  760.50   13.54
   3   1   6  777.32   12.57
  -1   3   6  767.74   13.72
   3   1   6  783.36   13.40
  -3  -1   6  785.80   11.50
   3  -1  -6   45.73    2.60
  -3   1  -6   44.95    1.64
  -1  -3  -6   45.37    2.56
   3  -1  -6   42.90    1.99
   1   3  -6   43.77    1.82
   1   3   6   37.37    2.43
   3  -1   6   45.63    2.54
  -1  -3   6   49.39    2.28
   3  -1   6   42.12    1.59
  -3   1   6   41.90    1.98
  -1  -3   6   44.44    2.11
  -1  -3   6   43.63    1.84
   3  -3  -6   24.04    2.39
  -3   3  -6   23.24    1.10
   3   3  -6   26.32    2.05
   3   3   6   25.55    2.02
  -3   3   6   25.89    2.05
  -3  -3   6   27.02    1.44
   3  -3   6   26.96    1.19
   3   3   6   25.21    2.10
  -3  -3   6   24.74    1.33
   3  -3   6   23.38    2.17
   2  -4  -6   14.82    2.12
   4   2  -6   15.81    2.11
   4   2   6   14.12    1.66
   2  -4   6   12.20    1.60
   2  -4   6   15.01    0.92
  -2   4   6   12.97    1.61
  -4  -2   6   14.57    0.51
   2  -4   6   15.01    0.99
   4   2   6   14.62    1.74
  -4   0  -6   39.55    2.11
   4   0  -6   37.27    1.53
   4   0  -6   38.49    2.60
   0   4   6   38.47    2.54
   4   0   6   41.78    2.10
   0  -4   6   40.67    1.80
   4   0   6   42.75    2.56
   0  -4   6   39.56    2.48
   0  -4   6   38.87    1.65
  -2  -4  -6   64.49    3.49
  -4   2  -6   59.55    2.25
   2   4  -6   64.68    2.78
   4  -2  -6   62.50    3.53
   4  -2   6   58.39    3.21
  -4   2   6   62.61    2.73
   2   4   6   60.68    3.17
   4  -2   6   66.91    2.35
  -2  -4   6   67.78    2.81
  -4   4  -6   27.61    1.76
   4  -4  -6   25.53    2.61
   4   4  -6   25.79    2.37
  -4  -4   6   28.22    1.31
  -4  -4   6   17.79    1.84
   4   4   6   27.77    2.46
  -4   4   6   27.04    2.35
   4  -4   6   28.03    1.69
   4  -4   6   24.81    2.56
   4   4   6   25.55    2.26
   3  -5  -6   40.41    3.41
   5   3  -6   40.25    3.03
   5   3   6   40.87    2.62
   3  -5   6   39.44    3.02
  -3   5   6   42.89    3.00
   3  -5   6   37.82    1.92
   5   3   6   38.25    2.92
   3  -5   6   42.56    2.06
   5   1  -6   10.88    1.63
   1  -5  -6    9.18    1.68
   5   1   6    9.48    1.44
   5   1   6    9.75    1.47
  -1   5   6   10.50    1.84
   1  -5   6   11.05    1.80
   1  -5   6   12.19    1.28
   1   5  -6   42.80    2.34
   5  -1  -6   39.16    3.02
  -1  -5  -6   38.14    3.05
   5  -1   6   41.37    2.75
  -5   1   6   42.20    1.91
   5  -1   6   42.54    2.36
   1   5   6   38.77    2.79
  -3  -5  -6   59.08    3.78
   5  -3  -6   60.24    3.94
   3   5  -6   58.71    3.23
  -3  -5   6   53.18    2.59
   5  -3   6   55.55    3.52
   3   5   6   61.96    3.50
   5  -3   6   59.49    2.56
   5   5  -6  175.63    6.54
   5  -5  -6  132.74    7.40
   5  -5   6  171.66    6.87
   5   5   6  172.18    5.87
   4  -6  -6   23.78    2.90
   6   4  -6   29.89    3.10
  -4   6   6   27.12    2.94
   4  -6   6   30.66    3.22
   6   4   6   27.00    2.94
   6   4   6   25.93    2.34
   4  -6   6   30.43    2.06
   6   2  -6   38.29    3.03
   2  -6  -6   32.90    3.30
   2  -6   6   36.23    2.14
   6   2   6   35.95    2.83
   6   2   6   35.64    2.45
  -2   6   6   33.94    3.07
   2  -6   6   34.59    3.07
   0  -6  -6   18.43    2.68
   6   0  -6   22.44    2.64
   6   0   6   26.67    2.30
   0  -6   6   21.02    2.26
   0   6   6   22.68    2.41
   6   0   6   20.17    2.15
   0  -6   6   20.65    1.90
   2   6  -6   24.10    2.14
  -2  -6  -6   24.05    2.84
   6  -2  -6   21.05    2.73
   6  -2   6   24.21    2.40
   2   6   6   24.16    2.58
  -2  -6   6   21.52    2.09
   6  -2   6   22.90    2.02
  -6   2   6   22.13    1.70
  -4  -6  -6    4.69    2.16
   4   6  -6    8.89    2.10
   6  -4  -6    8.44    2.58
  -6   4   6    8.35    1.57
  -4  -6   6    6.76    1.18
   6  -4   6    7.44    1.61
   4   6   6    8.17    2.05
   6  -4   6    9.82    2.08
   6  -6  -6    4.51    2.34
   6   6  -6    6.00    2.14
  -6   6   6    2.60    1.84
   6  -6   6    0.97    1.88
   6   6   6    0.31    1.50
   6  -6   6    4.10    1.33
   6   6   6    1.51    2.07
   5  -7  -6    4.90    2.70
   7   5  -6    7.71    2.63
   7   5   6    7.22    2.34
   7   5   6   10.47    1.85
  -5   7   6    5.21    2.14
   5  -7   6    6.88    1.43
   5  -7   6   15.49    2.76
   7   3  -6   31.66    3.39
   3  -7  -6   31.81    3.36
   3  -7   6   34.69    3.44
   7   3   6   32.72    3.20
  -3   7   6   30.76    3.30
   3  -7   6   32.40    2.27
   7   3   6   33.25    2.49
   1  -7  -6   25.62    3.64
  -1   7   6   25.48    3.47
   7   1   6   31.62    2.90
   7   1   6   32.99    2.53
   1  -7   6   36.15    3.27
   1  -7   6   32.12    2.39
  -1  -7  -6  205.97    8.15
   7  -1  -6  193.46    3.51
   7  -1  -6  164.34    7.04
  -1  -7   6  191.37    6.20
   1   7   6  182.89    7.07
   7  -1   6  191.32    6.24
   7  -1   6  186.51    6.31
  -1  -7   6  185.62    6.58
   7  -3  -6   24.31    2.06
   7  -3  -6   19.06    2.98
  -3  -7  -6   23.28    3.13
   3   7  -6   24.98    2.76
   7  -3   6   25.85    2.75
   7  -3   6   29.50    2.41
  -3  -7   6   25.41    2.24
   3   7   6   28.80    2.85
  -5  -7  -6    0.77    1.85
   7  -5  -6    5.39    2.31
   5   7  -6    2.08    2.16
  -7   5   6    2.66    1.66
   5   7   6    4.65    1.78
   7  -5   6    1.73    1.87
   7  -5   6    2.89    1.29
   7  -7  -6   22.38    3.34
   7   7  -6   19.27    2.94
  -7   7   6   18.84    2.92
   7  -7   6   20.91    3.72
  -6   8   6    5.93    2.37
   4  -8  -6    5.37    2.76
   8   4  -6    4.31    2.32
  -4   8   6   12.87    2.49
   8   4   6    4.70    2.07
   4  -8   6    6.30    2.46
   2  -8  -6    7.61    2.89
   8   2  -6    5.14    1.93
   2  -8   6    5.96    2.44
   2  -8   6    6.01    1.82
   8   2   6    4.26    2.04
  -2   8   6    8.98    2.56
   8   2   6    8.60    1.64
   0  -8  -6    1.20    2.04
   8   0  -6    5.41    2.49
   8   0   6    4.45    1.87
   0  -8   6    4.55    1.90
   0  -8   6    7.92    1.76
   8   0   6    5.28    1.80
   0   8   6    6.99    2.45
  -2  -8  -6    4.96    2.29
   8  -2  -6    4.02    2.05
  -2  -8   6    3.54    1.68
   8  -2   6    4.70    1.91
   2   8   6    8.88    2.62
  -2  -8   6    9.28    2.22
   8  -2   6    5.21    1.78
   8  -4  -6   14.29    3.12
   4   8  -6   18.08    3.05
  -4  -8  -6   19.29    3.14
   8  -4  -6   26.70    2.57
  -4  -8   6   14.67    1.83
   8  -4   6   19.15    2.24
   8  -4   6   21.37    2.82
   4   8   6   21.00    2.75
   6   8  -6   12.23    3.09
   8  -6  -6    5.01    3.00
   8  -6   6    6.56    2.58
   9   3  -6   54.32    4.71
   3  -9  -6   57.42    5.08
   3  -9   6   52.43    4.65
   1  -9  -6   28.98    3.92
  -1   9   6   24.52    3.71
   1  -9   6   32.89    3.57
   9   1   6   23.99    2.95
   1  -9   6   20.27    2.73
  -1  -9  -6    4.26    2.77
  -1  -9   6    0.44    1.69
  -1  -9   6   -0.19    1.64
   9  -1   6    1.71    1.67
   9  -1   6    0.12    1.77
   1   9   6   -0.60    1.73
   9  -3  -6    5.21    2.69
  -3  -9  -6    6.94    2.97
   3   9   6   11.08    2.26
  -3  -9   6    7.99    2.27
   9  -3   6    6.60    2.28
  -3  -9   6   11.65    2.27
   9  -3   6    5.93    2.55
   9  -5   6   31.04    3.68
   5   9   6   37.20    3.82
  10   0   6   19.30    2.75
   0 -10   6   14.84    2.82
  -2 -10   6   14.39    2.70
   0  -1  -7   49.11    2.11
  -1   0  -7   53.01    1.70
   1   0  -7   51.77    2.09
   1   0  -7   50.79    2.22
   0   1  -7   51.51    1.44
  -1   0  -7   51.64    1.63
  -1   0   7   50.70    2.01
   0   1   7   49.40    2.48
   0  -1   7   52.30    1.45
   1   0   7   50.96    2.56
  -1   0   7   51.26    2.31
   0  -1   7   51.36    2.43
   0   1   7   49.13    2.08
  -2  -1  -7   76.14    2.58
   2   1  -7   73.41    2.73
  -2  -1  -7   71.62    2.58
   1  -2  -7   71.81    3.10
  -2  -1   7   74.73    2.57
  -1   2   7   69.95    3.11
   2   1   7   71.98    3.10
  -2  -1   7   75.20    2.76
   1  -2   7   72.69    3.10
  -1  -2  -7   45.52    2.33
   1   2  -7   44.79    1.71
  -1  -2  -7   43.06    2.21
  -2   1  -7   43.46    0.98
   1   2  -7   43.29    2.17
  -2   1  -7   43.02    0.99
   2  -1  -7   43.94    2.20
   2  -1  -7   42.96    2.37
  -2   1   7   40.29    2.14
  -1  -2   7   45.62    2.20
   2  -1   7   44.43    2.44
   1   2   7   39.28    2.34
  -1  -2   7   44.81    1.73
   3   2  -7   61.48    2.85
   3   2  -7   64.71    2.21
   2  -3   7   63.13    3.21
  -3  -2   7   65.64    2.26
  -2   3   7   67.94    3.30
   3   2   7   70.40    3.32
   3   2   7   67.68    2.99
   3   0  -7    8.41    1.41
   0  -3  -7    7.94    1.44
   3   0  -7    8.35    1.06
  -3   0  -7    7.98    0.94
   0  -3   7    7.50    0.63
   0  -3   7    6.94    1.26
  -3   0   7    7.07    0.96
   0  -3   7    7.55    0.65
   3   0   7    8.69    0.92
   3   0   7    7.29    1.20
   0   3   7    8.76    1.31
  -2  -3  -7   55.80    2.97
   2   3  -7   52.81    2.37
  -3   2  -7   53.42    1.47
   2   3   7   51.51    3.28
  -3   2   7   54.90    2.72
  -2  -3   7   56.48    2.47
  -2  -3   7   50.54    2.33
   3  -2   7   53.18    1.31
   3  -2   7   51.91    2.99
  -2  -3   7   53.56    2.28
   3  -4  -7   16.96    2.41
   4   3  -7   11.80    1.79
   4   3   7   20.48    2.11
  -3   4   7   17.81    2.05
  -4  -3   7   16.16    0.91
  -4  -3   7   19.37    1.03
   3  -4   7   15.22    0.81
   4   3   7   16.53    1.93
   3  -4   7   16.53    2.13
   3  -4   7   16.32    0.83
   1  -4  -7   11.89    1.95
   4   1  -7   14.64    0.95
   1  -4   7   16.14    0.81
   1  -4   7   13.88    1.65
   4   1   7   14.88    1.58
   4   1   7   14.70    1.99
  -4  -1   7   15.19    0.97
  -1   4   7   13.90    1.90
   1  -4   7   15.08    0.75
   4  -1  -7   30.73    1.79
  -1  -4  -7   33.07    2.65
   1   4  -7   33.54    1.79
   4  -1  -7   32.88    2.61
  -4   1  -7   31.55    1.70
   1   4   7   35.21    2.66
   4  -1   7   36.67    2.61
  -1  -4   7   32.07    1.75
  -1  -4   7   31.52    2.16
   4  -1   7   33.10    1.69
  -4   1   7   36.20    1.98
   4  -3  -7   20.94    2.49
  -3  -4  -7   19.34    2.26
   3   4  -7   22.36    1.97
  -4   3  -7   23.25    1.26
   4  -3   7   19.08    2.26
  -3  -4   7   19.53    1.44
  -3  -4   7   19.41    1.55
   3   4   7   20.55    2.16
  -4   3   7   21.63    2.01
   5   4  -7    5.08    1.86
   4  -5  -7    4.85    1.93
   5   4   7    5.07    1.95
   5   4   7    6.82    1.88
   4  -5   7    6.36    0.90
   4  -5   7    3.75    1.91
  -4   5   7    5.71    1.87
   5   2  -7   39.13    2.94
   2  -5  -7   37.53    3.07
   2  -5   7   37.56    1.48
   5   2   7   36.82    2.62
  -2   5   7   36.43    3.01
   2  -5   7   35.11    2.92
   5   2   7   34.23    2.69
   0  -5  -7   27.87    2.78
   5   0  -7   28.83    1.31
   5   0  -7   33.18    2.77
   0  -5   7   30.92    1.81
   5   0   7   33.10    2.54
   0  -5   7   32.76    2.53
   0  -5   7   28.29    1.73
   0   5   7   31.13    2.76
   5   0   7   31.93    2.16
  -2  -5  -7   21.36    2.52
  -5   2  -7   18.57    1.65
   2   5  -7   18.95    1.81
   5  -2  -7   16.08    2.42
   5  -2   7   21.85    2.32
  -5   2   7   17.16    1.57
   5  -2   7   19.52    1.56
  -2  -5   7   18.42    1.89
   2   5   7   16.98    2.20
  -4  -5  -7   54.87    3.86
   5  -4  -7   55.89    3.96
   4   5  -7   72.84    3.97
   4   5   7   62.69    4.11
  -4  -5   7   53.16    2.83
  -5   4   7   61.18    3.61
   4   5   7   62.11    3.78
   5  -4   7   58.75    3.98
  -4  -5   7   63.69    2.50
   5  -4   7   66.73    2.51
   5  -6  -7    1.46    2.04
   6   5  -7   -0.99    1.51
   5  -6   7   -1.24    1.10
   6   5   7    1.23    1.77
  -5   6   7   -0.48    1.61
   5  -6   7    2.33    0.91
   6   5   7    0.69    1.55
   6   3  -7   10.67    2.14
  -3   6   7   14.08    2.33
   3  -6   7    9.45    2.58
   3  -6   7   10.15    1.14
   6   3   7    9.40    1.59
   6   3   7   11.86    2.08
   1  -6  -7   28.99    3.16
   6   1  -7   27.32    2.81
   1  -6   7   23.59    2.44
   6   1   7   25.82    2.41
  -1   6   7   21.94    2.63
   1  -6   7   29.10    1.83
   6   1   7   24.32    2.40
   1  -6   7   25.81    1.65
  -1  -6  -7   30.62    3.01
   6  -1  -7   35.81    3.31
   1   6   7   29.08    2.95
   6  -1   7   31.38    2.28
  -1  -6   7   33.49    2.66
  -1  -6   7   30.82    2.35
   6  -1   7   38.53    2.96
  -6   1   7   33.96    1.68
  -3  -6  -7    5.13    2.21
   3   6  -7    7.96    1.96
  -6   3   7    6.34    1.65
   6  -3   7    4.70    1.83
   3   6   7    8.57    2.29
  -3  -6   7    3.85    1.29
   6  -3   7    7.45    1.27
  -5  -6  -7   33.28    3.56
   5   6  -7   35.28    3.44
   6  -5  -7   29.55    3.65
   6  -5   7   29.05    3.29
  -6   5   7   33.14    3.14
   6  -5   7   35.81    2.12
   5   6   7   29.81    2.87
   6  -7  -7    8.02    2.77
   7   6   7    6.60    2.37
   6  -7   7   14.03    2.79
   7   6   7    8.45    2.57
  -6   7   7    7.66    2.24
   4  -7  -7    5.86    2.63
   7   4  -7   10.50    2.71
   4  -7   7   11.85    2.39
   7   4   7    8.26    1.58
  -4   7   7    6.51    2.38
   7   4   7    7.72    2.32
   2  -7  -7    6.47    2.76
   7   2  -7    5.72    2.23
   7   2   7    7.68    1.51
   2  -7   7   10.56    1.47
   2  -7   7    7.85    2.21
   7   2   7    6.55    2.09
  -2   7   7    8.19    2.37
   7   0  -7   40.91    3.67
   0  -7  -7   45.28    4.05
   7   0   7   42.15    3.19
   0   7   7   37.68    3.52
   7   0   7   42.93    2.97
   0  -7   7   44.21    3.46
   0  -7   7   45.86    3.30
  -2  -7  -7   -0.11    1.31
   7  -2  -7    2.46    1.66
   7  -2  -7    3.89    1.09
   7  -2   7   -0.03    0.99
  -2  -7   7    0.78    1.35
   7  -2   7    3.48    1.92
   2   7   7    2.96    1.84
  -4  -7  -7   21.04    3.12
   7  -4  -7   16.90    2.89
   4   7  -7   16.61    2.46
   7  -4   7   24.54    2.95
   4   7   7   17.00    2.53
   7  -4   7   20.15    1.96
  -7   4   7   18.25    2.07
  -4  -7   7   18.96    1.89
  -6  -7  -7   -1.10    1.87
   6   7  -7    2.33    2.09
   7  -6  -7    3.84    2.54
   6   7   7    2.76    2.31
   7  -6   7    2.42    2.32
  -7   6   7    0.73    1.67
   5  -8  -7    6.91    3.06
   8   5  -7   10.22    2.87
   5  -8   7    7.55    2.66
   8   5   7    5.40    2.56
  -5   8   7    5.65    2.34
   3  -8  -7   33.13    4.05
   8   3  -7   38.95    3.92
   8   3   7   43.03    3.83
  -3   8   7   42.05    4.01
   3  -8   7   38.79    3.69
   8   3   7   41.46    2.89
   1  -8  -7    1.72    2.01
   8   1  -7    0.03    1.32
   8   1   7   -0.71    1.30
   1  -8   7    0.12    1.63
   1  -8   7   -1.93    1.16
   8   1   7    0.26    1.45
  -1   8   7    1.45    1.82
  -1  -8  -7   17.04    3.25
   8  -1  -7   15.45    2.56
  -1  -8   7   17.94    2.26
   8  -1   7   17.51    2.27
   8  -1   7   17.20    2.52
  -1  -8   7   15.83    2.43
   1   8   7   18.14    2.83
   8  -3  -7    4.95    2.00
  -3  -8  -7   11.53    2.35
  -3  -8   7    9.86    2.03
  -3  -8   7   11.00    1.91
   3   8   7   10.35    2.19
   8  -3   7    7.89    2.38
   8  -3   7    8.41    1.88
   8  -5  -7    1.88    2.23
   8  -5  -7    4.48    2.49
   5   8  -7    3.91    2.38
  -5  -8  -7    0.35    1.89
   5   8   7    5.51    2.03
   8  -5   7    4.06    2.16
   9   2  -7    1.45    1.85
   2  -9  -7    3.59    2.54
  -2   9   7    1.91    1.95
   2  -9   7    0.85    1.91
   9   2   7    2.44    1.79
   9   0  -7   17.64    3.10
   0  -9  -7   15.26    3.34
   9   0   7   15.06    2.35
   0  -9   7   10.63    3.70
   0  -9   7   13.49    2.65
   0   9   7    9.80    3.21
   9  -2  -7   13.73    2.83
  -2  -9  -7    5.37    2.33
   9  -2   7    7.07    2.07
  -2  -9   7   10.97    2.06
  -2  -9   7    8.38    2.25
   9  -2   7   11.28    2.78
   4   9   7    3.53    2.12
   9  -4   7    1.41    1.89
  10   1   7    3.50    2.08
  -1 -10   7    4.17    2.22
   0   0  -8   51.68    1.93
   0   0   8   54.96    2.69
   0   0   8   49.91    1.88
   1  -1  -8   40.30    2.17
  -1  -1  -8   39.87    2.17
   1   1  -8   37.93    1.72
  -1  -1  -8   40.05    1.97
   1   1   8   37.24    2.40
  -1   1   8   38.57    2.03
  -1  -1   8   38.99    1.72
   1  -1   8   36.59    2.38
  -1   1   8   41.60    2.36
  -1  -1   8   40.77    2.21
   0   2  -8   47.69    1.06
   2   0  -8   48.33    2.35
   0  -2  -8   45.83    2.46
  -2   0  -8   43.81    1.62
   2   0   8   43.71    2.58
   0   2   8   48.98    2.79
   0  -2   8   49.93    2.64
  -2   0   8   46.66    2.28
   0  -2   8   43.56    1.38
   2  -2  -8    9.06    1.61
  -2  -2  -8    8.62    1.27
   2   2  -8    6.58    1.09
   2   2  -8    8.06    1.06
  -2  -2   8    7.86    1.10
  -2   2   8    6.92    1.56
  -2  -2   8    8.35    1.15
   2  -2   8    8.10    1.31
   1  -3  -8   18.48    2.07
  -3  -1  -8   15.21    1.40
   3   1  -8   17.44    1.29
   3   1  -8   16.16    1.76
   3   1   8   17.13    1.47
   3   1   8   14.85    1.85
  -1   3   8   15.28    1.85
  -3  -1   8   17.41    1.35
   1  -3   8   13.88    1.81
  -1  -3  -8   50.44    2.92
   3  -1  -8   46.70    2.82
  -3   1  -8   45.94    1.48
   1   3  -8   45.00    1.80
   1   3   8   48.47    3.01
  -1  -3   8   50.07    2.62
  -3   1   8   46.74    2.46
   3  -1   8   44.35    2.87
  -1  -3   8   46.39    1.84
  -3  -3  -8   36.25    2.61
   3   3  -8   40.11    2.46
   3  -3  -8   36.88    2.81
  -3   3   8   35.76    2.60
  -3  -3   8   37.71    2.01
   3   3   8   39.30    2.85
   3  -3   8   44.39    3.09
  -3  -3   8   39.62    1.91
   4   2  -8   14.23    1.86
   2  -4  -8   19.59    2.19
  -2   4   8   18.74    2.20
  -4  -2   8   17.16    1.12
  -4  -2   8   16.71    1.05
   4   2   8   18.15    2.07
   4   2   8   15.60    1.84
   2  -4   8   15.35    2.06
   4   0  -8   54.40    3.20
  -4   0  -8   52.22    2.32
   4   0  -8   53.72    2.19
   0  -4  -8   44.24    3.10
   0   4   8   53.70    3.24
   0  -4   8   53.71    1.65
   0  -4   8   52.08    1.71
  -4   0   8   53.82    2.26
   0  -4   8   58.09    3.19
   4   0   8   54.01    2.35
   4   0   8   49.05    3.07
  -4   2  -8   24.90    1.19
   2   4  -8   23.39    1.80
  -2  -4  -8   20.95    2.31
   4  -2  -8   22.94    2.49
   2   4   8   26.34    2.54
   4  -2   8   24.16    2.42
  -4   2   8   25.65    2.02
  -2  -4   8   23.12    1.87
   4  -2   8   23.64    1.14
  -4  -4  -8   18.12    2.34
   4   4  -8   18.07    2.19
   4  -4  -8   15.42    2.54
   4   4   8   15.31    2.08
   4  -4   8   16.43    2.42
  -4   4   8   17.47    2.11
   4   4   8   13.35    2.10
  -4  -4   8   16.84    1.28
   4  -4   8   14.88    0.50
   3  -5  -8   20.38    2.84
   5   3  -8   16.29    2.39
   5   3   8   21.32    2.37
  -3   5   8   22.71    2.58
   3  -5   8   18.85    2.55
   5   3   8   18.83    2.18
   5   1  -8   29.92    0.99
   1  -5  -8   34.69    3.14
   5   1  -8   27.76    2.58
   1  -5   8   29.46    1.12
  -5  -1   8   29.02    0.98
   5   1   8   25.94    2.10
   1  -5   8   26.83    1.14
   1  -5   8   31.77    2.62
  -1   5   8   29.66    2.87
   5   1   8   26.89    2.27
  -1  -5  -8   10.37    2.44
   5  -1  -8    7.47    2.14
   5  -1   8   10.05    1.88
  -5   1   8    9.46    1.18
  -1  -5   8   11.91    1.38
   5  -1   8   10.25    1.25
  -1  -5   8    7.90    1.53
   1   5   8   10.19    1.71
   3   5  -8   17.75    1.93
  -5   3  -8   13.75    1.29
   5  -3  -8   14.22    2.23
  -3  -5  -8   16.02    2.44
   5  -3   8   15.45    1.17
   5  -3   8   16.20    2.34
  -3  -5   8   13.81    1.59
   3   5   8   14.07    2.14
  -5   3   8   14.27    1.93
   5   5  -8    2.02    1.66
  -5  -5  -8    2.27    1.80
   5  -5  -8   -0.52    1.35
   5   5   8    1.72    1.70
   5  -5   8    2.35    1.51
  -5   5   8    1.12    1.65
   5   5   8    0.09    1.36
   6   4  -8   41.87    3.56
   4  -6  -8   43.15    4.18
  -4   6   8   48.43    3.84
   4  -6   8   39.01    3.52
   6   4   8   39.13    3.10
   6   4   8   43.06    3.57
   6   2  -8   10.84    2.17
   2  -6  -8   10.83    3.02
   2  -6   8   13.39    2.33
   6   2   8   11.09    1.85
   6   2   8   11.03    1.87
  -2   6   8   11.41    2.29
   6   0  -8    1.92    1.82
   0  -6  -8    1.84    1.62
   0  -6   8    1.99    0.97
   0  -6   8    2.68    1.55
   6   0   8    2.82    1.27
   6   0   8    2.94    1.71
   0   6   8    0.54    1.24
   2   6  -8   41.66    2.74
  -2  -6  -8   37.60    3.52
   6  -2  -8   38.94    3.37
   6  -2   8   40.08    2.24
  -6   2   8   38.99    2.37
   2   6   8   38.85    3.43
   6  -2   8   39.44    3.24
  -2  -6   8   37.66    2.74
   4   6  -8    1.62    1.58
  -4  -6  -8    1.72    1.57
   6  -4  -8    0.76    1.87
  -6   4   8    2.50    1.48
  -4  -6   8    0.13    0.97
   6  -4   8   -0.56    1.63
   6  -4   8    1.01    0.79
   6   6  -8   10.31    2.66
  -6  -6  -8   12.32    2.67
   6  -6  -8    9.17    2.93
  -6   6   8    6.99    2.28
   6   6   8   12.79    2.42
   6  -6   8   11.28    3.07
   7   5  -8   15.38    2.63
   7   5   8   17.89    2.47
  -5   7   8   13.29    2.59
   5  -7   8   17.07    3.02
   7   5   8   17.10    2.82
   3  -7  -8    4.62    2.70
   7   3  -8    4.46    1.95
  -3   7   8    3.79    2.08
   7   3   8    1.38    1.83
   3  -7   8    2.85    2.17
   7   3   8    3.77    1.68
   7   1  -8   22.00    2.91
   1  -7  -8   20.79    3.24
   7   1   8   27.63    2.59
   1  -7   8   27.34    2.83
  -1   7   8   22.52    2.79
   7   1   8   25.66    2.50
   1  -7   8   20.33    1.73
  -1  -7  -8    2.50    2.17
   7  -1  -8    3.19    2.25
   7  -1   8    5.63    1.55
  -1  -7   8    4.77    1.65
   1   7   8    6.12    2.36
  -1  -7   8    3.24    1.54
   7  -1   8    3.13    1.80
   7  -3  -8   29.36    3.32
  -3  -7  -8   23.04    3.23
   3   7  -8   22.26    2.62
  -7   3   8   20.47    2.02
   7  -3   8   26.71    3.02
   7  -3   8   25.77    2.00
   3   7   8   28.67    3.13
  -3  -7   8   24.88    2.36
  -5  -7  -8   11.47    3.05
   5   7  -8   14.09    2.42
  -7   5   8   17.13    2.35
   7  -5   8   14.56    2.78
   5   7   8   11.76    2.81
  -7   7   8   -2.25    1.80
   8   4  -8    0.62    2.13
   4  -8  -8    1.82    2.40
  -4   8   8    6.24    2.34
   8   4   8   -0.38    1.70
   4  -8   8    3.30    2.14
   2  -8  -8   16.50    3.23
   8   2  -8   17.03    2.94
  -2   8   8   15.61    2.88
   2  -8   8   14.06    2.55
   8   2   8   17.74    2.16
   8   2   8   16.47    2.45
   8   0  -8    1.55    2.01
   0  -8  -8    0.50    1.92
   0  -8   8    2.36    1.39
   0  -8   8    0.58    1.70
   0   8   8    2.33    2.23
   8   0   8    2.66    1.34
   8   0   8    2.36    1.67
  -2  -8  -8   23.02    3.57
   8  -2  -8   20.67    3.31
  -2  -8   8   19.65    2.31
  -2  -8   8   21.71    2.66
   2   8   8   21.20    2.94
   8  -2   8   20.90    2.10
   8  -2   8   18.50    2.64
   8  -4  -8    1.54    1.73
  -4  -8  -8    4.26    2.26
   4   8  -8    1.58    2.11
   8  -4   8    4.59    2.31
  -4  -8   8    1.67    1.74
   4   8   8    4.74    2.17
   9   3   8    1.84    1.69
   9   1  -8   12.67    2.75
   1  -9  -8    7.85    2.92
   9   1   8   11.45    2.33
  -1   9   8   18.35    3.07
   1  -9   8   10.65    2.95
   9  -1  -8    7.17    2.42
  -1  -9  -8    9.67    3.11
  -1  -9   8    5.80    2.36
   1   9   8    4.02    1.87
   9  -1   8    6.48    2.01
   9  -1   8    4.13    2.72
   3   9   8   -2.00    1.94
  -3  -9   8    4.69    3.22
  -1   0  -9   52.32    1.80
   0   1  -9   55.19    1.66
   0  -1  -9   53.32    2.43
   1   0  -9   52.75    2.30
   0  -1   9   50.81    1.61
  -1   0   9   54.14    2.68
   1   0   9   47.59    2.76
  -1   0   9   52.04    2.27
   0  -1   9   54.05    2.86
   0   1   9   53.04    2.93
   0   1   9   53.06    2.35
   1  -2  -9   16.54    1.82
  -2  -1  -9   18.79    1.42
  -2  -1  -9   18.13    1.54
   2   1  -9   14.33    1.48
   2   1   9   14.24    1.69
  -2  -1   9   20.19    1.67
   1  -2   9   19.09    2.01
  -2  -1   9   16.81    1.62
   1   2  -9  274.01    5.23
   2  -1  -9  277.82    6.78
  -1  -2  -9  280.94    6.62
  -1  -2   9  277.03    6.80
  -1  -2   9  272.22    5.23
   2  -1   9  266.81    7.31
   1   2   9  267.67    7.34
  -2   1   9  279.43    6.80
   3   2  -9   14.28    1.49
  -3  -2  -9   13.12    1.60
   2  -3  -9   12.96    2.06
   3   2  -9   12.38    1.63
   2  -3   9    9.43    1.73
  -3  -2   9   12.78    1.40
  -2   3   9   15.05    1.91
   3   2   9   13.17    1.96
   3   0  -9   24.12    2.07
  -3   0  -9   25.64    1.43
  -3   0  -9   24.54    1.46
   0  -3   9   22.01    2.10
  -3   0   9   22.83    1.78
   0   3   9   22.83    2.26
   3   0   9   20.85    2.04
   2   3  -9   45.54    2.23
   3  -2  -9   48.17    3.17
  -2  -3  -9   45.78    2.94
  -3   2   9   41.63    2.64
   3  -2   9   45.33    3.11
  -2  -3   9   43.88    2.40
   2   3   9   44.07    3.10
  -2  -3   9   44.96    2.57
   4   3  -9  143.52    5.17
   3  -4  -9  145.81    6.12
  -4  -3  -9  158.07    5.55
   3  -4   9  138.22    5.87
   4   3   9  142.22    5.64
  -3   4   9  137.50    5.53
  -4  -3   9  145.46    3.73
   4   1  -9   23.55    1.47
   4   1  -9   19.08    2.11
   1  -4  -9   27.62    2.74
  -1   4   9   17.80    2.25
   4   1   9   22.51    2.36
   1  -4   9   21.05    2.37
   4   1   9   21.82    1.81
  -4  -1   9   23.28    1.53
  -1  -4  -9   41.06    3.11
   1   4  -9   44.39    1.91
   4  -1  -9   42.45    3.05
  -4   1  -9   45.36    1.79
  -1  -4   9   45.38    1.89
  -4   1   9   46.70    2.55
   1   4   9   39.58    3.12
   4  -1   9   47.44    3.26
  -1  -4   9   51.43    2.99
   4  -1   9   45.37    1.75
   3   4  -9   17.68    2.03
   4  -3  -9   17.70    2.53
  -3  -4  -9   18.91    2.33
  -4   3   9   15.51    1.94
   3   4   9   16.47    2.08
  -3  -4   9   20.50    1.83
   4  -3   9   16.52    2.15
   5   4  -9   16.12    2.30
  -5  -4  -9   14.67    2.36
   4  -5  -9   15.14    2.93
   4  -5   9   13.87    2.31
   5   4   9   14.20    2.15
   5   4   9   14.92    2.34
  -4   5   9   17.62    2.44
   5   2  -9   49.93    3.34
   2  -5  -9   48.52    3.82
   5   2   9   45.66    3.24
  -2   5   9   52.36    3.62
   2  -5   9   48.53    3.44
   5   2   9   48.50    3.07
   5   0  -9  130.00    3.54
   5   0  -9  128.18    5.39
   0  -5  -9  127.13    5.67
   5   0   9  131.47    5.34
   0  -5   9  125.15    2.84
   5   0   9  125.38    4.04
   0   5   9  125.04    5.63
  -5   0   9  130.02    3.61
   0  -5   9  132.91    5.31
  -2  -5  -9   30.95    3.00
  -5   2  -9   31.33    1.63
   2   5  -9   27.21    2.09
   5  -2  -9   31.74    3.15
   5  -2   9   30.47    2.97
   5  -2   9   31.00    1.49
   2   5   9   32.79    3.07
  -5   2   9   29.02    2.57
  -2  -5   9   31.59    2.49
   4   5  -9    6.22    1.90
  -4  -5  -9    4.40    1.93
   5  -4  -9    5.22    2.31
  -4  -5   9    3.24    1.04
   5  -4   9    5.32    1.81
   4   5   9    5.34    1.97
  -5   4   9    3.97    1.69
   5  -6  -9   16.46    2.80
   6   5  -9   13.70    2.40
  -6  -5  -9   12.97    2.59
   6   5   9   16.16    2.32
  -5   6   9   12.69    2.44
   6   5   9   14.84    2.72
   5  -6   9   19.02    2.78
   3  -6  -9   15.88    2.98
   6   3   9   15.77    2.23
   3  -6   9   20.04    2.74
   6   3   9   17.30    2.30
  -3   6   9   18.62    2.76
   6   1  -9   10.80    2.14
  -1   6   9   10.93    3.14
   6   1   9   11.10    2.51
   6   1   9   12.34    1.85
   1  -6   9   10.37    0.55
   1  -6   9   12.79    1.94
  -1  -6  -9    8.52    2.60
   6  -1  -9   14.67    2.57
   6  -1   9   15.75    2.34
  -1  -6   9   14.72    1.49
  -1  -6   9   15.13    2.12
  -6   1   9   15.41    1.36
   6  -1   9   14.46    1.60
   3   6  -9   86.48    4.10
  -3  -6  -9   74.85    4.90
   6  -3  -9   95.92    5.52
   6  -3   9   82.93    2.65
   3   6   9   94.54    5.16
   6  -3   9   86.75    4.95
  -3  -6   9   87.27    3.84
  -6   3   9   89.32    4.10
   5   6  -9    9.95    2.13
  -5  -6  -9   12.82    3.13
   6  -5  -9    9.10    2.76
   6  -5   9   12.74    2.58
  -6   5   9    8.51    2.44
   5   6   9    9.28    2.42
  -7  -6  -9   18.50    3.27
   7   6  -9   17.55    2.89
  -6   7   9   13.22    2.54
   7   6   9    7.61    3.03
   4  -7  -9   46.54    4.60
   7   4  -9   40.91    3.82
   7   4   9   44.26    3.46
   4  -7   9   42.45    3.89
  -4   7   9   36.75    3.76
   7   4   9   36.23    3.51
   7   2  -9   15.40    2.61
   2  -7  -9   19.00    2.88
  -2   7   9   17.84    2.88
   7   2   9   14.71    2.31
   2  -7   9   14.19    2.58
   7   2   9   15.49    2.43
   7   0  -9    0.71    1.49
   0  -7  -9    2.84    1.92
   7   0   9    1.44    1.77
   0  -7   9    0.94    0.98
   7   0   9   -0.20    1.03
   0   7   9    0.96    1.39
   0  -7   9   -0.24    1.44
   7  -2  -9   14.90    2.93
  -2  -7  -9   13.93    2.94
  -7   2   9   15.21    1.49
  -2  -7   9   18.78    2.42
   7  -2   9   16.28    2.51
   7  -2   9   17.03    2.66
  -2  -7   9   16.88    2.05
   2   7   9   14.24    2.62
  -4  -7  -9   21.16    3.25
   7  -4  -9   21.97    3.35
   4   7  -9   21.42    2.54
   7  -4   9   16.48    2.84
   4   7   9   21.62    2.89
  -7   4   9   19.05    2.42
   6   7   9   34.01    3.53
   3  -8  -9    4.66    2.29
   8   3  -9    7.83    2.85
   8   3   9    7.59    2.33
  -3   8   9   11.26    3.15
   8   3   9    8.45    2.47
   3  -8   9    3.30    2.42
   8   1  -9   59.59    4.67
   1  -8  -9   60.89    5.20
   8   1   9   60.78    3.89
  -1   8   9   57.04    4.63
   8   1   9   64.53    4.16
   1  -8   9   65.62    4.67
   8  -1  -9   15.91    2.95
  -1  -8  -9   10.05    3.03
  -1  -8   9   14.66    2.40
   8  -1   9   12.94    2.76
   8  -1   9   16.86    2.18
   1   8   9   12.54    2.99
  -3  -8  -9    7.39    2.89
   8  -3  -9    6.97    2.69
  -3  -8   9    9.97    2.05
   8  -3   9    8.95    2.61
  -3  -8   9   10.52    2.06
   3   8   9    8.07    2.22
   5   8   9    8.71    2.54
   9   2   9   10.53    2.07
   9   0  -9   26.93    3.59
   0  -9  -9   21.49    4.14
   0  -9   9   21.84    3.05
   0   9   9   18.76    2.98
   9   0   9   17.82    2.40
   9   0   9   22.19    3.20
  -2  -9   9   22.04    3.04
   9  -2   9   28.37    3.39
   0   0 -10   67.81    2.41
   0   0  10   68.83    2.41
   0   0  10   61.43    3.25
  -1  -1 -10   20.02    1.49
  -1  -1 -10   21.21    1.63
   1  -1 -10   20.21    1.79
   1   1 -10   22.87    1.44
   1  -1  10   18.19    1.91
  -1  -1  10   16.74    1.81
  -1   1  10   20.89    2.00
   1   1  10   19.86    2.12
  -1  -1  10   19.81    1.42
  -2   0 -10   58.01    2.17
  -2   0 -10   56.73    1.91
   0  -2 -10   56.27    2.92
   2   0 -10   55.33    2.76
  -2   0  10   53.25    2.82
   2   0  10   56.07    3.27
   0  -2  10   59.52    3.27
   0   2  10   52.62    3.14
  -2  -2 -10   40.73    2.57
   2   2 -10   44.11    2.22
   2  -2 -10   44.67    2.96
  -2   2  10   41.26    2.78
  -2  -2  10   47.49    2.68
   2  -2  10   41.66    3.01
   2   2  10   44.76    3.14
   1  -3 -10   13.68    2.02
   3   1 -10   14.36    1.70
  -3  -1 -10   14.09    1.46
   1  -3  10   11.69    1.69
  -3  -1  10   12.60    1.49
  -1   3  10   11.48    1.70
   3   1  10   11.50    1.95
   1   3 -10    7.53    0.84
  -1  -3 -10    9.04    1.99
   3  -1 -10    9.67    1.69
  -1  -3  10    7.05    1.48
   1   3  10    8.22    2.01
  -3   1  10    6.51    1.67
  -1  -3  10    7.33    0.91
   3  -1  10    7.04    1.95
   3   3 -10   41.68    2.54
  -3  -3 -10   42.17    2.94
   3  -3 -10   38.44    3.27
   3   3  10   41.17    3.23
   3  -3  10   43.86    3.37
  -3   3  10   43.69    3.07
  -3  -3  10   43.91    2.52
  -4  -2 -10   22.73    2.14
   4   2 -10   24.48    2.23
   2  -4 -10   22.85    2.78
   4   2 -10   25.17    1.65
   4   2  10   24.45    2.60
   2  -4  10   24.22    2.49
  -2   4  10   23.28    2.40
  -4  -2  10   27.25    1.71
   0  -4 -10   43.24    3.23
  -4   0 -10   50.02    2.23
   4   0 -10   41.39    2.96
  -4   0 -10   40.53    2.02
   0   4  10   43.14    3.29
  -4   0  10   43.02    2.37
   0  -4  10   39.78    2.95
   4   0  10   42.11    3.08
   4  -2 -10   30.40    2.91
   2   4 -10   33.03    2.00
  -2  -4 -10   33.75    3.04
  -4   2  10   30.38    2.38
   4  -2  10   33.76    2.88
  -2  -4  10   30.77    2.36
   2   4  10   27.78    2.83
   4   4 -10   47.57    3.09
  -4  -4 -10   44.80    3.39
  -4   4  10   39.88    3.20
   4  -4  10   39.47    3.55
  -4  -4  10   42.78    2.20
   4   4  10   41.69    3.40
  -5  -3 -10   -1.23    1.30
   3  -5 -10   -0.58    1.70
   5   3 -10    1.11    1.58
  -3   5  10    3.01    1.78
   5   3  10    4.16    1.81
   3  -5  10   -0.23    0.99
   1  -5 -10   25.40    2.76
   5   1 -10   24.53    2.53
   5   1 -10   27.03    2.20
   1  -5  10   19.56    2.34
   5   1  10   25.15    2.48
  -1   5  10   25.30    2.89
  -5  -1  10   24.39    1.44
  -1  -5 -10   -0.94    1.51
   5  -1 -10   -0.16    1.57
   1   5  10    0.87    1.63
  -5   1  10    1.61    1.09
  -1  -5  10    0.33    1.31
   5  -1  10    0.96    1.50
  -1  -5  10    0.81    0.70
   5  -1  10    0.42    0.65
  -3  -5 -10   14.92    2.50
   3   5 -10   15.53    1.94
   5  -3 -10   12.12    2.47
   3   5  10   14.01    2.56
  -5   3  10   15.19    1.99
   5  -3  10   13.21    2.46
  -3  -5  10   15.05    1.84
   5   5 -10    2.72    2.10
  -5  -5 -10    2.55    1.89
   5  -5 -10    3.62    2.25
   5   5  10    2.44    1.75
   5  -5  10    3.28    1.79
  -5   5  10    1.86    1.70
  -6  -4 -10   23.37    3.07
   6   4 -10   32.95    3.38
   4  -6 -10   28.25    3.72
   4  -6  10   28.01    3.49
  -4   6  10   30.80    3.33
   6   4  10   29.88    2.99
   2  -6 -10   15.31    2.94
  -2   6  10   14.81    2.63
   6   2  10   12.34    2.14
   6   2  10   14.59    2.02
   2  -6  10   16.06    2.69
   0  -6 -10   40.69    3.76
  -6   0  10   38.73    1.75
   6   0  10   45.46    3.57
   0  -6  10   38.51    3.29
   0   6  10   41.80    3.58
  -2  -6 -10   20.04    3.05
   6  -2 -10   16.90    2.85
  -2  -6  10   25.52    2.54
  -2  -6  10   25.99    2.32
  -6   2  10   23.55    2.10
   2   6  10   23.57    3.04
   6  -2  10   26.43    3.04
   6  -2  10   24.58    1.49
   4   6 -10    9.34    2.09
   6  -4 -10    6.62    2.68
  -4  -6 -10   11.82    2.50
  -6   4  10    9.68    1.86
  -4  -6  10    8.26    1.43
   4   6  10   12.18    2.38
   6  -4  10    8.64    2.32
   6  -6 -10    4.13    2.74
   6   6 -10   15.96    2.92
  -6  -6 -10    5.08    2.70
  -6   6  10   11.80    2.40
   6  -6  10    6.60    2.55
   6   6  10   12.40    2.59
   7   5 -10    4.95    2.37
   5  -7 -10    5.61    2.42
  -5   7  10    3.66    2.23
   7   5  10    6.92    2.47
   5  -7  10    9.99    3.05
   7   3 -10    6.36    2.48
   3  -7 -10    3.71    2.29
   3  -7  10    0.77    1.71
   7   3  10    1.36    1.44
   7   3  10    6.90    2.16
  -3   7  10    3.81    1.65
   1  -7 -10   21.53    3.05
   7   1 -10   21.53    2.96
   7   1  10   24.85    2.86
   1  -7  10   28.94    3.25
  -1   7  10   24.23    3.11
   7   1  10   20.03    2.28
  -1  -7 -10    2.28    1.93
   7  -1 -10    3.96    2.35
   7  -1  10    6.23    1.45
   1   7  10    3.93    2.03
   7  -1  10    2.85    2.09
   7  -3 -10    4.66    2.61
  -3  -7 -10    4.20    2.46
   3   7  10    5.67    2.32
  -3  -7  10    0.61    1.38
  -3  -7  10    1.57    1.47
   7  -3  10    4.72    2.39
  -7   3  10    4.22    1.51
  -5  -7 -10   21.99    3.36
   7  -5 -10   20.33    3.45
   5   7 -10   20.34    3.13
   7  -5  10   21.69    3.32
   5   7  10   20.17    3.04
  -7   5  10   18.43    2.72
   8   4 -10   11.37    3.13
   8   4  10   13.04    2.47
   8   4  10    9.14    3.09
   2  -8 -10    7.78    2.64
  -2   8  10   14.55    2.82
   8   2  10   16.11    2.32
   8   2  10   18.29    2.68
   2  -8  10    7.68    3.05
   8   0 -10    5.00    2.52
   8   0  10    9.04    2.38
   0  -8  10    5.20    2.24
   8   0  10    4.30    1.67
   8  -2 -10   17.10    3.29
  -2  -8 -10   20.69    3.50
  -2  -8  10   19.79    2.73
   2   8  10   12.87    2.63
   8  -2  10   17.55    2.84
   4   8  10    7.08    2.33
   8  -4  10    4.17    2.68
   9   3  10    3.31    2.25
   9   1  10   -1.82    2.68
  -1  -9  10   12.06    2.44
  -1   0 -11    4.02    0.71
   0  -1 -11    4.86    1.36
   0   1 -11    3.79    0.58
  -1   0 -11    3.99    0.91
   0   1 -11    3.17    0.66
   1   0 -11    3.96    1.12
  -1   0  11    4.10    1.30
   1   0  11    3.32    1.57
   0  -1  11    3.57    1.61
   0   1  11    4.24    1.60
  -2  -1 -11   91.93    3.20
   1  -2 -11   90.32    3.97
   2   1 -11   95.14    3.44
  -2  -1 -11   84.57    3.08
   2   1  11   86.40    4.28
  -1   2  11   87.38    4.24
   1  -2  11   91.25    4.32
   2  -1 -11   21.53    2.36
   1   2 -11   21.68    1.30
  -1  -2 -11   20.52    2.00
   2  -1  11   18.77    2.27
  -2   1  11   21.69    2.11
   1   2  11   22.01    2.23
  -1  -2  11   24.62    2.26
  -1  -2  11   20.11    1.26
  -3  -2 -11   44.61    2.67
   2  -3 -11   45.98    3.36
   3   2 -11   46.66    2.67
   3   2  11   46.34    3.48
   2  -3  11   39.95    3.27
  -2   3  11   48.04    3.29
  -3  -2  11   45.68    2.66
  -3   0 -11   44.03    1.82
   3   0 -11   44.97    2.96
  -3   0 -11   44.49    1.79
   0  -3 -11   40.98    2.93
   0   3  11   40.04    3.20
   0  -3  11   50.58    3.33
  -3   0  11   41.51    2.61
   3   0  11   41.32    3.28
   3  -2 -11    1.90    1.53
   2   3 -11    1.26    0.94
  -2  -3 -11    0.72    1.22
   3  -2  11    0.77    1.63
  -3   2  11    1.75    1.11
   2   3  11    3.52    1.59
  -2  -3  11    2.56    1.62
   3  -4 -11    5.57    2.32
  -4  -3 -11    6.75    1.93
   4   3 -11    7.44    2.03
  -4  -3  11    6.00    1.28
  -3   4  11    6.61    2.17
   4   3  11   10.26    2.11
   1  -4 -11   19.86    2.59
  -4  -1 -11   19.99    1.76
   4   1 -11   18.73    2.09
  -4  -1  11   19.21    1.64
   1  -4  11   19.15    2.24
  -1   4  11   18.19    2.44
   4   1  11   21.85    2.62
   4  -1 -11    8.06    2.09
  -1  -4 -11   11.29    2.50
   4  -1  11    9.99    2.16
  -1  -4  11    6.93    0.81
  -1  -4  11    9.44    2.18
  -4   1  11    7.86    1.51
   1   4  11   10.29    2.52
  -3  -4 -11    0.85    1.27
   3   4 -11    1.87    1.26
   4  -3 -11    2.55    1.82
   3   4  11   -0.33    1.09
  -4   3  11    1.79    1.68
  -3  -4  11   -1.82    0.96
  -5  -4 -11   25.79    3.32
   4  -5 -11   24.27    3.42
   5   4 -11   29.91    3.06
   4  -5  11   24.49    3.13
  -4   5  11   28.32    3.05
   5   4  11   23.88    2.93
  -5  -2 -11    8.04    1.99
   5   2 -11   11.62    2.18
   2  -5 -11    9.37    2.76
   2  -5  11   13.95    2.42
  -2   5  11   10.30    2.73
  -5  -2  11    7.44    0.88
   5   2  11    9.18    2.36
   0  -5 -11    7.88    2.42
   5   0 -11    9.86    2.44
  -5   0 -11    7.02    1.17
  -5   0  11    8.24    1.28
   5   0  11    9.60    2.45
   0  -5  11    7.69    1.59
  -2  -5 -11   10.66    2.34
   2   5 -11   11.80    1.41
   5  -2 -11   11.21    3.11
  -5   2  11   11.73    1.71
   2   5  11    9.21    1.89
  -2  -5  11   10.61    1.85
   5  -2  11   13.69    2.53
   4   5 -11   51.87    3.37
   5  -4 -11   53.39    4.45
  -4  -5 -11   54.96    4.14
  -5   4  11   52.54    3.72
  -4  -5  11   50.45    2.75
   4   5  11   56.52    4.14
   5  -4  11   53.49    4.32
  -6  -5 -11    1.68    2.11
   5  -6 -11    2.97    2.47
   6   5 -11    1.33    1.75
  -5   6  11    1.01    1.50
   5  -6  11    0.60    1.91
   6   5  11   -0.11    1.96
   3  -6 -11   11.01    3.10
   6   3 -11   13.20    2.51
  -6  -3 -11   11.93    2.32
   3  -6  11   11.74    2.81
   6   3  11   12.77    2.25
  -3   6  11   12.01    2.54
   6   1 -11    1.62    1.79
   1  -6 -11    2.24    2.15
  -1   6  11   -0.03    1.09
   1  -6  11    3.15    1.96
   6   1  11    3.72    1.98
   6   1  11    1.57    1.21
   6  -1 -11   46.53    3.95
  -1  -6 -11   48.31    4.14
   1   6  11   50.59    4.08
  -1  -6  11   49.44    3.56
   6  -1  11   48.24    3.92
  -6   1  11   51.66    2.61
   3   6 -11   11.04    1.90
  -3  -6 -11    6.07    2.42
   6  -3 -11    8.21    2.66
  -6   3  11    8.23    1.65
  -3  -6  11    8.46    1.70
   6  -3  11    6.74    2.48
   3   6  11    5.91    2.38
   6  -5 -11    8.09    2.92
  -5  -6 -11    9.41    3.03
   5   6 -11   10.36    2.65
  -6   5  11    5.89    2.25
   6  -5  11    8.78    3.29
   5   6  11    7.16    2.38
   7   6  11    6.18    3.61
   4  -7 -11    4.41    2.72
   7   4 -11    2.75    1.98
  -7  -4 -11    0.70    1.79
   7   4  11    2.82    1.93
   4  -7  11    2.14    1.85
  -4   7  11    2.33    1.84
   7   2 -11    1.50    1.98
   2  -7 -11    1.83    2.04
  -2   7  11    1.98    2.10
   7   2  11    0.13    1.67
   2  -7  11    3.41    2.22
   7   0 -11   24.63    3.12
   0  -7 -11   23.33    3.49
   0   7  11   23.57    3.20
   7   0  11   24.83    2.20
   0  -7  11   27.92    3.15
   7   0  11   23.06    3.13
  -2  -7 -11    3.48    2.35
   7  -2 -11    3.48    2.32
   7  -2  11    3.64    2.15
   2   7  11    3.38    2.22
  -2  -7  11    3.42    1.80
   7  -4 -11    0.59    1.95
  -4  -7 -11    3.20    2.35
   4   7 -11   -0.79    2.54
  -7   4  11    1.81    1.66
   7  -4  11    3.85    2.57
  -7   6  11   -1.51    1.62
   8   3 -11   33.57    3.79
   8   3  11   34.95    3.48
   8   3  11   32.08    3.26
   1  -8 -11   -0.85    2.42
   8   1 -11    2.12    2.21
   8   1  11    4.22    2.25
   8   1  11    1.89    1.59
   1  -8  11    4.06    2.24
  -1   8  11    3.11    1.79
   8  -1 -11    6.50    2.48
  -1  -8 -11    3.68    2.79
   8  -1  11    3.64    2.36
  -1  -8  11    5.43    2.27
   1   8  11    5.95    2.31
   3   8  11    5.81    2.68
   8  -3  11    9.15    2.72
   9   0  11    4.75    2.72
   0   0 -12  382.44    7.28
   0   0 -12  382.85    7.26
   0   0  12  385.09    9.65
   1  -1 -12   19.38    1.93
   1   1 -12   24.02    1.57
  -1  -1 -12   19.06    1.72
  -1  -1  12   32.28    2.62
  -1   1  12   17.64    2.18
  -1  -1  12   19.74    1.42
   1  -1  12   22.65    2.52
   1   1  12   19.29    2.42
  -2   0 -12   18.46    1.11
   0  -2 -12   15.80    2.21
   2   0 -12   17.56    1.76
   0  -2  12   18.64    2.27
   2   0  12   16.02    2.31
  -2   0  12   16.58    1.97
   0   2  12   18.71    2.43
   2   2 -12   30.65    1.96
   2  -2 -12   28.27    2.57
  -2  -2 -12   29.19    2.25
   2  -2  12   21.96    2.70
  -2   2  12   24.39    2.46
  -2  -2  12   30.27    2.48
   2   2  12   29.09    2.91
  -3  -1 -12   50.72    2.51
   3   1 -12   58.63    3.06
   1  -3 -12   54.24    3.64
   3   1  12   53.81    3.83
   1  -3  12   56.64    3.85
  -1   3  12   50.35    3.47
  -3  -1  12   54.69    3.10
  -1  -3 -12   15.39    2.06
   1   3 -12   14.79    0.82
   3  -1 -12   14.51    2.22
  -3   1  12   16.00    2.04
  -1  -3  12   15.25    0.85
  -1  -3  12   16.61    2.11
   1   3  12   13.46    2.28
   3  -1  12   14.64    2.44
  -3  -3 -12   27.46    2.51
   3  -3 -12   26.39    2.93
  -3   3  12   28.38    2.74
  -3  -3  12   30.88    2.43
   3   3  12   22.45    2.60
   2  -4 -12   21.83    2.86
   4   2 -12   29.38    2.58
  -4  -2 -12   29.22    2.44
  -4  -2  12   27.77    2.07
   4   2  12   22.89    3.20
   2  -4  12   20.39    3.19
  -2   4  12   23.47    2.78
   4   0 -12   24.31    2.67
  -4   0 -12   23.26    1.44
   0  -4 -12   26.76    2.78
   4   0  12   22.55    2.85
   0  -4  12   26.04    2.78
   0   4  12   25.98    2.86
  -4   0  12   21.42    2.04
   4  -2 -12  204.80    7.31
  -2  -4 -12  210.23    7.10
  -4   2  12  201.25    6.58
   4  -2  12  189.59    7.51
   2   4  12  210.42    7.75
   4  -4 -12   12.60    2.67
  -4  -4 -12   14.38    2.49
   4   4 -12   12.89    2.02
   4  -4  12   11.56    2.24
   4   4  12   15.21    2.58
  -4  -4  12   16.94    1.98
  -4   4  12   11.70    3.13
   5   3 -12    5.97    1.91
   3  -5 -12    6.74    2.56
  -5  -3 -12    7.46    2.13
  -3   5  12    4.49    2.13
   3  -5  12    8.91    2.85
   5   3  12    4.29    2.26
   1  -5 -12   12.89    2.66
   5   1 -12   16.20    2.23
   5   1  12   15.07    2.49
   1  -5  12   12.29    2.38
  -1   5  12   17.13    2.46
  -5  -1  12   16.79    1.55
  -1  -5 -12    7.07    2.66
   5  -1 -12    7.60    2.67
  -5   1  12    7.39    1.60
   5  -1  12    7.36    2.30
  -1  -5  12    4.76    1.97
   1   5  12    4.40    2.05
   5  -3 -12   10.01    2.88
   3   5 -12    9.85    1.69
  -3  -5 -12   11.83    2.46
  -3  -5  12    9.86    1.84
   3   5  12   12.70    2.45
  -5   3  12   10.37    2.31
   5  -3  12   11.14    3.03
   5  -5 -12   28.25    3.77
   5   5 -12   29.64    3.06
  -5  -5 -12   29.09    3.49
   5   5  12   31.40    3.36
  -5   5  12   31.28    3.16
   5  -5  12   32.11    3.80
  -6  -4 -12    9.78    2.64
   4  -6 -12    8.86    3.41
   6   4 -12    9.11    2.04
  -4   6  12    4.52    2.19
   6   4  12    2.57    2.00
   6   2 -12  114.94    5.62
  -6  -2 -12  117.45    5.01
   2  -6 -12  109.40    6.23
   6   2  12  118.39    5.92
   2  -6  12  122.54    6.30
   6   0 -12   25.89    3.15
  -6   0 -12   28.69    2.25
   0  -6 -12   27.48    3.45
   6   0  12   27.24    3.23
   0  -6  12   27.60    3.02
   0   6  12   27.04    3.38
   6  -2 -12    1.32    2.04
  -2  -6 -12    3.21    2.10
   2   6  12    1.55    1.70
   6  -2  12   -0.09    1.58
  -6   2  12    4.62    1.57
  -2  -6  12    2.84    1.62
   4   6 -12   14.69    2.58
  -4  -6 -12   15.46    3.13
   6  -4 -12    8.37    2.52
  -6   4  12   20.48    2.44
   6  -4  12    8.57    3.22
   4   6  12   19.39    2.80
  -6   6  12   13.70    2.42
   6   6  12   15.46    2.98
  -7  -5 -12    5.62    2.66
   7   5 -12    3.91    2.55
   7   5  12    6.66    2.65
   7   3 -12    6.00    2.15
   3  -7 -12    2.29    2.51
  -7  -3 -12    6.59    2.29
   7   3  12    5.20    2.01
   3  -7  12    2.51    2.12
  -3   7  12    1.99    1.72
   7   1 -12   17.57    2.76
  -7  -1 -12   10.93    2.29
   1  -7 -12   18.19    3.28
   1  -7  12   15.64    2.64
  -1   7  12   13.26    3.37
   7   1  12   16.72    2.79
   7  -1 -12   27.07    3.40
  -1  -7 -12   27.26    3.74
   7  -1  12   33.16    3.52
  -1  -7  12   29.52    3.05
   1   7  12   28.66    3.36
  -3  -7 -12    3.50    2.30
   7  -3 -12    6.32    2.63
   3   7  12   13.68    2.69
  -3  -7  12    7.44    2.23
   7  -3  12    6.19    2.93
   8   4  12   13.93    4.23
   8   2 -12    0.47    2.20
   8   0 -12   15.06    2.85
   0  -8 -12    4.80    3.12
   0  -8  12   12.12    2.40
   8  -2  12   20.11    3.26
  -2  -8  12   15.97    2.59
   0   1 -13   22.46    1.09
  -1   0 -13   24.03    1.37
   1   0 -13   27.92    1.92
  -1   0 -13   24.49    1.40
   0   1 -13   23.86    1.05
   0  -1 -13   21.04    1.98
   1   0  13   23.34    2.66
   0  -1  13   24.10    2.56
  -1   0  13   22.92    2.30
   0   1  13   25.01    2.69
  -2  -1 -13   21.15    1.66
   1  -2 -13   19.14    2.28
   2   1 -13   18.18    1.72
   1  -2  13   23.04    2.75
   2   1  13   16.51    2.47
  -2  -1  13   19.84    2.39
  -1   2  13   18.48    2.22
   2  -1 -13   21.71    2.25
  -1  -2 -13   21.94    2.17
  -1  -2  13   22.23    1.23
   1   2  13   22.49    2.78
  -2   1  13   22.43    2.45
  -1  -2  13   20.46    2.45
   2  -1  13   25.06    2.88
   2  -3 -13   10.36    2.16
   3   2 -13   13.82    1.79
  -3  -2 -13   12.49    1.77
  -3  -2  13    8.38    1.70
   3   2  13   11.87    2.11
  -2   3  13    9.72    2.00
   2  -3  13   10.79    2.26
   3   0 -13   17.96    2.19
  -3   0 -13   15.87    1.08
   0  -3 -13   20.87    2.37
   0   3  13   21.05    2.73
   0  -3  13   17.97    2.45
   3   0  13   17.44    2.60
  -3   0  13   18.46    2.18
   3  -2 -13   16.21    2.38
  -2  -3 -13   13.05    2.10
   2   3 -13   18.35    1.44
  -2  -3  13   15.21    2.27
   3  -2  13   19.70    2.76
   2   3  13   17.28    2.67
  -3   2  13   17.60    2.27
   3  -4 -13   13.04    2.72
  -4  -3 -13   15.60    2.32
   4   3 -13   11.86    2.06
   4   3  13   12.88    2.52
  -3   4  13   13.54    2.34
   3  -4  13   11.46    2.96
  -4  -3  13   12.20    1.57
  -4  -1 -13   11.35    1.50
   4   1 -13    9.15    1.87
   1  -4 -13   13.90    2.98
  -1   4  13   12.03    2.31
  -4  -1  13    9.80    1.59
   1  -4  13   10.22    2.69
   4   1  13    9.73    2.72
  -1  -4 -13   45.63    3.52
   4  -1 -13   49.16    3.70
  -1  -4  13   54.53    3.72
  -4   1  13   44.49    3.06
   4  -1  13   40.92    3.79
   1   4  13   39.97    3.50
   4  -3 -13    2.47    2.06
  -3  -4 -13    1.15    1.87
  -3  -4  13    2.57    1.43
  -4   3  13    1.41    1.42
   3   4  13    2.91    1.73
   4  -3  13    1.67    2.05
   4  -5 -13   14.95    2.96
  -5  -4 -13   19.88    2.79
   5   4 -13   12.10    2.68
   4  -5  13   16.34    2.98
  -4   5  13   17.27    2.49
   5   4  13    8.61    2.56
  -5  -2 -13   44.74    2.95
   5   2 -13   37.47    3.28
   2  -5 -13   40.83    4.21
   5   2  13   48.07    4.00
   2  -5  13   49.83    4.14
  -2   5  13   34.67    3.58
   0  -5 -13    2.49    2.08
   5   0  13    6.31    2.49
   0  -5  13   10.09    2.54
  -5   0  13    5.12    1.41
   0   5  13    5.46    2.37
  -2  -5 -13   25.35    3.25
   5  -2 -13   21.66    2.95
   2   5  13   20.33    2.99
   5  -2  13   17.04    2.84
  -2  -5  13   16.97    2.51
  -5   2  13   21.45    2.36
   4   5 -13   11.08    2.44
   5  -4 -13   22.25    3.33
  -4  -5 -13    8.19    2.66
   5  -4  13    5.06    2.16
   4   5  13    5.15    2.35
  -5   4  13   12.51    2.45
   6   5 -13    1.52    2.44
  -6  -5 -13    3.30    2.39
   6   5  13    9.47    2.66
  -5   6  13    0.89    1.84
   3  -6 -13   36.10    4.16
  -6  -3 -13   31.86    3.21
   6   3 -13   26.94    2.99
   6   3  13   31.71    3.34
  -3   6  13   27.50    3.07
   1  -6 -13    1.26    2.18
   6   1 -13    1.90    1.97
  -1   6  13    0.52    2.04
   1  -6  13    0.11    1.74
   6   1  13    1.00    1.94
   6  -1 -13   13.38    2.74
  -1  -6 -13   13.91    2.82
  -1  -6  13   20.79    2.74
   1   6  13   14.89    2.82
   6  -1  13   16.88    2.86
  -3  -6 -13   11.71    3.13
   6  -3 -13   10.40    3.03
   3   6  13   14.10    2.58
  -3  -6  13   12.08    2.12
   6  -3  13   10.89    2.30
  -5  -6 -13    5.40    2.63
   5   6  13    5.98    2.32
  -6   5  13   11.70    2.41
   7   4 -13    4.01    2.26
   7   4  13    3.22    2.07
   7   2 -13    1.25    1.80
   2  -7 -13    3.13    2.62
   2  -7  13    1.79    1.81
   7   2  13    3.31    2.27
  -2   7  13    4.14    2.41
   7   0 -13    5.76    2.40
   0   7  13    0.08    1.81
   0  -7  13    2.90    2.09
   7   0  13    7.46    2.33
   7  -2 -13   10.08    3.06
  -2  -7 -13    8.50    3.04
  -2  -7  13    4.08    2.05
   2   7  13    5.00    2.13
   7  -2  13    5.75    2.34
   8   1  13    5.01    2.75
  -1  -8  13    2.03    1.80
   0   0 -14   16.97    1.39
   0   0  14   15.32    2.35
   1   1 -14   20.22    1.47
   1  -1 -14   17.05    2.06
  -1  -1 -14   17.40    1.71
  -1  -1  14   21.92    2.54
  -1   1  14   20.20    2.54
   1   1  14   19.38    2.45
   1  -1  14   21.38    2.74
  -2   0 -14   14.79    0.74
   0  -2 -14   11.85    1.98
   2   0 -14   12.75    1.76
   0   2  14   13.95    2.34
  -2   0  14   15.06    2.22
   0  -2  14   16.02    2.51
   2   0  14   14.48    2.46
  -2  -2 -14    5.70    1.64
   2   2 -14    6.69    1.20
   2  -2 -14    8.23    2.28
   2  -2  14    9.63    2.71
  -2  -2  14    7.03    2.01
   2   2  14    4.02    2.09
  -2   2  14    4.13    1.58
   1  -3 -14   14.95    2.32
  -3  -1 -14    8.75    1.37
   3   1 -14   10.53    1.64
   3   1  14    9.67    2.51
  -3  -1  14   10.97    2.01
   1  -3  14   10.28    2.66
  -1   3  14    9.99    2.61
   3  -1 -14   12.62    2.02
  -1  -3 -14   11.95    2.16
   1   3  14   14.31    2.54
   3  -1  14   10.17    2.84
  -3   1  14   12.40    2.01
  -1  -3  14   16.88    2.59
  -3  -3 -14   28.31    2.68
   3  -3 -14   27.15    3.06
  -3   3  14   38.11    3.38
   3   3  14   31.99    3.50
  -3  -3  14   32.29    2.73
   3  -3  14   31.71    3.55
  -4  -2 -14    2.89    1.61
   4   2 -14    6.89    1.86
   2  -4 -14    4.75    2.28
   4   2  14   10.17    2.88
   2  -4  14    3.49    2.21
  -4  -2  14    3.96    1.27
  -2   4  14    4.33    2.05
   4   0 -14   11.49    2.26
   0  -4 -14   16.06    2.54
   0   4  14   16.58    2.75
  -4   0  14   15.91    2.07
   0  -4  14   17.89    2.69
   4   0  14   12.08    2.26
  -2  -4 -14    5.44    2.29
   4  -2 -14    6.51    2.25
   4  -2  14    4.30    1.96
  -2  -4  14    4.53    1.91
   2   4  14    6.50    2.45
  -4   2  14    5.60    1.91
   4  -4 -14    8.36    2.75
  -4  -4 -14    7.94    2.62
   4   4 -14   11.64    2.25
   4  -4  14    7.45    2.74
  -4   4  14    7.24    2.43
   4   4  14    8.95    2.65
   3  -5 -14   -1.66    1.72
  -5  -3 -14    0.84    1.90
   5   3 -14    2.24    1.85
  -3   5  14    2.77    1.97
   5   3  14    2.61    1.49
   3  -5  14   -0.13    1.97
   5   1 -14   19.38    2.70
   1  -5 -14   15.39    2.97
   1  -5  14   23.37    3.12
  -5  -1  14   23.14    1.95
  -1   5  14   22.92    3.11
   5   1  14   23.83    2.85
  -1  -5 -14    4.56    2.33
   5  -1 -14    3.17    2.02
  -5   1  14    3.20    1.37
   5  -1  14    0.45    1.82
   1   5  14    2.31    1.56
  -1  -5  14    1.72    1.69
   5  -3 -14   15.62    2.82
  -3  -5 -14   10.60    3.03
  -3  -5  14   12.46    2.07
  -5   3  14    6.59    1.97
   3   5  14   15.22    2.77
   5  -3  14   15.59    2.99
   5  -5 -14    2.30    2.39
  -5  -5 -14    4.24    2.51
   5   5  14    2.02    2.09
  -6  -4 -14   14.85    3.49
   6   4 -14   14.43    3.00
  -4   6  14    5.59    2.26
   6   4  14   15.16    2.50
   2  -6 -14    5.51    2.68
   6   2 -14    2.20    1.88
  -2   6  14    2.42    2.43
   6   2  14    6.59    2.25
   0  -6 -14    7.96    2.96
   6   0 -14    6.74    2.43
   0  -6  14    1.19    2.08
   6   0  14    4.22    2.32
   6  -2 -14   12.41    2.77
  -2  -6 -14    7.75    2.81
  -2  -6  14   10.75    2.59
   2   6  14    7.11    2.37
   6  -2  14    8.38    2.88
  -4  -6 -14    5.66    2.67
   4   6  14    0.62    2.06
  -6   4  14    0.73    1.53
   7   3 -14    5.11    2.53
   7   1 -14   21.22    3.03
   1  -7 -14   17.40    3.57
   7   1  14   16.58    3.03
   1  -7  14   19.18    3.06
   7  -1 -14    0.36    2.19
  -1  -7 -14    1.33    2.39
   7  -1  14    5.29    2.61
  -1  -7  14    0.80    2.18
   1   0 -15    6.12    1.26
   0  -1 -15    6.30    1.33
   0   1  15    8.17    2.21
  -1   0  15    9.52    2.41
   0  -1  15    9.87    1.94
   1   0  15    5.80    2.30
   1  -2 -15   26.48    2.70
  -2  -1 -15   28.12    1.96
   2   1 -15   26.95    1.99
   1  -2  15   27.67    3.26
  -2  -1  15   33.48    3.04
   2   1  15   26.75    3.24
  -1   2  15   28.82    3.19
   2  -1 -15  112.80    4.70
  -1  -2 -15  111.08    4.37
  -2   1  15  100.72    5.89
  -1  -2  15  103.73    5.32
   1   2  15  109.18    5.76
   2  -1  15  106.20    5.75
  -3  -2 -15   17.37    2.10
   3   2 -15   21.89    2.15
   2  -3 -15   14.25    3.39
  -3  -2  15   18.67    2.27
   2  -3  15   18.84    2.68
   3   2  15   19.88    3.00
  -2   3  15   23.25    2.83
   0  -3 -15   11.66    2.58
   3   0 -15   11.70    2.04
   0   3  15   13.45    2.59
   3   0  15   13.24    2.36
   0  -3  15   12.29    2.47
  -3   0  15   15.81    2.26
  -2  -3 -15    9.91    2.11
   3  -2 -15   10.86    2.80
   3  -2  15    9.33    2.85
  -3   2  15    5.21    1.85
  -2  -3  15    6.50    2.09
   2   3  15    9.40    2.00
  -4  -3 -15   64.70    4.04
   3  -4 -15   76.58    4.97
   4   3 -15   69.67    3.95
   4   3  15   63.18    4.88
  -4  -3  15   59.50    3.44
  -3   4  15   63.43    4.56
   3  -4  15   67.22    5.13
   1  -4 -15   12.45    2.56
   4   1 -15   15.98    2.26
   4   1  15    7.94    2.72
  -4  -1  15   13.75    1.93
  -1   4  15   13.57    2.34
   1  -4  15   14.64    2.79
   4  -1 -15    4.57    1.91
  -1  -4 -15   -0.95    1.53
  -1  -4  15    0.24    1.70
   4  -1  15    0.42    1.98
   1   4  15    3.56    2.09
  -4   1  15    0.89    1.40
   4  -3 -15   14.00    3.25
  -3  -4 -15   13.78    2.68
   3   4  15    5.68    2.47
  -4   3  15   12.24    2.15
  -3  -4  15   13.11    2.23
   4  -3  15   11.96    3.11
  -5  -4 -15    7.33    3.00
   4  -5 -15    7.12    2.97
  -4   5  15   12.12    2.26
   5   4  15    8.38    2.92
   2  -5 -15    3.98    2.48
   5   2 -15    3.46    2.09
   5   2  15    1.18    1.49
   2  -5  15    1.75    2.13
  -2   5  15    4.28    2.05
   0  -5 -15   72.93    4.84
   5   0 -15   76.52    4.53
   0  -5  15   71.74    4.83
   5   0  15   83.18    5.48
  -5   0  15   68.08    3.69
   0   5  15   82.21    5.43
   5  -2 -15    7.42    2.46
  -2  -5 -15    2.04    2.17
  -5   2  15    4.90    2.14
  -2  -5  15    5.90    2.14
  -4  -5 -15    9.99    3.04
   5  -4 -15   17.86    3.12
   4   5  15   16.66    3.03
  -5   4  15   20.00    2.81
   6   3 -15    2.89    2.53
   6   3  15    2.87    2.15
   6   1 -15   10.22    2.79
   1  -6 -15    5.38    2.63
   6   1  15   15.10    2.87
  -1   6  15    4.92    2.44
   1  -6  15    8.31    2.81
  -1  -6 -15   21.69    3.76
   6  -1 -15   22.55    3.00
   1   6  15   18.12    3.00
   6  -1  15   21.42    3.27
  -1  -6  15   13.11    2.66
  -3  -6 -15   44.74    4.13
   7   2 -15    4.87    3.07
   7   0 -15    5.31    2.62
   0  -7  15    4.37    2.83
   0   0  16    2.95    1.67
  -1  -1 -16   20.54    1.89
   1  -1 -16   18.18    2.17
  -1   1  16   20.55    2.88
  -1  -1  16   18.45    2.65
   1   1  16   30.16    3.40
   1  -1  16   20.46    2.92
   2   0 -16   17.38    2.04
   0  -2 -16   16.92    2.12
   0  -2  16   16.47    2.64
   0   2  16   15.75    2.78
  -2   0  16   17.23    2.74
   2   0  16   12.74    2.64
  -2  -2 -16    1.92    1.56
   2  -2 -16    2.49    1.83
   2  -2  16    2.42    2.08
  -2   2  16    0.79    1.54
   2   2  16    2.64    2.02
  -2  -2  16    2.67    1.89
   3   1 -16   32.86    2.67
  -1   3  16   38.19    3.70
   3   1  16   36.95    3.63
   1  -3  16   31.08    3.31
   3  -1 -16   19.05    2.65
  -1  -3 -16   21.55    2.73
   3  -1  16   19.73    2.76
   1   3  16   20.36    3.04
  -1  -3  16   20.91    2.80
  -3   1  16   20.96    2.65
  -3  -3 -16   13.39    2.61
   3  -3 -16   19.31    2.77
  -3   3  16   20.81    2.78
   3  -3  16   21.05    2.92
  -3  -3  16   21.18    2.60
   3   3  16   25.38    3.42
   4   2 -16    1.17    2.58
   2  -4 -16    3.20    2.33
  -4  -2  16    4.42    1.74
  -2   4  16    2.75    1.56
   2  -4  16    1.20    2.20
   4   0 -16   18.79    2.55
   0  -4 -16   12.18    2.36
   0  -4  16   10.93    2.87
   0   4  16   19.93    2.91
   4   0  16   13.35    2.85
   4  -2 -16    0.74    1.83
  -2  -4 -16   -0.72    1.94
   2   4  16    1.03    1.95
  -4   2  16    0.91    1.50
   4  -2  16    3.99    2.44
  -2  -4  16    2.70    1.87
   4  -4 -16   11.48    2.90
  -4  -4 -16    5.98    3.20
   4   4  16    5.85    2.33
   3  -5 -16    6.72    2.58
  -3   5  16    4.94    2.00
   5   1 -16   16.03    2.79
   1  -5 -16   13.13    3.17
  -1   5  16   15.43    2.82
   5   1  16   16.67    3.03
   1  -5  16    9.70    2.82
   5  -1 -16    2.16    2.35
  -1  -5 -16    6.04    2.66
  -1  -5  16    3.93    1.93
  -5   1  16    6.46    1.91
   1   5  16    6.71    2.75
   5  -1  16    6.47    2.66
   5  -3 -16   19.71    3.00
  -5   3  16   17.58    2.30
   6   2 -16   -7.57    2.62
   0  -6 -16    5.22    2.81
   0  -6  16    7.09    2.39
   6  -2 -16   25.12    3.81
  -2  -6 -16   14.88    3.17
  -2  -6  16    9.77    2.60
  -1   0  17   19.05    2.87
   0  -1  17   24.48    3.15
   0   1  17   21.19    3.02
   1   0  17   23.59    3.10
   1  -2 -17    3.70    1.92
  -1   2  17    3.89    1.85
   2   1  17    2.47    1.80
   1  -2  17    3.43    2.14
  -2  -1  17    2.43    1.71
   2  -1 -17    6.83    2.10
  -2   1  17    5.83    2.23
   2  -1  17    9.23    2.60
  -1  -2  17    2.69    2.06
   1   2  17    4.29    2.33
   2  -3 -17    3.10    2.09
  -3  -2  17    7.50    2.00
  -2   3  17    0.07    1.61
   2  -3  17    4.31    2.46
   3   2  17    6.03    2.48
   3   0 -17   -0.38    1.73
   0  -3 -17    3.50    2.41
   0  -3  17    0.37    1.53
   0   3  17    3.54    1.98
  -3   0  17    0.15    1.67
   3  -2 -17   25.14    3.20
   3  -2  17   22.44    3.33
  -3   2  17   30.58    3.24
   2   3  17   26.21    3.53
  -2  -3  17   23.70    2.87
   3  -4 -17    3.92    2.75
  -3   4  17    1.89    1.85
   1  -4 -17    0.73    1.74
   4   1  17    0.62    1.85
   1  -4  17    0.08    2.08
  -1   4  17    1.05    1.80
  -4  -1  17    2.61    1.71
   4  -1 -17   24.74    3.36
  -1  -4 -17   24.32    3.38
   4  -1  17   23.80    3.13
   1   4  17   27.19    3.53
  -4   1  17   24.07    2.86
  -1  -4  17   29.56    3.27
   2  -5 -17   27.70    3.92
   5   0 -17    2.20    2.60
   0  -5  17    0.41    1.85
   5  -2 -17    7.88    2.63
  -2  -5  17    7.70    2.45
   0   0  18   52.72    4.37
   1   1  18    3.22    2.32
  -1   1  18    8.57    2.56
  -1  -1  18    8.29    2.41
   2   0  18   12.85    2.75
   0   2  18    8.25    2.69
   0  -2  18    5.77    2.36
  -2   0  18    8.30    2.45
   2  -2 -18    6.32    2.76
   2  -2  18   -0.15    1.62
  -2  -2  18    5.34    2.06
   2   2  18    1.61    1.44
   3  -1  18    7.88    2.83
  -1  -3  18    9.48    2.64
  -3   1  18   13.16    2.87
   1   3  18    8.01    2.56
   3  -3 -18    8.84    4.42
  -3   3  18    3.73    2.18
   2  -4 -18    7.79    2.91
   0  -4 -18    5.76    3.37
   0  -4  18    2.13    1.88
  -4   0  18   10.43    2.11
  -2  -4  18   20.04    3.18
   0  -1  19    5.30    2.22
   0   1  19    8.83    2.62
  -1   0  19    6.78    2.31
   1   0  19    3.70    1.80
  -1   2  19   16.89    3.29
  -2  -1  19   15.42    2.61
  -1  -2  19    7.75    2.37
  -2   1  19    6.90    2.32
  -3   0  19    5.64    2.02
  -2  -3  19   10.49    2.66
   0   0   0    0.00    0.00
;
_shelx_hkl_checksum              23202
loop_
_space_group_symop_operation_xyz
'x, y, z'
'-x, -y, z'
'-y, x, z'
'y, -x, z'
'x+1/2, y+1/2, z+1/2'
'-x+1/2, -y+1/2, z+1/2'
'-y+1/2, x+1/2, z+1/2'
'y+1/2, -x+1/2, z+1/2'
'-x, -y, -z'
'x, y, -z'
'y, -x, -z'
'-y, x, -z'
'-x+1/2, -y+1/2, -z+1/2'
'x+1/2, y+1/2, -z+1/2'
'y+1/2, -x+1/2, -z+1/2'
'-y+1/2, x+1/2, -z+1/2'
loop_
_atom_site_label
_atom_site_type_symbol
_atom_site_fract_x
_atom_site_fract_y
_atom_site_fract_z
_atom_site_U_iso_or_equiv
_atom_site_adp_type
_atom_site_occupancy
_atom_site_site_symmetry_order
_atom_site_calc_flag
_atom_site_refinement_flags_posn
_atom_site_refinement_flags_adp
_atom_site_refinement_flags_occupancy
Sr1 Sr 0.000000 0.000000 0.000000 0.01053(11) Uani 1 8 d S T P
Be1 Be 0.0896(3) 0.2264(3) 0.23392(14) 0.0082(3) Uani 1 1 d . . .
Be2 Be 0.1353(3) 0.1943(2) 0.41450(13) 0.0080(3) Uani 1 1 d . . .
Be3 Be 0.000000 0.500000 0.09236(19) 0.0076(4) Uani 1 2 d S T P
N1 N 0.29847(15) 0.11695(15) 0.16725(8) 0.00554(19) Uani 1 1 d . . .
N2 N 0.2053(2) 0.4400(2) 0.000000 0.0051(3) Uani 1 2 d S T P
N3 N 0.000000 0.000000 0.32954(17) 0.0059(4) Uani 1 4 d S T P
loop_
_atom_site_aniso_label
_atom_site_aniso_U_11
_atom_site_aniso_U_22
_atom_site_aniso_U_33
_atom_site_aniso_U_23
_atom_site_aniso_U_13
_atom_site_aniso_U_12
Sr1 0.01184(13) 0.01184(13) 0.00791(16) 0.000 0.000 0.000
Be1 0.0066(7) 0.0093(7) 0.0088(7) -0.0007(6) -0.0007(5) 0.0011(5)
Be2 0.0077(7) 0.0070(7) 0.0094(8) 0.0008(5) 0.0000(5) 0.0010(5)
Be3 0.0069(10) 0.0069(10) 0.0090(10) 0.000 0.000 0.0009(8)
N1 0.0055(4) 0.0055(4) 0.0057(4) -0.0002(4) 0.0011(3) -0.0006(3)
N2 0.0055(6) 0.0045(6) 0.0055(6) 0.000 0.000 0.0000(4)
N3 0.0056(5) 0.0056(5) 0.0066(9) 0.000 0.000 0.000
loop_
_atom_type_symbol
_atom_type_description
_atom_type_scat_dispersion_real
_atom_type_scat_dispersion_imag
_atom_type_scat_source
Be Be 0.0005 0.0002 'International Tables Vol C Tables 4.2.6.8 and 6.1.1.4'
N N 0.0061 0.0033 'International Tables Vol C Tables 4.2.6.8 and 6.1.1.4'
Sr Sr -1.5307 3.2498 'International Tables Vol C Tables 4.2.6.8 and 6.1.1.4'
loop_
_geom_angle_atom_site_label_1
_geom_angle_atom_site_label_2
_geom_angle_atom_site_label_3
_geom_angle
_geom_angle_site_symmetry_1
_geom_angle_site_symmetry_3
N1 Sr1 N1 180.0 . 9
N1 Sr1 N1 119.00(3) . 11
N1 Sr1 N1 61.00(3) 9 11
N1 Sr1 N1 61.00(3) . 3
N1 Sr1 N1 119.00(3) 9 3
N1 Sr1 N1 180.00(5) 11 3
N1 Sr1 N1 119.00(3) . 12
N1 Sr1 N1 61.00(3) 9 12
N1 Sr1 N1 91.74(5) 11 12
N1 Sr1 N1 88.26(5) 3 12
N1 Sr1 N1 61.00(3) . 4
N1 Sr1 N1 119.00(3) 9 4
N1 Sr1 N1 88.26(5) 11 4
N1 Sr1 N1 91.74(5) 3 4
N1 Sr1 N1 180.00(4) 12 4
N1 Sr1 N1 88.26(5) . 10
N1 Sr1 N1 91.74(5) 9 10
N1 Sr1 N1 61.00(3) 11 10
N1 Sr1 N1 119.00(3) 3 10
N1 Sr1 N1 61.00(3) 12 10
N1 Sr1 N1 119.00(3) 4 10
N1 Sr1 N1 91.74(5) . 2
N1 Sr1 N1 88.26(5) 9 2
N1 Sr1 N1 119.00(3) 11 2
N1 Sr1 N1 61.00(3) 3 2
N1 Sr1 N1 119.00(3) 12 2
N1 Sr1 N1 61.00(3) 4 2
N1 Sr1 N1 180.00(5) 10 2
N1 Sr1 N2 121.33(3) . 9
N1 Sr1 N2 58.67(3) 9 9
N1 Sr1 N2 60.34(3) 11 9
N1 Sr1 N2 119.66(3) 3 9
N1 Sr1 N2 119.66(3) 12 9
N1 Sr1 N2 60.34(3) 4 9
N1 Sr1 N2 121.33(3) 10 9
N1 Sr1 N2 58.67(3) 2 9
N1 Sr1 N2 60.34(3) . 11
N1 Sr1 N2 119.66(3) 9 11
N1 Sr1 N2 58.67(3) 11 11
N1 Sr1 N2 121.33(3) 3 11
N1 Sr1 N2 121.33(3) 12 11
N1 Sr1 N2 58.67(3) 4 11
N1 Sr1 N2 60.34(3) 10 11
N1 Sr1 N2 119.66(3) 2 11
N2 Sr1 N2 90.0 9 11
N1 Sr1 N2 119.66(3) . 3
N1 Sr1 N2 60.34(3) 9 3
N1 Sr1 N2 121.33(3) 11 3
N1 Sr1 N2 58.67(3) 3 3
N1 Sr1 N2 58.67(3) 12 3
N1 Sr1 N2 121.33(3) 4 3
N1 Sr1 N2 119.66(3) 10 3
N1 Sr1 N2 60.34(3) 2 3
N2 Sr1 N2 90.0 9 3
N2 Sr1 N2 180.00(2) 11 3
N1 Sr1 N2 58.67(3) . .
N1 Sr1 N2 121.33(3) 9 .
N1 Sr1 N2 119.66(3) 11 .
N1 Sr1 N2 60.34(3) 3 .
N1 Sr1 N2 60.34(3) 12 .
N1 Sr1 N2 119.66(3) 4 .
N1 Sr1 N2 58.67(3) 10 .
N1 Sr1 N2 121.33(3) 2 .
N2 Sr1 N2 180.0 9 .
N2 Sr1 N2 90.0 11 .
N2 Sr1 N2 90.0 3 .
N1 Be1 N1 121.16(12) 3 13
N1 Be1 N1 122.17(12) 3 .
N1 Be1 N1 103.49(10) 13 .
N1 Be1 N3 105.18(9) 3 .
N1 Be1 N3 99.19(10) 13 .
N1 Be1 N3 101.46(9) . .
N1 Be1 Be1 147.97(15) 3 13
N1 Be1 Be1 51.79(8) 13 13
N1 Be1 Be1 51.70(8) . 13
N3 Be1 Be1 106.82(12) . 13
N1 Be1 Be2 128.60(11) 3 .
N1 Be1 Be2 46.99(7) 13 .
N1 Be1 Be2 108.34(10) . .
N3 Be1 Be2 52.22(8) . .
Be1 Be1 Be2 72.77(10) 13 .
N1 Be1 Be1 50.21(9) 3 3
N1 Be1 Be1 128.31(9) 13 3
N1 Be1 Be1 123.79(7) . 3
N3 Be1 Be1 55.17(3) . 3
Be1 Be1 Be1 161.74(12) 13 3
Be2 Be1 Be1 94.93(6) . 3
N1 Be1 Be1 126.11(7) 3 4
N1 Be1 Be1 111.89(10) 13 4
N1 Be1 Be1 46.47(8) . 4
N3 Be1 Be1 55.17(3) . 4
Be1 Be1 Be1 75.19(13) 13 4
Be2 Be1 Be1 81.95(6) . 4
Be1 Be1 Be1 90.0 3 4
N1 Be1 Be3 43.76(5) 3 .
N1 Be1 Be3 98.62(9) 13 .
N1 Be1 Be3 98.88(9) . .
N3 Be1 Be3 148.92(8) . .
Be1 Be1 Be3 104.22(11) 13 .
Be2 Be1 Be3 139.71(9) . .
Be1 Be1 Be3 93.90(8) 3 .
Be1 Be1 Be3 137.29(6) 4 .
N1 Be1 Be2 99.73(9) 3 13
N1 Be1 Be2 94.07(9) 13 13
N1 Be1 Be2 38.43(6) . 13
N3 Be1 Be2 139.86(9) . 13
Be1 Be1 Be2 54.85(8) 13 13
Be2 Be1 Be2 127.62(8) . 13
Be1 Be1 Be2 135.56(5) 3 13
Be1 Be1 Be2 84.72(8) 4 13
Be3 Be1 Be2 63.31(6) . 13
N1 Be1 Be1 38.61(6) 3 15_455
N1 Be1 Be1 90.45(7) 13 15_455
N1 Be1 Be1 160.62(13) . 15_455
N3 Be1 Be1 89.31(9) . 15_455
Be1 Be1 Be1 140.22(11) 13 15_455
Be2 Be1 Be1 91.00(10) . 15_455
Be1 Be1 Be1 50.79(10) 3 15_455
Be1 Be1 Be1 139.56(10) 4 15_455
Be3 Be1 Be1 65.28(5) . 15_455
Be2 Be1 Be1 128.49(9) 13 15_455
N1 Be1 Be1 100.73(7) 3 16
N1 Be1 Be1 36.12(6) 13 16
N1 Be1 Be1 94.57(11) . 16
N3 Be1 Be1 135.23(12) . 16
Be1 Be1 Be1 54.02(11) 13 16
Be2 Be1 Be1 83.10(9) . 16
Be1 Be1 Be1 139.56(10) 3 16
Be1 Be1 Be1 129.21(10) 4 16
Be3 Be1 Be1 65.28(5) . 16
Be2 Be1 Be1 67.40(8) 13 16
Be1 Be1 Be1 88.79(2) 15_455 16
N1 Be2 N2 126.29(12) 13 13
N1 Be2 N2 105.46(10) 13 15_455
N2 Be2 N2 105.78(10) 13 15_455
N1 Be2 N3 107.60(11) 13 .
N2 Be2 N3 106.01(10) 13 .
N2 Be2 N3 103.62(10) 15_455 .
N1 Be2 Be2 127.24(7) 13 10_556
N2 Be2 Be2 52.66(6) 13 10_556
N2 Be2 Be2 54.10(6) 15_455 10_556
N3 Be2 Be2 123.71(7) . 10_556
N1 Be2 Be3 52.92(7) 13 15_455
N2 Be2 Be3 137.50(11) 13 15_455
N2 Be2 Be3 52.60(7) 15_455 15_455
N3 Be2 Be3 114.22(9) . 15_455
Be2 Be2 Be3 92.19(7) 10_556 15_455
N1 Be2 Be2 113.06(10) 13 3
N2 Be2 Be2 120.54(7) 13 3
N2 Be2 Be2 49.90(8) 15_455 3
N3 Be2 Be2 53.97(4) . 3
Be2 Be2 Be2 90.0 10_556 3
Be3 Be2 Be2 76.27(9) 15_455 3
N1 Be2 Be2 133.88(9) 13 4
N2 Be2 Be2 52.30(8) 13 4
N2 Be2 Be2 119.42(7) 15_455 4
N3 Be2 Be2 53.97(4) . 4
Be2 Be2 Be2 90.0 10_556 4
Be3 Be2 Be2 166.09(9) 15_455 4
Be2 Be2 Be2 90.0 3 4
N1 Be2 Be1 50.78(7) 13 .
N2 Be2 Be1 136.75(10) 13 .
N2 Be2 Be1 116.53(10) 15_455 .
N3 Be2 Be1 56.84(8) . .
Be2 Be2 Be1 170.55(6) 10_556 .
Be3 Be2 Be1 79.73(9) 15_455 .
Be2 Be2 Be1 83.35(7) 3 .
Be2 Be2 Be1 96.69(6) 4 .
N1 Be2 Be1 41.24(6) 13 13
N2 Be2 Be1 95.89(9) 13 13
N2 Be2 Be1 146.27(10) 15_455 13
N3 Be2 Be1 94.58(9) . 13
Be2 Be2 Be1 133.95(5) 10_556 13
Be3 Be2 Be1 94.09(8) 15_455 13
Be2 Be2 Be1 135.73(5) 3 13
Be2 Be2 Be1 94.26(8) 4 13
Be1 Be2 Be1 52.38(8) . 13
N1 Be2 Be3 95.86(8) 13 13
N2 Be2 Be3 40.68(7) 13 13
N2 Be2 Be3 145.86(10) 15_455 13
N3 Be2 Be3 94.67(7) . 13
Be2 Be2 Be3 91.77(6) 10_556 13
Be3 Be2 Be3 141.74(7) 15_455 13
Be2 Be2 Be3 141.77(7) 3 13
Be2 Be2 Be3 51.83(7) 4 13
Be1 Be2 Be3 97.62(9) . 13
Be1 Be2 Be3 57.45(6) 13 13
N1 Be2 Sr1 62.77(6) 13 5
N2 Be2 Sr1 71.23(7) 13 5
N2 Be2 Sr1 96.46(8) 15_455 5
N3 Be2 Sr1 159.61(8) . 5
Be2 Be2 Sr1 71.52(3) 10_556 5
Be3 Be2 Sr1 75.49(5) 15_455 5
Be2 Be2 Sr1 145.37(8) 3 5
Be2 Be2 Sr1 118.15(8) 4 5
Be1 Be2 Sr1 110.66(7) . 5
Be1 Be2 Sr1 66.15(5) 13 5
Be3 Be2 Sr1 69.82(4) 13 5
N1 Be3 N1 118.27(14) 4_565 3
N1 Be3 N2 99.27(6) 4_565 .
N1 Be3 N2 118.77(6) 3 .
N1 Be3 N2 118.76(6) 4_565 9_565
N1 Be3 N2 99.27(6) 3 9_565
N2 Be3 N2 102.49(13) . 9_565
N1 Be3 Be2 135.53(9) 4_565 15_455
N1 Be3 Be2 47.59(5) 3 15_455
N2 Be3 Be2 124.86(10) . 15_455
N2 Be3 Be2 51.74(6) 9_565 15_455
N1 Be3 Be2 47.59(5) 4_565 16
N1 Be3 Be2 135.53(9) 3 16
N2 Be3 Be2 51.74(6) . 16
N2 Be3 Be2 124.86(10) 9_565 16
Be2 Be3 Be2 175.63(14) 15_455 16
N1 Be3 Be3 120.86(7) 4_565 9_565
N1 Be3 Be3 120.86(7) 3 9_565
N2 Be3 Be3 51.24(6) . 9_565
N2 Be3 Be3 51.24(6) 9_565 9_565
Be2 Be3 Be3 87.82(7) 15_455 9_565
Be2 Be3 Be3 87.82(7) 16 9_565
N1 Be3 Be1 39.83(6) 4_565 2_565
N1 Be3 Be1 94.33(10) 3 2_565
N2 Be3 Be1 138.40(6) . 2_565
N2 Be3 Be1 95.57(6) 9_565 2_565
Be2 Be3 Be1 95.72(7) 15_455 2_565
Be2 Be3 Be1 87.24(7) 16 2_565
Be3 Be3 Be1 132.44(6) 9_565 2_565
N1 Be3 Be1 94.33(10) 4_565 .
N1 Be3 Be1 39.83(6) 3 .
N2 Be3 Be1 95.57(6) . .
N2 Be3 Be1 138.40(6) 9_565 .
Be2 Be3 Be1 87.24(7) 15_455 .
Be2 Be3 Be1 95.72(7) 16 .
Be3 Be3 Be1 132.44(6) 9_565 .
Be1 Be3 Be1 95.12(11) 2_565 .
N1 Be3 Be2 92.69(5) 4_565 14_455
N1 Be3 Be2 89.13(5) 3 14_455
N2 Be3 Be2 138.05(11) . 14_455
N2 Be3 Be2 38.52(5) 9_565 14_455
Be2 Be3 Be2 51.90(7) 15_455 14_455
Be2 Be3 Be2 127.93(7) 16 14_455
Be3 Be3 Be2 88.23(6) 9_565 14_455
Be1 Be3 Be2 59.24(5) 2_565 14_455
Be1 Be3 Be2 123.58(8) . 14_455
N1 Be3 Be2 89.13(5) 4_565 13
N1 Be3 Be2 92.69(5) 3 13
N2 Be3 Be2 38.52(5) . 13
N2 Be3 Be2 138.05(11) 9_565 13
Be2 Be3 Be2 127.93(7) 15_455 13
Be2 Be3 Be2 51.90(7) 16 13
Be3 Be3 Be2 88.23(6) 9_565 13
Be1 Be3 Be2 123.58(8) 2_565 13
Be1 Be3 Be2 59.24(5) . 13
Be2 Be3 Be2 176.47(12) 14_455 13
N1 Be3 Sr1 150.32(5) 4_565 .
N1 Be3 Sr1 57.62(4) 3 .
N2 Be3 Sr1 65.78(5) . .
N2 Be3 Sr1 90.20(7) 9_565 .
Be2 Be3 Sr1 66.73(5) 15_455 .
Be2 Be3 Sr1 111.73(5) 16 .
Be3 Be3 Sr1 71.04(4) 9_565 .
Be1 Be3 Sr1 151.95(7) 2_565 .
Be1 Be3 Sr1 63.63(4) . .
Be2 Be3 Sr1 115.76(4) 14_455 .
Be2 Be3 Sr1 62.96(4) 13 .
Be2 N1 Be1 172.31(10) 13 4
Be2 N1 Be1 82.24(9) 13 13
Be1 N1 Be1 105.27(8) 4 13
Be2 N1 Be1 100.33(10) 13 .
Be1 N1 Be1 83.31(12) 4 .
Be1 N1 Be1 76.51(10) 13 .
Be2 N1 Be3 79.50(8) 13 3_655
Be1 N1 Be3 96.41(9) 4 3_655
Be1 N1 Be3 107.18(9) 13 3_655
Be1 N1 Be3 176.20(10) . 3_655
Be2 N1 Sr1 87.22(7) 13 .
Be1 N1 Sr1 86.37(7) 4 .
Be1 N1 Sr1 156.35(8) 13 .
Be1 N1 Sr1 84.70(7) . .
Be3 N1 Sr1 91.50(7) 3_655 .
Be2 N2 Be2 74.68(12) 13 6_554
Be2 N2 Be2 77.79(11) 13 16
Be2 N2 Be2 120.00(13) 6_554 16
Be2 N2 Be2 120.00(13) 13 7_554
Be2 N2 Be2 77.79(11) 6_554 7_554
Be2 N2 Be2 71.80(12) 16 7_554
Be2 N2 Be3 100.80(8) 13 .
Be2 N2 Be3 161.23(11) 6_554 .
Be2 N2 Be3 75.66(7) 16 .
Be2 N2 Be3 119.11(10) 7_554 .
Be2 N2 Be3 161.23(11) 13 9_565
Be2 N2 Be3 100.80(8) 6_554 9_565
Be2 N2 Be3 119.11(10) 16 9_565
Be2 N2 Be3 75.66(7) 7_554 9_565
Be3 N2 Be3 77.51(13) . 9_565
Be2 N2 Sr1 78.04(7) 13 .
Be2 N2 Sr1 78.04(7) 6_554 .
Be2 N2 Sr1 144.04(6) 16 .
Be2 N2 Sr1 144.04(6) 7_554 .
Be3 N2 Sr1 83.20(5) . .
Be3 N2 Sr1 83.21(5) 9_565 .
Be2 N3 Be2 72.06(7) 4 2
Be2 N3 Be2 112.59(14) 4 3
Be2 N3 Be2 72.06(7) 2 3
Be2 N3 Be2 72.06(7) 4 .
Be2 N3 Be2 112.59(14) 2 .
Be2 N3 Be2 72.06(7) 3 .
Be2 N3 Be1 118.78(7) 4 .
Be2 N3 Be1 168.86(7) 2 .
Be2 N3 Be1 99.96(7) 3 .
Be2 N3 Be1 70.93(7) . .
Be2 N3 Be1 99.96(7) 4 2
Be2 N3 Be1 70.93(7) 2 2
Be2 N3 Be1 118.78(7) 3 2
Be2 N3 Be1 168.86(7) . 2
Be1 N3 Be1 107.73(14) . 2
Be2 N3 Be1 168.86(7) 4 3
Be2 N3 Be1 99.96(7) 2 3
Be2 N3 Be1 70.93(7) 3 3
Be2 N3 Be1 118.78(7) . 3
Be1 N3 Be1 69.65(7) . 3
Be1 N3 Be1 69.65(7) 2 3
Be2 N3 Be1 70.93(7) 4 4
Be2 N3 Be1 118.78(7) 2 4
Be2 N3 Be1 168.86(7) 3 4
Be2 N3 Be1 99.96(7) . 4
Be1 N3 Be1 69.65(7) . 4
Be1 N3 Be1 69.65(7) 2 4
Be1 N3 Be1 107.73(14) 3 4
loop_
_geom_bond_atom_site_label_1
_geom_bond_atom_site_label_2
_geom_bond_distance
_geom_bond_site_symmetry_2
Sr1 N1 2.9143(12) .
Sr1 N1 2.9143(12) 9
Sr1 N1 2.9143(12) 11
Sr1 N1 2.9143(12) 3
Sr1 N1 2.9143(12) 12
Sr1 N1 2.9143(12) 4
Sr1 N1 2.9143(12) 10
Sr1 N1 2.9143(12) 2
Sr1 N2 3.1682(18) 9
Sr1 N2 3.1682(18) 11
Sr1 N2 3.1682(18) 3
Sr1 N2 3.1682(18) .
Be1 N1 1.6405(19) 3
Be1 N1 1.7366(19) 13
Be1 N1 1.7386(19) .
Be1 N3 1.967(2) .
Be1 Be1 2.152(3) 13
Be1 Be2 2.221(2) .
Be1 Be1 2.247(2) 3
Be1 Be1 2.247(2) 4
Be1 Be3 2.545(2) .
Be1 Be2 2.595(2) 13
Be1 Be1 2.685(2) 15_455
Be1 Be1 2.685(2) 16
Be2 N1 1.6391(19) 13
Be2 N2 1.710(2) 13
Be2 N2 1.769(2) 15_455
Be2 N3 1.857(2) .
Be2 Be2 2.075(3) 10_556
Be2 Be3 2.1829(17) 15_455
Be2 Be2 2.185(2) 3
Be2 Be2 2.185(2) 4
Be2 Be3 2.6975(18) 13
Be3 N1 1.7712(16) 4_565
Be3 N1 1.7712(16) 3
Be3 N2 1.7900(18) .
Be3 N2 1.7900(18) 9_565
Be3 Be3 2.241(5) 9_565
